MODEL 1
REMARK VINA RESULT: -7.964430081      0.000      0.000
REMARK  15 active torsions:
REMARK  status: ('A' for Active; 'I' for Inactive)
REMARK    1  A    between atoms: C2_2  and  O1_3 
REMARK    2  A    between atoms: O1_3  and  C3_4 
REMARK    3  A    between atoms: C3_4  and  C4_5 
REMARK    4  A    between atoms: C4_5  and  N1_6 
REMARK    5  A    between atoms: C4_5  and  C10_15 
REMARK       I    between atoms: N1_6  and  C5_8 
REMARK    6  A    between atoms: C5_8  and  O3_10 
REMARK    7  A    between atoms: O3_10  and  C6_11 
REMARK       I    between atoms: C10_15  and  N2_17 
REMARK    8  A    between atoms: C13_20  and  O5_21 
REMARK    9  A    between atoms: O5_21  and  C14_22 
REMARK   10  A    between atoms: C16_24  and  C17_25 
REMARK       I    between atoms: C17_25  and  N3_27 
REMARK   11  A    between atoms: N3_27  and  C18_29 
REMARK   12  A    between atoms: C18_29  and  C19_30 
REMARK   13  A    between atoms: C19_30  and  C20_31 
REMARK   14  A    between atoms: C20_31  and  C21_32 
REMARK       I    between atoms: C21_32  and  N4_34 
REMARK   15  A    between atoms: N4_34  and  C22_36 
ROOT
HETATM    1  C10 UNL     1      14.073  22.020  15.467  1.00  0.00     0.245 C 
HETATM    2  O4  UNL     1      13.289  22.078  14.478  1.00  0.00    -0.271 OA
HETATM    3  N2  UNL     1      13.596  21.378  16.649  1.00  0.00    -0.334 N 
HETATM    4  C11 UNL     1      14.222  21.162  17.906  1.00  0.00     0.129 C 
HETATM    5  C12 UNL     1      13.118  21.369  18.905  1.00  0.00     0.054 C 
HETATM    6  C13 UNL     1      12.012  20.503  18.202  1.00  0.00     0.155 C 
HETATM    7  C16 UNL     1      12.264  20.775  16.757  1.00  0.00     0.208 C 
ENDROOT
BRANCH   1   8
HETATM    8  C4  UNL     1      15.374  22.618  15.277  1.00  0.00     0.202 C 
BRANCH   8   9
HETATM    9  C3  UNL     1      15.751  23.033  13.892  1.00  0.00     0.202 C 
BRANCH   9  10
HETATM   10  O1  UNL     1      17.114  22.821  13.639  1.00  0.00    -0.389 OA
BRANCH  10  11
HETATM   11  C2  UNL     1      17.581  23.973  12.973  1.00  0.00     0.163 C 
HETATM   12  C1  UNL     1      16.462  24.768  12.380  1.00  0.00     0.033 C 
ENDBRANCH  10  11
ENDBRANCH   9  10
ENDBRANCH   8   9
BRANCH   8  13
HETATM   13  N1  UNL     1      15.513  23.788  16.121  1.00  0.00    -0.321 N 
HETATM   14  C5  UNL     1      16.634  23.968  16.973  1.00  0.00     0.362 C 
HETATM   15  O2  UNL     1      17.528  23.078  16.991  1.00  0.00    -0.238 OA
ATOM     16  H1  UNL     1      14.786  24.502  16.103  1.00  0.00     0.165 HD
BRANCH  14  17
HETATM   17  O3  UNL     1      16.787  25.060  17.775  1.00  0.00    -0.294 OA
BRANCH  17  18
HETATM   18  C6  UNL     1      16.010  25.359  18.916  1.00  0.00     0.061 C 
HETATM   19  C7  UNL     1      16.849  26.220  19.834  1.00  0.00     0.046 C 
HETATM   20  C8  UNL     1      14.772  26.154  18.529  1.00  0.00     0.046 C 
HETATM   21  C9  UNL     1      15.551  24.152  19.667  1.00  0.00     0.046 C 
ENDBRANCH  17  18
ENDBRANCH  14  17
ENDBRANCH   8  13
ENDBRANCH   1   8
BRANCH   7  22
HETATM   22  C17 UNL     1      12.164  19.576  15.891  1.00  0.00     0.243 C 
HETATM   23  O6  UNL     1      12.503  18.472  16.377  1.00  0.00    -0.271 OA
HETATM   24  N3  UNL     1      11.715  19.588  14.565  1.00  0.00    -0.359 N 
ATOM     25  H3  UNL     1      11.442  20.486  14.166  1.00  0.00     0.162 HD
BRANCH  24  26
HETATM   26  C18 UNL     1      11.613  18.418  13.722  1.00  0.00     0.123 C 
BRANCH  26  27
HETATM   27  C19 UNL     1      10.269  18.186  13.125  1.00  0.00     0.029 C 
BRANCH  27  28
HETATM   28  C20 UNL     1       9.208  18.560  14.125  1.00  0.00     0.104 C 
BRANCH  28  29
HETATM   29  C21 UNL     1       8.533  17.437  14.766  1.00  0.00     0.218 C 
HETATM   30  O7  UNL     1       9.119  16.364  15.029  1.00  0.00    -0.274 OA
HETATM   31  N4  UNL     1       7.145  17.488  15.140  1.00  0.00    -0.353 N 
ATOM     32  H4  UNL     1       6.619  18.340  14.945  1.00  0.00     0.163 HD
BRANCH  31  33
HETATM   33  C22 UNL     1       6.468  16.393  15.773  1.00  0.00     0.022 C 
HETATM   34  C23 UNL     1       6.598  15.136  14.958  1.00  0.00     0.037 C 
HETATM   35  C24 UNL     1       4.976  16.704  15.913  1.00  0.00     0.037 C 
HETATM   36  C25 UNL     1       7.038  16.164  17.148  1.00  0.00     0.037 C 
ENDBRANCH  31  33
ENDBRANCH  28  29
ENDBRANCH  27  28
ENDBRANCH  26  27
ENDBRANCH  24  26
ENDBRANCH   7  22
BRANCH   6  37
HETATM   37  O5  UNL     1      10.786  21.010  18.585  1.00  0.00    -0.384 OA
BRANCH  37  38
HETATM   38  C14 UNL     1      10.799  22.085  19.420  1.00  0.00     0.163 C 
HETATM   39  C15 UNL     1       9.787  22.074  20.503  1.00  0.00     0.033 C 
ENDBRANCH  37  38
ENDBRANCH   6  37
TORSDOF 15
ENDMDL
MODEL 2
REMARK VINA RESULT: -7.921333510      2.188      9.359
REMARK  15 active torsions:
REMARK  status: ('A' for Active; 'I' for Inactive)
REMARK    1  A    between atoms: C2_2  and  O1_3 
REMARK    2  A    between atoms: O1_3  and  C3_4 
REMARK    3  A    between atoms: C3_4  and  C4_5 
REMARK    4  A    between atoms: C4_5  and  N1_6 
REMARK    5  A    between atoms: C4_5  and  C10_15 
REMARK       I    between atoms: N1_6  and  C5_8 
REMARK    6  A    between atoms: C5_8  and  O3_10 
REMARK    7  A    between atoms: O3_10  and  C6_11 
REMARK       I    between atoms: C10_15  and  N2_17 
REMARK    8  A    between atoms: C13_20  and  O5_21 
REMARK    9  A    between atoms: O5_21  and  C14_22 
REMARK   10  A    between atoms: C16_24  and  C17_25 
REMARK       I    between atoms: C17_25  and  N3_27 
REMARK   11  A    between atoms: N3_27  and  C18_29 
REMARK   12  A    between atoms: C18_29  and  C19_30 
REMARK   13  A    between atoms: C19_30  and  C20_31 
REMARK   14  A    between atoms: C20_31  and  C21_32 
REMARK       I    between atoms: C21_32  and  N4_34 
REMARK   15  A    between atoms: N4_34  and  C22_36 
ROOT
HETATM    1  C10 UNL     1       9.633  18.809  15.114  1.00  0.00     0.245 C 
HETATM    2  O4  UNL     1       8.816  19.761  14.967  1.00  0.00    -0.271 OA
HETATM    3  N2  UNL     1      11.025  19.123  15.077  1.00  0.00    -0.334 N 
HETATM    4  C11 UNL     1      12.169  18.290  15.201  1.00  0.00     0.129 C 
HETATM    5  C12 UNL     1      13.146  18.858  14.211  1.00  0.00     0.054 C 
HETATM    6  C13 UNL     1      12.995  20.375  14.591  1.00  0.00     0.155 C 
HETATM    7  C16 UNL     1      11.540  20.484  14.900  1.00  0.00     0.208 C 
ENDROOT
BRANCH   1   8
HETATM    8  C4  UNL     1       9.050  17.501  15.303  1.00  0.00     0.202 C 
BRANCH   8   9
HETATM    9  C3  UNL     1       9.614  16.368  14.507  1.00  0.00     0.202 C 
BRANCH   9  10
HETATM   10  O1  UNL     1       8.952  15.163  14.778  1.00  0.00    -0.389 OA
BRANCH  10  11
HETATM   11  C2  UNL     1       7.867  15.091  13.880  1.00  0.00     0.163 C 
HETATM   12  C1  UNL     1       6.689  14.393  14.481  1.00  0.00     0.033 C 
ENDBRANCH  10  11
ENDBRANCH   9  10
ENDBRANCH   8   9
BRANCH   8  13
HETATM   13  N1  UNL     1       9.127  17.116  16.697  1.00  0.00    -0.321 N 
HETATM   14  C5  UNL     1       7.965  16.895  17.480  1.00  0.00     0.362 C 
HETATM   15  O2  UNL     1       6.835  17.043  16.937  1.00  0.00    -0.238 OA
ATOM     16  H1  UNL     1      10.044  17.001  17.130  1.00  0.00     0.165 HD
BRANCH  14  17
HETATM   17  O3  UNL     1       8.012  16.532  18.793  1.00  0.00    -0.294 OA
BRANCH  17  18
HETATM   18  C6  UNL     1       7.920  17.412  19.894  1.00  0.00     0.061 C 
HETATM   19  C7  UNL     1       8.140  16.603  21.153  1.00  0.00     0.046 C 
HETATM   20  C8  UNL     1       9.006  18.475  19.824  1.00  0.00     0.046 C 
HETATM   21  C9  UNL     1       6.608  18.119  19.994  1.00  0.00     0.046 C 
ENDBRANCH  17  18
ENDBRANCH  14  17
ENDBRANCH   8  13
ENDBRANCH   1   8
BRANCH   7  22
HETATM   22  C17 UNL     1      11.236  21.315  16.090  1.00  0.00     0.243 C 
HETATM   23  O6  UNL     1      10.883  22.501  15.900  1.00  0.00    -0.271 OA
HETATM   24  N3  UNL     1      11.314  20.866  17.413  1.00  0.00    -0.359 N 
ATOM     25  H3  UNL     1      11.604  19.901  17.570  1.00  0.00     0.162 HD
BRANCH  24  26
HETATM   26  C18 UNL     1      11.012  21.674  18.573  1.00  0.00     0.123 C 
BRANCH  26  27
HETATM   27  C19 UNL     1      12.132  21.833  19.541  1.00  0.00     0.029 C 
BRANCH  27  28
HETATM   28  C20 UNL     1      13.438  21.590  18.835  1.00  0.00     0.104 C 
BRANCH  28  29
HETATM   29  C21 UNL     1      14.205  22.789  18.516  1.00  0.00     0.218 C 
HETATM   30  O7  UNL     1      14.249  23.270  17.362  1.00  0.00    -0.274 OA
HETATM   31  N4  UNL     1      14.966  23.501  19.507  1.00  0.00    -0.353 N 
ATOM     32  H4  UNL     1      14.967  23.150  20.465  1.00  0.00     0.163 HD
BRANCH  31  33
HETATM   33  C22 UNL     1      15.723  24.683  19.208  1.00  0.00     0.022 C 
HETATM   34  C23 UNL     1      14.847  25.743  18.600  1.00  0.00     0.037 C 
HETATM   35  C24 UNL     1      16.830  24.361  18.201  1.00  0.00     0.037 C 
HETATM   36  C25 UNL     1      16.361  25.213  20.464  1.00  0.00     0.037 C 
ENDBRANCH  31  33
ENDBRANCH  28  29
ENDBRANCH  27  28
ENDBRANCH  26  27
ENDBRANCH  24  26
ENDBRANCH   7  22
BRANCH   6  37
HETATM   37  O5  UNL     1      13.311  21.115  13.468  1.00  0.00    -0.384 OA
BRANCH  37  38
HETATM   38  C14 UNL     1      14.279  22.061  13.608  1.00  0.00     0.163 C 
HETATM   39  C15 UNL     1      15.470  21.656  14.392  1.00  0.00     0.033 C 
ENDBRANCH  37  38
ENDBRANCH   6  37
TORSDOF 15
ENDMDL
MODEL 3
REMARK VINA RESULT: -7.827456049      0.723      1.045
REMARK  15 active torsions:
REMARK  status: ('A' for Active; 'I' for Inactive)
REMARK    1  A    between atoms: C2_2  and  O1_3 
REMARK    2  A    between atoms: O1_3  and  C3_4 
REMARK    3  A    between atoms: C3_4  and  C4_5 
REMARK    4  A    between atoms: C4_5  and  N1_6 
REMARK    5  A    between atoms: C4_5  and  C10_15 
REMARK       I    between atoms: N1_6  and  C5_8 
REMARK    6  A    between atoms: C5_8  and  O3_10 
REMARK    7  A    between atoms: O3_10  and  C6_11 
REMARK       I    between atoms: C10_15  and  N2_17 
REMARK    8  A    between atoms: C13_20  and  O5_21 
REMARK    9  A    between atoms: O5_21  and  C14_22 
REMARK   10  A    between atoms: C16_24  and  C17_25 
REMARK       I    between atoms: C17_25  and  N3_27 
REMARK   11  A    between atoms: N3_27  and  C18_29 
REMARK   12  A    between atoms: C18_29  and  C19_30 
REMARK   13  A    between atoms: C19_30  and  C20_31 
REMARK   14  A    between atoms: C20_31  and  C21_32 
REMARK       I    between atoms: C21_32  and  N4_34 
REMARK   15  A    between atoms: N4_34  and  C22_36 
ROOT
HETATM    1  C10 UNL     1      14.069  21.982  15.677  1.00  0.00     0.245 C 
HETATM    2  O4  UNL     1      13.314  21.855  14.671  1.00  0.00    -0.271 OA
HETATM    3  N2  UNL     1      13.578  21.514  16.932  1.00  0.00    -0.334 N 
HETATM    4  C11 UNL     1      14.172  21.521  18.223  1.00  0.00     0.129 C 
HETATM    5  C12 UNL     1      13.032  21.837  19.150  1.00  0.00     0.054 C 
HETATM    6  C13 UNL     1      11.979  20.830  18.563  1.00  0.00     0.155 C 
HETATM    7  C16 UNL     1      12.265  20.883  17.100  1.00  0.00     0.208 C 
ENDROOT
BRANCH   1   8
HETATM    8  C4  UNL     1      15.353  22.595  15.428  1.00  0.00     0.202 C 
BRANCH   8   9
HETATM    9  C3  UNL     1      15.682  22.970  14.019  1.00  0.00     0.202 C 
BRANCH   9  10
HETATM   10  O1  UNL     1      17.034  22.747  13.724  1.00  0.00    -0.389 OA
BRANCH  10  11
HETATM   11  C2  UNL     1      17.451  23.826  12.917  1.00  0.00     0.163 C 
HETATM   12  C1  UNL     1      16.297  24.668  12.472  1.00  0.00     0.033 C 
ENDBRANCH  10  11
ENDBRANCH   9  10
ENDBRANCH   8   9
BRANCH   8  13
HETATM   13  N1  UNL     1      15.499  23.793  16.229  1.00  0.00    -0.321 N 
HETATM   14  C5  UNL     1      16.660  24.039  17.006  1.00  0.00     0.362 C 
HETATM   15  O2  UNL     1      17.586  23.182  16.995  1.00  0.00    -0.238 OA
ATOM     16  H1  UNL     1      14.745  24.480  16.235  1.00  0.00     0.165 HD
BRANCH  14  17
HETATM   17  O3  UNL     1      16.820  25.159  17.767  1.00  0.00    -0.294 OA
BRANCH  17  18
HETATM   18  C6  UNL     1      16.116  25.455  18.955  1.00  0.00     0.061 C 
HETATM   19  C7  UNL     1      16.950  26.429  19.756  1.00  0.00     0.046 C 
HETATM   20  C8  UNL     1      14.787  26.123  18.639  1.00  0.00     0.046 C 
HETATM   21  C9  UNL     1      15.826  24.256  19.799  1.00  0.00     0.046 C 
ENDBRANCH  17  18
ENDBRANCH  14  17
ENDBRANCH   8  13
ENDBRANCH   1   8
BRANCH   7  22
HETATM   22  C17 UNL     1      12.234  19.561  16.430  1.00  0.00     0.243 C 
HETATM   23  O6  UNL     1      12.598  18.561  17.090  1.00  0.00    -0.271 OA
HETATM   24  N3  UNL     1      11.824  19.349  15.109  1.00  0.00    -0.359 N 
ATOM     25  H3  UNL     1      11.530  20.162  14.567  1.00  0.00     0.162 HD
BRANCH  24  26
HETATM   26  C18 UNL     1      11.788  18.060  14.457  1.00  0.00     0.123 C 
BRANCH  26  27
HETATM   27  C19 UNL     1      11.004  18.013  13.192  1.00  0.00     0.029 C 
BRANCH  27  28
HETATM   28  C20 UNL     1       9.548  18.241  13.499  1.00  0.00     0.104 C 
BRANCH  28  29
HETATM   29  C21 UNL     1       8.858  17.116  14.119  1.00  0.00     0.218 C 
HETATM   30  O7  UNL     1       9.334  15.959  14.127  1.00  0.00    -0.274 OA
HETATM   31  N4  UNL     1       7.582  17.260  14.765  1.00  0.00    -0.353 N 
ATOM     32  H4  UNL     1       7.147  18.183  14.785  1.00  0.00     0.163 HD
BRANCH  31  33
HETATM   33  C22 UNL     1       6.892  16.163  15.381  1.00  0.00     0.022 C 
HETATM   34  C23 UNL     1       5.470  16.533  15.701  1.00  0.00     0.037 C 
HETATM   35  C24 UNL     1       7.578  15.778  16.695  1.00  0.00     0.037 C 
HETATM   36  C25 UNL     1       6.909  14.967  14.467  1.00  0.00     0.037 C 
ENDBRANCH  31  33
ENDBRANCH  28  29
ENDBRANCH  27  28
ENDBRANCH  26  27
ENDBRANCH  24  26
ENDBRANCH   7  22
BRANCH   6  37
HETATM   37  O5  UNL     1      10.725  21.342  18.832  1.00  0.00    -0.384 OA
BRANCH  37  38
HETATM   38  C14 UNL     1       9.912  20.594  19.627  1.00  0.00     0.163 C 
HETATM   39  C15 UNL     1      10.461  19.287  20.062  1.00  0.00     0.033 C 
ENDBRANCH  37  38
ENDBRANCH   6  37
TORSDOF 15
ENDMDL
MODEL 4
REMARK VINA RESULT: -7.745969690      3.284      6.772
REMARK  15 active torsions:
REMARK  status: ('A' for Active; 'I' for Inactive)
REMARK    1  A    between atoms: C2_2  and  O1_3 
REMARK    2  A    between atoms: O1_3  and  C3_4 
REMARK    3  A    between atoms: C3_4  and  C4_5 
REMARK    4  A    between atoms: C4_5  and  N1_6 
REMARK    5  A    between atoms: C4_5  and  C10_15 
REMARK       I    between atoms: N1_6  and  C5_8 
REMARK    6  A    between atoms: C5_8  and  O3_10 
REMARK    7  A    between atoms: O3_10  and  C6_11 
REMARK       I    between atoms: C10_15  and  N2_17 
REMARK    8  A    between atoms: C13_20  and  O5_21 
REMARK    9  A    between atoms: O5_21  and  C14_22 
REMARK   10  A    between atoms: C16_24  and  C17_25 
REMARK       I    between atoms: C17_25  and  N3_27 
REMARK   11  A    between atoms: N3_27  and  C18_29 
REMARK   12  A    between atoms: C18_29  and  C19_30 
REMARK   13  A    between atoms: C19_30  and  C20_31 
REMARK   14  A    between atoms: C20_31  and  C21_32 
REMARK       I    between atoms: C21_32  and  N4_34 
REMARK   15  A    between atoms: N4_34  and  C22_36 
ROOT
HETATM    1  C10 UNL     1      10.614  18.976  17.249  1.00  0.00     0.245 C 
HETATM    2  O4  UNL     1      10.946  18.046  18.037  1.00  0.00    -0.271 OA
HETATM    3  N2  UNL     1       9.704  18.656  16.197  1.00  0.00    -0.334 N 
HETATM    4  C11 UNL     1       9.156  19.464  15.165  1.00  0.00     0.129 C 
HETATM    5  C12 UNL     1       9.131  18.559  13.965  1.00  0.00     0.054 C 
HETATM    6  C13 UNL     1       8.506  17.292  14.652  1.00  0.00     0.155 C 
HETATM    7  C16 UNL     1       9.131  17.320  16.005  1.00  0.00     0.208 C 
ENDROOT
BRANCH   1   8
HETATM    8  C4  UNL     1      11.204  20.268  17.514  1.00  0.00     0.202 C 
BRANCH   8   9
HETATM    9  C3  UNL     1      11.831  20.482  18.854  1.00  0.00     0.202 C 
BRANCH   9  10
HETATM   10  O1  UNL     1      11.717  21.815  19.274  1.00  0.00    -0.389 OA
BRANCH  10  11
HETATM   11  C2  UNL     1      10.337  22.085  19.378  1.00  0.00     0.163 C 
HETATM   12  C1  UNL     1       9.852  21.976  20.789  1.00  0.00     0.033 C 
ENDBRANCH  10  11
ENDBRANCH   9  10
ENDBRANCH   8   9
BRANCH   8  13
HETATM   13  N1  UNL     1      12.217  20.567  16.522  1.00  0.00    -0.321 N 
HETATM   14  C5  UNL     1      12.159  21.736  15.720  1.00  0.00     0.362 C 
HETATM   15  O2  UNL     1      11.192  22.531  15.882  1.00  0.00    -0.238 OA
ATOM     16  H1  UNL     1      12.994  19.918  16.396  1.00  0.00     0.165 HD
BRANCH  14  17
HETATM   17  O3  UNL     1      13.100  22.039  14.782  1.00  0.00    -0.294 OA
BRANCH  17  18
HETATM   18  C6  UNL     1      13.656  21.133  13.851  1.00  0.00     0.061 C 
HETATM   19  C7  UNL     1      13.990  21.907  12.595  1.00  0.00     0.046 C 
HETATM   20  C8  UNL     1      14.946  20.534  14.390  1.00  0.00     0.046 C 
HETATM   21  C9  UNL     1      12.749  20.000  13.497  1.00  0.00     0.046 C 
ENDBRANCH  17  18
ENDBRANCH  14  17
ENDBRANCH   8  13
ENDBRANCH   1   8
BRANCH   7  22
HETATM   22  C17 UNL     1       8.197  16.991  17.109  1.00  0.00     0.243 C 
HETATM   23  O6  UNL     1       6.972  17.148  16.905  1.00  0.00    -0.271 OA
HETATM   24  N3  UNL     1       8.589  16.517  18.367  1.00  0.00    -0.359 N 
ATOM     25  H3  UNL     1       9.586  16.393  18.537  1.00  0.00     0.162 HD
BRANCH  24  26
HETATM   26  C18 UNL     1       7.678  16.191  19.441  1.00  0.00     0.123 C 
BRANCH  26  27
HETATM   27  C19 UNL     1       7.718  17.118  20.605  1.00  0.00     0.029 C 
BRANCH  27  28
HETATM   28  C20 UNL     1       7.384  18.511  20.146  1.00  0.00     0.104 C 
BRANCH  28  29
HETATM   29  C21 UNL     1       5.960  18.823  20.090  1.00  0.00     0.218 C 
HETATM   30  O7  UNL     1       5.348  19.341  21.050  1.00  0.00    -0.274 OA
HETATM   31  N4  UNL     1       5.161  18.556  18.924  1.00  0.00    -0.353 N 
ATOM     32  H4  UNL     1       5.610  18.132  18.112  1.00  0.00     0.163 HD
BRANCH  31  33
HETATM   33  C22 UNL     1       3.761  18.861  18.853  1.00  0.00     0.022 C 
HETATM   34  C23 UNL     1       3.006  18.187  19.966  1.00  0.00     0.037 C 
HETATM   35  C24 UNL     1       3.178  18.361  17.528  1.00  0.00     0.037 C 
HETATM   36  C25 UNL     1       3.555  20.350  18.932  1.00  0.00     0.037 C 
ENDBRANCH  31  33
ENDBRANCH  28  29
ENDBRANCH  27  28
ENDBRANCH  26  27
ENDBRANCH  24  26
ENDBRANCH   7  22
BRANCH   6  37
HETATM   37  O5  UNL     1       8.932  16.186  13.942  1.00  0.00    -0.384 OA
BRANCH  37  38
HETATM   38  C14 UNL     1       7.967  15.384  13.417  1.00  0.00     0.163 C 
HETATM   39  C15 UNL     1       7.150  14.630  14.397  1.00  0.00     0.033 C 
ENDBRANCH  37  38
ENDBRANCH   6  37
TORSDOF 15
ENDMDL
MODEL 5
REMARK VINA RESULT: -7.742752016      2.395      7.963
REMARK  15 active torsions:
REMARK  status: ('A' for Active; 'I' for Inactive)
REMARK    1  A    between atoms: C2_2  and  O1_3 
REMARK    2  A    between atoms: O1_3  and  C3_4 
REMARK    3  A    between atoms: C3_4  and  C4_5 
REMARK    4  A    between atoms: C4_5  and  N1_6 
REMARK    5  A    between atoms: C4_5  and  C10_15 
REMARK       I    between atoms: N1_6  and  C5_8 
REMARK    6  A    between atoms: C5_8  and  O3_10 
REMARK    7  A    between atoms: O3_10  and  C6_11 
REMARK       I    between atoms: C10_15  and  N2_17 
REMARK    8  A    between atoms: C13_20  and  O5_21 
REMARK    9  A    between atoms: O5_21  and  C14_22 
REMARK   10  A    between atoms: C16_24  and  C17_25 
REMARK       I    between atoms: C17_25  and  N3_27 
REMARK   11  A    between atoms: N3_27  and  C18_29 
REMARK   12  A    between atoms: C18_29  and  C19_30 
REMARK   13  A    between atoms: C19_30  and  C20_31 
REMARK   14  A    between atoms: C20_31  and  C21_32 
REMARK       I    between atoms: C21_32  and  N4_34 
REMARK   15  A    between atoms: N4_34  and  C22_36 
ROOT
HETATM    1  C10 UNL     1      11.772  21.922  17.099  1.00  0.00     0.245 C 
HETATM    2  O4  UNL     1      11.261  22.666  16.216  1.00  0.00    -0.271 OA
HETATM    3  N2  UNL     1      12.163  20.607  16.707  1.00  0.00    -0.334 N 
HETATM    4  C11 UNL     1      12.748  19.550  17.455  1.00  0.00     0.129 C 
HETATM    5  C12 UNL     1      12.081  18.312  16.924  1.00  0.00     0.054 C 
HETATM    6  C13 UNL     1      12.223  18.620  15.389  1.00  0.00     0.155 C 
HETATM    7  C16 UNL     1      12.020  20.097  15.340  1.00  0.00     0.208 C 
ENDROOT
BRANCH   1   8
HETATM    8  C4  UNL     1      11.898  22.502  18.417  1.00  0.00     0.202 C 
BRANCH   8   9
HETATM    9  C3  UNL     1      11.208  21.810  19.548  1.00  0.00     0.202 C 
BRANCH   9  10
HETATM   10  O1  UNL     1       9.835  22.092  19.569  1.00  0.00    -0.389 OA
BRANCH  10  11
HETATM   11  C2  UNL     1       9.171  20.849  19.603  1.00  0.00     0.163 C 
HETATM   12  C1  UNL     1      10.071  19.748  20.069  1.00  0.00     0.033 C 
ENDBRANCH  10  11
ENDBRANCH   9  10
ENDBRANCH   8   9
BRANCH   8  13
HETATM   13  N1  UNL     1      13.296  22.615  18.780  1.00  0.00    -0.321 N 
HETATM   14  C5  UNL     1      14.140  23.605  18.215  1.00  0.00     0.362 C 
HETATM   15  O2  UNL     1      13.650  24.405  17.370  1.00  0.00    -0.238 OA
ATOM     16  H1  UNL     1      13.685  21.964  19.462  1.00  0.00     0.165 HD
BRANCH  14  17
HETATM   17  O3  UNL     1      15.457  23.733  18.543  1.00  0.00    -0.294 OA
BRANCH  17  18
HETATM   18  C6  UNL     1      16.025  24.804  19.268  1.00  0.00     0.061 C 
HETATM   19  C7  UNL     1      15.639  24.634  20.720  1.00  0.00     0.046 C 
HETATM   20  C8  UNL     1      17.543  24.767  19.179  1.00  0.00     0.046 C 
HETATM   21  C9  UNL     1      15.581  26.152  18.801  1.00  0.00     0.046 C 
ENDBRANCH  17  18
ENDBRANCH  14  17
ENDBRANCH   8  13
ENDBRANCH   1   8
BRANCH   7  22
HETATM   22  C17 UNL     1      12.945  20.804  14.421  1.00  0.00     0.243 C 
HETATM   23  O6  UNL     1      12.917  20.491  13.209  1.00  0.00    -0.271 OA
HETATM   24  N3  UNL     1      13.848  21.798  14.813  1.00  0.00    -0.359 N 
ATOM     25  H3  UNL     1      13.876  22.051  15.800  1.00  0.00     0.162 HD
BRANCH  24  26
HETATM   26  C18 UNL     1      14.746  22.491  13.916  1.00  0.00     0.123 C 
BRANCH  26  27
HETATM   27  C19 UNL     1      15.849  23.238  14.580  1.00  0.00     0.029 C 
BRANCH  27  28
HETATM   28  C20 UNL     1      17.098  23.126  13.748  1.00  0.00     0.104 C 
BRANCH  28  29
HETATM   29  C21 UNL     1      17.424  24.303  12.952  1.00  0.00     0.218 C 
HETATM   30  O7  UNL     1      18.583  24.541  12.547  1.00  0.00    -0.274 OA
HETATM   31  N4  UNL     1      16.432  25.274  12.576  1.00  0.00    -0.353 N 
ATOM     32  H4  UNL     1      15.469  25.131  12.882  1.00  0.00     0.163 HD
BRANCH  31  33
HETATM   33  C22 UNL     1      16.736  26.436  11.791  1.00  0.00     0.022 C 
HETATM   34  C23 UNL     1      17.534  26.066  10.570  1.00  0.00     0.037 C 
HETATM   35  C24 UNL     1      17.571  27.424  12.610  1.00  0.00     0.037 C 
HETATM   36  C25 UNL     1      15.462  27.120  11.373  1.00  0.00     0.037 C 
ENDBRANCH  31  33
ENDBRANCH  28  29
ENDBRANCH  27  28
ENDBRANCH  26  27
ENDBRANCH  24  26
ENDBRANCH   7  22
BRANCH   6  37
HETATM   37  O5  UNL     1      11.195  17.965  14.741  1.00  0.00    -0.384 OA
BRANCH  37  38
HETATM   38  C14 UNL     1      10.013  18.631  14.634  1.00  0.00     0.163 C 
HETATM   39  C15 UNL     1       9.073  18.118  13.609  1.00  0.00     0.033 C 
ENDBRANCH  37  38
ENDBRANCH   6  37
TORSDOF 15
ENDMDL
