MODEL 1
REMARK VINA RESULT: -9.134345345      0.000      0.000
REMARK  14 active torsions:
REMARK  status: ('A' for Active; 'I' for Inactive)
REMARK    1  A    between atoms: C2_2  and  N1_3 
REMARK    2  A    between atoms: N1_3  and  C4_5 
REMARK    3  A    between atoms: C4_5  and  O1_6 
REMARK    4  A    between atoms: C4_5  and  C5_8 
REMARK    5  A    between atoms: C9_14  and  C10_15 
REMARK    6  A    between atoms: C12_17  and  C13_18 
REMARK    7  A    between atoms: C13_18  and  C14_19 
REMARK    8  A    between atoms: C14_19  and  O2_22 
REMARK    9  A    between atoms: C19_28  and  O3_29 
REMARK   10  A    between atoms: O3_29  and  C20_30 
REMARK   11  A    between atoms: C20_30  and  C21_31 
REMARK       I    between atoms: C21_31  and  N4_33 
REMARK   12  A    between atoms: N4_33  and  C22_35 
REMARK   13  A    between atoms: C22_35  and  C23_36 
REMARK   14  A    between atoms: C23_36  and  N5_37 
ROOT
HETATM    1  C10 UNL     1      10.413  17.964  16.324  1.00  0.00     0.060 A 
HETATM    2  C11 UNL     1       9.584  17.449  15.328  1.00  0.00     0.028 A 
HETATM    3  C12 UNL     1       8.403  16.761  15.629  1.00  0.00    -0.032 A 
HETATM    4  C17 UNL     1       8.115  16.628  16.950  1.00  0.00     0.013 A 
HETATM    5  C18 UNL     1       6.880  15.972  17.442  1.00  0.00     0.068 C 
HETATM    6  N3  UNL     1       8.946  17.143  17.910  1.00  0.00    -0.340 N 
ATOM      7  H3  UNL     1       8.688  17.018  18.888  1.00  0.00     0.168 HD
HETATM    8  C19 UNL     1      10.078  17.802  17.633  1.00  0.00     0.157 A 
ENDROOT
BRANCH   1   9
HETATM    9  C9  UNL     1      11.635  18.686  15.943  1.00  0.00     0.121 A 
HETATM   10  N2  UNL     1      12.912  18.462  16.238  1.00  0.00    -0.340 N 
HETATM   11  C8  UNL     1      13.723  19.401  15.669  1.00  0.00     0.060 A 
ATOM     12  H2  UNL     1      13.243  17.688  16.816  1.00  0.00     0.167 HD
HETATM   13  C7  UNL     1      15.066  19.626  15.661  1.00  0.00     0.033 A 
HETATM   14  C26 UNL     1      12.898  20.250  14.983  1.00  0.00     0.061 A 
HETATM   15  C6  UNL     1      15.649  20.706  14.971  1.00  0.00     0.018 A 
HETATM   16  C5  UNL     1      14.834  21.560  14.283  1.00  0.00     0.017 A 
HETATM   17  C27 UNL     1      13.446  21.310  14.304  1.00  0.00     0.047 A 
HETATM   18  N6  UNL     1      11.640  19.810  15.154  1.00  0.00    -0.340 N 
ATOM     19  H6  UNL     1      10.810  20.247  14.756  1.00  0.00     0.167 HD
BRANCH  16  20
HETATM   20  C4  UNL     1      15.337  22.704  13.551  1.00  0.00     0.148 C 
BRANCH  20  21
HETATM   21  N1  UNL     1      16.509  23.423  13.646  1.00  0.00    -0.366 N 
HETATM   22  C3  UNL     1      17.445  23.555  14.731  1.00  0.00     0.151 C 
BRANCH  21  23
HETATM   23  C2  UNL     1      16.895  24.209  12.436  1.00  0.00     0.120 C 
HETATM   24  C1  UNL     1      17.985  23.500  11.699  1.00  0.00     0.026 C 
ENDBRANCH  21  23
ENDBRANCH  20  21
BRANCH  20  25
HETATM   25  O1  UNL     1      14.518  23.124  12.627  1.00  0.00    -0.346 OA
ATOM     26  H1  UNL     1      13.892  22.474  12.330  1.00  0.00     0.219 HD
ENDBRANCH  20  25
ENDBRANCH  16  20
ENDBRANCH   1   9
BRANCH   8  27
HETATM   27  O3  UNL     1      10.833  18.270  18.675  1.00  0.00    -0.326 OA
BRANCH  27  28
HETATM   28  C20 UNL     1      10.699  19.440  19.396  1.00  0.00     0.280 C 
BRANCH  28  29
HETATM   29  C21 UNL     1      11.437  20.606  18.888  1.00  0.00     0.242 C 
HETATM   30  O4  UNL     1      10.834  21.561  18.351  1.00  0.00    -0.271 OA
HETATM   31  N4  UNL     1      12.848  20.676  18.996  1.00  0.00    -0.355 N 
ATOM     32  H4  UNL     1      13.355  19.906  19.434  1.00  0.00     0.162 HD
BRANCH  31  33
HETATM   33  C22 UNL     1      13.583  21.817  18.498  1.00  0.00     0.166 C 
BRANCH  33  34
HETATM   34  C23 UNL     1      14.149  22.718  19.524  1.00  0.00     0.076 C 
BRANCH  34  35
HETATM   35  N5  UNL     1      15.188  23.580  19.213  1.00  0.00    -0.400 N 
HETATM   36  C24 UNL     1      15.089  24.964  19.318  1.00  0.00     0.148 C 
HETATM   37  C25 UNL     1      15.989  23.078  18.124  1.00  0.00     0.148 C 
ENDBRANCH  34  35
ENDBRANCH  33  34
ENDBRANCH  31  33
ENDBRANCH  28  29
ENDBRANCH  27  28
ENDBRANCH   8  27
BRANCH   3  38
HETATM   38  C13 UNL     1       7.628  16.222  14.534  1.00  0.00     0.077 C 
BRANCH  38  39
HETATM   39  C14 UNL     1       7.775  14.793  14.188  1.00  0.00     0.054 C 
HETATM   40  C15 UNL     1       6.594  13.903  14.321  1.00  0.00     0.045 C 
HETATM   41  C16 UNL     1       8.169  14.751  12.695  1.00  0.00     0.045 C 
BRANCH  39  42
HETATM   42  O2  UNL     1       8.910  14.216  14.830  1.00  0.00    -0.390 OA
ATOM     43  H2  UNL     1       8.736  13.323  15.104  1.00  0.00     0.210 HD
ENDBRANCH  39  42
ENDBRANCH  38  39
ENDBRANCH   3  38
TORSDOF 14
ENDMDL
MODEL 2
REMARK VINA RESULT: -9.106134644      1.259      1.905
REMARK  14 active torsions:
REMARK  status: ('A' for Active; 'I' for Inactive)
REMARK    1  A    between atoms: C2_2  and  N1_3 
REMARK    2  A    between atoms: N1_3  and  C4_5 
REMARK    3  A    between atoms: C4_5  and  O1_6 
REMARK    4  A    between atoms: C4_5  and  C5_8 
REMARK    5  A    between atoms: C9_14  and  C10_15 
REMARK    6  A    between atoms: C12_17  and  C13_18 
REMARK    7  A    between atoms: C13_18  and  C14_19 
REMARK    8  A    between atoms: C14_19  and  O2_22 
REMARK    9  A    between atoms: C19_28  and  O3_29 
REMARK   10  A    between atoms: O3_29  and  C20_30 
REMARK   11  A    between atoms: C20_30  and  C21_31 
REMARK       I    between atoms: C21_31  and  N4_33 
REMARK   12  A    between atoms: N4_33  and  C22_35 
REMARK   13  A    between atoms: C22_35  and  C23_36 
REMARK   14  A    between atoms: C23_36  and  N5_37 
ROOT
HETATM    1  C10 UNL     1      10.718  18.180  16.047  1.00  0.00     0.060 A 
HETATM    2  C11 UNL     1       9.796  17.653  15.142  1.00  0.00     0.028 A 
HETATM    3  C12 UNL     1       8.741  16.833  15.553  1.00  0.00    -0.032 A 
HETATM    4  C17 UNL     1       8.668  16.582  16.886  1.00  0.00     0.013 A 
HETATM    5  C18 UNL     1       7.585  15.775  17.496  1.00  0.00     0.068 C 
HETATM    6  N3  UNL     1       9.586  17.111  17.755  1.00  0.00    -0.340 N 
ATOM      7  H3  UNL     1       9.491  16.895  18.747  1.00  0.00     0.168 HD
HETATM    8  C19 UNL     1      10.600  17.897  17.373  1.00  0.00     0.157 A 
ENDROOT
BRANCH   1   9
HETATM    9  C9  UNL     1      11.800  19.044  15.554  1.00  0.00     0.121 A 
HETATM   10  N2  UNL     1      11.879  19.818  14.475  1.00  0.00    -0.340 N 
HETATM   11  C8  UNL     1      13.089  20.446  14.405  1.00  0.00     0.060 A 
ATOM     12  H2  UNL     1      11.132  19.928  13.789  1.00  0.00     0.167 HD
HETATM   13  C7  UNL     1      13.666  21.316  13.531  1.00  0.00     0.033 A 
HETATM   14  C26 UNL     1      13.794  20.036  15.504  1.00  0.00     0.061 A 
HETATM   15  C6  UNL     1      14.969  21.817  13.709  1.00  0.00     0.018 A 
HETATM   16  C5  UNL     1      15.682  21.414  14.802  1.00  0.00     0.017 A 
HETATM   17  C27 UNL     1      15.067  20.512  15.697  1.00  0.00     0.047 A 
HETATM   18  N6  UNL     1      13.007  19.191  16.191  1.00  0.00    -0.340 N 
ATOM     19  H6  UNL     1      13.268  18.726  17.059  1.00  0.00     0.167 HD
BRANCH  16  20
HETATM   20  C4  UNL     1      17.031  21.865  15.068  1.00  0.00     0.148 C 
BRANCH  20  21
HETATM   21  N1  UNL     1      17.543  23.090  15.441  1.00  0.00    -0.366 N 
HETATM   22  C3  UNL     1      17.707  24.307  14.690  1.00  0.00     0.151 C 
BRANCH  21  23
HETATM   23  C2  UNL     1      18.014  23.201  16.853  1.00  0.00     0.120 C 
HETATM   24  C1  UNL     1      18.127  24.641  17.238  1.00  0.00     0.026 C 
ENDBRANCH  21  23
ENDBRANCH  20  21
BRANCH  20  25
HETATM   25  O1  UNL     1      17.926  20.926  14.927  1.00  0.00    -0.346 OA
ATOM     26  H1  UNL     1      18.230  20.804  14.036  1.00  0.00     0.219 HD
ENDBRANCH  20  25
ENDBRANCH  16  20
ENDBRANCH   1   9
BRANCH   8  27
HETATM   27  O3  UNL     1      11.459  18.367  18.330  1.00  0.00    -0.326 OA
BRANCH  27  28
HETATM   28  C20 UNL     1      11.264  19.356  19.273  1.00  0.00     0.280 C 
BRANCH  28  29
HETATM   29  C21 UNL     1      11.806  20.683  18.947  1.00  0.00     0.242 C 
HETATM   30  O4  UNL     1      11.076  21.572  18.459  1.00  0.00    -0.271 OA
HETATM   31  N4  UNL     1      13.171  20.986  19.181  1.00  0.00    -0.355 N 
ATOM     32  H4  UNL     1      13.780  20.273  19.582  1.00  0.00     0.162 HD
BRANCH  31  33
HETATM   33  C22 UNL     1      13.715  22.287  18.862  1.00  0.00     0.166 C 
BRANCH  33  34
HETATM   34  C23 UNL     1      14.369  23.003  19.978  1.00  0.00     0.076 C 
BRANCH  34  35
HETATM   35  N5  UNL     1      15.295  24.004  19.730  1.00  0.00    -0.400 N 
HETATM   36  C24 UNL     1      16.333  24.317  20.603  1.00  0.00     0.148 C 
HETATM   37  C25 UNL     1      14.705  25.111  19.018  1.00  0.00     0.148 C 
ENDBRANCH  34  35
ENDBRANCH  33  34
ENDBRANCH  31  33
ENDBRANCH  28  29
ENDBRANCH  27  28
ENDBRANCH   8  27
BRANCH   3  38
HETATM   38  C13 UNL     1       7.860  16.295  14.540  1.00  0.00     0.077 C 
BRANCH  38  39
HETATM   39  C14 UNL     1       7.999  14.876  14.150  1.00  0.00     0.054 C 
HETATM   40  C15 UNL     1       6.818  13.985  14.272  1.00  0.00     0.045 C 
HETATM   41  C16 UNL     1       8.375  14.877  12.652  1.00  0.00     0.045 C 
BRANCH  39  42
HETATM   42  O2  UNL     1       9.140  14.278  14.761  1.00  0.00    -0.390 OA
ATOM     43  H2  UNL     1       9.116  13.331  14.688  1.00  0.00     0.210 HD
ENDBRANCH  39  42
ENDBRANCH  38  39
ENDBRANCH   3  38
TORSDOF 14
ENDMDL
MODEL 3
REMARK VINA RESULT: -9.050095946      0.770      1.007
REMARK  14 active torsions:
REMARK  status: ('A' for Active; 'I' for Inactive)
REMARK    1  A    between atoms: C2_2  and  N1_3 
REMARK    2  A    between atoms: N1_3  and  C4_5 
REMARK    3  A    between atoms: C4_5  and  O1_6 
REMARK    4  A    between atoms: C4_5  and  C5_8 
REMARK    5  A    between atoms: C9_14  and  C10_15 
REMARK    6  A    between atoms: C12_17  and  C13_18 
REMARK    7  A    between atoms: C13_18  and  C14_19 
REMARK    8  A    between atoms: C14_19  and  O2_22 
REMARK    9  A    between atoms: C19_28  and  O3_29 
REMARK   10  A    between atoms: O3_29  and  C20_30 
REMARK   11  A    between atoms: C20_30  and  C21_31 
REMARK       I    between atoms: C21_31  and  N4_33 
REMARK   12  A    between atoms: N4_33  and  C22_35 
REMARK   13  A    between atoms: C22_35  and  C23_36 
REMARK   14  A    between atoms: C23_36  and  N5_37 
ROOT
HETATM    1  C10 UNL     1      10.926  18.136  16.050  1.00  0.00     0.060 A 
HETATM    2  C11 UNL     1      10.069  17.647  15.064  1.00  0.00     0.028 A 
HETATM    3  C12 UNL     1       8.895  16.955  15.380  1.00  0.00    -0.032 A 
HETATM    4  C17 UNL     1       8.642  16.789  16.704  1.00  0.00     0.013 A 
HETATM    5  C18 UNL     1       7.420  16.123  17.214  1.00  0.00     0.068 C 
HETATM    6  N3  UNL     1       9.501  17.278  17.654  1.00  0.00    -0.340 N 
ATOM      7  H3  UNL     1       9.269  17.129  18.636  1.00  0.00     0.168 HD
HETATM    8  C19 UNL     1      10.626  17.941  17.363  1.00  0.00     0.157 A 
ENDROOT
BRANCH   1   9
HETATM    9  C9  UNL     1      12.139  18.865  15.654  1.00  0.00     0.121 A 
HETATM   10  N2  UNL     1      13.424  18.628  15.904  1.00  0.00    -0.340 N 
HETATM   11  C8  UNL     1      14.221  19.581  15.339  1.00  0.00     0.060 A 
ATOM     12  H2  UNL     1      13.768  17.837  16.449  1.00  0.00     0.167 HD
HETATM   13  C7  UNL     1      15.564  19.802  15.297  1.00  0.00     0.033 A 
HETATM   14  C26 UNL     1      13.380  20.452  14.703  1.00  0.00     0.061 A 
HETATM   15  C6  UNL     1      16.131  20.899  14.621  1.00  0.00     0.018 A 
HETATM   16  C5  UNL     1      15.300  21.776  13.983  1.00  0.00     0.017 A 
HETATM   17  C27 UNL     1      13.912  21.530  14.038  1.00  0.00     0.047 A 
HETATM   18  N6  UNL     1      12.126  20.011  14.898  1.00  0.00    -0.340 N 
ATOM     19  H6  UNL     1      11.286  20.462  14.538  1.00  0.00     0.167 HD
BRANCH  16  20
HETATM   20  C4  UNL     1      15.785  22.939  13.270  1.00  0.00     0.148 C 
BRANCH  20  21
HETATM   21  N1  UNL     1      17.052  23.447  13.080  1.00  0.00    -0.366 N 
HETATM   22  C3  UNL     1      17.996  23.243  12.013  1.00  0.00     0.151 C 
BRANCH  21  23
HETATM   23  C2  UNL     1      17.556  24.364  14.145  1.00  0.00     0.120 C 
HETATM   24  C1  UNL     1      17.842  25.710  13.560  1.00  0.00     0.026 C 
ENDBRANCH  21  23
ENDBRANCH  20  21
BRANCH  20  25
HETATM   25  O1  UNL     1      14.835  23.629  12.703  1.00  0.00    -0.346 OA
ATOM     26  H1  UNL     1      14.195  23.105  12.235  1.00  0.00     0.219 HD
ENDBRANCH  20  25
ENDBRANCH  16  20
ENDBRANCH   1   9
BRANCH   8  27
HETATM   27  O3  UNL     1      11.411  18.382  18.396  1.00  0.00    -0.326 OA
BRANCH  27  28
HETATM   28  C20 UNL     1      11.188  19.414  19.285  1.00  0.00     0.280 C 
BRANCH  28  29
HETATM   29  C21 UNL     1      11.521  20.766  18.811  1.00  0.00     0.242 C 
HETATM   30  O4  UNL     1      10.646  21.658  18.752  1.00  0.00    -0.271 OA
HETATM   31  N4  UNL     1      12.841  21.090  18.411  1.00  0.00    -0.355 N 
ATOM     32  H4  UNL     1      13.567  20.375  18.455  1.00  0.00     0.162 HD
BRANCH  31  33
HETATM   33  C22 UNL     1      13.178  22.416  17.940  1.00  0.00     0.166 C 
BRANCH  33  34
HETATM   34  C23 UNL     1      14.592  22.628  17.568  1.00  0.00     0.076 C 
BRANCH  34  35
HETATM   35  N5  UNL     1      15.516  23.053  18.509  1.00  0.00    -0.400 N 
HETATM   36  C24 UNL     1      15.164  23.738  19.669  1.00  0.00     0.148 C 
HETATM   37  C25 UNL     1      16.764  23.434  17.897  1.00  0.00     0.148 C 
ENDBRANCH  34  35
ENDBRANCH  33  34
ENDBRANCH  31  33
ENDBRANCH  28  29
ENDBRANCH  27  28
ENDBRANCH   8  27
BRANCH   3  38
HETATM   38  C13 UNL     1       8.089  16.445  14.293  1.00  0.00     0.077 C 
BRANCH  38  39
HETATM   39  C14 UNL     1       8.141  15.002  13.979  1.00  0.00     0.054 C 
HETATM   40  C15 UNL     1       6.899  14.200  14.112  1.00  0.00     0.045 C 
HETATM   41  C16 UNL     1       8.553  14.900  12.494  1.00  0.00     0.045 C 
BRANCH  39  42
HETATM   42  O2  UNL     1       9.223  14.361  14.651  1.00  0.00    -0.390 OA
ATOM     43  H2  UNL     1       9.276  13.441  14.423  1.00  0.00     0.210 HD
ENDBRANCH  39  42
ENDBRANCH  38  39
ENDBRANCH   3  38
TORSDOF 14
ENDMDL
MODEL 4
REMARK VINA RESULT: -8.701259780      1.250      1.618
REMARK  14 active torsions:
REMARK  status: ('A' for Active; 'I' for Inactive)
REMARK    1  A    between atoms: C2_2  and  N1_3 
REMARK    2  A    between atoms: N1_3  and  C4_5 
REMARK    3  A    between atoms: C4_5  and  O1_6 
REMARK    4  A    between atoms: C4_5  and  C5_8 
REMARK    5  A    between atoms: C9_14  and  C10_15 
REMARK    6  A    between atoms: C12_17  and  C13_18 
REMARK    7  A    between atoms: C13_18  and  C14_19 
REMARK    8  A    between atoms: C14_19  and  O2_22 
REMARK    9  A    between atoms: C19_28  and  O3_29 
REMARK   10  A    between atoms: O3_29  and  C20_30 
REMARK   11  A    between atoms: C20_30  and  C21_31 
REMARK       I    between atoms: C21_31  and  N4_33 
REMARK   12  A    between atoms: N4_33  and  C22_35 
REMARK   13  A    between atoms: C22_35  and  C23_36 
REMARK   14  A    between atoms: C23_36  and  N5_37 
ROOT
HETATM    1  C10 UNL     1      11.452  18.503  16.056  1.00  0.00     0.060 A 
HETATM    2  C11 UNL     1      10.582  17.987  15.097  1.00  0.00     0.028 A 
HETATM    3  C12 UNL     1       9.438  17.262  15.448  1.00  0.00    -0.032 A 
HETATM    4  C17 UNL     1       9.227  17.095  16.780  1.00  0.00     0.013 A 
HETATM    5  C18 UNL     1       8.038  16.397  17.326  1.00  0.00     0.068 C 
HETATM    6  N3  UNL     1      10.097  17.613  17.703  1.00  0.00    -0.340 N 
ATOM      7  H3  UNL     1       9.897  17.462  18.692  1.00  0.00     0.168 HD
HETATM    8  C19 UNL     1      11.194  18.307  17.378  1.00  0.00     0.157 A 
ENDROOT
BRANCH   1   9
HETATM    9  C9  UNL     1      12.632  19.265  15.624  1.00  0.00     0.121 A 
HETATM   10  N2  UNL     1      13.932  19.023  15.771  1.00  0.00    -0.340 N 
HETATM   11  C8  UNL     1      14.685  20.015  15.212  1.00  0.00     0.060 A 
ATOM     12  H2  UNL     1      14.316  18.202  16.240  1.00  0.00     0.167 HD
HETATM   13  C7  UNL     1      16.021  20.248  15.092  1.00  0.00     0.033 A 
HETATM   14  C26 UNL     1      13.799  20.917  14.690  1.00  0.00     0.061 A 
HETATM   15  C6  UNL     1      16.536  21.389  14.448  1.00  0.00     0.018 A 
HETATM   16  C5  UNL     1      15.660  22.298  13.924  1.00  0.00     0.017 A 
HETATM   17  C27 UNL     1      14.280  22.038  14.059  1.00  0.00     0.047 A 
HETATM   18  N6  UNL     1      12.563  20.455  14.944  1.00  0.00    -0.340 N 
ATOM     19  H6  UNL     1      11.698  20.921  14.671  1.00  0.00     0.167 HD
BRANCH  16  20
HETATM   20  C4  UNL     1      16.091  23.506  13.253  1.00  0.00     0.148 C 
BRANCH  20  21
HETATM   21  N1  UNL     1      17.331  23.946  12.843  1.00  0.00    -0.366 N 
HETATM   22  C3  UNL     1      18.199  23.470  11.798  1.00  0.00     0.151 C 
BRANCH  21  23
HETATM   23  C2  UNL     1      17.893  25.109  13.591  1.00  0.00     0.120 C 
HETATM   24  C1  UNL     1      17.986  26.296  12.687  1.00  0.00     0.026 C 
ENDBRANCH  21  23
ENDBRANCH  20  21
BRANCH  20  25
HETATM   25  O1  UNL     1      15.111  24.326  12.990  1.00  0.00    -0.346 OA
ATOM     26  H1  UNL     1      14.632  24.125  12.195  1.00  0.00     0.219 HD
ENDBRANCH  20  25
ENDBRANCH  16  20
ENDBRANCH   1   9
BRANCH   8  27
HETATM   27  O3  UNL     1      11.994  18.774  18.387  1.00  0.00    -0.326 OA
BRANCH  27  28
HETATM   28  C20 UNL     1      11.937  19.976  19.063  1.00  0.00     0.280 C 
BRANCH  28  29
HETATM   29  C21 UNL     1      12.791  21.056  18.546  1.00  0.00     0.242 C 
HETATM   30  O4  UNL     1      12.309  21.976  17.849  1.00  0.00    -0.271 OA
HETATM   31  N4  UNL     1      14.179  21.080  18.826  1.00  0.00    -0.355 N 
ATOM     32  H4  UNL     1      14.588  20.339  19.395  1.00  0.00     0.162 HD
BRANCH  31  33
HETATM   33  C22 UNL     1      15.028  22.136  18.320  1.00  0.00     0.166 C 
BRANCH  33  34
HETATM   34  C23 UNL     1      15.255  23.275  19.235  1.00  0.00     0.076 C 
BRANCH  34  35
HETATM   35  N5  UNL     1      16.358  24.100  19.078  1.00  0.00    -0.400 N 
HETATM   36  C24 UNL     1      17.282  23.950  18.048  1.00  0.00     0.148 C 
HETATM   37  C25 UNL     1      16.882  24.535  20.348  1.00  0.00     0.148 C 
ENDBRANCH  34  35
ENDBRANCH  33  34
ENDBRANCH  31  33
ENDBRANCH  28  29
ENDBRANCH  27  28
ENDBRANCH   8  27
BRANCH   3  38
HETATM   38  C13 UNL     1       8.617  16.725  14.386  1.00  0.00     0.077 C 
BRANCH  38  39
HETATM   39  C14 UNL     1       8.988  15.429  13.779  1.00  0.00     0.054 C 
HETATM   40  C15 UNL     1       8.245  14.965  12.581  1.00  0.00     0.045 C 
HETATM   41  C16 UNL     1      10.460  15.570  13.335  1.00  0.00     0.045 C 
BRANCH  39  42
HETATM   42  O2  UNL     1       9.051  14.395  14.759  1.00  0.00    -0.390 OA
ATOM     43  H2  UNL     1       8.189  14.190  15.102  1.00  0.00     0.210 HD
ENDBRANCH  39  42
ENDBRANCH  38  39
ENDBRANCH   3  38
TORSDOF 14
ENDMDL
MODEL 5
REMARK VINA RESULT: -8.596894301      1.890      8.584
REMARK  14 active torsions:
REMARK  status: ('A' for Active; 'I' for Inactive)
REMARK    1  A    between atoms: C2_2  and  N1_3 
REMARK    2  A    between atoms: N1_3  and  C4_5 
REMARK    3  A    between atoms: C4_5  and  O1_6 
REMARK    4  A    between atoms: C4_5  and  C5_8 
REMARK    5  A    between atoms: C9_14  and  C10_15 
REMARK    6  A    between atoms: C12_17  and  C13_18 
REMARK    7  A    between atoms: C13_18  and  C14_19 
REMARK    8  A    between atoms: C14_19  and  O2_22 
REMARK    9  A    between atoms: C19_28  and  O3_29 
REMARK   10  A    between atoms: O3_29  and  C20_30 
REMARK   11  A    between atoms: C20_30  and  C21_31 
REMARK       I    between atoms: C21_31  and  N4_33 
REMARK   12  A    between atoms: N4_33  and  C22_35 
REMARK   13  A    between atoms: C22_35  and  C23_36 
REMARK   14  A    between atoms: C23_36  and  N5_37 
ROOT
HETATM    1  C10 UNL     1      14.793  21.229  16.407  1.00  0.00     0.060 A 
HETATM    2  C11 UNL     1      15.571  21.514  15.286  1.00  0.00     0.028 A 
HETATM    3  C12 UNL     1      16.663  22.387  15.343  1.00  0.00    -0.032 A 
HETATM    4  C17 UNL     1      16.918  22.937  16.559  1.00  0.00     0.013 A 
HETATM    5  C18 UNL     1      18.065  23.843  16.808  1.00  0.00     0.068 C 
HETATM    6  N3  UNL     1      16.139  22.641  17.646  1.00  0.00    -0.340 N 
ATOM      7  H3  UNL     1      16.368  23.079  18.538  1.00  0.00     0.168 HD
HETATM    8  C19 UNL     1      15.092  21.809  17.602  1.00  0.00     0.157 A 
ENDROOT
BRANCH   1   9
HETATM    9  C9  UNL     1      13.665  20.295  16.284  1.00  0.00     0.121 A 
HETATM   10  N2  UNL     1      13.509  19.048  16.720  1.00  0.00    -0.340 N 
HETATM   11  C8  UNL     1      12.287  18.551  16.368  1.00  0.00     0.060 A 
ATOM     12  H2  UNL     1      14.211  18.531  17.249  1.00  0.00     0.167 HD
HETATM   13  C7  UNL     1      11.647  17.365  16.558  1.00  0.00     0.033 A 
HETATM   14  C26 UNL     1      11.655  19.549  15.678  1.00  0.00     0.061 A 
HETATM   15  C6  UNL     1      10.350  17.116  16.069  1.00  0.00     0.018 A 
HETATM   16  C5  UNL     1       9.710  18.106  15.378  1.00  0.00     0.017 A 
HETATM   17  C27 UNL     1      10.390  19.328  15.192  1.00  0.00     0.047 A 
HETATM   18  N6  UNL     1      12.494  20.597  15.633  1.00  0.00    -0.340 N 
ATOM     19  H6  UNL     1      12.292  21.488  15.181  1.00  0.00     0.167 HD
BRANCH  16  20
HETATM   20  C4  UNL     1       8.381  17.944  14.828  1.00  0.00     0.148 C 
BRANCH  20  21
HETATM   21  N1  UNL     1       7.499  16.884  14.830  1.00  0.00    -0.366 N 
HETATM   22  C3  UNL     1       6.275  16.682  15.560  1.00  0.00     0.151 C 
BRANCH  21  23
HETATM   23  C2  UNL     1       7.849  15.739  13.938  1.00  0.00     0.120 C 
HETATM   24  C1  UNL     1       7.582  14.448  14.642  1.00  0.00     0.026 C 
ENDBRANCH  21  23
ENDBRANCH  20  21
BRANCH  20  25
HETATM   25  O1  UNL     1       7.942  19.010  14.218  1.00  0.00    -0.346 OA
ATOM     26  H1  UNL     1       8.598  19.684  14.085  1.00  0.00     0.219 HD
ENDBRANCH  20  25
ENDBRANCH  16  20
ENDBRANCH   1   9
BRANCH   8  27
HETATM   27  O3  UNL     1      14.381  21.589  18.752  1.00  0.00    -0.326 OA
BRANCH  27  28
HETATM   28  C20 UNL     1      13.180  22.135  19.157  1.00  0.00     0.280 C 
BRANCH  28  29
HETATM   29  C21 UNL     1      11.997  21.269  19.036  1.00  0.00     0.242 C 
HETATM   30  O4  UNL     1      11.014  21.620  18.348  1.00  0.00    -0.271 OA
HETATM   31  N4  UNL     1      11.945  20.016  19.696  1.00  0.00    -0.355 N 
ATOM     32  H4  UNL     1      12.741  19.714  20.258  1.00  0.00     0.162 HD
BRANCH  31  33
HETATM   33  C22 UNL     1      10.786  19.158  19.586  1.00  0.00     0.166 C 
BRANCH  33  34
HETATM   34  C23 UNL     1       9.684  19.440  20.530  1.00  0.00     0.076 C 
BRANCH  34  35
HETATM   35  N5  UNL     1       8.398  18.996  20.269  1.00  0.00    -0.400 N 
HETATM   36  C24 UNL     1       7.608  18.345  21.213  1.00  0.00     0.148 C 
HETATM   37  C25 UNL     1       8.253  18.557  18.904  1.00  0.00     0.148 C 
ENDBRANCH  34  35
ENDBRANCH  33  34
ENDBRANCH  31  33
ENDBRANCH  28  29
ENDBRANCH  27  28
ENDBRANCH   8  27
BRANCH   3  38
HETATM   38  C13 UNL     1      17.385  22.659  14.121  1.00  0.00     0.077 C 
BRANCH  38  39
HETATM   39  C14 UNL     1      17.016  23.845  13.320  1.00  0.00     0.054 C 
HETATM   40  C15 UNL     1      17.736  25.120  13.562  1.00  0.00     0.045 C 
HETATM   41  C16 UNL     1      17.299  23.473  11.848  1.00  0.00     0.045 C 
BRANCH  39  42
HETATM   42  O2  UNL     1      15.607  24.058  13.326  1.00  0.00    -0.390 OA
ATOM     43  H2  UNL     1      15.364  24.748  13.932  1.00  0.00     0.210 HD
ENDBRANCH  39  42
ENDBRANCH  38  39
ENDBRANCH   3  38
TORSDOF 14
ENDMDL
