MODEL 1
REMARK VINA RESULT: -8.993382709      0.000      0.000
REMARK  13 active torsions:
REMARK  status: ('A' for Active; 'I' for Inactive)
REMARK    1  A    between atoms: C2_2  and  C3_3 
REMARK    2  A    between atoms: C3_3  and  C4_5 
REMARK    3  A    between atoms: C4_5  and  C5_6 
REMARK    4  A    between atoms: C5_6  and  C6_7 
REMARK    5  A    between atoms: C6_7  and  C7_8 
REMARK    6  A    between atoms: C7_8  and  C8_9 
REMARK    7  A    between atoms: C8_9  and  C9_10 
REMARK    8  A    between atoms: C9_10  and  C10_11 
REMARK       I    between atoms: C10_11  and  N1_13 
REMARK    9  A    between atoms: N1_13  and  C12_15 
REMARK   10  A    between atoms: C12_15  and  C13_16 
REMARK       I    between atoms: C13_16  and  N2_18 
REMARK   11  A    between atoms: N2_18  and  C14_20 
REMARK   12  A    between atoms: C20_26  and  O4_27 
REMARK   13  A    between atoms: C22_31  and  O5_32 
ROOT
HETATM    1  C14 UNL     1      11.581  19.368  18.805  1.00  0.00     0.141 C 
HETATM    2  C15 UNL     1      11.132  20.744  19.268  1.00  0.00     0.030 C 
HETATM    3  C16 UNL     1      12.197  21.723  18.977  1.00  0.00     0.014 C 
HETATM    4  C17 UNL     1      12.269  22.249  17.602  1.00  0.00     0.058 C 
HETATM    5  C18 UNL     1      13.730  22.392  17.249  1.00  0.00     0.013 A 
HETATM    6  C19 UNL     1      14.082  21.435  16.330  1.00  0.00     0.040 A 
HETATM    7  C20 UNL     1      15.416  21.613  16.048  1.00  0.00     0.154 A 
HETATM    8  N3  UNL     1      15.892  22.643  16.760  1.00  0.00    -0.312 N 
HETATM    9  C21 UNL     1      17.277  23.145  16.736  1.00  0.00     0.160 C 
HETATM   10  C22 UNL     1      14.875  23.123  17.494  1.00  0.00     0.151 A 
HETATM   11  C23 UNL     1      12.907  20.584  15.998  1.00  0.00     0.121 C 
HETATM   12  C24 UNL     1      12.766  20.310  14.537  1.00  0.00     0.054 C 
HETATM   13  O6  UNL     1      12.857  19.464  16.804  1.00  0.00    -0.339 OA
HETATM   14  C25 UNL     1      11.585  19.335  17.306  1.00  0.00     0.345 C 
HETATM   15  N4  UNL     1      10.781  20.423  16.811  1.00  0.00    -0.039 N 
ATOM     16  H41 UNL     1      10.039  20.726  17.441  1.00  0.00     0.281 HD
ATOM     17  H42 UNL     1      10.163  20.181  16.036  1.00  0.00     0.281 HD
HETATM   18  C26 UNL     1      11.757  21.424  16.508  1.00  0.00     0.236 C 
ENDROOT
BRANCH   1  19
HETATM   19  N2  UNL     1      10.665  18.343  19.266  1.00  0.00    -0.351 N 
HETATM   20  C13 UNL     1       9.262  18.414  19.211  1.00  0.00     0.235 C 
HETATM   21  O3  UNL     1       8.705  19.421  18.741  1.00  0.00    -0.272 OA
ATOM     22  H2  UNL     1      11.074  17.498  19.664  1.00  0.00     0.163 HD
BRANCH  20  23
HETATM   23  C12 UNL     1       8.439  17.290  19.712  1.00  0.00     0.227 C 
BRANCH  23  24
HETATM   24  N1  UNL     1       7.247  17.146  18.880  1.00  0.00    -0.348 N 
HETATM   25  C10 UNL     1       7.212  16.189  17.802  1.00  0.00     0.219 C 
HETATM   26  O2  UNL     1       8.239  15.480  17.679  1.00  0.00    -0.273 OA
HETATM   27  C11 UNL     1       6.105  17.978  19.121  1.00  0.00     0.153 C 
BRANCH  25  28
HETATM   28  C9  UNL     1       6.020  16.100  16.939  1.00  0.00     0.103 C 
BRANCH  28  29
HETATM   29  C8  UNL     1       6.297  15.983  15.479  1.00  0.00     0.009 C 
BRANCH  29  30
HETATM   30  C7  UNL     1       6.410  14.571  14.965  1.00  0.00     0.000 C 
BRANCH  30  31
HETATM   31  C6  UNL     1       7.429  14.491  13.834  1.00  0.00     0.000 C 
BRANCH  31  32
HETATM   32  C5  UNL     1       8.793  14.862  14.316  1.00  0.00     0.007 C 
BRANCH  32  33
HETATM   33  C4  UNL     1       9.476  15.946  13.565  1.00  0.00     0.078 C 
BRANCH  33  34
HETATM   34  C3  UNL     1      10.008  17.055  14.371  1.00  0.00     0.126 C 
HETATM   35  O1  UNL     1      11.221  17.137  14.494  1.00  0.00    -0.298 OA
BRANCH  34  36
HETATM   36  C2  UNL     1       9.170  18.074  15.041  1.00  0.00     0.074 C 
HETATM   37  C1  UNL     1       8.146  18.614  14.083  1.00  0.00     0.013 C 
ENDBRANCH  34  36
ENDBRANCH  33  34
ENDBRANCH  32  33
ENDBRANCH  31  32
ENDBRANCH  30  31
ENDBRANCH  29  30
ENDBRANCH  28  29
ENDBRANCH  25  28
ENDBRANCH  23  24
ENDBRANCH  20  23
ENDBRANCH   1  19
BRANCH  10  38
HETATM   38  O5  UNL     1      14.986  24.203  18.368  1.00  0.00    -0.345 OA
ATOM     39  H5  UNL     1      15.343  25.057  18.157  1.00  0.00     0.219 HD
ENDBRANCH  10  38
BRANCH   7  40
HETATM   40  O4  UNL     1      16.200  20.851  15.152  1.00  0.00    -0.345 OA
ATOM     41  H4  UNL     1      17.073  20.512  15.308  1.00  0.00     0.219 HD
ENDBRANCH   7  40
TORSDOF 13
ENDMDL
MODEL 2
REMARK VINA RESULT: -8.887731573      0.910      1.748
REMARK  13 active torsions:
REMARK  status: ('A' for Active; 'I' for Inactive)
REMARK    1  A    between atoms: C2_2  and  C3_3 
REMARK    2  A    between atoms: C3_3  and  C4_5 
REMARK    3  A    between atoms: C4_5  and  C5_6 
REMARK    4  A    between atoms: C5_6  and  C6_7 
REMARK    5  A    between atoms: C6_7  and  C7_8 
REMARK    6  A    between atoms: C7_8  and  C8_9 
REMARK    7  A    between atoms: C8_9  and  C9_10 
REMARK    8  A    between atoms: C9_10  and  C10_11 
REMARK       I    between atoms: C10_11  and  N1_13 
REMARK    9  A    between atoms: N1_13  and  C12_15 
REMARK   10  A    between atoms: C12_15  and  C13_16 
REMARK       I    between atoms: C13_16  and  N2_18 
REMARK   11  A    between atoms: N2_18  and  C14_20 
REMARK   12  A    between atoms: C20_26  and  O4_27 
REMARK   13  A    between atoms: C22_31  and  O5_32 
ROOT
HETATM    1  C14 UNL     1      11.233  19.388  18.444  1.00  0.00     0.141 C 
HETATM    2  C15 UNL     1      10.717  20.754  18.866  1.00  0.00     0.030 C 
HETATM    3  C16 UNL     1      11.808  21.742  18.740  1.00  0.00     0.014 C 
HETATM    4  C17 UNL     1      12.064  22.293  17.398  1.00  0.00     0.058 C 
HETATM    5  C18 UNL     1      13.559  22.447  17.252  1.00  0.00     0.013 A 
HETATM    6  C19 UNL     1      14.038  21.508  16.372  1.00  0.00     0.040 A 
HETATM    7  C20 UNL     1      15.397  21.695  16.278  1.00  0.00     0.154 A 
HETATM    8  N3  UNL     1      15.766  22.713  17.067  1.00  0.00    -0.312 N 
HETATM    9  C21 UNL     1      17.139  23.218  17.241  1.00  0.00     0.160 C 
HETATM   10  C22 UNL     1      14.656  23.176  17.664  1.00  0.00     0.151 A 
HETATM   11  C23 UNL     1      12.924  20.660  15.866  1.00  0.00     0.121 C 
HETATM   12  C24 UNL     1      12.985  20.413  14.396  1.00  0.00     0.054 C 
HETATM   13  O6  UNL     1      12.770  19.525  16.638  1.00  0.00    -0.339 OA
HETATM   14  C25 UNL     1      11.442  19.384  16.959  1.00  0.00     0.345 C 
HETATM   15  N4  UNL     1      10.708  20.479  16.378  1.00  0.00    -0.039 N 
ATOM     16  H41 UNL     1       9.884  20.768  16.907  1.00  0.00     0.281 HD
ATOM     17  H42 UNL     1      10.203  20.249  15.522  1.00  0.00     0.281 HD
HETATM   18  C26 UNL     1      11.711  21.488  16.230  1.00  0.00     0.236 C 
ENDROOT
BRANCH   1  19
HETATM   19  N2  UNL     1      10.269  18.353  18.756  1.00  0.00    -0.351 N 
HETATM   20  C13 UNL     1       9.627  18.178  19.995  1.00  0.00     0.235 C 
HETATM   21  O3  UNL     1       9.874  18.945  20.941  1.00  0.00    -0.272 OA
ATOM     22  H2  UNL     1      10.034  17.694  18.013  1.00  0.00     0.163 HD
BRANCH  20  23
HETATM   23  C12 UNL     1       8.653  17.078  20.181  1.00  0.00     0.227 C 
BRANCH  23  24
HETATM   24  N1  UNL     1       7.559  17.225  19.223  1.00  0.00    -0.348 N 
HETATM   25  C10 UNL     1       7.401  16.292  18.135  1.00  0.00     0.219 C 
HETATM   26  O2  UNL     1       8.226  15.346  18.114  1.00  0.00    -0.273 OA
HETATM   27  C11 UNL     1       6.643  18.320  19.350  1.00  0.00     0.153 C 
BRANCH  25  28
HETATM   28  C9  UNL     1       6.325  16.492  17.148  1.00  0.00     0.103 C 
BRANCH  28  29
HETATM   29  C8  UNL     1       6.770  16.965  15.805  1.00  0.00     0.009 C 
BRANCH  29  30
HETATM   30  C7  UNL     1       8.069  17.729  15.799  1.00  0.00     0.000 C 
BRANCH  30  31
HETATM   31  C6  UNL     1       8.598  17.878  14.377  1.00  0.00     0.000 C 
BRANCH  31  32
HETATM   32  C5  UNL     1       9.870  17.118  14.197  1.00  0.00     0.007 C 
BRANCH  32  33
HETATM   33  C4  UNL     1       9.774  15.868  13.401  1.00  0.00     0.078 C 
BRANCH  33  34
HETATM   34  C3  UNL     1       8.776  14.888  13.854  1.00  0.00     0.126 C 
HETATM   35  O1  UNL     1       8.936  14.381  14.955  1.00  0.00    -0.298 OA
BRANCH  34  36
HETATM   36  C2  UNL     1       7.595  14.476  13.064  1.00  0.00     0.074 C 
HETATM   37  C1  UNL     1       6.569  13.840  13.959  1.00  0.00     0.013 C 
ENDBRANCH  34  36
ENDBRANCH  33  34
ENDBRANCH  32  33
ENDBRANCH  31  32
ENDBRANCH  30  31
ENDBRANCH  29  30
ENDBRANCH  28  29
ENDBRANCH  25  28
ENDBRANCH  23  24
ENDBRANCH  20  23
ENDBRANCH   1  19
BRANCH  10  38
HETATM   38  O5  UNL     1      14.640  24.240  18.564  1.00  0.00    -0.345 OA
ATOM     39  H5  UNL     1      15.192  25.012  18.525  1.00  0.00     0.219 HD
ENDBRANCH  10  38
BRANCH   7  40
HETATM   40  O4  UNL     1      16.300  20.952  15.483  1.00  0.00    -0.345 OA
ATOM     41  H4  UNL     1      16.529  21.120  14.577  1.00  0.00     0.219 HD
ENDBRANCH   7  40
TORSDOF 13
ENDMDL
MODEL 3
REMARK VINA RESULT: -8.495631172      1.057      1.235
REMARK  13 active torsions:
REMARK  status: ('A' for Active; 'I' for Inactive)
REMARK    1  A    between atoms: C2_2  and  C3_3 
REMARK    2  A    between atoms: C3_3  and  C4_5 
REMARK    3  A    between atoms: C4_5  and  C5_6 
REMARK    4  A    between atoms: C5_6  and  C6_7 
REMARK    5  A    between atoms: C6_7  and  C7_8 
REMARK    6  A    between atoms: C7_8  and  C8_9 
REMARK    7  A    between atoms: C8_9  and  C9_10 
REMARK    8  A    between atoms: C9_10  and  C10_11 
REMARK       I    between atoms: C10_11  and  N1_13 
REMARK    9  A    between atoms: N1_13  and  C12_15 
REMARK   10  A    between atoms: C12_15  and  C13_16 
REMARK       I    between atoms: C13_16  and  N2_18 
REMARK   11  A    between atoms: N2_18  and  C14_20 
REMARK   12  A    between atoms: C20_26  and  O4_27 
REMARK   13  A    between atoms: C22_31  and  O5_32 
ROOT
HETATM    1  C14 UNL     1      11.221  19.465  18.496  1.00  0.00     0.141 C 
HETATM    2  C15 UNL     1      10.720  20.843  18.899  1.00  0.00     0.030 C 
HETATM    3  C16 UNL     1      11.822  21.815  18.763  1.00  0.00     0.014 C 
HETATM    4  C17 UNL     1      12.087  22.347  17.414  1.00  0.00     0.058 C 
HETATM    5  C18 UNL     1      13.584  22.481  17.268  1.00  0.00     0.013 A 
HETATM    6  C19 UNL     1      14.053  21.525  16.401  1.00  0.00     0.040 A 
HETATM    7  C20 UNL     1      15.414  21.695  16.307  1.00  0.00     0.154 A 
HETATM    8  N3  UNL     1      15.794  22.718  17.083  1.00  0.00    -0.312 N 
HETATM    9  C21 UNL     1      17.172  23.210  17.253  1.00  0.00     0.160 C 
HETATM   10  C22 UNL     1      14.689  23.202  17.672  1.00  0.00     0.151 A 
HETATM   11  C23 UNL     1      12.929  20.684  15.905  1.00  0.00     0.121 C 
HETATM   12  C24 UNL     1      12.990  20.417  14.437  1.00  0.00     0.054 C 
HETATM   13  O6  UNL     1      12.761  19.561  16.691  1.00  0.00    -0.339 OA
HETATM   14  C25 UNL     1      11.431  19.439  17.011  1.00  0.00     0.345 C 
HETATM   15  N4  UNL     1      10.711  20.535  16.416  1.00  0.00    -0.039 N 
ATOM     16  H41 UNL     1       9.890  20.841  16.939  1.00  0.00     0.281 HD
ATOM     17  H42 UNL     1      10.204  20.301  15.562  1.00  0.00     0.281 HD
HETATM   18  C26 UNL     1      11.726  21.531  16.256  1.00  0.00     0.236 C 
ENDROOT
BRANCH   1  19
HETATM   19  N2  UNL     1      10.243  18.445  18.820  1.00  0.00    -0.351 N 
HETATM   20  C13 UNL     1       9.695  18.212  20.093  1.00  0.00     0.235 C 
HETATM   21  O3  UNL     1      10.045  18.907  21.063  1.00  0.00    -0.272 OA
ATOM     22  H2  UNL     1       9.926  17.846  18.059  1.00  0.00     0.163 HD
BRANCH  20  23
HETATM   23  C12 UNL     1       8.695  17.137  20.288  1.00  0.00     0.227 C 
BRANCH  23  24
HETATM   24  N1  UNL     1       7.541  17.378  19.425  1.00  0.00    -0.348 N 
HETATM   25  C10 UNL     1       7.211  16.461  18.362  1.00  0.00     0.219 C 
HETATM   26  O2  UNL     1       7.945  15.447  18.280  1.00  0.00    -0.273 OA
HETATM   27  C11 UNL     1       6.737  18.549  19.621  1.00  0.00     0.153 C 
BRANCH  25  28
HETATM   28  C9  UNL     1       6.076  16.754  17.468  1.00  0.00     0.103 C 
BRANCH  28  29
HETATM   29  C8  UNL     1       5.310  15.563  16.999  1.00  0.00     0.009 C 
BRANCH  29  30
HETATM   30  C7  UNL     1       5.300  15.364  15.505  1.00  0.00     0.000 C 
BRANCH  30  31
HETATM   31  C6  UNL     1       6.108  14.129  15.123  1.00  0.00     0.000 C 
BRANCH  31  32
HETATM   32  C5  UNL     1       7.538  14.482  14.874  1.00  0.00     0.007 C 
BRANCH  32  33
HETATM   33  C4  UNL     1       7.776  15.626  13.957  1.00  0.00     0.078 C 
BRANCH  33  34
HETATM   34  C3  UNL     1       8.418  16.808  14.551  1.00  0.00     0.126 C 
HETATM   35  O1  UNL     1       7.810  17.868  14.506  1.00  0.00    -0.298 OA
BRANCH  34  36
HETATM   36  C2  UNL     1       9.750  16.798  15.196  1.00  0.00     0.074 C 
HETATM   37  C1  UNL     1      10.817  17.109  14.186  1.00  0.00     0.013 C 
ENDBRANCH  34  36
ENDBRANCH  33  34
ENDBRANCH  32  33
ENDBRANCH  31  32
ENDBRANCH  30  31
ENDBRANCH  29  30
ENDBRANCH  28  29
ENDBRANCH  25  28
ENDBRANCH  23  24
ENDBRANCH  20  23
ENDBRANCH   1  19
BRANCH  10  38
HETATM   38  O5  UNL     1      14.684  24.277  18.559  1.00  0.00    -0.345 OA
ATOM     39  H5  UNL     1      13.914  24.712  18.904  1.00  0.00     0.219 HD
ENDBRANCH  10  38
BRANCH   7  40
HETATM   40  O4  UNL     1      16.309  20.931  15.523  1.00  0.00    -0.345 OA
ATOM     41  H4  UNL     1      16.093  20.412  14.758  1.00  0.00     0.219 HD
ENDBRANCH   7  40
TORSDOF 13
ENDMDL
MODEL 4
REMARK VINA RESULT: -8.251860562      2.606      9.807
REMARK  13 active torsions:
REMARK  status: ('A' for Active; 'I' for Inactive)
REMARK    1  A    between atoms: C2_2  and  C3_3 
REMARK    2  A    between atoms: C3_3  and  C4_5 
REMARK    3  A    between atoms: C4_5  and  C5_6 
REMARK    4  A    between atoms: C5_6  and  C6_7 
REMARK    5  A    between atoms: C6_7  and  C7_8 
REMARK    6  A    between atoms: C7_8  and  C8_9 
REMARK    7  A    between atoms: C8_9  and  C9_10 
REMARK    8  A    between atoms: C9_10  and  C10_11 
REMARK       I    between atoms: C10_11  and  N1_13 
REMARK    9  A    between atoms: N1_13  and  C12_15 
REMARK   10  A    between atoms: C12_15  and  C13_16 
REMARK       I    between atoms: C13_16  and  N2_18 
REMARK   11  A    between atoms: N2_18  and  C14_20 
REMARK   12  A    between atoms: C20_26  and  O4_27 
REMARK   13  A    between atoms: C22_31  and  O5_32 
ROOT
HETATM    1  C14 UNL     1       9.070  18.087  16.005  1.00  0.00     0.141 C 
HETATM    2  C15 UNL     1       9.246  17.712  17.467  1.00  0.00     0.030 C 
HETATM    3  C16 UNL     1       7.917  17.591  18.098  1.00  0.00     0.014 C 
HETATM    4  C17 UNL     1       7.191  16.324  17.898  1.00  0.00     0.058 C 
HETATM    5  C18 UNL     1       5.729  16.663  17.736  1.00  0.00     0.013 A 
HETATM    6  C19 UNL     1       5.349  16.466  16.430  1.00  0.00     0.040 A 
HETATM    7  C20 UNL     1       4.015  16.789  16.343  1.00  0.00     0.154 A 
HETATM    8  N3  UNL     1       3.566  17.175  17.544  1.00  0.00    -0.312 N 
HETATM    9  C21 UNL     1       2.191  17.600  17.857  1.00  0.00     0.160 C 
HETATM   10  C22 UNL     1       4.600  17.102  18.397  1.00  0.00     0.151 A 
HETATM   11  C23 UNL     1       6.506  15.989  15.624  1.00  0.00     0.121 C 
HETATM   12  C24 UNL     1       6.164  14.868  14.701  1.00  0.00     0.054 C 
HETATM   13  O6  UNL     1       7.171  17.045  15.032  1.00  0.00    -0.339 OA
HETATM   14  C25 UNL     1       8.517  16.907  15.263  1.00  0.00     0.345 C 
HETATM   15  N4  UNL     1       8.732  15.717  16.046  1.00  0.00    -0.039 N 
ATOM     16  H41 UNL     1       9.535  15.758  16.673  1.00  0.00     0.281 HD
ATOM     17  H42 UNL     1       9.058  14.909  15.516  1.00  0.00     0.281 HD
HETATM   18  C26 UNL     1       7.471  15.537  16.698  1.00  0.00     0.236 C 
ENDROOT
BRANCH   1  19
HETATM   19  N2  UNL     1      10.343  18.430  15.403  1.00  0.00    -0.351 N 
HETATM   20  C13 UNL     1      11.012  19.658  15.544  1.00  0.00     0.235 C 
HETATM   21  O3  UNL     1      10.512  20.567  16.230  1.00  0.00    -0.272 OA
ATOM     22  H2  UNL     1      10.792  17.718  14.827  1.00  0.00     0.163 HD
BRANCH  20  23
HETATM   23  C12 UNL     1      12.316  19.878  14.877  1.00  0.00     0.227 C 
BRANCH  23  24
HETATM   24  N1  UNL     1      13.319  20.251  15.873  1.00  0.00    -0.348 N 
HETATM   25  C10 UNL     1      14.209  21.361  15.641  1.00  0.00     0.219 C 
HETATM   26  O2  UNL     1      14.018  21.989  14.572  1.00  0.00    -0.273 OA
HETATM   27  C11 UNL     1      13.437  19.494  17.084  1.00  0.00     0.153 C 
BRANCH  25  28
HETATM   28  C9  UNL     1      15.250  21.684  16.633  1.00  0.00     0.103 C 
BRANCH  28  29
HETATM   29  C8  UNL     1      15.069  22.979  17.350  1.00  0.00     0.009 C 
BRANCH  29  30
HETATM   30  C7  UNL     1      13.834  23.061  18.210  1.00  0.00     0.000 C 
BRANCH  30  31
HETATM   31  C6  UNL     1      14.180  22.813  19.673  1.00  0.00     0.000 C 
BRANCH  31  32
HETATM   32  C5  UNL     1      14.312  24.100  20.418  1.00  0.00     0.007 C 
BRANCH  32  33
HETATM   33  C4  UNL     1      15.617  24.334  21.088  1.00  0.00     0.078 C 
BRANCH  33  34
HETATM   34  C3  UNL     1      16.716  24.787  20.222  1.00  0.00     0.126 C 
HETATM   35  O1  UNL     1      17.820  24.292  20.398  1.00  0.00    -0.298 OA
BRANCH  34  36
HETATM   36  C2  UNL     1      16.572  25.803  19.156  1.00  0.00     0.074 C 
HETATM   37  C1  UNL     1      17.678  25.658  18.149  1.00  0.00     0.013 C 
ENDBRANCH  34  36
ENDBRANCH  33  34
ENDBRANCH  32  33
ENDBRANCH  31  32
ENDBRANCH  30  31
ENDBRANCH  29  30
ENDBRANCH  28  29
ENDBRANCH  25  28
ENDBRANCH  23  24
ENDBRANCH  20  23
ENDBRANCH   1  19
BRANCH  10  38
HETATM   38  O5  UNL     1       4.520  17.429  19.750  1.00  0.00    -0.345 OA
ATOM     39  H5  UNL     1       3.946  17.024  20.388  1.00  0.00     0.219 HD
ENDBRANCH  10  38
BRANCH   7  40
HETATM   40  O4  UNL     1       3.207  16.734  15.184  1.00  0.00    -0.345 OA
ATOM     41  H4  UNL     1       3.441  17.033  14.314  1.00  0.00     0.219 HD
ENDBRANCH   7  40
TORSDOF 13
ENDMDL
MODEL 5
REMARK VINA RESULT: -8.200563978      2.703     10.095
REMARK  13 active torsions:
REMARK  status: ('A' for Active; 'I' for Inactive)
REMARK    1  A    between atoms: C2_2  and  C3_3 
REMARK    2  A    between atoms: C3_3  and  C4_5 
REMARK    3  A    between atoms: C4_5  and  C5_6 
REMARK    4  A    between atoms: C5_6  and  C6_7 
REMARK    5  A    between atoms: C6_7  and  C7_8 
REMARK    6  A    between atoms: C7_8  and  C8_9 
REMARK    7  A    between atoms: C8_9  and  C9_10 
REMARK    8  A    between atoms: C9_10  and  C10_11 
REMARK       I    between atoms: C10_11  and  N1_13 
REMARK    9  A    between atoms: N1_13  and  C12_15 
REMARK   10  A    between atoms: C12_15  and  C13_16 
REMARK       I    between atoms: C13_16  and  N2_18 
REMARK   11  A    between atoms: N2_18  and  C14_20 
REMARK   12  A    between atoms: C20_26  and  O4_27 
REMARK   13  A    between atoms: C22_31  and  O5_32 
ROOT
HETATM    1  C14 UNL     1      14.361  20.219  15.647  1.00  0.00     0.141 C 
HETATM    2  C15 UNL     1      13.307  20.727  14.676  1.00  0.00     0.030 C 
HETATM    3  C16 UNL     1      11.993  20.172  15.056  1.00  0.00     0.014 C 
HETATM    4  C17 UNL     1      11.266  20.851  16.143  1.00  0.00     0.058 C 
HETATM    5  C18 UNL     1      10.584  19.783  16.965  1.00  0.00     0.013 A 
HETATM    6  C19 UNL     1      11.211  19.662  18.181  1.00  0.00     0.040 A 
HETATM    7  C20 UNL     1      10.551  18.681  18.883  1.00  0.00     0.154 A 
HETATM    8  N3  UNL     1       9.545  18.198  18.141  1.00  0.00    -0.312 N 
HETATM    9  C21 UNL     1       8.609  17.134  18.544  1.00  0.00     0.160 C 
HETATM   10  C22 UNL     1       9.558  18.860  16.974  1.00  0.00     0.151 A 
HETATM   11  C23 UNL     1      12.345  20.622  18.273  1.00  0.00     0.121 C 
HETATM   12  C24 UNL     1      12.419  21.331  19.584  1.00  0.00     0.054 C 
HETATM   13  O6  UNL     1      13.528  20.038  17.863  1.00  0.00    -0.339 OA
HETATM   14  C25 UNL     1      14.155  20.879  16.978  1.00  0.00     0.345 C 
HETATM   15  N4  UNL     1      13.339  22.052  16.798  1.00  0.00    -0.039 N 
ATOM     16  H41 UNL     1      13.407  22.482  15.876  1.00  0.00     0.281 HD
ATOM     17  H42 UNL     1      13.651  22.873  17.316  1.00  0.00     0.281 HD
HETATM   18  C26 UNL     1      12.033  21.585  17.148  1.00  0.00     0.236 C 
ENDROOT
BRANCH   1  19
HETATM   19  N2  UNL     1      15.693  20.558  15.187  1.00  0.00    -0.351 N 
HETATM   20  C13 UNL     1      16.050  21.737  14.509  1.00  0.00     0.235 C 
HETATM   21  O3  UNL     1      15.188  22.595  14.250  1.00  0.00    -0.272 OA
ATOM     22  H2  UNL     1      16.435  19.884  15.373  1.00  0.00     0.163 HD
BRANCH  20  23
HETATM   23  C12 UNL     1      17.454  21.964  14.099  1.00  0.00     0.227 C 
BRANCH  23  24
HETATM   24  N1  UNL     1      17.641  23.370  13.748  1.00  0.00    -0.348 N 
HETATM   25  C10 UNL     1      18.017  24.336  14.751  1.00  0.00     0.219 C 
HETATM   26  O2  UNL     1      18.213  23.870  15.899  1.00  0.00    -0.273 OA
HETATM   27  C11 UNL     1      17.429  23.803  12.398  1.00  0.00     0.153 C 
BRANCH  25  28
HETATM   28  C9  UNL     1      18.144  25.758  14.387  1.00  0.00     0.103 C 
BRANCH  28  29
HETATM   29  C8  UNL     1      19.085  26.551  15.231  1.00  0.00     0.009 C 
BRANCH  29  30
HETATM   30  C7  UNL     1      18.430  27.367  16.316  1.00  0.00     0.000 C 
BRANCH  30  31
HETATM   31  C6  UNL     1      19.133  27.148  17.651  1.00  0.00     0.000 C 
BRANCH  31  32
HETATM   32  C5  UNL     1      18.674  25.881  18.295  1.00  0.00     0.007 C 
BRANCH  32  33
HETATM   33  C4  UNL     1      17.274  25.874  18.790  1.00  0.00     0.078 C 
BRANCH  33  34
HETATM   34  C3  UNL     1      16.872  24.698  19.577  1.00  0.00     0.126 C 
HETATM   35  O1  UNL     1      17.635  24.309  20.449  1.00  0.00    -0.298 OA
BRANCH  34  36
HETATM   36  C2  UNL     1      15.606  23.957  19.379  1.00  0.00     0.074 C 
HETATM   37  C1  UNL     1      14.694  24.167  20.555  1.00  0.00     0.013 C 
ENDBRANCH  34  36
ENDBRANCH  33  34
ENDBRANCH  32  33
ENDBRANCH  31  32
ENDBRANCH  30  31
ENDBRANCH  29  30
ENDBRANCH  28  29
ENDBRANCH  25  28
ENDBRANCH  23  24
ENDBRANCH  20  23
ENDBRANCH   1  19
BRANCH  10  38
HETATM   38  O5  UNL     1       8.655  18.631  15.937  1.00  0.00    -0.345 OA
ATOM     39  H5  UNL     1       8.879  18.475  15.028  1.00  0.00     0.219 HD
ENDBRANCH  10  38
BRANCH   7  40
HETATM   40  O4  UNL     1      10.854  18.225  20.186  1.00  0.00    -0.345 OA
ATOM     41  H4  UNL     1      10.362  18.404  20.979  1.00  0.00     0.219 HD
ENDBRANCH   7  40
TORSDOF 13
ENDMDL
