MODEL 1
REMARK VINA RESULT: -9.230163421      0.000      0.000
REMARK  13 active torsions:
REMARK  status: ('A' for Active; 'I' for Inactive)
REMARK    1  A    between atoms: S1_2  and  C2_3 
REMARK    2  A    between atoms: C2_3  and  C3_4 
REMARK    3  A    between atoms: C3_4  and  C11_14 
REMARK    4  A    between atoms: N1_5  and  C4_7 
REMARK       I    between atoms: C11_14  and  N2_16 
REMARK    5  A    between atoms: C15_20  and  C16_21 
REMARK       I    between atoms: C16_21  and  N3_23 
REMARK    6  A    between atoms: N3_23  and  C17_24 
REMARK    7  A    between atoms: C17_24  and  C18_25 
REMARK    8  A    between atoms: C18_25  and  C19_26 
REMARK    9  A    between atoms: C19_26  and  O3_27 
REMARK   10  A    between atoms: C19_26  and  N4_29 
REMARK   11  A    between atoms: N4_29  and  C20_31 
REMARK   12  A    between atoms: C20_31  and  C21_32 
REMARK   13  A    between atoms: C21_32  and  C22_33 
ROOT
HETATM    1  C11 UNL     1       9.664  18.944  16.901  1.00  0.00     0.267 C 
HETATM    2  O1  UNL     1       9.095  19.708  16.036  1.00  0.00    -0.266 OA
HETATM    3  N2  UNL     1      10.688  19.480  17.671  1.00  0.00    -0.332 N 
HETATM    4  C12 UNL     1      11.314  18.822  18.863  1.00  0.00     0.127 C 
HETATM    5  C13 UNL     1      11.291  20.016  19.843  1.00  0.00     0.022 C 
HETATM    6  C14 UNL     1      11.186  21.273  18.950  1.00  0.00     0.038 C 
HETATM    7  C15 UNL     1      11.509  20.659  17.616  1.00  0.00     0.194 C 
ENDROOT
BRANCH   7   8
HETATM    8  C16 UNL     1      11.537  21.519  16.457  1.00  0.00     0.314 C 
HETATM    9  O2  UNL     1      10.952  22.577  16.328  1.00  0.00    -0.255 OA
HETATM   10  N3  UNL     1      12.361  21.010  15.348  1.00  0.00    -0.386 NA
BRANCH  10  11
HETATM   11  C17 UNL     1      13.074  20.571  14.388  1.00  0.00     0.167 C 
BRANCH  11  12
HETATM   12  C18 UNL     1      14.621  20.786  14.391  1.00  0.00     0.143 C 
BRANCH  12  13
HETATM   13  C19 UNL     1      15.130  20.359  15.722  1.00  0.00     0.117 C 
BRANCH  13  14
HETATM   14  O3  UNL     1      15.583  19.141  15.765  1.00  0.00    -0.349 OA
ATOM     15  H3  UNL     1      15.775  18.758  14.917  1.00  0.00     0.219 HD
ENDBRANCH  13  14
BRANCH  13  16
HETATM   16  N4  UNL     1      15.176  21.101  16.895  1.00  0.00    -0.374 N 
ATOM     17  H4  UNL     1      15.138  20.617  17.792  1.00  0.00     0.161 HD
BRANCH  16  18
HETATM   18  C20 UNL     1      15.277  22.547  16.872  1.00  0.00     0.121 C 
BRANCH  18  19
HETATM   19  C21 UNL     1      15.883  23.131  18.104  1.00  0.00     0.024 C 
BRANCH  19  20
HETATM   20  C22 UNL     1      14.939  24.028  18.873  1.00  0.00    -0.010 C 
HETATM   21  C23 UNL     1      14.404  23.446  20.133  1.00  0.00     0.032 C 
HETATM   22  C24 UNL     1      15.122  23.990  21.369  1.00  0.00     0.232 C 
HETATM   23  N5  UNL     1      16.517  24.238  21.122  1.00  0.00    -0.075 N 
HETATM   24  C25 UNL     1      16.781  25.158  20.060  1.00  0.00     0.232 C 
ATOM     25  H52 UNL     1      16.980  24.543  21.978  1.00  0.00     0.277 HD
ATOM     26  H51 UNL     1      17.009  23.359  20.960  1.00  0.00     0.277 HD
HETATM   27  C26 UNL     1      15.614  25.338  19.147  1.00  0.00     0.032 C 
ENDBRANCH  19  20
ENDBRANCH  18  19
ENDBRANCH  16  18
ENDBRANCH  13  16
ENDBRANCH  12  13
ENDBRANCH  11  12
ENDBRANCH  10  11
ENDBRANCH   7   8
BRANCH   1  28
HETATM   28  C3  UNL     1       9.124  17.602  16.919  1.00  0.00     0.083 C 
HETATM   29  N1  UNL     1       8.901  16.982  15.846  1.00  0.00    -0.383 N 
ATOM     30  H1  UNL     1       9.139  17.506  15.004  1.00  0.00     0.160 HD
BRANCH  28  31
HETATM   31  C2  UNL     1       8.830  16.968  18.252  1.00  0.00     0.136 C 
BRANCH  31  32
HETATM   32  S1  UNL     1       7.689  17.919  19.249  1.00  0.00    -0.167 SA
HETATM   33  C1  UNL     1       8.149  18.077  20.971  1.00  0.00     0.090 C 
ENDBRANCH  31  32
ENDBRANCH  28  31
BRANCH  29  34
HETATM   34  C4  UNL     1       8.381  15.691  15.596  1.00  0.00     0.085 C 
HETATM   35  C5  UNL     1       9.174  14.850  14.636  1.00  0.00     0.025 C 
HETATM   36  C6  UNL     1       8.686  14.989  13.229  1.00  0.00     0.002 C 
HETATM   37  C7  UNL     1       7.305  14.359  13.150  1.00  0.00     0.001 C 
HETATM   38  C8  UNL     1       6.488  14.599  14.383  1.00  0.00     0.006 C 
HETATM   39  C9  UNL     1       6.960  15.882  15.033  1.00  0.00     0.004 C 
HETATM   40  C10 UNL     1       6.087  16.289  16.182  1.00  0.00     0.012 C 
ENDBRANCH  29  34
ENDBRANCH   1  28
TORSDOF 13
ENDMDL
MODEL 2
REMARK VINA RESULT: -8.617653127      3.554      9.508
REMARK  13 active torsions:
REMARK  status: ('A' for Active; 'I' for Inactive)
REMARK    1  A    between atoms: S1_2  and  C2_3 
REMARK    2  A    between atoms: C2_3  and  C3_4 
REMARK    3  A    between atoms: C3_4  and  C11_14 
REMARK    4  A    between atoms: N1_5  and  C4_7 
REMARK       I    between atoms: C11_14  and  N2_16 
REMARK    5  A    between atoms: C15_20  and  C16_21 
REMARK       I    between atoms: C16_21  and  N3_23 
REMARK    6  A    between atoms: N3_23  and  C17_24 
REMARK    7  A    between atoms: C17_24  and  C18_25 
REMARK    8  A    between atoms: C18_25  and  C19_26 
REMARK    9  A    between atoms: C19_26  and  O3_27 
REMARK   10  A    between atoms: C19_26  and  N4_29 
REMARK   11  A    between atoms: N4_29  and  C20_31 
REMARK   12  A    between atoms: C20_31  and  C21_32 
REMARK   13  A    between atoms: C21_32  and  C22_33 
ROOT
HETATM    1  C11 UNL     1      15.226  22.694  17.027  1.00  0.00     0.267 C 
HETATM    2  O1  UNL     1      14.904  23.450  18.017  1.00  0.00    -0.266 OA
HETATM    3  N2  UNL     1      14.386  21.631  16.719  1.00  0.00    -0.332 N 
HETATM    4  C12 UNL     1      14.476  20.783  15.487  1.00  0.00     0.127 C 
HETATM    5  C13 UNL     1      12.986  20.788  15.076  1.00  0.00     0.022 C 
HETATM    6  C14 UNL     1      12.211  21.139  16.366  1.00  0.00     0.038 C 
HETATM    7  C15 UNL     1      13.307  20.946  17.378  1.00  0.00     0.194 C 
ENDROOT
BRANCH   7   8
HETATM    8  C16 UNL     1      12.998  21.166  18.770  1.00  0.00     0.314 C 
HETATM    9  O2  UNL     1      13.794  21.380  19.663  1.00  0.00    -0.255 OA
HETATM   10  N3  UNL     1      11.560  21.101  19.085  1.00  0.00    -0.386 NA
BRANCH  10  11
HETATM   11  C17 UNL     1      10.318  21.046  19.359  1.00  0.00     0.167 C 
BRANCH  11  12
HETATM   12  C18 UNL     1       9.746  19.858  20.197  1.00  0.00     0.143 C 
BRANCH  12  13
HETATM   13  C19 UNL     1      10.362  18.607  19.680  1.00  0.00     0.117 C 
BRANCH  13  14
HETATM   14  O3  UNL     1      11.431  18.225  20.313  1.00  0.00    -0.349 OA
ATOM     15  H3  UNL     1      12.245  18.376  19.846  1.00  0.00     0.219 HD
ENDBRANCH  13  14
BRANCH  13  16
HETATM   16  N4  UNL     1       9.931  17.819  18.620  1.00  0.00    -0.374 N 
ATOM     17  H4  UNL     1       9.280  17.055  18.800  1.00  0.00     0.161 HD
BRANCH  16  18
HETATM   18  C20 UNL     1      10.385  18.061  17.265  1.00  0.00     0.121 C 
BRANCH  18  19
HETATM   19  C21 UNL     1       9.402  18.800  16.420  1.00  0.00     0.024 C 
BRANCH  19  20
HETATM   20  C22 UNL     1       9.686  18.701  14.937  1.00  0.00    -0.010 C 
HETATM   21  C23 UNL     1      10.729  17.710  14.561  1.00  0.00     0.032 C 
HETATM   22  C24 UNL     1      10.123  16.414  14.019  1.00  0.00     0.232 C 
HETATM   23  N5  UNL     1       8.887  16.077  14.671  1.00  0.00    -0.075 N 
HETATM   24  C25 UNL     1       7.868  17.075  14.572  1.00  0.00     0.232 C 
ATOM     25  H52 UNL     1       8.539  15.181  14.330  1.00  0.00     0.277 HD
ATOM     26  H51 UNL     1       9.056  15.839  15.649  1.00  0.00     0.277 HD
HETATM   27  C26 UNL     1       8.407  18.419  14.207  1.00  0.00     0.032 C 
ENDBRANCH  19  20
ENDBRANCH  18  19
ENDBRANCH  16  18
ENDBRANCH  13  16
ENDBRANCH  12  13
ENDBRANCH  11  12
ENDBRANCH  10  11
ENDBRANCH   7   8
BRANCH   1  28
HETATM   28  C3  UNL     1      16.460  23.090  16.384  1.00  0.00     0.083 C 
HETATM   29  N1  UNL     1      16.487  23.361  15.155  1.00  0.00    -0.383 N 
ATOM     30  H1  UNL     1      15.584  23.280  14.689  1.00  0.00     0.160 HD
BRANCH  28  31
HETATM   31  C2  UNL     1      17.709  23.163  17.219  1.00  0.00     0.136 C 
BRANCH  31  32
HETATM   32  S1  UNL     1      18.033  24.800  17.863  1.00  0.00    -0.167 SA
HETATM   33  C1  UNL     1      17.533  25.049  19.564  1.00  0.00     0.090 C 
ENDBRANCH  31  32
ENDBRANCH  28  31
BRANCH  29  34
HETATM   34  C4  UNL     1      17.544  23.758  14.303  1.00  0.00     0.085 C 
HETATM   35  C5  UNL     1      17.445  25.155  13.759  1.00  0.00     0.025 C 
HETATM   36  C6  UNL     1      16.761  25.195  12.428  1.00  0.00     0.002 C 
HETATM   37  C7  UNL     1      17.669  24.515  11.417  1.00  0.00     0.001 C 
HETATM   38  C8  UNL     1      18.393  23.334  11.990  1.00  0.00     0.006 C 
HETATM   39  C9  UNL     1      17.566  22.766  13.125  1.00  0.00     0.004 C 
HETATM   40  C10 UNL     1      18.132  21.480  13.648  1.00  0.00     0.012 C 
ENDBRANCH  29  34
ENDBRANCH   1  28
TORSDOF 13
ENDMDL
MODEL 3
REMARK VINA RESULT: -8.593300466      1.353      2.170
REMARK  13 active torsions:
REMARK  status: ('A' for Active; 'I' for Inactive)
REMARK    1  A    between atoms: S1_2  and  C2_3 
REMARK    2  A    between atoms: C2_3  and  C3_4 
REMARK    3  A    between atoms: C3_4  and  C11_14 
REMARK    4  A    between atoms: N1_5  and  C4_7 
REMARK       I    between atoms: C11_14  and  N2_16 
REMARK    5  A    between atoms: C15_20  and  C16_21 
REMARK       I    between atoms: C16_21  and  N3_23 
REMARK    6  A    between atoms: N3_23  and  C17_24 
REMARK    7  A    between atoms: C17_24  and  C18_25 
REMARK    8  A    between atoms: C18_25  and  C19_26 
REMARK    9  A    between atoms: C19_26  and  O3_27 
REMARK   10  A    between atoms: C19_26  and  N4_29 
REMARK   11  A    between atoms: N4_29  and  C20_31 
REMARK   12  A    between atoms: C20_31  and  C21_32 
REMARK   13  A    between atoms: C21_32  and  C22_33 
ROOT
HETATM    1  C11 UNL     1       9.456  18.963  16.819  1.00  0.00     0.267 C 
HETATM    2  O1  UNL     1       9.021  19.747  15.896  1.00  0.00    -0.266 OA
HETATM    3  N2  UNL     1      10.401  19.463  17.706  1.00  0.00    -0.332 N 
HETATM    4  C12 UNL     1      10.859  18.783  18.961  1.00  0.00     0.127 C 
HETATM    5  C13 UNL     1      10.764  19.978  19.936  1.00  0.00     0.022 C 
HETATM    6  C14 UNL     1      10.811  21.236  19.041  1.00  0.00     0.038 C 
HETATM    7  C15 UNL     1      11.266  20.610  17.752  1.00  0.00     0.194 C 
ENDROOT
BRANCH   7   8
HETATM    8  C16 UNL     1      11.460  21.468  16.608  1.00  0.00     0.314 C 
HETATM    9  O2  UNL     1      11.036  22.599  16.471  1.00  0.00    -0.255 OA
HETATM   10  N3  UNL     1      12.249  20.857  15.524  1.00  0.00    -0.386 NA
BRANCH  10  11
HETATM   11  C17 UNL     1      12.930  20.330  14.586  1.00  0.00     0.167 C 
BRANCH  11  12
HETATM   12  C18 UNL     1      14.436  20.701  14.401  1.00  0.00     0.143 C 
BRANCH  12  13
HETATM   13  C19 UNL     1      15.144  20.348  15.660  1.00  0.00     0.117 C 
BRANCH  13  14
HETATM   14  O3  UNL     1      15.745  19.195  15.640  1.00  0.00    -0.349 OA
ATOM     15  H3  UNL     1      15.910  18.848  14.771  1.00  0.00     0.219 HD
ENDBRANCH  13  14
BRANCH  13  16
HETATM   16  N4  UNL     1      15.231  21.095  16.827  1.00  0.00    -0.374 N 
ATOM     17  H4  UNL     1      15.257  20.614  17.726  1.00  0.00     0.161 HD
BRANCH  16  18
HETATM   18  C20 UNL     1      15.286  22.544  16.795  1.00  0.00     0.121 C 
BRANCH  18  19
HETATM   19  C21 UNL     1      15.875  23.154  18.023  1.00  0.00     0.024 C 
BRANCH  19  20
HETATM   20  C22 UNL     1      14.884  23.965  18.827  1.00  0.00    -0.010 C 
HETATM   21  C23 UNL     1      14.412  23.320  20.082  1.00  0.00     0.032 C 
HETATM   22  C24 UNL     1      15.112  23.886  21.318  1.00  0.00     0.232 C 
HETATM   23  N5  UNL     1      16.482  24.236  21.056  1.00  0.00    -0.075 N 
HETATM   24  C25 UNL     1      16.662  25.195  20.011  1.00  0.00     0.232 C 
ATOM     25  H52 UNL     1      16.936  24.555  21.911  1.00  0.00     0.277 HD
ATOM     26  H51 UNL     1      17.031  23.398  20.866  1.00  0.00     0.277 HD
HETATM   27  C26 UNL     1      15.471  25.313  19.120  1.00  0.00     0.032 C 
ENDBRANCH  19  20
ENDBRANCH  18  19
ENDBRANCH  16  18
ENDBRANCH  13  16
ENDBRANCH  12  13
ENDBRANCH  11  12
ENDBRANCH  10  11
ENDBRANCH   7   8
BRANCH   1  28
HETATM   28  C3  UNL     1       8.869  17.642  16.769  1.00  0.00     0.083 C 
HETATM   29  N1  UNL     1       7.712  17.433  17.219  1.00  0.00    -0.383 N 
ATOM     30  H1  UNL     1       7.255  18.263  17.597  1.00  0.00     0.160 HD
BRANCH  28  31
HETATM   31  C2  UNL     1       9.679  16.523  16.173  1.00  0.00     0.136 C 
BRANCH  31  32
HETATM   32  S1  UNL     1      10.218  16.855  14.500  1.00  0.00    -0.167 SA
HETATM   33  C1  UNL     1       9.626  15.690  13.276  1.00  0.00     0.090 C 
ENDBRANCH  31  32
ENDBRANCH  28  31
BRANCH  29  34
HETATM   34  C4  UNL     1       6.930  16.257  17.294  1.00  0.00     0.085 C 
HETATM   35  C5  UNL     1       7.222  15.220  16.247  1.00  0.00     0.025 C 
HETATM   36  C6  UNL     1       6.341  15.365  15.047  1.00  0.00     0.002 C 
HETATM   37  C7  UNL     1       4.923  15.017  15.464  1.00  0.00     0.001 C 
HETATM   38  C8  UNL     1       4.594  15.488  16.849  1.00  0.00     0.006 C 
HETATM   39  C9  UNL     1       5.457  16.690  17.167  1.00  0.00     0.004 C 
HETATM   40  C10 UNL     1       5.077  17.330  18.468  1.00  0.00     0.012 C 
ENDBRANCH  29  34
ENDBRANCH   1  28
TORSDOF 13
ENDMDL
MODEL 4
REMARK VINA RESULT: -8.466888156      3.390      9.286
REMARK  13 active torsions:
REMARK  status: ('A' for Active; 'I' for Inactive)
REMARK    1  A    between atoms: S1_2  and  C2_3 
REMARK    2  A    between atoms: C2_3  and  C3_4 
REMARK    3  A    between atoms: C3_4  and  C11_14 
REMARK    4  A    between atoms: N1_5  and  C4_7 
REMARK       I    between atoms: C11_14  and  N2_16 
REMARK    5  A    between atoms: C15_20  and  C16_21 
REMARK       I    between atoms: C16_21  and  N3_23 
REMARK    6  A    between atoms: N3_23  and  C17_24 
REMARK    7  A    between atoms: C17_24  and  C18_25 
REMARK    8  A    between atoms: C18_25  and  C19_26 
REMARK    9  A    between atoms: C19_26  and  O3_27 
REMARK   10  A    between atoms: C19_26  and  N4_29 
REMARK   11  A    between atoms: N4_29  and  C20_31 
REMARK   12  A    between atoms: C20_31  and  C21_32 
REMARK   13  A    between atoms: C21_32  and  C22_33 
ROOT
HETATM    1  C11 UNL     1      15.035  22.342  16.724  1.00  0.00     0.267 C 
HETATM    2  O1  UNL     1      14.579  21.300  16.124  1.00  0.00    -0.266 OA
HETATM    3  N2  UNL     1      14.301  22.858  17.785  1.00  0.00    -0.332 N 
HETATM    4  C12 UNL     1      14.773  23.918  18.733  1.00  0.00     0.127 C 
HETATM    5  C13 UNL     1      14.364  23.254  20.067  1.00  0.00     0.022 C 
HETATM    6  C14 UNL     1      13.269  22.231  19.692  1.00  0.00     0.038 C 
HETATM    7  C15 UNL     1      12.966  22.688  18.292  1.00  0.00     0.194 C 
ENDROOT
BRANCH   7   8
HETATM    8  C16 UNL     1      11.949  21.986  17.549  1.00  0.00     0.314 C 
HETATM    9  O2  UNL     1      11.455  22.332  16.493  1.00  0.00    -0.255 OA
HETATM   10  N3  UNL     1      11.491  20.739  18.185  1.00  0.00    -0.386 NA
BRANCH  10  11
HETATM   11  C17 UNL     1      11.095  19.660  18.734  1.00  0.00     0.167 C 
BRANCH  11  12
HETATM   12  C18 UNL     1      11.884  18.329  18.519  1.00  0.00     0.143 C 
BRANCH  12  13
HETATM   13  C19 UNL     1      12.967  18.604  17.537  1.00  0.00     0.117 C 
BRANCH  13  14
HETATM   14  O3  UNL     1      14.135  18.825  18.064  1.00  0.00    -0.349 OA
ATOM     15  H3  UNL     1      14.870  18.667  17.483  1.00  0.00     0.219 HD
ENDBRANCH  13  14
BRANCH  13  16
HETATM   16  N4  UNL     1      12.871  18.648  16.153  1.00  0.00    -0.374 N 
ATOM     17  H4  UNL     1      13.492  19.264  15.629  1.00  0.00     0.161 HD
BRANCH  16  18
HETATM   18  C20 UNL     1      11.907  17.835  15.435  1.00  0.00     0.121 C 
BRANCH  18  19
HETATM   19  C21 UNL     1      10.615  18.529  15.164  1.00  0.00     0.024 C 
BRANCH  19  20
HETATM   20  C22 UNL     1       9.797  17.876  14.072  1.00  0.00    -0.010 C 
HETATM   21  C23 UNL     1      10.171  16.470  13.761  1.00  0.00     0.032 C 
HETATM   22  C24 UNL     1       9.203  15.466  14.389  1.00  0.00     0.232 C 
HETATM   23  N5  UNL     1       8.713  15.908  15.667  1.00  0.00    -0.075 N 
HETATM   24  C25 UNL     1       8.035  17.167  15.643  1.00  0.00     0.232 C 
ATOM     25  H52 UNL     1       8.118  15.194  16.086  1.00  0.00     0.277 HD
ATOM     26  H51 UNL     1       9.471  15.928  16.349  1.00  0.00     0.277 HD
HETATM   27  C26 UNL     1       8.342  17.968  14.421  1.00  0.00     0.032 C 
ENDBRANCH  19  20
ENDBRANCH  18  19
ENDBRANCH  16  18
ENDBRANCH  13  16
ENDBRANCH  12  13
ENDBRANCH  11  12
ENDBRANCH  10  11
ENDBRANCH   7   8
BRANCH   1  28
HETATM   28  C3  UNL     1      16.281  22.822  16.166  1.00  0.00     0.083 C 
HETATM   29  N1  UNL     1      16.352  23.176  14.959  1.00  0.00    -0.383 N 
ATOM     30  H1  UNL     1      15.473  23.095  14.448  1.00  0.00     0.160 HD
BRANCH  28  31
HETATM   31  C2  UNL     1      17.488  22.882  17.061  1.00  0.00     0.136 C 
BRANCH  31  32
HETATM   32  S1  UNL     1      18.099  24.544  17.312  1.00  0.00    -0.167 SA
HETATM   33  C1  UNL     1      18.092  25.097  19.015  1.00  0.00     0.090 C 
ENDBRANCH  31  32
ENDBRANCH  28  31
BRANCH  29  34
HETATM   34  C4  UNL     1      17.430  23.665  14.185  1.00  0.00     0.085 C 
HETATM   35  C5  UNL     1      17.257  25.055  13.644  1.00  0.00     0.025 C 
HETATM   36  C6  UNL     1      16.665  25.058  12.271  1.00  0.00     0.002 C 
HETATM   37  C7  UNL     1      17.690  24.463  11.320  1.00  0.00     0.001 C 
HETATM   38  C8  UNL     1      18.464  23.336  11.934  1.00  0.00     0.006 C 
HETATM   39  C9  UNL     1      17.610  22.692  13.005  1.00  0.00     0.004 C 
HETATM   40  C10 UNL     1      18.239  21.448  13.558  1.00  0.00     0.012 C 
ENDBRANCH  29  34
ENDBRANCH   1  28
TORSDOF 13
ENDMDL
MODEL 5
REMARK VINA RESULT: -8.343840125      3.859      9.905
REMARK  13 active torsions:
REMARK  status: ('A' for Active; 'I' for Inactive)
REMARK    1  A    between atoms: S1_2  and  C2_3 
REMARK    2  A    between atoms: C2_3  and  C3_4 
REMARK    3  A    between atoms: C3_4  and  C11_14 
REMARK    4  A    between atoms: N1_5  and  C4_7 
REMARK       I    between atoms: C11_14  and  N2_16 
REMARK    5  A    between atoms: C15_20  and  C16_21 
REMARK       I    between atoms: C16_21  and  N3_23 
REMARK    6  A    between atoms: N3_23  and  C17_24 
REMARK    7  A    between atoms: C17_24  and  C18_25 
REMARK    8  A    between atoms: C18_25  and  C19_26 
REMARK    9  A    between atoms: C19_26  and  O3_27 
REMARK   10  A    between atoms: C19_26  and  N4_29 
REMARK   11  A    between atoms: N4_29  and  C20_31 
REMARK   12  A    between atoms: C20_31  and  C21_32 
REMARK   13  A    between atoms: C21_32  and  C22_33 
ROOT
HETATM    1  C11 UNL     1      15.707  22.460  15.959  1.00  0.00     0.267 C 
HETATM    2  O1  UNL     1      15.383  22.850  17.142  1.00  0.00    -0.266 OA
HETATM    3  N2  UNL     1      14.970  21.429  15.388  1.00  0.00    -0.332 N 
HETATM    4  C12 UNL     1      15.054  20.992  13.957  1.00  0.00     0.127 C 
HETATM    5  C13 UNL     1      13.545  20.919  13.634  1.00  0.00     0.022 C 
HETATM    6  C14 UNL     1      12.843  20.779  15.003  1.00  0.00     0.038 C 
HETATM    7  C15 UNL     1      14.032  20.448  15.862  1.00  0.00     0.194 C 
ENDROOT
BRANCH   7   8
HETATM    8  C16 UNL     1      13.814  20.215  17.269  1.00  0.00     0.314 C 
HETATM    9  O2  UNL     1      14.452  19.468  17.987  1.00  0.00    -0.255 OA
HETATM   10  N3  UNL     1      12.688  20.973  17.839  1.00  0.00    -0.386 NA
BRANCH  10  11
HETATM   11  C17 UNL     1      11.714  21.629  18.332  1.00  0.00     0.167 C 
BRANCH  11  12
HETATM   12  C18 UNL     1      10.452  20.883  18.872  1.00  0.00     0.143 C 
BRANCH  12  13
HETATM   13  C19 UNL     1      10.866  19.498  19.221  1.00  0.00     0.117 C 
BRANCH  13  14
HETATM   14  O3  UNL     1      11.625  19.406  20.273  1.00  0.00    -0.349 OA
ATOM     15  H3  UNL     1      12.418  18.898  20.147  1.00  0.00     0.219 HD
ENDBRANCH  13  14
BRANCH  13  16
HETATM   16  N4  UNL     1      10.538  18.319  18.564  1.00  0.00    -0.374 N 
ATOM     17  H4  UNL     1      10.191  17.527  19.104  1.00  0.00     0.161 HD
BRANCH  16  18
HETATM   18  C20 UNL     1      10.679  18.191  17.126  1.00  0.00     0.121 C 
BRANCH  18  19
HETATM   19  C21 UNL     1       9.499  18.684  16.357  1.00  0.00     0.024 C 
BRANCH  19  20
HETATM   20  C22 UNL     1       9.689  18.624  14.857  1.00  0.00    -0.010 C 
HETATM   21  C23 UNL     1      10.760  17.701  14.395  1.00  0.00     0.032 C 
HETATM   22  C24 UNL     1      10.193  16.381  13.868  1.00  0.00     0.232 C 
HETATM   23  N5  UNL     1       9.024  15.964  14.594  1.00  0.00    -0.075 N 
HETATM   24  C25 UNL     1       7.946  16.903  14.580  1.00  0.00     0.232 C 
ATOM     25  H52 UNL     1       8.704  15.055  14.259  1.00  0.00     0.277 HD
ATOM     26  H51 UNL     1       9.270  15.721  15.553  1.00  0.00     0.277 HD
HETATM   27  C26 UNL     1       8.383  18.281  14.207  1.00  0.00     0.032 C 
ENDBRANCH  19  20
ENDBRANCH  18  19
ENDBRANCH  16  18
ENDBRANCH  13  16
ENDBRANCH  12  13
ENDBRANCH  11  12
ENDBRANCH  10  11
ENDBRANCH   7   8
BRANCH   1  28
HETATM   28  C3  UNL     1      16.831  23.183  15.408  1.00  0.00     0.083 C 
HETATM   29  N1  UNL     1      16.733  23.784  14.305  1.00  0.00    -0.383 N 
ATOM     30  H1  UNL     1      15.813  23.711  13.871  1.00  0.00     0.160 HD
BRANCH  28  31
HETATM   31  C2  UNL     1      18.122  23.194  16.180  1.00  0.00     0.136 C 
BRANCH  31  32
HETATM   32  S1  UNL     1      18.152  24.414  17.488  1.00  0.00    -0.167 SA
HETATM   33  C1  UNL     1      18.544  26.077  16.955  1.00  0.00     0.090 C 
ENDBRANCH  31  32
ENDBRANCH  28  31
BRANCH  29  34
HETATM   34  C4  UNL     1      17.667  24.541  13.560  1.00  0.00     0.085 C 
HETATM   35  C5  UNL     1      17.413  26.021  13.521  1.00  0.00     0.025 C 
HETATM   36  C6  UNL     1      16.597  26.423  12.334  1.00  0.00     0.002 C 
HETATM   37  C7  UNL     1      17.443  26.204  11.091  1.00  0.00     0.001 C 
HETATM   38  C8  UNL     1      18.304  24.981  11.184  1.00  0.00     0.006 C 
HETATM   39  C9  UNL     1      17.640  23.994  12.121  1.00  0.00     0.004 C 
HETATM   40  C10 UNL     1      18.347  22.672  12.143  1.00  0.00     0.012 C 
ENDBRANCH  29  34
ENDBRANCH   1  28
TORSDOF 13
ENDMDL
