MODEL 1
REMARK VINA RESULT: -9.888776405      0.000      0.000
REMARK  13 active torsions:
REMARK  status: ('A' for Active; 'I' for Inactive)
REMARK    1  A    between atoms: C6_8  and  C7_9 
REMARK    2  A    between atoms: C8_12  and  C9_13 
REMARK    3  A    between atoms: C9_13  and  C10_14 
REMARK    4  A    between atoms: C10_14  and  C11_15 
REMARK    5  A    between atoms: C11_15  and  C12_16 
REMARK    6  A    between atoms: C12_16  and  C13_17 
REMARK    7  A    between atoms: C14_22  and  N5_23 
REMARK    8  A    between atoms: C15_25  and  O1_26 
REMARK    9  A    between atoms: C15_25  and  C16_28 
REMARK   10  A    between atoms: C16_28  and  C18_30 
REMARK   11  A    between atoms: C18_30  and  C19_31 
REMARK   12  A    between atoms: C19_31  and  C20_32 
REMARK   13  A    between atoms: C20_32  and  N6_33 
ROOT
HETATM    1  C13 UNL     1      11.217  19.658  19.213  1.00  0.00     0.069 A 
HETATM    2  N3  UNL     1      11.911  18.578  18.965  1.00  0.00    -0.296 N 
ATOM      3  H3  UNL     1      11.555  17.679  19.288  1.00  0.00     0.187 HD
HETATM    4  N4  UNL     1      13.010  18.611  18.337  1.00  0.00    -0.279 N 
ATOM      5  H4  UNL     1      13.524  17.748  18.162  1.00  0.00     0.189 HD
HETATM    6  C14 UNL     1      13.492  19.773  17.906  1.00  0.00     0.166 A 
HETATM    7  S1  UNL     1      12.233  20.858  18.476  1.00  0.00    -0.038 SA
ENDROOT
BRANCH   1   8
HETATM    8  C12 UNL     1       9.921  19.924  19.904  1.00  0.00     0.066 C 
BRANCH   8   9
HETATM    9  C11 UNL     1       9.688  18.991  21.028  1.00  0.00     0.007 C 
BRANCH   9  10
HETATM   10  C10 UNL     1       8.274  18.553  21.173  1.00  0.00     0.008 C 
BRANCH  10  11
HETATM   11  C9  UNL     1       8.020  17.122  20.746  1.00  0.00     0.076 C 
BRANCH  11  12
HETATM   12  C8  UNL     1       7.691  16.969  19.306  1.00  0.00     0.084 A 
HETATM   13  N2  UNL     1       8.598  16.865  18.289  1.00  0.00    -0.343 N 
HETATM   14  C7  UNL     1       7.981  16.762  17.094  1.00  0.00     0.068 A 
ATOM     15  H2  UNL     1       9.610  16.865  18.417  1.00  0.00     0.167 HD
HETATM   16  C22 UNL     1       6.642  16.804  17.360  1.00  0.00     0.040 A 
HETATM   17  N9  UNL     1       6.492  16.930  18.711  1.00  0.00    -0.338 N 
HETATM   18  C23 UNL     1       5.303  16.759  16.712  1.00  0.00     0.061 C 
HETATM   19  C25 UNL     1       5.069  16.988  19.037  1.00  0.00     0.131 C 
HETATM   20  C24 UNL     1       4.338  17.303  17.748  1.00  0.00     0.026 C 
BRANCH  14  21
HETATM   21  C6  UNL     1       8.672  16.643  15.812  1.00  0.00     0.014 A 
HETATM   22  C2  UNL     1       9.275  17.754  15.278  1.00  0.00    -0.047 A 
HETATM   23  C1  UNL     1       9.213  19.030  16.045  1.00  0.00     0.049 C 
HETATM   24  C3  UNL     1       9.923  17.693  14.062  1.00  0.00     0.024 A 
HETATM   25  C4  UNL     1       9.969  16.490  13.364  1.00  0.00     0.088 A 
HETATM   26  N1  UNL     1       9.380  15.422  13.892  1.00  0.00    -0.374 N 
HETATM   27  C5  UNL     1       8.739  15.462  15.086  1.00  0.00     0.101 A 
ATOM     28  H1  UNL     1       9.411  14.541  13.380  1.00  0.00     0.164 HD
ENDBRANCH  14  21
ENDBRANCH  11  12
ENDBRANCH  10  11
ENDBRANCH   9  10
ENDBRANCH   8   9
ENDBRANCH   1   8
BRANCH   6  29
HETATM   29  N5  UNL     1      14.533  20.136  17.270  1.00  0.00    -0.319 N 
HETATM   30  C15 UNL     1      14.832  20.145  15.945  1.00  0.00     0.121 C 
ATOM     31  H5  UNL     1      15.283  20.486  17.866  1.00  0.00     0.169 HD
BRANCH  30  32
HETATM   32  O1  UNL     1      15.715  19.254  15.553  1.00  0.00    -0.349 OA
ATOM     33  H1  UNL     1      15.434  18.347  15.596  1.00  0.00     0.219 HD
ENDBRANCH  30  32
BRANCH  30  34
HETATM   34  C16 UNL     1      14.285  21.030  14.894  1.00  0.00     0.056 C 
HETATM   35  C17 UNL     1      12.775  20.754  14.758  1.00  0.00     0.018 C 
BRANCH  34  36
HETATM   36  C18 UNL     1      14.498  22.479  15.148  1.00  0.00     0.014 C 
BRANCH  36  37
HETATM   37  C19 UNL     1      15.626  23.107  14.420  1.00  0.00     0.020 C 
BRANCH  37  38
HETATM   38  C20 UNL     1      16.982  22.996  15.002  1.00  0.00     0.122 C 
BRANCH  38  39
HETATM   39  N6  UNL     1      17.037  23.116  16.430  1.00  0.00    -0.367 N 
HETATM   40  C21 UNL     1      17.587  24.124  17.005  1.00  0.00     0.196 C 
HETATM   41  N7  UNL     1      17.603  24.170  18.426  1.00  0.00    -0.067 NA
HETATM   42  N8  UNL     1      18.154  25.148  16.192  1.00  0.00    -0.067 NA
ATOM     43  H6  UNL     1      16.628  22.380  17.006  1.00  0.00     0.161 HD
ENDBRANCH  38  39
ENDBRANCH  37  38
ENDBRANCH  36  37
ENDBRANCH  34  36
ENDBRANCH  30  34
ENDBRANCH   6  29
TORSDOF 13
ENDMDL
MODEL 2
REMARK VINA RESULT: -9.745208123      1.169      1.520
REMARK  13 active torsions:
REMARK  status: ('A' for Active; 'I' for Inactive)
REMARK    1  A    between atoms: C6_8  and  C7_9 
REMARK    2  A    between atoms: C8_12  and  C9_13 
REMARK    3  A    between atoms: C9_13  and  C10_14 
REMARK    4  A    between atoms: C10_14  and  C11_15 
REMARK    5  A    between atoms: C11_15  and  C12_16 
REMARK    6  A    between atoms: C12_16  and  C13_17 
REMARK    7  A    between atoms: C14_22  and  N5_23 
REMARK    8  A    between atoms: C15_25  and  O1_26 
REMARK    9  A    between atoms: C15_25  and  C16_28 
REMARK   10  A    between atoms: C16_28  and  C18_30 
REMARK   11  A    between atoms: C18_30  and  C19_31 
REMARK   12  A    between atoms: C19_31  and  C20_32 
REMARK   13  A    between atoms: C20_32  and  N6_33 
ROOT
HETATM    1  C13 UNL     1      10.265  19.316  20.339  1.00  0.00     0.069 A 
HETATM    2  N3  UNL     1      11.208  18.612  19.769  1.00  0.00    -0.296 N 
ATOM      3  H3  UNL     1      11.283  17.619  19.989  1.00  0.00     0.187 HD
HETATM    4  N4  UNL     1      12.031  19.122  18.952  1.00  0.00    -0.279 N 
ATOM      5  H4  UNL     1      12.755  18.542  18.527  1.00  0.00     0.189 HD
HETATM    6  C14 UNL     1      11.952  20.414  18.652  1.00  0.00     0.166 A 
HETATM    7  S1  UNL     1      10.577  20.876  19.644  1.00  0.00    -0.038 SA
ENDROOT
BRANCH   1   8
HETATM    8  C12 UNL     1       9.176  18.999  21.308  1.00  0.00     0.066 C 
BRANCH   8   9
HETATM    9  C11 UNL     1       8.067  18.252  20.675  1.00  0.00     0.007 C 
BRANCH   9  10
HETATM   10  C10 UNL     1       7.623  17.057  21.441  1.00  0.00     0.008 C 
BRANCH  10  11
HETATM   11  C9  UNL     1       7.568  15.782  20.625  1.00  0.00     0.076 C 
BRANCH  11  12
HETATM   12  C8  UNL     1       7.379  16.002  19.170  1.00  0.00     0.084 A 
HETATM   13  N2  UNL     1       8.371  16.008  18.229  1.00  0.00    -0.343 N 
HETATM   14  C7  UNL     1       7.877  16.260  17.000  1.00  0.00     0.068 A 
ATOM     15  H2  UNL     1       9.357  15.842  18.432  1.00  0.00     0.167 HD
HETATM   16  C22 UNL     1       6.531  16.421  17.164  1.00  0.00     0.040 A 
HETATM   17  N9  UNL     1       6.253  16.260  18.491  1.00  0.00    -0.338 N 
HETATM   18  C23 UNL     1       5.272  16.706  16.423  1.00  0.00     0.061 C 
HETATM   19  C25 UNL     1       4.820  16.436  18.711  1.00  0.00     0.131 C 
HETATM   20  C24 UNL     1       4.271  17.128  17.481  1.00  0.00     0.026 C 
BRANCH  14  21
HETATM   21  C6  UNL     1       8.683  16.340  15.784  1.00  0.00     0.014 A 
HETATM   22  C2  UNL     1       9.397  17.484  15.535  1.00  0.00    -0.047 A 
HETATM   23  C1  UNL     1       9.333  18.590  16.533  1.00  0.00     0.049 C 
HETATM   24  C3  UNL     1      10.157  17.612  14.391  1.00  0.00     0.024 A 
HETATM   25  C4  UNL     1      10.202  16.566  13.473  1.00  0.00     0.088 A 
HETATM   26  N1  UNL     1       9.505  15.464  13.726  1.00  0.00    -0.374 N 
HETATM   27  C5  UNL     1       8.753  15.320  14.845  1.00  0.00     0.101 A 
ATOM     28  H1  UNL     1       9.536  14.698  13.053  1.00  0.00     0.164 HD
ENDBRANCH  14  21
ENDBRANCH  11  12
ENDBRANCH  10  11
ENDBRANCH   9  10
ENDBRANCH   8   9
ENDBRANCH   1   8
BRANCH   6  29
HETATM   29  N5  UNL     1      12.605  21.207  17.899  1.00  0.00    -0.319 N 
HETATM   30  C15 UNL     1      13.667  21.010  17.075  1.00  0.00     0.121 C 
ATOM     31  H5  UNL     1      12.267  22.169  17.917  1.00  0.00     0.169 HD
BRANCH  30  32
HETATM   32  O1  UNL     1      14.807  21.523  17.482  1.00  0.00    -0.349 OA
ATOM     33  H1  UNL     1      15.459  20.898  17.776  1.00  0.00     0.219 HD
ENDBRANCH  30  32
BRANCH  30  34
HETATM   34  C16 UNL     1      13.697  20.290  15.785  1.00  0.00     0.056 C 
HETATM   35  C17 UNL     1      12.348  20.505  15.070  1.00  0.00     0.018 C 
BRANCH  34  36
HETATM   36  C18 UNL     1      14.802  20.706  14.882  1.00  0.00     0.014 C 
BRANCH  36  37
HETATM   37  C19 UNL     1      14.447  21.685  13.828  1.00  0.00     0.020 C 
BRANCH  37  38
HETATM   38  C20 UNL     1      15.033  23.041  13.908  1.00  0.00     0.122 C 
BRANCH  38  39
HETATM   39  N6  UNL     1      15.815  23.292  15.085  1.00  0.00    -0.367 N 
HETATM   40  C21 UNL     1      17.090  23.434  15.035  1.00  0.00     0.196 C 
HETATM   41  N7  UNL     1      17.793  23.679  16.246  1.00  0.00    -0.067 NA
HETATM   42  N8  UNL     1      17.738  23.338  13.770  1.00  0.00    -0.067 NA
ATOM     43  H6  UNL     1      15.343  23.360  15.987  1.00  0.00     0.161 HD
ENDBRANCH  38  39
ENDBRANCH  37  38
ENDBRANCH  36  37
ENDBRANCH  34  36
ENDBRANCH  30  34
ENDBRANCH   6  29
TORSDOF 13
ENDMDL
MODEL 3
REMARK VINA RESULT: -9.634779360      1.195      1.344
REMARK  13 active torsions:
REMARK  status: ('A' for Active; 'I' for Inactive)
REMARK    1  A    between atoms: C6_8  and  C7_9 
REMARK    2  A    between atoms: C8_12  and  C9_13 
REMARK    3  A    between atoms: C9_13  and  C10_14 
REMARK    4  A    between atoms: C10_14  and  C11_15 
REMARK    5  A    between atoms: C11_15  and  C12_16 
REMARK    6  A    between atoms: C12_16  and  C13_17 
REMARK    7  A    between atoms: C14_22  and  N5_23 
REMARK    8  A    between atoms: C15_25  and  O1_26 
REMARK    9  A    between atoms: C15_25  and  C16_28 
REMARK   10  A    between atoms: C16_28  and  C18_30 
REMARK   11  A    between atoms: C18_30  and  C19_31 
REMARK   12  A    between atoms: C19_31  and  C20_32 
REMARK   13  A    between atoms: C20_32  and  N6_33 
ROOT
HETATM    1  C13 UNL     1      11.178  19.694  19.318  1.00  0.00     0.069 A 
HETATM    2  N3  UNL     1      11.901  18.645  19.025  1.00  0.00    -0.296 N 
ATOM      3  H3  UNL     1      11.591  17.728  19.349  1.00  0.00     0.187 HD
HETATM    4  N4  UNL     1      12.971  18.727  18.354  1.00  0.00    -0.279 N 
ATOM      5  H4  UNL     1      13.509  17.885  18.145  1.00  0.00     0.189 HD
HETATM    6  C14 UNL     1      13.393  19.911  17.922  1.00  0.00     0.166 A 
HETATM    7  S1  UNL     1      12.119  20.941  18.558  1.00  0.00    -0.038 SA
ENDROOT
BRANCH   1   8
HETATM    8  C12 UNL     1       9.904  19.902  20.064  1.00  0.00     0.066 C 
BRANCH   8   9
HETATM    9  C11 UNL     1       9.618  18.793  20.999  1.00  0.00     0.007 C 
BRANCH   9  10
HETATM   10  C10 UNL     1       8.174  18.459  21.126  1.00  0.00     0.008 C 
BRANCH  10  11
HETATM   11  C9  UNL     1       7.819  17.057  20.675  1.00  0.00     0.076 C 
BRANCH  11  12
HETATM   12  C8  UNL     1       7.568  16.934  19.218  1.00  0.00     0.084 A 
HETATM   13  N2  UNL     1       8.528  16.859  18.248  1.00  0.00    -0.343 N 
HETATM   14  C7  UNL     1       7.977  16.779  17.020  1.00  0.00     0.068 A 
ATOM     15  H2  UNL     1       9.532  16.864  18.429  1.00  0.00     0.167 HD
HETATM   16  C22 UNL     1       6.625  16.805  17.215  1.00  0.00     0.040 A 
HETATM   17  N9  UNL     1       6.403  16.900  18.559  1.00  0.00    -0.338 N 
HETATM   18  C23 UNL     1       5.322  16.767  16.496  1.00  0.00     0.061 C 
HETATM   19  C25 UNL     1       4.964  16.941  18.810  1.00  0.00     0.131 C 
HETATM   20  C24 UNL     1       4.300  17.280  17.492  1.00  0.00     0.026 C 
BRANCH  14  21
HETATM   21  C6  UNL     1       8.735  16.694  15.774  1.00  0.00     0.014 A 
HETATM   22  C2  UNL     1       9.386  17.812  15.316  1.00  0.00    -0.047 A 
HETATM   23  C1  UNL     1       9.303  19.060  16.126  1.00  0.00     0.049 C 
HETATM   24  C3  UNL     1      10.099  17.783  14.136  1.00  0.00     0.024 A 
HETATM   25  C4  UNL     1      10.162  16.606  13.396  1.00  0.00     0.088 A 
HETATM   26  N1  UNL     1       9.527  15.531  13.851  1.00  0.00    -0.374 N 
HETATM   27  C5  UNL     1       8.821  15.540  15.009  1.00  0.00     0.101 A 
ATOM     28  H1  UNL     1       9.572  14.669  13.308  1.00  0.00     0.164 HD
ENDBRANCH  14  21
ENDBRANCH  11  12
ENDBRANCH  10  11
ENDBRANCH   9  10
ENDBRANCH   8   9
ENDBRANCH   1   8
BRANCH   6  29
HETATM   29  N5  UNL     1      14.393  20.322  17.249  1.00  0.00    -0.319 N 
HETATM   30  C15 UNL     1      14.732  20.176  15.942  1.00  0.00     0.121 C 
ATOM     31  H5  UNL     1      15.066  20.861  17.794  1.00  0.00     0.169 HD
BRANCH  30  32
HETATM   32  O1  UNL     1      15.744  19.372  15.701  1.00  0.00    -0.349 OA
ATOM     33  H1  UNL     1      15.747  18.956  14.847  1.00  0.00     0.219 HD
ENDBRANCH  30  32
BRANCH  30  34
HETATM   34  C16 UNL     1      14.101  20.805  14.763  1.00  0.00     0.056 C 
HETATM   35  C17 UNL     1      12.575  20.612  14.861  1.00  0.00     0.018 C 
BRANCH  34  36
HETATM   36  C18 UNL     1      14.404  22.252  14.611  1.00  0.00     0.014 C 
BRANCH  36  37
HETATM   37  C19 UNL     1      14.344  22.788  13.231  1.00  0.00     0.020 C 
BRANCH  37  38
HETATM   38  C20 UNL     1      15.506  23.553  12.728  1.00  0.00     0.122 C 
BRANCH  38  39
HETATM   39  N6  UNL     1      16.064  24.488  13.662  1.00  0.00    -0.367 N 
HETATM   40  C21 UNL     1      17.307  24.811  13.639  1.00  0.00     0.196 C 
HETATM   41  N7  UNL     1      17.783  25.744  14.601  1.00  0.00    -0.067 NA
HETATM   42  N8  UNL     1      18.147  24.220  12.652  1.00  0.00    -0.067 NA
ATOM     43  H6  UNL     1      15.456  24.908  14.365  1.00  0.00     0.161 HD
ENDBRANCH  38  39
ENDBRANCH  37  38
ENDBRANCH  36  37
ENDBRANCH  34  36
ENDBRANCH  30  34
ENDBRANCH   6  29
TORSDOF 13
ENDMDL
MODEL 4
REMARK VINA RESULT: -9.484986820      1.843      2.379
REMARK  13 active torsions:
REMARK  status: ('A' for Active; 'I' for Inactive)
REMARK    1  A    between atoms: C6_8  and  C7_9 
REMARK    2  A    between atoms: C8_12  and  C9_13 
REMARK    3  A    between atoms: C9_13  and  C10_14 
REMARK    4  A    between atoms: C10_14  and  C11_15 
REMARK    5  A    between atoms: C11_15  and  C12_16 
REMARK    6  A    between atoms: C12_16  and  C13_17 
REMARK    7  A    between atoms: C14_22  and  N5_23 
REMARK    8  A    between atoms: C15_25  and  O1_26 
REMARK    9  A    between atoms: C15_25  and  C16_28 
REMARK   10  A    between atoms: C16_28  and  C18_30 
REMARK   11  A    between atoms: C18_30  and  C19_31 
REMARK   12  A    between atoms: C19_31  and  C20_32 
REMARK   13  A    between atoms: C20_32  and  N6_33 
ROOT
HETATM    1  C13 UNL     1      10.215  19.254  20.303  1.00  0.00     0.069 A 
HETATM    2  N3  UNL     1      11.080  18.354  19.916  1.00  0.00    -0.296 N 
ATOM      3  H3  UNL     1      11.082  17.442  20.374  1.00  0.00     0.187 HD
HETATM    4  N4  UNL     1      11.917  18.575  18.991  1.00  0.00    -0.279 N 
ATOM      5  H4  UNL     1      12.578  17.849  18.715  1.00  0.00     0.189 HD
HETATM    6  C14 UNL     1      11.933  19.756  18.381  1.00  0.00     0.166 A 
HETATM    7  S1  UNL     1      10.631  20.563  19.241  1.00  0.00    -0.038 SA
ENDROOT
BRANCH   1   8
HETATM    8  C12 UNL     1       9.133  19.279  21.331  1.00  0.00     0.066 C 
BRANCH   8   9
HETATM    9  C11 UNL     1       7.890  18.642  20.846  1.00  0.00     0.007 C 
BRANCH   9  10
HETATM   10  C10 UNL     1       7.507  17.411  21.589  1.00  0.00     0.008 C 
BRANCH  10  11
HETATM   11  C9  UNL     1       7.761  16.125  20.831  1.00  0.00     0.076 C 
BRANCH  11  12
HETATM   12  C8  UNL     1       7.459  16.207  19.380  1.00  0.00     0.084 A 
HETATM   13  N2  UNL     1       8.382  16.181  18.372  1.00  0.00    -0.343 N 
HETATM   14  C7  UNL     1       7.791  16.300  17.166  1.00  0.00     0.068 A 
ATOM     15  H2  UNL     1       9.387  16.085  18.514  1.00  0.00     0.167 HD
HETATM   16  C22 UNL     1       6.452  16.407  17.414  1.00  0.00     0.040 A 
HETATM   17  N9  UNL     1       6.276  16.348  18.767  1.00  0.00    -0.338 N 
HETATM   18  C23 UNL     1       5.131  16.561  16.747  1.00  0.00     0.061 C 
HETATM   19  C25 UNL     1       4.854  16.468  19.077  1.00  0.00     0.131 C 
HETATM   20  C24 UNL     1       4.182  17.022  17.837  1.00  0.00     0.026 C 
BRANCH  14  21
HETATM   21  C6  UNL     1       8.504  16.315  15.890  1.00  0.00     0.014 A 
HETATM   22  C2  UNL     1       9.116  17.474  15.486  1.00  0.00    -0.047 A 
HETATM   23  C1  UNL     1       9.040  18.664  16.381  1.00  0.00     0.049 C 
HETATM   24  C3  UNL     1       9.785  17.540  14.282  1.00  0.00     0.024 A 
HETATM   25  C4  UNL     1       9.844  16.416  13.463  1.00  0.00     0.088 A 
HETATM   26  N1  UNL     1       9.246  15.300  13.866  1.00  0.00    -0.374 N 
HETATM   27  C5  UNL     1       8.584  15.216  15.047  1.00  0.00     0.101 A 
ATOM     28  H1  UNL     1       9.287  14.476  13.266  1.00  0.00     0.164 HD
ENDBRANCH  14  21
ENDBRANCH  11  12
ENDBRANCH  10  11
ENDBRANCH   9  10
ENDBRANCH   8   9
ENDBRANCH   1   8
BRANCH   6  29
HETATM   29  N5  UNL     1      12.624  20.280  17.449  1.00  0.00    -0.319 N 
HETATM   30  C15 UNL     1      13.193  21.507  17.318  1.00  0.00     0.121 C 
ATOM     31  H5  UNL     1      12.780  19.664  16.651  1.00  0.00     0.169 HD
BRANCH  30  32
HETATM   32  O1  UNL     1      12.627  22.308  16.443  1.00  0.00    -0.349 OA
ATOM     33  H1  UNL     1      12.324  23.142  16.782  1.00  0.00     0.219 HD
ENDBRANCH  30  32
BRANCH  30  34
HETATM   34  C16 UNL     1      14.363  22.049  18.040  1.00  0.00     0.056 C 
HETATM   35  C17 UNL     1      15.235  22.836  17.042  1.00  0.00     0.018 C 
BRANCH  34  36
HETATM   36  C18 UNL     1      14.015  22.928  19.187  1.00  0.00     0.014 C 
BRANCH  36  37
HETATM   37  C19 UNL     1      13.942  24.379  18.895  1.00  0.00     0.020 C 
BRANCH  37  38
HETATM   38  C20 UNL     1      14.738  25.302  19.734  1.00  0.00     0.122 C 
BRANCH  38  39
HETATM   39  N6  UNL     1      15.716  26.073  19.023  1.00  0.00    -0.367 N 
HETATM   40  C21 UNL     1      16.976  25.926  19.227  1.00  0.00     0.196 C 
HETATM   41  N7  UNL     1      17.882  26.730  18.483  1.00  0.00    -0.067 NA
HETATM   42  N8  UNL     1      17.403  24.965  20.188  1.00  0.00    -0.067 NA
ATOM     43  H6  UNL     1      15.402  26.759  18.336  1.00  0.00     0.161 HD
ENDBRANCH  38  39
ENDBRANCH  37  38
ENDBRANCH  36  37
ENDBRANCH  34  36
ENDBRANCH  30  34
ENDBRANCH   6  29
TORSDOF 13
ENDMDL
MODEL 5
REMARK VINA RESULT: -9.415089848      1.903      2.615
REMARK  13 active torsions:
REMARK  status: ('A' for Active; 'I' for Inactive)
REMARK    1  A    between atoms: C6_8  and  C7_9 
REMARK    2  A    between atoms: C8_12  and  C9_13 
REMARK    3  A    between atoms: C9_13  and  C10_14 
REMARK    4  A    between atoms: C10_14  and  C11_15 
REMARK    5  A    between atoms: C11_15  and  C12_16 
REMARK    6  A    between atoms: C12_16  and  C13_17 
REMARK    7  A    between atoms: C14_22  and  N5_23 
REMARK    8  A    between atoms: C15_25  and  O1_26 
REMARK    9  A    between atoms: C15_25  and  C16_28 
REMARK   10  A    between atoms: C16_28  and  C18_30 
REMARK   11  A    between atoms: C18_30  and  C19_31 
REMARK   12  A    between atoms: C19_31  and  C20_32 
REMARK   13  A    between atoms: C20_32  and  N6_33 
ROOT
HETATM    1  C13 UNL     1       9.885  19.101  20.286  1.00  0.00     0.069 A 
HETATM    2  N3  UNL     1      10.987  18.412  20.147  1.00  0.00    -0.296 N 
ATOM      3  H3  UNL     1      11.191  17.668  20.816  1.00  0.00     0.187 HD
HETATM    4  N4  UNL     1      11.811  18.636  19.211  1.00  0.00    -0.279 N 
ATOM      5  H4  UNL     1      12.661  18.078  19.135  1.00  0.00     0.189 HD
HETATM    6  C14 UNL     1      11.565  19.600  18.330  1.00  0.00     0.166 A 
HETATM    7  S1  UNL     1      10.028  20.191  18.942  1.00  0.00    -0.038 SA
ENDROOT
BRANCH   1   8
HETATM    8  C12 UNL     1       8.752  19.063  21.256  1.00  0.00     0.066 C 
BRANCH   8   9
HETATM    9  C11 UNL     1       7.704  18.103  20.850  1.00  0.00     0.007 C 
BRANCH   9  10
HETATM   10  C10 UNL     1       7.990  16.692  21.228  1.00  0.00     0.008 C 
BRANCH  10  11
HETATM   11  C9  UNL     1       7.292  15.664  20.362  1.00  0.00     0.076 C 
BRANCH  11  12
HETATM   12  C8  UNL     1       7.234  16.024  18.923  1.00  0.00     0.084 A 
HETATM   13  N2  UNL     1       8.312  16.196  18.101  1.00  0.00    -0.343 N 
HETATM   14  C7  UNL     1       7.927  16.543  16.856  1.00  0.00     0.068 A 
ATOM     15  H2  UNL     1       9.283  16.078  18.392  1.00  0.00     0.167 HD
HETATM   16  C22 UNL     1       6.562  16.594  16.889  1.00  0.00     0.040 A 
HETATM   17  N9  UNL     1       6.166  16.275  18.155  1.00  0.00    -0.338 N 
HETATM   18  C23 UNL     1       5.366  16.868  16.046  1.00  0.00     0.061 C 
HETATM   19  C25 UNL     1       4.708  16.328  18.235  1.00  0.00     0.131 C 
HETATM   20  C24 UNL     1       4.233  17.107  17.026  1.00  0.00     0.026 C 
BRANCH  14  21
HETATM   21  C6  UNL     1       8.842  16.805  15.748  1.00  0.00     0.014 A 
HETATM   22  C2  UNL     1       8.884  15.922  14.699  1.00  0.00    -0.047 A 
HETATM   23  C1  UNL     1       7.976  14.741  14.732  1.00  0.00     0.049 C 
HETATM   24  C3  UNL     1       9.745  16.120  13.640  1.00  0.00     0.024 A 
HETATM   25  C4  UNL     1      10.584  17.230  13.631  1.00  0.00     0.088 A 
HETATM   26  N1  UNL     1      10.534  18.077  14.653  1.00  0.00    -0.374 N 
HETATM   27  C5  UNL     1       9.693  17.900  15.703  1.00  0.00     0.101 A 
ATOM     28  H1  UNL     1      11.149  18.890  14.648  1.00  0.00     0.164 HD
ENDBRANCH  14  21
ENDBRANCH  11  12
ENDBRANCH  10  11
ENDBRANCH   9  10
ENDBRANCH   8   9
ENDBRANCH   1   8
BRANCH   6  29
HETATM   29  N5  UNL     1      12.170  20.064  17.310  1.00  0.00    -0.319 N 
HETATM   30  C15 UNL     1      12.606  21.312  17.002  1.00  0.00     0.121 C 
ATOM     31  H5  UNL     1      12.362  19.368  16.589  1.00  0.00     0.169 HD
BRANCH  30  32
HETATM   32  O1  UNL     1      11.934  21.936  16.059  1.00  0.00    -0.349 OA
ATOM     33  H1  UNL     1      11.831  21.462  15.243  1.00  0.00     0.219 HD
ENDBRANCH  30  32
BRANCH  30  34
HETATM   34  C16 UNL     1      13.737  22.054  17.597  1.00  0.00     0.056 C 
HETATM   35  C17 UNL     1      14.767  22.353  16.489  1.00  0.00     0.018 C 
BRANCH  34  36
HETATM   36  C18 UNL     1      13.348  23.326  18.261  1.00  0.00     0.014 C 
BRANCH  36  37
HETATM   37  C19 UNL     1      13.950  23.577  19.591  1.00  0.00     0.020 C 
BRANCH  37  38
HETATM   38  C20 UNL     1      14.718  24.827  19.785  1.00  0.00     0.122 C 
BRANCH  38  39
HETATM   39  N6  UNL     1      15.730  25.073  18.798  1.00  0.00    -0.367 N 
HETATM   40  C21 UNL     1      16.976  25.123  19.102  1.00  0.00     0.196 C 
HETATM   41  N7  UNL     1      17.918  25.374  18.066  1.00  0.00    -0.067 NA
HETATM   42  N8  UNL     1      17.356  24.926  20.461  1.00  0.00    -0.067 NA
ATOM     43  H6  UNL     1      15.450  25.213  17.827  1.00  0.00     0.161 HD
ENDBRANCH  38  39
ENDBRANCH  37  38
ENDBRANCH  36  37
ENDBRANCH  34  36
ENDBRANCH  30  34
ENDBRANCH   6  29
TORSDOF 13
ENDMDL
