MODEL 1
REMARK VINA RESULT: -8.042658877      0.000      0.000
REMARK  15 active torsions:
REMARK  status: ('A' for Active; 'I' for Inactive)
REMARK    1  A    between atoms: N2_5  and  C4_6 
REMARK    2  A    between atoms: C4_6  and  C5_7 
REMARK    3  A    between atoms: C5_7  and  C6_8 
REMARK    4  A    between atoms: C6_8  and  C7_9 
REMARK    5  A    between atoms: C7_9  and  C8_10 
REMARK    6  A    between atoms: C8_10  and  S1_11 
REMARK    7  A    between atoms: S1_11  and  C9_12 
REMARK    8  A    between atoms: C9_12  and  N5_19 
REMARK    9  A    between atoms: N3_13  and  C10_15 
REMARK   10  A    between atoms: C10_15  and  C11_16 
REMARK   11  A    between atoms: N5_19  and  C13_21 
REMARK   12  A    between atoms: C13_21  and  C14_22 
REMARK   13  A    between atoms: C14_22  and  N6_23 
REMARK       I    between atoms: N6_23  and  C15_25 
REMARK       I    between atoms: C15_25  and  N7_27 
REMARK   14  A    between atoms: N7_27  and  C16_29 
REMARK   15  A    between atoms: C18_31  and  C19_32 
ROOT
HETATM    1  C11 UNL     1       4.393  15.922  16.769  1.00  0.00     0.168 C 
HETATM    2  C12 UNL     1       4.453  16.019  18.218  1.00  0.00     0.064 C 
HETATM    3  N4  UNL     1       4.518  16.071  19.351  1.00  0.00    -0.197 NA
ENDROOT
BRANCH   1   4
HETATM    4  C10 UNL     1       5.530  16.709  16.176  1.00  0.00     0.077 C 
BRANCH   4   5
HETATM    5  N3  UNL     1       6.678  16.770  16.948  1.00  0.00    -0.350 N 
HETATM    6  C9  UNL     1       7.893  16.575  16.857  1.00  0.00     0.139 C 
ATOM      7  H3  UNL     1       6.445  17.072  17.894  1.00  0.00     0.167 HD
BRANCH   6   8
HETATM    8  S1  UNL     1       8.694  16.038  15.359  1.00  0.00    -0.094 SA
BRANCH   8   9
HETATM    9  C8  UNL     1       9.152  17.482  14.346  1.00  0.00     0.082 C 
BRANCH   9  10
HETATM   10  C7  UNL     1      10.616  17.576  14.108  1.00  0.00     0.010 C 
BRANCH  10  11
HETATM   11  C6  UNL     1      11.424  18.146  15.217  1.00  0.00     0.002 C 
BRANCH  11  12
HETATM   12  C5  UNL     1      11.621  19.623  15.217  1.00  0.00     0.020 C 
BRANCH  12  13
HETATM   13  C4  UNL     1      13.041  19.845  15.788  1.00  0.00     0.122 C 
BRANCH  13  14
HETATM   14  N2  UNL     1      13.633  20.933  15.122  1.00  0.00    -0.387 N 
HETATM   15  C3  UNL     1      13.245  21.281  13.824  1.00  0.00     0.102 C 
HETATM   16  C2  UNL     1      14.138  22.216  13.083  1.00  0.00     0.102 C 
HETATM   17  N1  UNL     1      15.168  22.843  13.799  1.00  0.00    -0.391 N 
HETATM   18  C1  UNL     1      15.703  24.048  13.260  1.00  0.00     0.148 C 
HETATM   19  C24 UNL     1      15.119  22.783  15.216  1.00  0.00     0.141 C 
HETATM   20  C23 UNL     1      14.941  21.303  15.566  1.00  0.00     0.142 C 
ENDBRANCH  13  14
ENDBRANCH  12  13
ENDBRANCH  11  12
ENDBRANCH  10  11
ENDBRANCH   9  10
ENDBRANCH   8   9
ENDBRANCH   6   8
BRANCH   6  21
HETATM   21  N5  UNL     1       8.710  16.783  18.007  1.00  0.00    -0.369 N 
ATOM     22  H5  UNL     1       9.475  16.153  18.250  1.00  0.00     0.161 HD
BRANCH  21  23
HETATM   23  C13 UNL     1       8.380  17.970  18.825  1.00  0.00     0.141 C 
BRANCH  23  24
HETATM   24  C14 UNL     1       9.010  19.120  18.087  1.00  0.00     0.144 C 
BRANCH  24  25
HETATM   25  N6  UNL     1      10.341  19.401  18.471  1.00  0.00    -0.341 N 
HETATM   26  C15 UNL     1      10.761  20.635  19.058  1.00  0.00     0.321 C 
HETATM   27  O1  UNL     1       9.867  21.518  19.221  1.00  0.00    -0.247 OA
HETATM   28  N7  UNL     1      12.100  20.861  19.440  1.00  0.00    -0.293 N 
ATOM     29  H7  UNL     1      12.584  20.134  19.965  1.00  0.00     0.172 HD
ATOM     30  H6  UNL     1      11.045  18.680  18.318  1.00  0.00     0.164 HD
BRANCH  28  31
HETATM   31  C16 UNL     1      12.733  21.931  19.161  1.00  0.00     0.132 A 
HETATM   32  C17 UNL     1      13.720  22.569  19.917  1.00  0.00     0.086 A 
HETATM   33  C18 UNL     1      14.120  23.694  19.224  1.00  0.00     0.087 A 
HETATM   34  O2  UNL     1      13.402  23.706  18.126  1.00  0.00    -0.240 OA
HETATM   35  N8  UNL     1      12.586  22.686  18.070  1.00  0.00    -0.245 N 
ATOM     36  H8  UNL     1      11.935  22.495  17.308  1.00  0.00     0.196 HD
BRANCH  33  37
HETATM   37  C19 UNL     1      15.146  24.681  19.643  1.00  0.00     0.000 C 
HETATM   38  C20 UNL     1      15.340  24.649  21.155  1.00  0.00     0.021 C 
HETATM   39  C21 UNL     1      16.496  24.401  19.019  1.00  0.00     0.021 C 
HETATM   40  C22 UNL     1      14.704  26.098  19.282  1.00  0.00     0.021 C 
ENDBRANCH  33  37
ENDBRANCH  28  31
ENDBRANCH  24  25
ENDBRANCH  23  24
ENDBRANCH  21  23
ENDBRANCH   6  21
ENDBRANCH   4   5
ENDBRANCH   1   4
TORSDOF 15
ENDMDL
MODEL 2
REMARK VINA RESULT: -7.947787567      2.836      9.804
REMARK  15 active torsions:
REMARK  status: ('A' for Active; 'I' for Inactive)
REMARK    1  A    between atoms: N2_5  and  C4_6 
REMARK    2  A    between atoms: C4_6  and  C5_7 
REMARK    3  A    between atoms: C5_7  and  C6_8 
REMARK    4  A    between atoms: C6_8  and  C7_9 
REMARK    5  A    between atoms: C7_9  and  C8_10 
REMARK    6  A    between atoms: C8_10  and  S1_11 
REMARK    7  A    between atoms: S1_11  and  C9_12 
REMARK    8  A    between atoms: C9_12  and  N5_19 
REMARK    9  A    between atoms: N3_13  and  C10_15 
REMARK   10  A    between atoms: C10_15  and  C11_16 
REMARK   11  A    between atoms: N5_19  and  C13_21 
REMARK   12  A    between atoms: C13_21  and  C14_22 
REMARK   13  A    between atoms: C14_22  and  N6_23 
REMARK       I    between atoms: N6_23  and  C15_25 
REMARK       I    between atoms: C15_25  and  N7_27 
REMARK   14  A    between atoms: N7_27  and  C16_29 
REMARK   15  A    between atoms: C18_31  and  C19_32 
ROOT
HETATM    1  C11 UNL     1      14.760  24.908  20.547  1.00  0.00     0.168 C 
HETATM    2  C12 UNL     1      16.213  24.907  20.498  1.00  0.00     0.064 C 
HETATM    3  N4  UNL     1      17.348  24.876  20.457  1.00  0.00    -0.197 NA
ENDROOT
BRANCH   1   4
HETATM    4  C10 UNL     1      14.221  24.985  19.145  1.00  0.00     0.077 C 
BRANCH   4   5
HETATM    5  N3  UNL     1      14.729  24.049  18.259  1.00  0.00    -0.350 N 
HETATM    6  C9  UNL     1      14.702  22.835  18.045  1.00  0.00     0.139 C 
ATOM      7  H3  UNL     1      15.311  24.512  17.561  1.00  0.00     0.167 HD
BRANCH   6   8
HETATM    8  S1  UNL     1      13.790  21.679  19.049  1.00  0.00    -0.094 SA
BRANCH   8   9
HETATM    9  C8  UNL     1      12.000  21.937  18.824  1.00  0.00     0.082 C 
BRANCH   9  10
HETATM   10  C7  UNL     1      11.199  20.731  19.160  1.00  0.00     0.010 C 
BRANCH  10  11
HETATM   11  C6  UNL     1      10.122  20.920  20.166  1.00  0.00     0.002 C 
BRANCH  11  12
HETATM   12  C5  UNL     1       9.767  19.739  21.002  1.00  0.00     0.020 C 
BRANCH  12  13
HETATM   13  C4  UNL     1       9.489  18.596  19.997  1.00  0.00     0.122 C 
BRANCH  13  14
HETATM   14  N2  UNL     1       8.156  18.175  20.145  1.00  0.00    -0.387 N 
HETATM   15  C3  UNL     1       7.096  18.959  19.677  1.00  0.00     0.102 C 
HETATM   16  C2  UNL     1       5.733  18.606  20.163  1.00  0.00     0.102 C 
HETATM   17  N1  UNL     1       5.579  17.402  20.864  1.00  0.00    -0.391 N 
HETATM   18  C1  UNL     1       4.275  16.831  20.912  1.00  0.00     0.148 C 
HETATM   19  C24 UNL     1       6.647  16.469  20.817  1.00  0.00     0.141 C 
HETATM   20  C23 UNL     1       7.904  17.251  21.207  1.00  0.00     0.142 C 
ENDBRANCH  13  14
ENDBRANCH  12  13
ENDBRANCH  11  12
ENDBRANCH  10  11
ENDBRANCH   9  10
ENDBRANCH   8   9
ENDBRANCH   6   8
BRANCH   6  21
HETATM   21  N5  UNL     1      15.441  22.315  16.942  1.00  0.00    -0.369 N 
ATOM     22  H5  UNL     1      16.123  21.564  17.052  1.00  0.00     0.161 HD
BRANCH  21  23
HETATM   23  C13 UNL     1      15.156  22.932  15.628  1.00  0.00     0.141 C 
BRANCH  23  24
HETATM   24  C14 UNL     1      14.749  21.778  14.754  1.00  0.00     0.144 C 
BRANCH  24  25
HETATM   25  N6  UNL     1      13.360  21.517  14.739  1.00  0.00    -0.341 N 
HETATM   26  C15 UNL     1      12.730  20.490  15.507  1.00  0.00     0.321 C 
HETATM   27  O1  UNL     1      13.488  19.775  16.228  1.00  0.00    -0.247 OA
HETATM   28  N7  UNL     1      11.334  20.281  15.471  1.00  0.00    -0.293 N 
ATOM     29  H7  UNL     1      10.720  21.091  15.548  1.00  0.00     0.172 HD
ATOM     30  H6  UNL     1      12.771  22.098  14.142  1.00  0.00     0.164 HD
BRANCH  28  31
HETATM   31  C16 UNL     1      10.806  19.129  15.347  1.00  0.00     0.132 A 
HETATM   32  C17 UNL     1       9.537  18.715  15.764  1.00  0.00     0.086 A 
HETATM   33  C18 UNL     1       9.396  17.384  15.422  1.00  0.00     0.087 A 
HETATM   34  O2  UNL     1      10.521  17.048  14.838  1.00  0.00    -0.240 OA
HETATM   35  N8  UNL     1      11.358  18.052  14.785  1.00  0.00    -0.245 N 
ATOM     36  H8  UNL     1      12.292  18.017  14.375  1.00  0.00     0.196 HD
BRANCH  33  37
HETATM   37  C19 UNL     1       8.214  16.522  15.670  1.00  0.00     0.000 C 
HETATM   38  C20 UNL     1       8.122  16.142  17.144  1.00  0.00     0.021 C 
HETATM   39  C21 UNL     1       6.916  17.214  15.311  1.00  0.00     0.021 C 
HETATM   40  C22 UNL     1       8.328  15.218  14.883  1.00  0.00     0.021 C 
ENDBRANCH  33  37
ENDBRANCH  28  31
ENDBRANCH  24  25
ENDBRANCH  23  24
ENDBRANCH  21  23
ENDBRANCH   6  21
ENDBRANCH   4   5
ENDBRANCH   1   4
TORSDOF 15
ENDMDL
MODEL 3
REMARK VINA RESULT: -7.764521341      2.875      7.802
REMARK  15 active torsions:
REMARK  status: ('A' for Active; 'I' for Inactive)
REMARK    1  A    between atoms: N2_5  and  C4_6 
REMARK    2  A    between atoms: C4_6  and  C5_7 
REMARK    3  A    between atoms: C5_7  and  C6_8 
REMARK    4  A    between atoms: C6_8  and  C7_9 
REMARK    5  A    between atoms: C7_9  and  C8_10 
REMARK    6  A    between atoms: C8_10  and  S1_11 
REMARK    7  A    between atoms: S1_11  and  C9_12 
REMARK    8  A    between atoms: C9_12  and  N5_19 
REMARK    9  A    between atoms: N3_13  and  C10_15 
REMARK   10  A    between atoms: C10_15  and  C11_16 
REMARK   11  A    between atoms: N5_19  and  C13_21 
REMARK   12  A    between atoms: C13_21  and  C14_22 
REMARK   13  A    between atoms: C14_22  and  N6_23 
REMARK       I    between atoms: N6_23  and  C15_25 
REMARK       I    between atoms: C15_25  and  N7_27 
REMARK   14  A    between atoms: N7_27  and  C16_29 
REMARK   15  A    between atoms: C18_31  and  C19_32 
ROOT
HETATM    1  C11 UNL     1      10.076  21.459  19.332  1.00  0.00     0.168 C 
HETATM    2  C12 UNL     1      10.836  22.004  18.220  1.00  0.00     0.064 C 
HETATM    3  N4  UNL     1      11.454  22.435  17.369  1.00  0.00    -0.197 NA
ENDROOT
BRANCH   1   4
HETATM    4  C10 UNL     1      10.354  19.985  19.443  1.00  0.00     0.077 C 
BRANCH   4   5
HETATM    5  N3  UNL     1      11.626  19.589  19.063  1.00  0.00    -0.350 N 
HETATM    6  C9  UNL     1      12.186  18.871  18.231  1.00  0.00     0.139 C 
ATOM      7  H3  UNL     1      12.321  20.033  19.662  1.00  0.00     0.167 HD
BRANCH   6   8
HETATM    8  S1  UNL     1      11.311  17.926  17.000  1.00  0.00    -0.094 SA
BRANCH   8   9
HETATM    9  C8  UNL     1      10.719  19.027  15.674  1.00  0.00     0.082 C 
BRANCH   9  10
HETATM   10  C7  UNL     1       9.282  19.381  15.819  1.00  0.00     0.010 C 
BRANCH  10  11
HETATM   11  C6  UNL     1       8.366  18.831  14.787  1.00  0.00     0.002 C 
BRANCH  11  12
HETATM   12  C5  UNL     1       8.318  17.348  14.650  1.00  0.00     0.020 C 
BRANCH  12  13
HETATM   13  C4  UNL     1       6.896  16.942  15.105  1.00  0.00     0.122 C 
BRANCH  13  14
HETATM   14  N2  UNL     1       6.900  16.758  16.499  1.00  0.00    -0.387 N 
HETATM   15  C3  UNL     1       7.982  16.146  17.141  1.00  0.00     0.102 C 
HETATM   16  C2  UNL     1       7.763  15.698  18.545  1.00  0.00     0.102 C 
HETATM   17  N1  UNL     1       6.586  16.107  19.188  1.00  0.00    -0.391 N 
HETATM   18  C1  UNL     1       6.578  16.102  20.612  1.00  0.00     0.148 C 
HETATM   19  C24 UNL     1       5.829  17.144  18.582  1.00  0.00     0.141 C 
HETATM   20  C23 UNL     1       5.617  16.713  17.129  1.00  0.00     0.142 C 
ENDBRANCH  13  14
ENDBRANCH  12  13
ENDBRANCH  11  12
ENDBRANCH  10  11
ENDBRANCH   9  10
ENDBRANCH   8   9
ENDBRANCH   6   8
BRANCH   6  21
HETATM   21  N5  UNL     1      13.608  18.781  18.247  1.00  0.00    -0.369 N 
ATOM     22  H5  UNL     1      14.094  17.889  18.346  1.00  0.00     0.161 HD
BRANCH  21  23
HETATM   23  C13 UNL     1      14.336  20.061  18.112  1.00  0.00     0.141 C 
BRANCH  23  24
HETATM   24  C14 UNL     1      14.269  20.377  16.643  1.00  0.00     0.144 C 
BRANCH  24  25
HETATM   25  N6  UNL     1      14.652  21.695  16.310  1.00  0.00    -0.341 N 
HETATM   26  C15 UNL     1      14.907  22.142  14.977  1.00  0.00     0.321 C 
HETATM   27  O1  UNL     1      14.790  21.279  14.057  1.00  0.00    -0.247 OA
HETATM   28  N7  UNL     1      15.270  23.477  14.694  1.00  0.00    -0.293 N 
ATOM     29  H7  UNL     1      14.738  24.227  15.133  1.00  0.00     0.172 HD
ATOM     30  H6  UNL     1      14.752  22.370  17.068  1.00  0.00     0.164 HD
BRANCH  28  31
HETATM   31  C16 UNL     1      16.229  23.788  13.917  1.00  0.00     0.132 A 
HETATM   32  C17 UNL     1      16.351  24.924  13.112  1.00  0.00     0.086 A 
HETATM   33  C18 UNL     1      17.556  24.838  12.441  1.00  0.00     0.087 A 
HETATM   34  O2  UNL     1      18.101  23.712  12.838  1.00  0.00    -0.240 OA
HETATM   35  N8  UNL     1      17.343  23.084  13.698  1.00  0.00    -0.245 N 
ATOM     36  H8  UNL     1      17.568  22.191  14.137  1.00  0.00     0.196 HD
BRANCH  33  37
HETATM   37  C19 UNL     1      18.109  25.817  11.474  1.00  0.00     0.000 C 
HETATM   38  C20 UNL     1      17.077  26.892  11.144  1.00  0.00     0.021 C 
HETATM   39  C21 UNL     1      19.329  26.530  12.016  1.00  0.00     0.021 C 
HETATM   40  C22 UNL     1      18.466  25.128  10.159  1.00  0.00     0.021 C 
ENDBRANCH  33  37
ENDBRANCH  28  31
ENDBRANCH  24  25
ENDBRANCH  23  24
ENDBRANCH  21  23
ENDBRANCH   6  21
ENDBRANCH   4   5
ENDBRANCH   1   4
TORSDOF 15
ENDMDL
MODEL 4
REMARK VINA RESULT: -7.763491606      2.460      6.688
REMARK  15 active torsions:
REMARK  status: ('A' for Active; 'I' for Inactive)
REMARK    1  A    between atoms: N2_5  and  C4_6 
REMARK    2  A    between atoms: C4_6  and  C5_7 
REMARK    3  A    between atoms: C5_7  and  C6_8 
REMARK    4  A    between atoms: C6_8  and  C7_9 
REMARK    5  A    between atoms: C7_9  and  C8_10 
REMARK    6  A    between atoms: C8_10  and  S1_11 
REMARK    7  A    between atoms: S1_11  and  C9_12 
REMARK    8  A    between atoms: C9_12  and  N5_19 
REMARK    9  A    between atoms: N3_13  and  C10_15 
REMARK   10  A    between atoms: C10_15  and  C11_16 
REMARK   11  A    between atoms: N5_19  and  C13_21 
REMARK   12  A    between atoms: C13_21  and  C14_22 
REMARK   13  A    between atoms: C14_22  and  N6_23 
REMARK       I    between atoms: N6_23  and  C15_25 
REMARK       I    between atoms: C15_25  and  N7_27 
REMARK   14  A    between atoms: N7_27  and  C16_29 
REMARK   15  A    between atoms: C18_31  and  C19_32 
ROOT
HETATM    1  C11 UNL     1       7.652  16.071  14.833  1.00  0.00     0.168 C 
HETATM    2  C12 UNL     1       8.940  16.092  14.160  1.00  0.00     0.064 C 
HETATM    3  N4  UNL     1       9.933  16.111  13.609  1.00  0.00    -0.197 NA
ENDROOT
BRANCH   1   4
HETATM    4  C10 UNL     1       7.234  17.484  15.139  1.00  0.00     0.077 C 
BRANCH   4   5
HETATM    5  N3  UNL     1       8.269  18.369  15.391  1.00  0.00    -0.350 N 
HETATM    6  C9  UNL     1       8.938  18.800  16.333  1.00  0.00     0.139 C 
ATOM      7  H3  UNL     1       8.574  18.803  14.521  1.00  0.00     0.167 HD
BRANCH   6   8
HETATM    8  S1  UNL     1       8.708  18.282  18.022  1.00  0.00    -0.094 SA
BRANCH   8   9
HETATM    9  C8  UNL     1       8.619  19.740  19.113  1.00  0.00     0.082 C 
BRANCH   9  10
HETATM   10  C7  UNL     1       9.217  19.493  20.452  1.00  0.00     0.010 C 
BRANCH  10  11
HETATM   11  C6  UNL     1       8.742  18.280  21.167  1.00  0.00     0.002 C 
BRANCH  11  12
HETATM   12  C5  UNL     1       7.338  18.298  21.665  1.00  0.00     0.020 C 
BRANCH  12  13
HETATM   13  C4  UNL     1       6.684  17.021  21.087  1.00  0.00     0.122 C 
BRANCH  13  14
HETATM   14  N2  UNL     1       5.772  17.391  20.083  1.00  0.00    -0.387 N 
HETATM   15  C3  UNL     1       5.036  18.576  20.181  1.00  0.00     0.102 C 
HETATM   16  C2  UNL     1       3.873  18.723  19.260  1.00  0.00     0.102 C 
HETATM   17  N1  UNL     1       3.731  17.783  18.229  1.00  0.00    -0.391 N 
HETATM   18  C1  UNL     1       2.951  18.159  17.099  1.00  0.00     0.148 C 
HETATM   19  C24 UNL     1       4.838  16.940  17.948  1.00  0.00     0.141 C 
HETATM   20  C23 UNL     1       5.248  16.325  19.288  1.00  0.00     0.142 C 
ENDBRANCH  13  14
ENDBRANCH  12  13
ENDBRANCH  11  12
ENDBRANCH  10  11
ENDBRANCH   9  10
ENDBRANCH   8   9
ENDBRANCH   6   8
BRANCH   6  21
HETATM   21  N5  UNL     1       9.951  19.769  16.069  1.00  0.00    -0.369 N 
ATOM     22  H5  UNL     1      10.005  20.650  16.581  1.00  0.00     0.161 HD
BRANCH  21  23
HETATM   23  C13 UNL     1      10.918  19.417  15.008  1.00  0.00     0.141 C 
BRANCH  23  24
HETATM   24  C14 UNL     1      11.929  18.541  15.698  1.00  0.00     0.144 C 
BRANCH  24  25
HETATM   25  N6  UNL     1      13.067  19.228  16.177  1.00  0.00    -0.341 N 
HETATM   26  C15 UNL     1      13.223  19.675  17.525  1.00  0.00     0.321 C 
HETATM   27  O1  UNL     1      12.261  19.441  18.315  1.00  0.00    -0.247 OA
HETATM   28  N7  UNL     1      14.389  20.342  17.959  1.00  0.00    -0.293 N 
ATOM     29  H7  UNL     1      15.295  19.956  17.696  1.00  0.00     0.172 HD
ATOM     30  H6  UNL     1      13.824  19.416  15.519  1.00  0.00     0.164 HD
BRANCH  28  31
HETATM   31  C16 UNL     1      14.363  21.402  18.664  1.00  0.00     0.132 A 
HETATM   32  C17 UNL     1      15.128  22.561  18.504  1.00  0.00     0.086 A 
HETATM   33  C18 UNL     1      14.763  23.447  19.498  1.00  0.00     0.087 A 
HETATM   34  O2  UNL     1      13.836  22.834  20.196  1.00  0.00    -0.240 OA
HETATM   35  N8  UNL     1      13.589  21.639  19.725  1.00  0.00    -0.245 N 
ATOM     36  H8  UNL     1      12.906  20.986  20.111  1.00  0.00     0.196 HD
BRANCH  33  37
HETATM   37  C19 UNL     1      15.311  24.807  19.725  1.00  0.00     0.000 C 
HETATM   38  C20 UNL     1      16.624  24.993  18.970  1.00  0.00     0.021 C 
HETATM   39  C21 UNL     1      14.370  25.891  19.246  1.00  0.00     0.021 C 
HETATM   40  C22 UNL     1      15.619  25.020  21.206  1.00  0.00     0.021 C 
ENDBRANCH  33  37
ENDBRANCH  28  31
ENDBRANCH  24  25
ENDBRANCH  23  24
ENDBRANCH  21  23
ENDBRANCH   6  21
ENDBRANCH   4   5
ENDBRANCH   1   4
TORSDOF 15
ENDMDL
MODEL 5
REMARK VINA RESULT: -7.749286685      2.735      8.929
REMARK  15 active torsions:
REMARK  status: ('A' for Active; 'I' for Inactive)
REMARK    1  A    between atoms: N2_5  and  C4_6 
REMARK    2  A    between atoms: C4_6  and  C5_7 
REMARK    3  A    between atoms: C5_7  and  C6_8 
REMARK    4  A    between atoms: C6_8  and  C7_9 
REMARK    5  A    between atoms: C7_9  and  C8_10 
REMARK    6  A    between atoms: C8_10  and  S1_11 
REMARK    7  A    between atoms: S1_11  and  C9_12 
REMARK    8  A    between atoms: C9_12  and  N5_19 
REMARK    9  A    between atoms: N3_13  and  C10_15 
REMARK   10  A    between atoms: C10_15  and  C11_16 
REMARK   11  A    between atoms: N5_19  and  C13_21 
REMARK   12  A    between atoms: C13_21  and  C14_22 
REMARK   13  A    between atoms: C14_22  and  N6_23 
REMARK       I    between atoms: N6_23  and  C15_25 
REMARK       I    between atoms: C15_25  and  N7_27 
REMARK   14  A    between atoms: N7_27  and  C16_29 
REMARK   15  A    between atoms: C18_31  and  C19_32 
ROOT
HETATM    1  C11 UNL     1      17.883  25.358  17.936  1.00  0.00     0.168 C 
HETATM    2  C12 UNL     1      17.543  25.148  19.333  1.00  0.00     0.064 C 
HETATM    3  N4  UNL     1      17.249  24.993  20.420  1.00  0.00    -0.197 NA
ENDROOT
BRANCH   1   4
HETATM    4  C10 UNL     1      17.534  24.121  17.154  1.00  0.00     0.077 C 
BRANCH   4   5
HETATM    5  N3  UNL     1      16.275  23.599  17.396  1.00  0.00    -0.350 N 
HETATM    6  C9  UNL     1      15.438  22.861  16.870  1.00  0.00     0.139 C 
ATOM      7  H3  UNL     1      15.929  23.929  18.296  1.00  0.00     0.167 HD
BRANCH   6   8
HETATM    8  S1  UNL     1      15.672  22.080  15.286  1.00  0.00    -0.094 SA
BRANCH   8   9
HETATM    9  C8  UNL     1      14.169  22.265  14.272  1.00  0.00     0.082 C 
BRANCH   9  10
HETATM   10  C7  UNL     1      13.274  21.081  14.348  1.00  0.00     0.010 C 
BRANCH  10  11
HETATM   11  C6  UNL     1      13.602  20.079  15.395  1.00  0.00     0.002 C 
BRANCH  11  12
HETATM   12  C5  UNL     1      12.473  19.264  15.925  1.00  0.00     0.020 C 
BRANCH  12  13
HETATM   13  C4  UNL     1      11.229  19.724  15.129  1.00  0.00     0.122 C 
BRANCH  13  14
HETATM   14  N2  UNL     1      10.306  18.665  15.077  1.00  0.00    -0.387 N 
HETATM   15  C3  UNL     1      10.504  17.578  14.220  1.00  0.00     0.102 C 
HETATM   16  C2  UNL     1       9.335  16.683  13.988  1.00  0.00     0.102 C 
HETATM   17  N1  UNL     1       8.205  16.859  14.798  1.00  0.00    -0.391 N 
HETATM   18  C1  UNL     1       7.307  15.760  14.922  1.00  0.00     0.148 C 
HETATM   19  C24 UNL     1       8.343  17.661  15.960  1.00  0.00     0.141 C 
HETATM   20  C23 UNL     1       8.972  18.975  15.489  1.00  0.00     0.142 C 
ENDBRANCH  13  14
ENDBRANCH  12  13
ENDBRANCH  11  12
ENDBRANCH  10  11
ENDBRANCH   9  10
ENDBRANCH   8   9
ENDBRANCH   6   8
BRANCH   6  21
HETATM   21  N5  UNL     1      14.212  22.615  17.554  1.00  0.00    -0.369 N 
ATOM     22  H5  UNL     1      13.305  22.753  17.108  1.00  0.00     0.161 HD
BRANCH  21  23
HETATM   23  C13 UNL     1      14.337  22.148  18.952  1.00  0.00     0.141 C 
BRANCH  23  24
HETATM   24  C14 UNL     1      12.927  22.155  19.476  1.00  0.00     0.144 C 
BRANCH  24  25
HETATM   25  N6  UNL     1      12.283  20.898  19.440  1.00  0.00    -0.341 N 
HETATM   26  C15 UNL     1      10.954  20.692  18.958  1.00  0.00     0.321 C 
HETATM   27  O1  UNL     1      10.331  21.720  18.556  1.00  0.00    -0.247 OA
HETATM   28  N7  UNL     1      10.362  19.412  18.926  1.00  0.00    -0.293 N 
ATOM     29  H7  UNL     1      10.907  18.634  18.554  1.00  0.00     0.172 HD
ATOM     30  H6  UNL     1      12.799  20.086  19.780  1.00  0.00     0.164 HD
BRANCH  28  31
HETATM   31  C16 UNL     1       9.179  19.181  19.338  1.00  0.00     0.132 A 
HETATM   32  C17 UNL     1       8.761  18.213  20.256  1.00  0.00     0.086 A 
HETATM   33  C18 UNL     1       7.391  18.330  20.396  1.00  0.00     0.087 A 
HETATM   34  O2  UNL     1       7.037  19.313  19.602  1.00  0.00    -0.240 OA
HETATM   35  N8  UNL     1       8.066  19.822  18.975  1.00  0.00    -0.245 N 
ATOM     36  H8  UNL     1       8.024  20.594  18.309  1.00  0.00     0.196 HD
BRANCH  33  37
HETATM   37  C19 UNL     1       6.512  17.510  21.265  1.00  0.00     0.000 C 
HETATM   38  C20 UNL     1       7.291  16.956  22.453  1.00  0.00     0.021 C 
HETATM   39  C21 UNL     1       5.357  18.310  21.828  1.00  0.00     0.021 C 
HETATM   40  C22 UNL     1       5.969  16.308  20.493  1.00  0.00     0.021 C 
ENDBRANCH  33  37
ENDBRANCH  28  31
ENDBRANCH  24  25
ENDBRANCH  23  24
ENDBRANCH  21  23
ENDBRANCH   6  21
ENDBRANCH   4   5
ENDBRANCH   1   4
TORSDOF 15
ENDMDL
