MODEL 1
REMARK VINA RESULT: -9.666712237      0.000      0.000
REMARK  12 active torsions:
REMARK  status: ('A' for Active; 'I' for Inactive)
REMARK    1  A    between atoms: C3_4  and  N1_5 
REMARK    2  A    between atoms: N1_5  and  C4_7 
REMARK    3  A    between atoms: C4_7  and  C5_8 
REMARK    4  A    between atoms: C5_8  and  C6_9 
REMARK       I    between atoms: C6_9  and  N2_11 
REMARK    5  A    between atoms: N2_11  and  C7_13 
REMARK    6  A    between atoms: C7_13  and  C8_14 
REMARK    7  A    between atoms: N3_17  and  C11_18 
REMARK    8  A    between atoms: C11_18  and  C12_19 
REMARK       I    between atoms: C12_19  and  N4_21 
REMARK    9  A    between atoms: N4_21  and  C13_23 
REMARK   10  A    between atoms: C13_23  and  C14_24 
REMARK   11  A    between atoms: C14_24  and  C15_25 
REMARK   12  A    between atoms: N5_35  and  O3_36 
ROOT
HETATM    1  C7  UNL     1      13.337  21.853  16.570  1.00  0.00     0.128 C 
ENDROOT
BRANCH   1   2
HETATM    2  N2  UNL     1      12.640  21.655  17.802  1.00  0.00    -0.361 N 
HETATM    3  C6  UNL     1      11.263  21.943  17.921  1.00  0.00     0.219 C 
HETATM    4  O1  UNL     1      10.629  22.378  16.933  1.00  0.00    -0.274 OA
ATOM      5  H2  UNL     1      13.148  21.298  18.612  1.00  0.00     0.162 HD
BRANCH   3   6
HETATM    6  C5  UNL     1      10.565  21.727  19.234  1.00  0.00     0.122 C 
BRANCH   6   7
HETATM    7  C4  UNL     1      10.355  20.180  19.333  1.00  0.00     0.129 C 
BRANCH   7   8
HETATM    8  N1  UNL     1       9.353  19.857  18.382  1.00  0.00    -0.382 N 
ATOM      9  H1  UNL     1       8.586  20.528  18.331  1.00  0.00     0.160 HD
BRANCH   8  10
HETATM   10  C3  UNL     1       9.236  18.765  17.492  1.00  0.00     0.095 A 
HETATM   11  S1  UNL     1       9.972  18.846  15.914  1.00  0.00    -0.074 SA
HETATM   12  C2  UNL     1       9.734  17.451  14.993  1.00  0.00     0.005 A 
HETATM   13  C1  UNL     1      10.267  17.277  13.605  1.00  0.00     0.058 C 
HETATM   14  C25 UNL     1       9.003  16.469  15.619  1.00  0.00     0.049 A 
HETATM   15  N5  UNL     1       8.504  16.559  16.839  1.00  0.00    -0.230 N 
HETATM   16  C26 UNL     1       8.789  15.218  14.792  1.00  0.00     0.072 C 
HETATM   17  C23 UNL     1       8.588  17.574  17.710  1.00  0.00     0.070 A 
HETATM   18  C24 UNL     1       7.913  17.381  19.045  1.00  0.00     0.074 C 
BRANCH  15  19
HETATM   19  O3  UNL     1       7.861  15.527  17.219  1.00  0.00    -0.283 OA
ATOM     20  H3  UNL     1       7.084  15.675  17.745  1.00  0.00     0.245 HD
ENDBRANCH  15  19
ENDBRANCH   8  10
ENDBRANCH   7   8
ENDBRANCH   6   7
ENDBRANCH   3   6
ENDBRANCH   1   2
BRANCH   1  21
HETATM   21  C8  UNL     1      13.405  20.592  15.739  1.00  0.00     0.013 C 
HETATM   22  C9  UNL     1      12.989  20.882  14.333  1.00  0.00     0.051 C 
HETATM   23  C10 UNL     1      13.849  21.913  13.648  1.00  0.00     0.064 C 
HETATM   24  N3  UNL     1      15.216  21.771  13.928  1.00  0.00    -0.365 N 
HETATM   25  C21 UNL     1      15.673  20.633  14.621  1.00  0.00     0.064 C 
HETATM   26  C22 UNL     1      14.856  20.148  15.763  1.00  0.00     0.051 C 
BRANCH  24  27
HETATM   27  C11 UNL     1      16.072  22.885  13.807  1.00  0.00     0.229 C 
BRANCH  27  28
HETATM   28  C12 UNL     1      16.984  22.984  14.967  1.00  0.00     0.235 C 
HETATM   29  O2  UNL     1      18.158  22.574  14.861  1.00  0.00    -0.272 OA
HETATM   30  N4  UNL     1      16.560  23.532  16.206  1.00  0.00    -0.359 N 
ATOM     31  H4  UNL     1      15.607  23.875  16.318  1.00  0.00     0.162 HD
BRANCH  30  32
HETATM   32  C13 UNL     1      17.492  23.600  17.303  1.00  0.00     0.127 C 
BRANCH  32  33
HETATM   33  C14 UNL     1      17.473  24.932  17.990  1.00  0.00     0.053 C 
BRANCH  33  34
HETATM   34  C15 UNL     1      16.523  24.851  19.142  1.00  0.00    -0.082 C 
HETATM   35  C16 UNL     1      15.320  24.284  19.005  1.00  0.00    -0.024 C 
HETATM   36  C17 UNL     1      14.328  24.168  20.105  1.00  0.00     0.027 C 
HETATM   37  C18 UNL     1      15.055  24.312  21.426  1.00  0.00     0.004 C 
HETATM   38  C19 UNL     1      15.822  25.631  21.368  1.00  0.00     0.005 C 
HETATM   39  C20 UNL     1      16.986  25.428  20.432  1.00  0.00     0.034 C 
ENDBRANCH  33  34
ENDBRANCH  32  33
ENDBRANCH  30  32
ENDBRANCH  27  28
ENDBRANCH  24  27
ENDBRANCH   1  21
TORSDOF 12
ENDMDL
MODEL 2
REMARK VINA RESULT: -9.602806640      1.504      1.911
REMARK  12 active torsions:
REMARK  status: ('A' for Active; 'I' for Inactive)
REMARK    1  A    between atoms: C3_4  and  N1_5 
REMARK    2  A    between atoms: N1_5  and  C4_7 
REMARK    3  A    between atoms: C4_7  and  C5_8 
REMARK    4  A    between atoms: C5_8  and  C6_9 
REMARK       I    between atoms: C6_9  and  N2_11 
REMARK    5  A    between atoms: N2_11  and  C7_13 
REMARK    6  A    between atoms: C7_13  and  C8_14 
REMARK    7  A    between atoms: N3_17  and  C11_18 
REMARK    8  A    between atoms: C11_18  and  C12_19 
REMARK       I    between atoms: C12_19  and  N4_21 
REMARK    9  A    between atoms: N4_21  and  C13_23 
REMARK   10  A    between atoms: C13_23  and  C14_24 
REMARK   11  A    between atoms: C14_24  and  C15_25 
REMARK   12  A    between atoms: N5_35  and  O3_36 
ROOT
HETATM    1  C7  UNL     1      13.323  22.140  16.136  1.00  0.00     0.128 C 
ENDROOT
BRANCH   1   2
HETATM    2  N2  UNL     1      13.057  21.860  17.513  1.00  0.00    -0.361 N 
HETATM    3  C6  UNL     1      11.784  22.096  18.077  1.00  0.00     0.219 C 
HETATM    4  O1  UNL     1      10.863  22.556  17.367  1.00  0.00    -0.274 OA
ATOM      5  H2  UNL     1      13.802  21.482  18.098  1.00  0.00     0.162 HD
BRANCH   3   6
HETATM    6  C5  UNL     1      11.545  21.794  19.529  1.00  0.00     0.122 C 
BRANCH   6   7
HETATM    7  C4  UNL     1      10.121  21.150  19.581  1.00  0.00     0.129 C 
BRANCH   7   8
HETATM    8  N1  UNL     1      10.283  19.803  19.165  1.00  0.00    -0.382 N 
ATOM      9  H1  UNL     1      10.398  19.136  19.928  1.00  0.00     0.160 HD
BRANCH   8  10
HETATM   10  C3  UNL     1      10.311  19.227  17.874  1.00  0.00     0.095 A 
HETATM   11  S1  UNL     1       8.918  19.357  16.833  1.00  0.00    -0.074 SA
HETATM   12  C2  UNL     1       9.136  18.618  15.331  1.00  0.00     0.005 A 
HETATM   13  C1  UNL     1       8.086  18.592  14.264  1.00  0.00     0.058 C 
HETATM   14  C25 UNL     1      10.366  18.030  15.154  1.00  0.00     0.049 A 
HETATM   15  N5  UNL     1      11.334  18.016  16.054  1.00  0.00    -0.230 N 
HETATM   16  C26 UNL     1      10.560  17.366  13.806  1.00  0.00     0.072 C 
HETATM   17  C23 UNL     1      11.346  18.543  17.285  1.00  0.00     0.070 A 
HETATM   18  C24 UNL     1      12.612  18.368  18.087  1.00  0.00     0.074 C 
BRANCH  15  19
HETATM   19  O3  UNL     1      12.392  17.416  15.674  1.00  0.00    -0.283 OA
ATOM     20  H3  UNL     1      12.276  16.615  15.177  1.00  0.00     0.245 HD
ENDBRANCH  15  19
ENDBRANCH   8  10
ENDBRANCH   7   8
ENDBRANCH   6   7
ENDBRANCH   3   6
ENDBRANCH   1   2
BRANCH   1  21
HETATM   21  C8  UNL     1      13.424  20.881  15.303  1.00  0.00     0.013 C 
HETATM   22  C9  UNL     1      13.213  21.205  13.859  1.00  0.00     0.051 C 
HETATM   23  C10 UNL     1      14.214  22.187  13.306  1.00  0.00     0.064 C 
HETATM   24  N3  UNL     1      15.522  21.961  13.759  1.00  0.00    -0.365 N 
HETATM   25  C21 UNL     1      15.817  20.793  14.490  1.00  0.00     0.064 C 
HETATM   26  C22 UNL     1      14.832  20.352  15.509  1.00  0.00     0.051 C 
BRANCH  24  27
HETATM   27  C11 UNL     1      16.450  23.023  13.766  1.00  0.00     0.229 C 
BRANCH  27  28
HETATM   28  C12 UNL     1      17.222  23.047  15.027  1.00  0.00     0.235 C 
HETATM   29  O2  UNL     1      18.256  22.355  15.127  1.00  0.00    -0.272 OA
HETATM   30  N4  UNL     1      16.818  23.836  16.136  1.00  0.00    -0.359 N 
ATOM     31  H4  UNL     1      15.978  24.411  16.079  1.00  0.00     0.162 HD
BRANCH  30  32
HETATM   32  C13 UNL     1      17.607  23.817  17.341  1.00  0.00     0.127 C 
BRANCH  32  33
HETATM   33  C14 UNL     1      17.541  25.113  18.091  1.00  0.00     0.053 C 
BRANCH  33  34
HETATM   34  C15 UNL     1      16.543  24.965  19.194  1.00  0.00    -0.082 C 
HETATM   35  C16 UNL     1      16.780  25.468  20.410  1.00  0.00    -0.024 C 
HETATM   36  C17 UNL     1      15.835  25.358  21.551  1.00  0.00     0.027 C 
HETATM   37  C18 UNL     1      14.452  25.070  21.004  1.00  0.00     0.004 C 
HETATM   38  C19 UNL     1      14.572  23.826  20.129  1.00  0.00     0.005 C 
HETATM   39  C20 UNL     1      15.288  24.237  18.868  1.00  0.00     0.034 C 
ENDBRANCH  33  34
ENDBRANCH  32  33
ENDBRANCH  30  32
ENDBRANCH  27  28
ENDBRANCH  24  27
ENDBRANCH   1  21
TORSDOF 12
ENDMDL
MODEL 3
REMARK VINA RESULT: -9.324442562      2.565      9.036
REMARK  12 active torsions:
REMARK  status: ('A' for Active; 'I' for Inactive)
REMARK    1  A    between atoms: C3_4  and  N1_5 
REMARK    2  A    between atoms: N1_5  and  C4_7 
REMARK    3  A    between atoms: C4_7  and  C5_8 
REMARK    4  A    between atoms: C5_8  and  C6_9 
REMARK       I    between atoms: C6_9  and  N2_11 
REMARK    5  A    between atoms: N2_11  and  C7_13 
REMARK    6  A    between atoms: C7_13  and  C8_14 
REMARK    7  A    between atoms: N3_17  and  C11_18 
REMARK    8  A    between atoms: C11_18  and  C12_19 
REMARK       I    between atoms: C12_19  and  N4_21 
REMARK    9  A    between atoms: N4_21  and  C13_23 
REMARK   10  A    between atoms: C13_23  and  C14_24 
REMARK   11  A    between atoms: C14_24  and  C15_25 
REMARK   12  A    between atoms: N5_35  and  O3_36 
ROOT
HETATM    1  C7  UNL     1      10.850  18.141  15.820  1.00  0.00     0.128 C 
ENDROOT
BRANCH   1   2
HETATM    2  N2  UNL     1      12.240  18.436  15.663  1.00  0.00    -0.361 N 
HETATM    3  C6  UNL     1      12.729  19.756  15.781  1.00  0.00     0.219 C 
HETATM    4  O1  UNL     1      11.938  20.693  16.031  1.00  0.00    -0.274 OA
ATOM      5  H2  UNL     1      12.892  17.678  15.462  1.00  0.00     0.162 HD
BRANCH   3   6
HETATM    6  C5  UNL     1      14.196  20.027  15.604  1.00  0.00     0.122 C 
BRANCH   6   7
HETATM    7  C4  UNL     1      14.375  21.541  15.954  1.00  0.00     0.129 C 
BRANCH   7   8
HETATM    8  N1  UNL     1      14.785  21.585  17.312  1.00  0.00    -0.382 N 
ATOM      9  H1  UNL     1      14.809  20.677  17.776  1.00  0.00     0.160 HD
BRANCH   8  10
HETATM   10  C3  UNL     1      15.168  22.672  18.131  1.00  0.00     0.095 A 
HETATM   11  S1  UNL     1      16.569  23.622  17.716  1.00  0.00    -0.074 SA
HETATM   12  C2  UNL     1      16.870  24.879  18.803  1.00  0.00     0.005 A 
HETATM   13  C1  UNL     1      18.014  25.834  18.665  1.00  0.00     0.058 C 
HETATM   14  C25 UNL     1      15.973  24.965  19.841  1.00  0.00     0.049 A 
HETATM   15  N5  UNL     1      14.944  24.156  20.022  1.00  0.00    -0.230 N 
HETATM   16  C26 UNL     1      16.243  26.093  20.817  1.00  0.00     0.072 C 
HETATM   17  C23 UNL     1      14.551  23.115  19.275  1.00  0.00     0.070 A 
HETATM   18  C24 UNL     1      13.320  22.375  19.736  1.00  0.00     0.074 C 
BRANCH  15  19
HETATM   19  O3  UNL     1      14.243  24.422  21.051  1.00  0.00    -0.283 OA
ATOM     20  H3  UNL     1      14.681  24.374  21.893  1.00  0.00     0.245 HD
ENDBRANCH  15  19
ENDBRANCH   8  10
ENDBRANCH   7   8
ENDBRANCH   6   7
ENDBRANCH   3   6
ENDBRANCH   1   2
BRANCH   1  21
HETATM   21  C8  UNL     1      10.031  18.588  14.631  1.00  0.00     0.013 C 
HETATM   22  C9  UNL     1      10.136  17.582  13.530  1.00  0.00     0.051 C 
HETATM   23  C10 UNL     1       9.648  16.209  13.916  1.00  0.00     0.064 C 
HETATM   24  N3  UNL     1       8.482  16.233  14.695  1.00  0.00    -0.365 N 
HETATM   25  C21 UNL     1       7.788  17.445  14.879  1.00  0.00     0.064 C 
HETATM   26  C22 UNL     1       8.594  18.670  15.115  1.00  0.00     0.051 C 
BRANCH  24  27
HETATM   27  C11 UNL     1       8.185  15.142  15.539  1.00  0.00     0.229 C 
BRANCH  27  28
HETATM   28  C12 UNL     1       7.544  15.597  16.791  1.00  0.00     0.235 C 
HETATM   29  O2  UNL     1       6.302  15.541  16.901  1.00  0.00    -0.272 OA
HETATM   30  N4  UNL     1       8.304  16.102  17.879  1.00  0.00    -0.359 N 
ATOM     31  H4  UNL     1       9.320  16.157  17.815  1.00  0.00     0.162 HD
BRANCH  30  32
HETATM   32  C13 UNL     1       7.625  16.534  19.074  1.00  0.00     0.127 C 
BRANCH  32  33
HETATM   33  C14 UNL     1       7.204  17.971  19.005  1.00  0.00     0.053 C 
BRANCH  33  34
HETATM   34  C15 UNL     1       8.355  18.818  19.444  1.00  0.00    -0.082 C 
HETATM   35  C16 UNL     1       8.918  19.701  18.612  1.00  0.00    -0.024 C 
HETATM   36  C17 UNL     1      10.062  20.574  18.980  1.00  0.00     0.027 C 
HETATM   37  C18 UNL     1      10.132  20.664  20.491  1.00  0.00     0.004 C 
HETATM   38  C19 UNL     1      10.202  19.233  21.016  1.00  0.00     0.005 C 
HETATM   39  C20 UNL     1       8.833  18.626  20.839  1.00  0.00     0.034 C 
ENDBRANCH  33  34
ENDBRANCH  32  33
ENDBRANCH  30  32
ENDBRANCH  27  28
ENDBRANCH  24  27
ENDBRANCH   1  21
TORSDOF 12
ENDMDL
MODEL 4
REMARK VINA RESULT: -9.315573040      2.073      9.013
REMARK  12 active torsions:
REMARK  status: ('A' for Active; 'I' for Inactive)
REMARK    1  A    between atoms: C3_4  and  N1_5 
REMARK    2  A    between atoms: N1_5  and  C4_7 
REMARK    3  A    between atoms: C4_7  and  C5_8 
REMARK    4  A    between atoms: C5_8  and  C6_9 
REMARK       I    between atoms: C6_9  and  N2_11 
REMARK    5  A    between atoms: N2_11  and  C7_13 
REMARK    6  A    between atoms: C7_13  and  C8_14 
REMARK    7  A    between atoms: N3_17  and  C11_18 
REMARK    8  A    between atoms: C11_18  and  C12_19 
REMARK       I    between atoms: C12_19  and  N4_21 
REMARK    9  A    between atoms: N4_21  and  C13_23 
REMARK   10  A    between atoms: C13_23  and  C14_24 
REMARK   11  A    between atoms: C14_24  and  C15_25 
REMARK   12  A    between atoms: N5_35  and  O3_36 
ROOT
HETATM    1  C7  UNL     1      10.571  17.959  16.215  1.00  0.00     0.128 C 
ENDROOT
BRANCH   1   2
HETATM    2  N2  UNL     1      11.925  18.272  16.552  1.00  0.00    -0.361 N 
HETATM    3  C6  UNL     1      12.371  19.609  16.635  1.00  0.00     0.219 C 
HETATM    4  O1  UNL     1      11.573  20.547  16.414  1.00  0.00    -0.274 OA
ATOM      5  H2  UNL     1      12.582  17.514  16.737  1.00  0.00     0.162 HD
BRANCH   3   6
HETATM    6  C5  UNL     1      13.803  19.898  16.988  1.00  0.00     0.122 C 
BRANCH   6   7
HETATM    7  C4  UNL     1      14.363  20.713  15.777  1.00  0.00     0.129 C 
BRANCH   7   8
HETATM    8  N1  UNL     1      14.240  22.082  16.132  1.00  0.00    -0.382 N 
ATOM      9  H1  UNL     1      13.616  22.620  15.531  1.00  0.00     0.160 HD
BRANCH   8  10
HETATM   10  C3  UNL     1      14.834  22.827  17.177  1.00  0.00     0.095 A 
HETATM   11  S1  UNL     1      13.928  23.162  18.628  1.00  0.00    -0.074 SA
HETATM   12  C2  UNL     1      14.798  24.056  19.766  1.00  0.00     0.005 A 
HETATM   13  C1  UNL     1      14.240  24.471  21.092  1.00  0.00     0.058 C 
HETATM   14  C25 UNL     1      16.078  24.382  19.383  1.00  0.00     0.049 A 
HETATM   15  N5  UNL     1      16.629  24.049  18.230  1.00  0.00    -0.230 N 
HETATM   16  C26 UNL     1      16.857  25.185  20.404  1.00  0.00     0.072 C 
HETATM   17  C23 UNL     1      16.102  23.351  17.215  1.00  0.00     0.070 A 
HETATM   18  C24 UNL     1      16.988  23.123  16.015  1.00  0.00     0.074 C 
BRANCH  15  19
HETATM   19  O3  UNL     1      17.828  24.455  18.087  1.00  0.00    -0.283 OA
ATOM     20  H3  UNL     1      17.978  25.389  18.175  1.00  0.00     0.245 HD
ENDBRANCH  15  19
ENDBRANCH   8  10
ENDBRANCH   7   8
ENDBRANCH   6   7
ENDBRANCH   3   6
ENDBRANCH   1   2
BRANCH   1  21
HETATM   21  C8  UNL     1      10.208  18.414  14.819  1.00  0.00     0.013 C 
HETATM   22  C9  UNL     1      10.206  17.246  13.885  1.00  0.00     0.051 C 
HETATM   23  C10 UNL     1       9.230  16.165  14.269  1.00  0.00     0.064 C 
HETATM   24  N3  UNL     1       8.000  16.664  14.723  1.00  0.00    -0.365 N 
HETATM   25  C21 UNL     1       7.716  18.039  14.606  1.00  0.00     0.064 C 
HETATM   26  C22 UNL     1       8.809  18.996  14.915  1.00  0.00     0.051 C 
BRANCH  24  27
HETATM   27  C11 UNL     1       7.195  15.871  15.568  1.00  0.00     0.229 C 
BRANCH  27  28
HETATM   28  C12 UNL     1       7.478  16.155  16.991  1.00  0.00     0.235 C 
HETATM   29  O2  UNL     1       8.452  15.605  17.545  1.00  0.00    -0.272 OA
HETATM   30  N4  UNL     1       6.668  17.038  17.752  1.00  0.00    -0.359 N 
ATOM     31  H4  UNL     1       5.867  17.501  17.324  1.00  0.00     0.162 HD
BRANCH  30  32
HETATM   32  C13 UNL     1       6.990  17.274  19.137  1.00  0.00     0.127 C 
BRANCH  32  33
HETATM   33  C14 UNL     1       6.831  18.714  19.525  1.00  0.00     0.053 C 
BRANCH  33  34
HETATM   34  C15 UNL     1       8.185  19.264  19.844  1.00  0.00    -0.082 C 
HETATM   35  C16 UNL     1       8.785  18.986  21.005  1.00  0.00    -0.024 C 
HETATM   36  C17 UNL     1      10.127  19.498  21.387  1.00  0.00     0.027 C 
HETATM   37  C18 UNL     1      10.859  19.914  20.129  1.00  0.00     0.004 C 
HETATM   38  C19 UNL     1       9.959  20.909  19.402  1.00  0.00     0.005 C 
HETATM   39  C20 UNL     1       8.816  20.126  18.810  1.00  0.00     0.034 C 
ENDBRANCH  33  34
ENDBRANCH  32  33
ENDBRANCH  30  32
ENDBRANCH  27  28
ENDBRANCH  24  27
ENDBRANCH   1  21
TORSDOF 12
ENDMDL
MODEL 5
REMARK VINA RESULT: -9.307283899      2.730      8.191
REMARK  12 active torsions:
REMARK  status: ('A' for Active; 'I' for Inactive)
REMARK    1  A    between atoms: C3_4  and  N1_5 
REMARK    2  A    between atoms: N1_5  and  C4_7 
REMARK    3  A    between atoms: C4_7  and  C5_8 
REMARK    4  A    between atoms: C5_8  and  C6_9 
REMARK       I    between atoms: C6_9  and  N2_11 
REMARK    5  A    between atoms: N2_11  and  C7_13 
REMARK    6  A    between atoms: C7_13  and  C8_14 
REMARK    7  A    between atoms: N3_17  and  C11_18 
REMARK    8  A    between atoms: C11_18  and  C12_19 
REMARK       I    between atoms: C12_19  and  N4_21 
REMARK    9  A    between atoms: N4_21  and  C13_23 
REMARK   10  A    between atoms: C13_23  and  C14_24 
REMARK   11  A    between atoms: C14_24  and  C15_25 
REMARK   12  A    between atoms: N5_35  and  O3_36 
ROOT
HETATM    1  C7  UNL     1      11.820  20.532  15.742  1.00  0.00     0.128 C 
ENDROOT
BRANCH   1   2
HETATM    2  N2  UNL     1      13.080  20.526  15.066  1.00  0.00    -0.361 N 
HETATM    3  C6  UNL     1      14.287  20.311  15.766  1.00  0.00     0.219 C 
HETATM    4  O1  UNL     1      14.265  20.118  17.002  1.00  0.00    -0.274 OA
ATOM      5  H2  UNL     1      13.106  20.679  14.057  1.00  0.00     0.162 HD
BRANCH   3   6
HETATM    6  C5  UNL     1      15.592  20.316  15.021  1.00  0.00     0.122 C 
BRANCH   6   7
HETATM    7  C4  UNL     1      15.716  21.757  14.428  1.00  0.00     0.129 C 
BRANCH   7   8
HETATM    8  N1  UNL     1      16.616  22.456  15.274  1.00  0.00    -0.382 N 
ATOM      9  H1  UNL     1      16.979  21.904  16.052  1.00  0.00     0.160 HD
BRANCH   8  10
HETATM   10  C3  UNL     1      17.096  23.785  15.225  1.00  0.00     0.095 A 
HETATM   11  S1  UNL     1      17.015  24.682  13.732  1.00  0.00    -0.074 SA
HETATM   12  C2  UNL     1      17.627  26.250  13.862  1.00  0.00     0.005 A 
HETATM   13  C1  UNL     1      17.669  27.218  12.720  1.00  0.00     0.058 C 
HETATM   14  C25 UNL     1      18.091  26.583  15.113  1.00  0.00     0.049 A 
HETATM   15  N5  UNL     1      18.084  25.778  16.160  1.00  0.00    -0.230 N 
HETATM   16  C26 UNL     1      18.641  27.990  15.228  1.00  0.00     0.072 C 
HETATM   17  C23 UNL     1      17.645  24.515  16.249  1.00  0.00     0.070 A 
HETATM   18  C24 UNL     1      17.765  23.847  17.596  1.00  0.00     0.074 C 
BRANCH  15  19
HETATM   19  O3  UNL     1      18.562  26.297  17.221  1.00  0.00    -0.283 OA
ATOM     20  H3  UNL     1      19.330  25.880  17.594  1.00  0.00     0.245 HD
ENDBRANCH  15  19
ENDBRANCH   8  10
ENDBRANCH   7   8
ENDBRANCH   6   7
ENDBRANCH   3   6
ENDBRANCH   1   2
BRANCH   1  21
HETATM   21  C8  UNL     1      10.950  19.361  15.346  1.00  0.00     0.013 C 
HETATM   22  C9  UNL     1      11.439  18.113  16.009  1.00  0.00     0.051 C 
HETATM   23  C10 UNL     1      11.431  18.185  17.514  1.00  0.00     0.064 C 
HETATM   24  N3  UNL     1      10.293  18.820  18.034  1.00  0.00    -0.365 N 
HETATM   25  C21 UNL     1       9.221  19.144  17.180  1.00  0.00     0.064 C 
HETATM   26  C22 UNL     1       9.551  19.688  15.838  1.00  0.00     0.051 C 
BRANCH  24  27
HETATM   27  C11 UNL     1      10.349  19.411  19.314  1.00  0.00     0.229 C 
BRANCH  27  28
HETATM   28  C12 UNL     1      10.998  20.738  19.259  1.00  0.00     0.235 C 
HETATM   29  O2  UNL     1      10.295  21.761  19.116  1.00  0.00    -0.272 OA
HETATM   30  N4  UNL     1      12.406  20.886  19.361  1.00  0.00    -0.359 N 
ATOM     31  H4  UNL     1      13.003  20.068  19.479  1.00  0.00     0.162 HD
BRANCH  30  32
HETATM   32  C13 UNL     1      12.985  22.204  19.297  1.00  0.00     0.127 C 
BRANCH  32  33
HETATM   33  C14 UNL     1      13.784  22.540  20.520  1.00  0.00     0.053 C 
BRANCH  33  34
HETATM   34  C15 UNL     1      14.435  23.868  20.303  1.00  0.00    -0.082 C 
HETATM   35  C16 UNL     1      15.245  24.397  21.226  1.00  0.00    -0.024 C 
HETATM   36  C17 UNL     1      15.926  25.709  21.077  1.00  0.00     0.027 C 
HETATM   37  C18 UNL     1      15.963  26.068  19.606  1.00  0.00     0.004 C 
HETATM   38  C19 UNL     1      14.525  26.012  19.100  1.00  0.00     0.005 C 
HETATM   39  C20 UNL     1      14.136  24.558  19.021  1.00  0.00     0.034 C 
ENDBRANCH  33  34
ENDBRANCH  32  33
ENDBRANCH  30  32
ENDBRANCH  27  28
ENDBRANCH  24  27
ENDBRANCH   1  21
TORSDOF 12
ENDMDL
