MODEL 1
REMARK VINA RESULT: -6.415660876      0.000      0.000
REMARK  1 active torsions:
REMARK  status: ('A' for Active; 'I' for Inactive)
REMARK    1  A    between atoms: O1_1  and  N1_3 
ROOT
HETATM    1  N1  UNL     1       4.957  29.393  12.110  1.00  0.00    -0.246 N 
HETATM    2  C1  UNL     1       3.914  28.766  11.537  1.00  0.00     0.123 A 
HETATM    3  C2  UNL     1       3.545  27.544  12.068  1.00  0.00     0.032 A 
HETATM    4  C3  UNL     1       4.203  26.969  13.140  1.00  0.00    -0.023 A 
HETATM    5  C4  UNL     1       3.848  25.754  13.678  1.00  0.00     0.012 A 
HETATM    6  C5  UNL     1       4.507  25.185  14.747  1.00  0.00     0.001 A 
HETATM    7  C6  UNL     1       5.573  25.857  15.308  1.00  0.00     0.001 A 
HETATM    8  C7  UNL     1       5.940  27.084  14.774  1.00  0.00     0.014 A 
HETATM    9  C8  UNL     1       5.271  27.642  13.702  1.00  0.00    -0.008 A 
HETATM   10  C9  UNL     1       5.625  28.862  13.159  1.00  0.00     0.134 A 
ENDROOT
BRANCH   1  11
HETATM   11  O1  UNL     1       5.328  30.613  11.586  1.00  0.00    -0.284 OA
ATOM     12  H1  UNL     1       5.890  31.164  12.118  1.00  0.00     0.245 HD
ENDBRANCH   1  11
TORSDOF 1
ENDMDL
MODEL 2
REMARK VINA RESULT: -6.283734300      2.186      2.675
REMARK  1 active torsions:
REMARK  status: ('A' for Active; 'I' for Inactive)
REMARK    1  A    between atoms: O1_1  and  N1_3 
ROOT
HETATM    1  N1  UNL     1       3.878  30.527  14.593  1.00  0.00    -0.246 N 
HETATM    2  C1  UNL     1       3.293  30.004  15.685  1.00  0.00     0.123 A 
HETATM    3  C2  UNL     1       3.629  28.706  16.019  1.00  0.00     0.032 A 
HETATM    4  C3  UNL     1       4.523  27.955  15.278  1.00  0.00    -0.023 A 
HETATM    5  C4  UNL     1       4.866  26.661  15.598  1.00  0.00     0.012 A 
HETATM    6  C5  UNL     1       5.759  25.916  14.857  1.00  0.00     0.001 A 
HETATM    7  C6  UNL     1       6.339  26.485  13.743  1.00  0.00     0.001 A 
HETATM    8  C7  UNL     1       6.001  27.790  13.410  1.00  0.00     0.014 A 
HETATM    9  C8  UNL     1       5.105  28.524  14.162  1.00  0.00    -0.008 A 
HETATM   10  C9  UNL     1       4.758  29.824  13.844  1.00  0.00     0.134 A 
ENDROOT
BRANCH   1  11
HETATM   11  O1  UNL     1       3.549  31.822  14.256  1.00  0.00    -0.284 OA
ATOM     12  H1  UNL     1       4.184  32.318  13.752  1.00  0.00     0.245 HD
ENDBRANCH   1  11
TORSDOF 1
ENDMDL
MODEL 3
REMARK VINA RESULT: -6.181248608      2.362      2.749
REMARK  1 active torsions:
REMARK  status: ('A' for Active; 'I' for Inactive)
REMARK    1  A    between atoms: O1_1  and  N1_3 
ROOT
HETATM    1  N1  UNL     1       3.223  30.099  14.955  1.00  0.00    -0.246 N 
HETATM    2  C1  UNL     1       3.774  30.469  13.785  1.00  0.00     0.123 A 
HETATM    3  C2  UNL     1       4.705  29.613  13.230  1.00  0.00     0.032 A 
HETATM    4  C3  UNL     1       5.074  28.423  13.830  1.00  0.00    -0.023 A 
HETATM    5  C4  UNL     1       6.000  27.562  13.289  1.00  0.00     0.012 A 
HETATM    6  C5  UNL     1       6.364  26.376  13.891  1.00  0.00     0.001 A 
HETATM    7  C6  UNL     1       5.779  26.029  15.090  1.00  0.00     0.001 A 
HETATM    8  C7  UNL     1       4.842  26.891  15.646  1.00  0.00     0.014 A 
HETATM    9  C8  UNL     1       4.487  28.076  15.032  1.00  0.00    -0.008 A 
HETATM   10  C9  UNL     1       3.558  28.944  15.572  1.00  0.00     0.134 A 
ENDROOT
BRANCH   1  11
HETATM   11  O1  UNL     1       2.292  30.948  15.514  1.00  0.00    -0.284 OA
ATOM     12  H1  UNL     1       1.383  30.670  15.501  1.00  0.00     0.245 HD
ENDBRANCH   1  11
TORSDOF 1
ENDMDL
MODEL 4
REMARK VINA RESULT: -6.174621956      0.795      2.184
REMARK  1 active torsions:
REMARK  status: ('A' for Active; 'I' for Inactive)
REMARK    1  A    between atoms: O1_1  and  N1_3 
ROOT
HETATM    1  N1  UNL     1       5.296  29.469  12.330  1.00  0.00    -0.246 N 
HETATM    2  C1  UNL     1       6.170  29.281  13.335  1.00  0.00     0.123 A 
HETATM    3  C2  UNL     1       6.086  28.087  14.026  1.00  0.00     0.032 A 
HETATM    4  C3  UNL     1       5.154  27.113  13.719  1.00  0.00    -0.023 A 
HETATM    5  C4  UNL     1       5.058  25.920  14.399  1.00  0.00     0.012 A 
HETATM    6  C5  UNL     1       4.127  24.952  14.089  1.00  0.00     0.001 A 
HETATM    7  C6  UNL     1       3.247  25.180  13.052  1.00  0.00     0.001 A 
HETATM    8  C7  UNL     1       3.334  26.380  12.359  1.00  0.00     0.014 A 
HETATM    9  C8  UNL     1       4.272  27.341  12.680  1.00  0.00    -0.008 A 
HETATM   10  C9  UNL     1       4.371  28.540  12.000  1.00  0.00     0.134 A 
ENDROOT
BRANCH   1  11
HETATM   11  O1  UNL     1       5.376  30.657  11.636  1.00  0.00    -0.284 OA
ATOM     12  H1  UNL     1       4.771  31.348  11.881  1.00  0.00     0.245 HD
ENDBRANCH   1  11
TORSDOF 1
ENDMDL
MODEL 5
REMARK VINA RESULT: -6.023969439      2.862      4.437
REMARK  1 active torsions:
REMARK  status: ('A' for Active; 'I' for Inactive)
REMARK    1  A    between atoms: O1_1  and  N1_3 
ROOT
HETATM    1  N1  UNL     1       4.798  25.208  15.033  1.00  0.00    -0.246 N 
HETATM    2  C1  UNL     1       5.756  26.096  15.356  1.00  0.00     0.123 A 
HETATM    3  C2  UNL     1       5.835  27.243  14.589  1.00  0.00     0.032 A 
HETATM    4  C3  UNL     1       4.982  27.491  13.530  1.00  0.00    -0.023 A 
HETATM    5  C4  UNL     1       5.050  28.628  12.758  1.00  0.00     0.012 A 
HETATM    6  C5  UNL     1       4.196  28.871  11.703  1.00  0.00     0.001 A 
HETATM    7  C6  UNL     1       3.227  27.938  11.400  1.00  0.00     0.001 A 
HETATM    8  C7  UNL     1       3.149  26.787  12.172  1.00  0.00     0.014 A 
HETATM    9  C8  UNL     1       4.010  26.556  13.226  1.00  0.00    -0.008 A 
HETATM   10  C9  UNL     1       3.945  25.416  14.004  1.00  0.00     0.134 A 
ENDROOT
BRANCH   1  11
HETATM   11  O1  UNL     1       4.713  24.062  15.794  1.00  0.00    -0.284 OA
ATOM     12  H1  UNL     1       4.391  24.152  16.684  1.00  0.00     0.245 HD
ENDBRANCH   1  11
TORSDOF 1
ENDMDL
