MODEL 1
REMARK VINA RESULT: -6.783559552      0.000      0.000
REMARK  0 active torsions:
REMARK  status: ('A' for Active; 'I' for Inactive)
ROOT
HETATM    1  C1  UNL     1       2.786  27.809  18.246  1.00  0.00     0.018 C 
HETATM    2  C2  UNL     1       3.169  28.274  17.186  1.00  0.00    -0.077 C 
HETATM    3  C3  UNL     1       3.611  28.803  15.926  1.00  0.00     0.030 A 
HETATM    4  C4  UNL     1       3.158  30.017  15.444  1.00  0.00     0.038 A 
HETATM    5  C5  UNL     1       3.619  30.469  14.230  1.00  0.00     0.090 A 
HETATM    6  N1  UNL     1       4.491  29.750  13.525  1.00  0.00    -0.365 N 
ATOM      7  H1  UNL     1       4.812  30.117  12.629  1.00  0.00     0.165 HD
HETATM    8  C6  UNL     1       4.969  28.564  13.938  1.00  0.00     0.043 A 
HETATM    9  C7  UNL     1       5.872  27.822  13.205  1.00  0.00     0.030 A 
HETATM   10  C8  UNL     1       6.328  26.609  13.679  1.00  0.00     0.002 A 
HETATM   11  C9  UNL     1       5.879  26.144  14.887  1.00  0.00     0.001 A 
HETATM   12  C10 UNL     1       4.978  26.894  15.608  1.00  0.00     0.015 A 
HETATM   13  C11 UNL     1       4.510  28.097  15.161  1.00  0.00     0.009 A 
ENDROOT
TORSDOF 0
ENDMDL
MODEL 2
REMARK VINA RESULT: -6.730727215      1.984      3.092
REMARK  0 active torsions:
REMARK  status: ('A' for Active; 'I' for Inactive)
ROOT
HETATM    1  C1  UNL     1       2.674  28.870  17.899  1.00  0.00     0.018 C 
HETATM    2  C2  UNL     1       3.139  27.934  17.271  1.00  0.00    -0.077 C 
HETATM    3  C3  UNL     1       3.708  26.837  16.539  1.00  0.00     0.030 A 
HETATM    4  C4  UNL     1       3.352  25.526  16.796  1.00  0.00     0.038 A 
HETATM    5  C5  UNL     1       3.933  24.519  16.060  1.00  0.00     0.090 A 
HETATM    6  N1  UNL     1       4.826  24.801  15.112  1.00  0.00    -0.365 N 
ATOM      7  H1  UNL     1       5.235  24.028  14.587  1.00  0.00     0.165 HD
HETATM    8  C6  UNL     1       5.212  26.052  14.815  1.00  0.00     0.043 A 
HETATM    9  C7  UNL     1       6.137  26.338  13.833  1.00  0.00     0.030 A 
HETATM   10  C8  UNL     1       6.497  27.645  13.571  1.00  0.00     0.002 A 
HETATM   11  C9  UNL     1       5.928  28.661  14.294  1.00  0.00     0.001 A 
HETATM   12  C10 UNL     1       5.006  28.360  15.272  1.00  0.00     0.015 A 
HETATM   13  C11 UNL     1       4.634  27.076  15.551  1.00  0.00     0.009 A 
ENDROOT
TORSDOF 0
ENDMDL
MODEL 3
REMARK VINA RESULT: -6.719834312      2.166      2.582
REMARK  0 active torsions:
REMARK  status: ('A' for Active; 'I' for Inactive)
ROOT
HETATM    1  C1  UNL     1       3.511  31.695  15.820  1.00  0.00     0.018 C 
HETATM    2  C2  UNL     1       3.273  30.716  15.131  1.00  0.00    -0.077 C 
HETATM    3  C3  UNL     1       3.002  29.550  14.338  1.00  0.00     0.030 A 
HETATM    4  C4  UNL     1       1.723  29.237  13.915  1.00  0.00     0.038 A 
HETATM    5  C5  UNL     1       1.528  28.105  13.157  1.00  0.00     0.090 A 
HETATM    6  N1  UNL     1       2.555  27.322  12.833  1.00  0.00    -0.365 N 
ATOM      7  H1  UNL     1       2.372  26.491  12.269  1.00  0.00     0.165 HD
HETATM    8  C6  UNL     1       3.818  27.571  13.212  1.00  0.00     0.043 A 
HETATM    9  C7  UNL     1       4.878  26.755  12.874  1.00  0.00     0.030 A 
HETATM   10  C8  UNL     1       6.157  27.062  13.293  1.00  0.00     0.002 A 
HETATM   11  C9  UNL     1       6.370  28.186  14.049  1.00  0.00     0.001 A 
HETATM   12  C10 UNL     1       5.303  28.990  14.379  1.00  0.00     0.015 A 
HETATM   13  C11 UNL     1       4.028  28.709  13.978  1.00  0.00     0.009 A 
ENDROOT
TORSDOF 0
ENDMDL
MODEL 4
REMARK VINA RESULT: -6.712579757      2.971      4.478
REMARK  0 active torsions:
REMARK  status: ('A' for Active; 'I' for Inactive)
ROOT
HETATM    1  C1  UNL     1       2.721  27.908  11.132  1.00  0.00     0.018 C 
HETATM    2  C2  UNL     1       3.468  27.455  11.984  1.00  0.00    -0.077 C 
HETATM    3  C3  UNL     1       4.342  26.901  12.980  1.00  0.00     0.030 A 
HETATM    4  C4  UNL     1       5.704  27.135  12.968  1.00  0.00     0.038 A 
HETATM    5  C5  UNL     1       6.488  26.575  13.951  1.00  0.00     0.090 A 
HETATM    6  N1  UNL     1       5.944  25.818  14.902  1.00  0.00    -0.365 N 
ATOM      7  H1  UNL     1       6.556  25.420  15.614  1.00  0.00     0.165 HD
HETATM    8  C6  UNL     1       4.629  25.554  14.969  1.00  0.00     0.043 A 
HETATM    9  C7  UNL     1       4.070  24.768  15.956  1.00  0.00     0.030 A 
HETATM   10  C8  UNL     1       2.711  24.530  15.974  1.00  0.00     0.002 A 
HETATM   11  C9  UNL     1       1.915  25.081  15.004  1.00  0.00     0.001 A 
HETATM   12  C10 UNL     1       2.486  25.862  14.024  1.00  0.00     0.015 A 
HETATM   13  C11 UNL     1       3.828  26.112  13.983  1.00  0.00     0.009 A 
ENDROOT
TORSDOF 0
ENDMDL
MODEL 5
REMARK VINA RESULT: -6.664799710      2.673      3.274
REMARK  0 active torsions:
REMARK  status: ('A' for Active; 'I' for Inactive)
ROOT
HETATM    1  C1  UNL     1       4.299  23.946  16.813  1.00  0.00     0.018 C 
HETATM    2  C2  UNL     1       3.898  24.604  15.867  1.00  0.00    -0.077 C 
HETATM    3  C3  UNL     1       3.443  25.370  14.741  1.00  0.00     0.030 A 
HETATM    4  C4  UNL     1       2.194  25.176  14.182  1.00  0.00     0.038 A 
HETATM    5  C5  UNL     1       1.816  25.942  13.104  1.00  0.00     0.090 A 
HETATM    6  N1  UNL     1       2.641  26.860  12.603  1.00  0.00    -0.365 N 
ATOM      7  H1  UNL     1       2.327  27.409  11.803  1.00  0.00     0.165 HD
HETATM    8  C6  UNL     1       3.866  27.097  13.100  1.00  0.00     0.043 A 
HETATM    9  C7  UNL     1       4.717  28.049  12.577  1.00  0.00     0.030 A 
HETATM   10  C8  UNL     1       5.966  28.249  13.130  1.00  0.00     0.002 A 
HETATM   11  C9  UNL     1       6.358  27.495  14.205  1.00  0.00     0.001 A 
HETATM   12  C10 UNL     1       5.499  26.548  14.716  1.00  0.00     0.015 A 
HETATM   13  C11 UNL     1       4.258  26.330  14.187  1.00  0.00     0.009 A 
ENDROOT
TORSDOF 0
ENDMDL
