MODEL 1
REMARK VINA RESULT: -6.880129081      0.000      0.000
REMARK  0 active torsions:
REMARK  status: ('A' for Active; 'I' for Inactive)
ROOT
HETATM    1  N1  UNL     1       1.611  31.566  16.787  1.00  0.00    -0.191 NA
HETATM    2  C1  UNL     1       2.352  30.915  16.179  1.00  0.00     0.099 C 
HETATM    3  C2  UNL     1       3.262  30.095  15.400  1.00  0.00     0.045 A 
HETATM    4  C3  UNL     1       3.697  30.478  14.145  1.00  0.00     0.023 A 
HETATM    5  C4  UNL     1       4.563  29.694  13.407  1.00  0.00     0.014 A 
HETATM    6  C5  UNL     1       5.022  28.498  13.908  1.00  0.00    -0.026 A 
HETATM    7  C6  UNL     1       5.892  27.696  13.184  1.00  0.00     0.012 A 
HETATM    8  C7  UNL     1       6.372  26.495  13.650  1.00  0.00     0.001 A 
HETATM    9  C8  UNL     1       5.941  26.092  14.920  1.00  0.00     0.001 A 
HETATM   10  C9  UNL     1       5.076  26.884  15.645  1.00  0.00     0.012 A 
HETATM   11  C10 UNL     1       4.604  28.087  15.164  1.00  0.00    -0.025 A 
HETATM   12  C11 UNL     1       3.737  28.891  15.877  1.00  0.00     0.034 A 
ENDROOT
TORSDOF 0
ENDMDL
MODEL 2
REMARK VINA RESULT: -6.808582655      2.573      3.871
REMARK  0 active torsions:
REMARK  status: ('A' for Active; 'I' for Inactive)
ROOT
HETATM    1  N1  UNL     1       1.199  25.629  18.775  1.00  0.00    -0.191 NA
HETATM    2  C1  UNL     1       2.011  25.736  17.954  1.00  0.00     0.099 C 
HETATM    3  C2  UNL     1       3.045  25.859  16.943  1.00  0.00     0.045 A 
HETATM    4  C3  UNL     1       3.637  24.752  16.365  1.00  0.00     0.023 A 
HETATM    5  C4  UNL     1       4.619  24.874  15.403  1.00  0.00     0.014 A 
HETATM    6  C5  UNL     1       5.041  26.117  14.988  1.00  0.00    -0.026 A 
HETATM    7  C6  UNL     1       6.027  26.262  14.023  1.00  0.00     0.012 A 
HETATM    8  C7  UNL     1       6.475  27.485  13.584  1.00  0.00     0.001 A 
HETATM    9  C8  UNL     1       5.886  28.618  14.159  1.00  0.00     0.001 A 
HETATM   10  C9  UNL     1       4.906  28.480  15.119  1.00  0.00     0.012 A 
HETATM   11  C10 UNL     1       4.467  27.246  15.550  1.00  0.00    -0.025 A 
HETATM   12  C11 UNL     1       3.486  27.092  16.510  1.00  0.00     0.034 A 
ENDROOT
TORSDOF 0
ENDMDL
MODEL 3
REMARK VINA RESULT: -6.672901039      2.540      3.866
REMARK  0 active torsions:
REMARK  status: ('A' for Active; 'I' for Inactive)
ROOT
HETATM    1  N1  UNL     1       5.289  30.210  11.818  1.00  0.00    -0.191 NA
HETATM    2  C1  UNL     1       5.203  29.303  12.535  1.00  0.00     0.099 C 
HETATM    3  C2  UNL     1       5.095  28.152  13.412  1.00  0.00     0.045 A 
HETATM    4  C3  UNL     1       6.091  27.197  13.490  1.00  0.00     0.023 A 
HETATM    5  C4  UNL     1       5.983  26.104  14.327  1.00  0.00     0.014 A 
HETATM    6  C5  UNL     1       4.868  25.933  15.114  1.00  0.00    -0.026 A 
HETATM    7  C6  UNL     1       4.740  24.842  15.962  1.00  0.00     0.012 A 
HETATM    8  C7  UNL     1       3.642  24.637  16.763  1.00  0.00     0.001 A 
HETATM    9  C8  UNL     1       2.623  25.595  16.696  1.00  0.00     0.001 A 
HETATM   10  C9  UNL     1       2.744  26.682  15.856  1.00  0.00     0.012 A 
HETATM   11  C10 UNL     1       3.852  26.873  15.058  1.00  0.00    -0.025 A 
HETATM   12  C11 UNL     1       3.988  27.956  14.212  1.00  0.00     0.034 A 
ENDROOT
TORSDOF 0
ENDMDL
MODEL 4
REMARK VINA RESULT: -6.549883539      3.217      4.431
REMARK  0 active torsions:
REMARK  status: ('A' for Active; 'I' for Inactive)
ROOT
HETATM    1  N1  UNL     1       4.242  23.669  16.908  1.00  0.00    -0.191 NA
HETATM    2  C1  UNL     1       4.409  24.569  16.198  1.00  0.00     0.099 C 
HETATM    3  C2  UNL     1       4.611  25.713  15.327  1.00  0.00     0.045 A 
HETATM    4  C3  UNL     1       5.605  26.644  15.564  1.00  0.00     0.023 A 
HETATM    5  C4  UNL     1       5.793  27.731  14.733  1.00  0.00     0.014 A 
HETATM    6  C5  UNL     1       4.987  27.919  13.634  1.00  0.00    -0.026 A 
HETATM    7  C6  UNL     1       5.159  29.003  12.786  1.00  0.00     0.012 A 
HETATM    8  C7  UNL     1       4.374  29.224  11.679  1.00  0.00     0.001 A 
HETATM    9  C8  UNL     1       3.362  28.291  11.425  1.00  0.00     0.001 A 
HETATM   10  C9  UNL     1       3.185  27.211  12.264  1.00  0.00     0.012 A 
HETATM   11  C10 UNL     1       3.981  27.002  13.370  1.00  0.00    -0.025 A 
HETATM   12  C11 UNL     1       3.817  25.926  14.220  1.00  0.00     0.034 A 
ENDROOT
TORSDOF 0
ENDMDL
MODEL 5
REMARK VINA RESULT: -6.508828729      0.865      2.099
REMARK  0 active torsions:
REMARK  status: ('A' for Active; 'I' for Inactive)
ROOT
HETATM    1  N1  UNL     1       1.599  31.629  16.872  1.00  0.00    -0.191 NA
HETATM    2  C1  UNL     1       2.230  30.708  16.560  1.00  0.00     0.099 C 
HETATM    3  C2  UNL     1       3.031  29.555  16.191  1.00  0.00     0.045 A 
HETATM    4  C3  UNL     1       2.902  28.339  16.835  1.00  0.00     0.023 A 
HETATM    5  C4  UNL     1       3.666  27.246  16.481  1.00  0.00     0.014 A 
HETATM    6  C5  UNL     1       4.590  27.338  15.465  1.00  0.00    -0.026 A 
HETATM    7  C6  UNL     1       5.368  26.252  15.092  1.00  0.00     0.012 A 
HETATM    8  C7  UNL     1       6.300  26.305  14.084  1.00  0.00     0.001 A 
HETATM    9  C8  UNL     1       6.445  27.529  13.421  1.00  0.00     0.001 A 
HETATM   10  C9  UNL     1       5.675  28.613  13.785  1.00  0.00     0.012 A 
HETATM   11  C10 UNL     1       4.743  28.544  14.800  1.00  0.00    -0.025 A 
HETATM   12  C11 UNL     1       3.964  29.620  15.177  1.00  0.00     0.034 A 
ENDROOT
TORSDOF 0
ENDMDL
