MODEL 1
REMARK VINA RESULT: -6.472022058      0.000      0.000
REMARK  0 active torsions:
REMARK  status: ('A' for Active; 'I' for Inactive)
ROOT
HETATM    1  C1  UNL     1       3.547  24.707  16.252  1.00  0.00     0.229 C 
HETATM    2  N1  UNL     1       4.061  25.547  15.641  1.00  0.00    -0.428 NA
HETATM    3  C2  UNL     1       4.660  26.557  14.892  1.00  0.00     0.116 A 
HETATM    4  C3  UNL     1       5.889  26.410  14.305  1.00  0.00     0.045 A 
HETATM    5  C4  UNL     1       6.459  27.435  13.564  1.00  0.00     0.004 A 
HETATM    6  C5  UNL     1       5.807  28.634  13.394  1.00  0.00     0.014 A 
HETATM    7  C6  UNL     1       4.551  28.807  13.984  1.00  0.00    -0.007 A 
HETATM    8  C7  UNL     1       3.889  30.016  13.815  1.00  0.00     0.100 A 
HETATM    9  N2  UNL     1       2.689  30.144  14.394  1.00  0.00    -0.374 N 
ATOM     10  H2  UNL     1       2.180  31.021  14.285  1.00  0.00     0.164 HD
HETATM   11  C8  UNL     1       2.131  29.154  15.114  1.00  0.00     0.088 A 
HETATM   12  C9  UNL     1       2.769  27.945  15.295  1.00  0.00     0.032 A 
HETATM   13  C10 UNL     1       4.008  27.780  14.711  1.00  0.00     0.017 A 
ENDROOT
TORSDOF 0
ENDMDL
MODEL 2
REMARK VINA RESULT: -6.419970810      1.170      3.573
REMARK  0 active torsions:
REMARK  status: ('A' for Active; 'I' for Inactive)
ROOT
HETATM    1  C1  UNL     1       3.535  30.810  15.366  1.00  0.00     0.229 C 
HETATM    2  N1  UNL     1       4.088  29.838  15.065  1.00  0.00    -0.428 NA
HETATM    3  C2  UNL     1       4.759  28.665  14.725  1.00  0.00     0.116 A 
HETATM    4  C3  UNL     1       5.791  28.640  13.826  1.00  0.00     0.045 A 
HETATM    5  C4  UNL     1       6.440  27.455  13.509  1.00  0.00     0.004 A 
HETATM    6  C5  UNL     1       6.067  26.266  14.089  1.00  0.00     0.014 A 
HETATM    7  C6  UNL     1       5.017  26.267  15.011  1.00  0.00    -0.007 A 
HETATM    8  C7  UNL     1       4.637  25.068  15.600  1.00  0.00     0.100 A 
HETATM    9  N2  UNL     1       3.627  25.109  16.478  1.00  0.00    -0.374 N 
ATOM     10  H2  UNL     1       3.328  24.244  16.926  1.00  0.00     0.164 HD
HETATM   11  C8  UNL     1       2.993  26.255  16.789  1.00  0.00     0.088 A 
HETATM   12  C9  UNL     1       3.353  27.457  16.218  1.00  0.00     0.032 A 
HETATM   13  C10 UNL     1       4.390  27.450  15.309  1.00  0.00     0.017 A 
ENDROOT
TORSDOF 0
ENDMDL
MODEL 3
REMARK VINA RESULT: -6.338804719      1.258      1.511
REMARK  0 active torsions:
REMARK  status: ('A' for Active; 'I' for Inactive)
ROOT
HETATM    1  C1  UNL     1       2.731  26.682  17.374  1.00  0.00     0.229 C 
HETATM    2  N1  UNL     1       3.498  26.811  16.515  1.00  0.00    -0.428 NA
HETATM    3  C2  UNL     1       4.402  26.969  15.467  1.00  0.00     0.116 A 
HETATM    4  C3  UNL     1       5.339  26.021  15.152  1.00  0.00     0.045 A 
HETATM    5  C4  UNL     1       6.225  26.207  14.101  1.00  0.00     0.004 A 
HETATM    6  C5  UNL     1       6.191  27.352  13.340  1.00  0.00     0.014 A 
HETATM    7  C6  UNL     1       5.243  28.333  13.642  1.00  0.00    -0.007 A 
HETATM    8  C7  UNL     1       5.204  29.491  12.875  1.00  0.00     0.100 A 
HETATM    9  N2  UNL     1       4.283  30.407  13.195  1.00  0.00    -0.374 N 
ATOM     10  H2  UNL     1       4.232  31.266  12.649  1.00  0.00     0.164 HD
HETATM   11  C8  UNL     1       3.421  30.233  14.214  1.00  0.00     0.088 A 
HETATM   12  C9  UNL     1       3.439  29.092  14.988  1.00  0.00     0.032 A 
HETATM   13  C10 UNL     1       4.377  28.127  14.685  1.00  0.00     0.017 A 
ENDROOT
TORSDOF 0
ENDMDL
MODEL 4
REMARK VINA RESULT: -6.331225882      1.362      1.362
REMARK  0 active torsions:
REMARK  status: ('A' for Active; 'I' for Inactive)
ROOT
HETATM    1  C1  UNL     1       2.011  24.900  13.623  1.00  0.00     0.229 C 
HETATM    2  N1  UNL     1       2.849  25.700  13.648  1.00  0.00    -0.428 NA
HETATM    3  C2  UNL     1       3.845  26.674  13.660  1.00  0.00     0.116 A 
HETATM    4  C3  UNL     1       5.158  26.389  13.392  1.00  0.00     0.045 A 
HETATM    5  C4  UNL     1       6.127  27.382  13.412  1.00  0.00     0.004 A 
HETATM    6  C5  UNL     1       5.800  28.686  13.703  1.00  0.00     0.014 A 
HETATM    7  C6  UNL     1       4.466  29.000  13.980  1.00  0.00    -0.007 A 
HETATM    8  C7  UNL     1       4.131  30.315  14.273  1.00  0.00     0.100 A 
HETATM    9  N2  UNL     1       2.844  30.577  14.533  1.00  0.00    -0.374 N 
ATOM     10  H2  UNL     1       2.570  31.534  14.751  1.00  0.00     0.164 HD
HETATM   11  C8  UNL     1       1.900  29.619  14.516  1.00  0.00     0.088 A 
HETATM   12  C9  UNL     1       2.208  28.306  14.226  1.00  0.00     0.032 A 
HETATM   13  C10 UNL     1       3.526  28.002  13.954  1.00  0.00     0.017 A 
ENDROOT
TORSDOF 0
ENDMDL
MODEL 5
REMARK VINA RESULT: -6.177230295      1.661      3.367
REMARK  0 active torsions:
REMARK  status: ('A' for Active; 'I' for Inactive)
ROOT
HETATM    1  C1  UNL     1       3.514  30.868  15.141  1.00  0.00     0.229 C 
HETATM    2  N1  UNL     1       4.041  29.917  14.740  1.00  0.00    -0.428 NA
HETATM    3  C2  UNL     1       4.665  28.762  14.276  1.00  0.00     0.116 A 
HETATM    4  C3  UNL     1       6.026  28.657  14.153  1.00  0.00     0.045 A 
HETATM    5  C4  UNL     1       6.618  27.492  13.687  1.00  0.00     0.004 A 
HETATM    6  C5  UNL     1       5.856  26.403  13.333  1.00  0.00     0.014 A 
HETATM    7  C6  UNL     1       4.466  26.486  13.450  1.00  0.00    -0.007 A 
HETATM    8  C7  UNL     1       3.693  25.388  13.094  1.00  0.00     0.100 A 
HETATM    9  N2  UNL     1       2.366  25.507  13.220  1.00  0.00    -0.374 N 
ATOM     10  H2  UNL     1       1.775  24.716  12.967  1.00  0.00     0.164 HD
HETATM   11  C8  UNL     1       1.786  26.634  13.671  1.00  0.00     0.088 A 
HETATM   12  C9  UNL     1       2.532  27.737  14.031  1.00  0.00     0.032 A 
HETATM   13  C10 UNL     1       3.903  27.648  13.913  1.00  0.00     0.017 A 
ENDROOT
TORSDOF 0
ENDMDL
