MODEL 1
REMARK VINA RESULT: -6.711835676      0.000      0.000
REMARK  0 active torsions:
REMARK  status: ('A' for Active; 'I' for Inactive)
ROOT
HETATM    1  N1  UNL     1       1.295  30.468  18.073  1.00  0.00    -0.192 NA
HETATM    2  C1  UNL     1       2.049  29.697  17.621  1.00  0.00     0.088 C 
HETATM    3  C2  UNL     1       2.975  28.757  17.056  1.00  0.00     0.105 C 
HETATM    4  C3  UNL     1       3.562  28.946  15.888  1.00  0.00    -0.015 A 
HETATM    5  C4  UNL     1       3.403  30.079  14.985  1.00  0.00     0.014 A 
HETATM    6  C5  UNL     1       4.167  29.895  13.908  1.00  0.00     0.013 A 
HETATM    7  C6  UNL     1       4.896  28.624  14.011  1.00  0.00    -0.025 A 
HETATM    8  C7  UNL     1       5.792  28.003  13.165  1.00  0.00     0.012 A 
HETATM    9  C8  UNL     1       6.307  26.793  13.560  1.00  0.00     0.001 A 
HETATM   10  C9  UNL     1       5.929  26.220  14.775  1.00  0.00     0.001 A 
HETATM   11  C10 UNL     1       5.046  26.835  15.604  1.00  0.00     0.013 A 
HETATM   12  C11 UNL     1       4.512  28.064  15.222  1.00  0.00    -0.015 A 
ENDROOT
TORSDOF 0
ENDMDL
MODEL 2
REMARK VINA RESULT: -6.628149688      1.055      2.175
REMARK  0 active torsions:
REMARK  status: ('A' for Active; 'I' for Inactive)
ROOT
HETATM    1  N1  UNL     1       1.620  31.620  16.840  1.00  0.00    -0.192 NA
HETATM    2  C1  UNL     1       2.447  31.066  16.226  1.00  0.00     0.088 C 
HETATM    3  C2  UNL     1       3.459  30.374  15.480  1.00  0.00     0.105 C 
HETATM    4  C3  UNL     1       3.718  29.090  15.648  1.00  0.00    -0.015 A 
HETATM    5  C4  UNL     1       3.071  28.164  16.567  1.00  0.00     0.014 A 
HETATM    6  C5  UNL     1       3.618  26.955  16.434  1.00  0.00     0.013 A 
HETATM    7  C6  UNL     1       4.674  26.982  15.413  1.00  0.00    -0.025 A 
HETATM    8  C7  UNL     1       5.514  26.001  14.928  1.00  0.00     0.012 A 
HETATM    9  C8  UNL     1       6.412  26.358  13.951  1.00  0.00     0.001 A 
HETATM   10  C9  UNL     1       6.466  27.669  13.477  1.00  0.00     0.001 A 
HETATM   11  C10 UNL     1       5.637  28.632  13.959  1.00  0.00     0.013 A 
HETATM   12  C11 UNL     1       4.718  28.290  14.949  1.00  0.00    -0.015 A 
ENDROOT
TORSDOF 0
ENDMDL
MODEL 3
REMARK VINA RESULT: -6.570872414      1.942      3.084
REMARK  0 active torsions:
REMARK  status: ('A' for Active; 'I' for Inactive)
ROOT
HETATM    1  N1  UNL     1       1.037  26.011  18.790  1.00  0.00    -0.192 NA
HETATM    2  C1  UNL     1       1.779  26.563  18.074  1.00  0.00     0.088 C 
HETATM    3  C2  UNL     1       2.695  27.229  17.192  1.00  0.00     0.105 C 
HETATM    4  C3  UNL     1       3.531  26.577  16.404  1.00  0.00    -0.015 A 
HETATM    5  C4  UNL     1       3.687  25.135  16.272  1.00  0.00     0.014 A 
HETATM    6  C5  UNL     1       4.635  24.874  15.371  1.00  0.00     0.013 A 
HETATM    7  C6  UNL     1       5.185  26.125  14.832  1.00  0.00    -0.025 A 
HETATM    8  C7  UNL     1       6.166  26.374  13.895  1.00  0.00     0.012 A 
HETATM    9  C8  UNL     1       6.452  27.686  13.606  1.00  0.00     0.001 A 
HETATM   10  C9  UNL     1       5.770  28.722  14.245  1.00  0.00     0.001 A 
HETATM   11  C10 UNL     1       4.804  28.472  15.168  1.00  0.00     0.013 A 
HETATM   12  C11 UNL     1       4.499  27.148  15.475  1.00  0.00    -0.015 A 
ENDROOT
TORSDOF 0
ENDMDL
MODEL 4
REMARK VINA RESULT: -6.548126317      1.900      2.816
REMARK  0 active torsions:
REMARK  status: ('A' for Active; 'I' for Inactive)
ROOT
HETATM    1  N1  UNL     1       3.694  32.301  15.183  1.00  0.00    -0.192 NA
HETATM    2  C1  UNL     1       3.496  31.192  15.498  1.00  0.00     0.088 C 
HETATM    3  C2  UNL     1       3.264  29.828  15.878  1.00  0.00     0.105 C 
HETATM    4  C3  UNL     1       4.068  28.841  15.525  1.00  0.00    -0.015 A 
HETATM    5  C4  UNL     1       5.285  28.926  14.728  1.00  0.00     0.014 A 
HETATM    6  C5  UNL     1       5.811  27.708  14.595  1.00  0.00     0.013 A 
HETATM    7  C6  UNL     1       4.984  26.715  15.294  1.00  0.00    -0.025 A 
HETATM    8  C7  UNL     1       5.110  25.350  15.442  1.00  0.00     0.012 A 
HETATM    9  C8  UNL     1       4.146  24.698  16.172  1.00  0.00     0.001 A 
HETATM   10  C9  UNL     1       3.082  25.401  16.738  1.00  0.00     0.001 A 
HETATM   11  C10 UNL     1       2.963  26.746  16.588  1.00  0.00     0.013 A 
HETATM   12  C11 UNL     1       3.930  27.427  15.852  1.00  0.00    -0.015 A 
ENDROOT
TORSDOF 0
ENDMDL
MODEL 5
REMARK VINA RESULT: -6.509700446      3.096      3.962
REMARK  0 active torsions:
REMARK  status: ('A' for Active; 'I' for Inactive)
ROOT
HETATM    1  N1  UNL     1       4.273  23.763  17.001  1.00  0.00    -0.192 NA
HETATM    2  C1  UNL     1       4.089  24.428  16.057  1.00  0.00     0.088 C 
HETATM    3  C2  UNL     1       3.870  25.254  14.904  1.00  0.00     0.105 C 
HETATM    4  C3  UNL     1       4.500  26.399  14.715  1.00  0.00    -0.015 A 
HETATM    5  C4  UNL     1       5.489  27.024  15.583  1.00  0.00     0.014 A 
HETATM    6  C5  UNL     1       5.890  28.175  15.040  1.00  0.00     0.013 A 
HETATM    7  C6  UNL     1       5.196  28.405  13.765  1.00  0.00    -0.025 A 
HETATM    8  C7  UNL     1       5.268  29.434  12.850  1.00  0.00     0.012 A 
HETATM    9  C8  UNL     1       4.471  29.349  11.733  1.00  0.00     0.001 A 
HETATM   10  C9  UNL     1       3.623  28.257  11.544  1.00  0.00     0.001 A 
HETATM   11  C10 UNL     1       3.557  27.247  12.450  1.00  0.00     0.013 A 
HETATM   12  C11 UNL     1       4.357  27.314  13.589  1.00  0.00    -0.015 A 
ENDROOT
TORSDOF 0
ENDMDL
