MODEL 1
REMARK VINA RESULT: -10.375470171      0.000      0.000
REMARK  15 active torsions:
REMARK  status: ('A' for Active; 'I' for Inactive)
REMARK    1  A    between atoms: N1_1  and  C1_5 
REMARK    2  A    between atoms: C1_5  and  C2_6 
REMARK       I    between atoms: C2_6  and  N2_8 
REMARK    3  A    between atoms: N2_8  and  C3_10 
REMARK    4  A    between atoms: C3_10  and  C4_11 
REMARK    5  A    between atoms: C4_11  and  O2_12 
REMARK    6  A    between atoms: O2_12  and  C5_13 
REMARK    7  A    between atoms: C5_13  and  C6_14 
REMARK    8  A    between atoms: C6_14  and  N3_15 
REMARK       I    between atoms: N3_15  and  C7_17 
REMARK    9  A    between atoms: C7_17  and  C8_19 
REMARK   10  A    between atoms: C8_19  and  O4_20 
REMARK   11  A    between atoms: O4_20  and  C9_21 
REMARK   12  A    between atoms: C12_24  and  S1_25 
REMARK   13  A    between atoms: S1_25  and  N4_28 
REMARK   14  A    between atoms: N4_28  and  C13_30 
REMARK   15  A    between atoms: C14_33  and  O7_34 
ROOT
HETATM    1  C9  UNL     1     -17.978 -20.203 -21.084  1.00  0.00     0.069 A 
HETATM    2  C10 UNL     1     -16.786 -19.647 -21.500  1.00  0.00     0.038 A 
HETATM    3  C11 UNL     1     -16.711 -18.982 -22.704  1.00  0.00     0.028 A 
HETATM    4  C12 UNL     1     -17.840 -18.875 -23.491  1.00  0.00     0.080 A 
HETATM    5  C17 UNL     1     -19.022 -19.435 -23.064  1.00  0.00     0.028 A 
HETATM    6  C18 UNL     1     -19.086 -20.096 -21.864  1.00  0.00     0.038 A 
ENDROOT
BRANCH   1   7
HETATM    7  O4  UNL     1     -18.022 -20.877 -19.848  1.00  0.00    -0.342 OA
BRANCH   7   8
HETATM    8  C8  UNL     1     -16.941 -21.666 -19.448  1.00  0.00     0.278 C 
BRANCH   8   9
HETATM    9  C7  UNL     1     -16.520 -21.315 -18.035  1.00  0.00     0.241 C 
HETATM   10  N3  UNL     1     -15.195 -21.412 -17.696  1.00  0.00    -0.357 N 
ATOM     11  H3  UNL     1     -14.591 -21.720 -18.458  1.00  0.00     0.162 HD
HETATM   12  O3  UNL     1     -17.456 -20.965 -17.312  1.00  0.00    -0.271 OA
BRANCH  10  13
HETATM   13  C6  UNL     1     -14.512 -21.162 -16.484  1.00  0.00     0.148 C 
BRANCH  13  14
HETATM   14  C5  UNL     1     -14.371 -22.246 -15.497  1.00  0.00     0.187 C 
BRANCH  14  15
HETATM   15  O2  UNL     1     -13.549 -23.295 -15.702  1.00  0.00    -0.388 OA
BRANCH  15  16
HETATM   16  C4  UNL     1     -12.659 -23.539 -14.645  1.00  0.00     0.187 C 
BRANCH  16  17
HETATM   17  C3  UNL     1     -12.032 -24.912 -14.745  1.00  0.00     0.148 C 
BRANCH  17  18
HETATM   18  N2  UNL     1     -12.944 -25.953 -14.337  1.00  0.00    -0.358 N 
HETATM   19  C2  UNL     1     -13.376 -26.900 -15.282  1.00  0.00     0.243 C 
HETATM   20  O1  UNL     1     -12.979 -26.845 -16.464  1.00  0.00    -0.272 OA
ATOM     21  H2  UNL     1     -13.272 -26.002 -13.373  1.00  0.00     0.162 HD
BRANCH  19  22
HETATM   22  C1  UNL     1     -14.308 -27.971 -14.881  1.00  0.00     0.331 C 
BRANCH  22  23
HETATM   23  N1  UNL     1     -13.643 -29.259 -14.836  1.00  0.00    -0.071 N 
ATOM     24  H13 UNL     1     -13.360 -29.502 -13.887  1.00  0.00     0.274 HD
ATOM     25  H12 UNL     1     -14.296 -30.024 -15.006  1.00  0.00     0.274 HD
ATOM     26  H11 UNL     1     -12.853 -29.291 -15.481  1.00  0.00     0.274 HD
ENDBRANCH  22  23
ENDBRANCH  19  22
ENDBRANCH  17  18
ENDBRANCH  16  17
ENDBRANCH  15  16
ENDBRANCH  14  15
ENDBRANCH  13  14
ENDBRANCH  10  13
ENDBRANCH   8   9
ENDBRANCH   7   8
ENDBRANCH   1   7
BRANCH   4  27
HETATM   27  S1  UNL     1     -17.764 -18.042 -25.009  1.00  0.00     0.276 S 
HETATM   28  O5  UNL     1     -17.404 -19.065 -26.076  1.00  0.00    -0.200 OA
HETATM   29  O6  UNL     1     -16.643 -17.017 -25.018  1.00  0.00    -0.200 OA
BRANCH  27  30
HETATM   30  N4  UNL     1     -19.281 -17.301 -25.335  1.00  0.00    -0.112 N 
ATOM     31  H4  UNL     1     -19.946 -17.791 -25.933  1.00  0.00     0.197 HD
BRANCH  30  32
HETATM   32  C13 UNL     1     -19.615 -16.142 -24.853  1.00  0.00     0.697 A 
HETATM   33  N5  UNL     1     -19.905 -16.017 -23.537  1.00  0.00    -0.168 N 
HETATM   34  C14 UNL     1     -20.257 -14.851 -22.972  1.00  0.00     0.185 A 
ATOM     35  H5  UNL     1     -19.854 -16.848 -22.948  1.00  0.00     0.186 HD
HETATM   36  C15 UNL     1     -20.338 -13.705 -23.742  1.00  0.00     0.165 A 
HETATM   37  N6  UNL     1     -20.710 -12.455 -23.161  1.00  0.00    -0.092 NA
HETATM   38  C16 UNL     1     -20.045 -13.823 -25.084  1.00  0.00     0.288 A 
HETATM   39  O8  UNL     1     -20.103 -12.822 -25.812  1.00  0.00    -0.265 OA
HETATM   40  N7  UNL     1     -19.694 -15.028 -25.602  1.00  0.00    -0.153 N 
ATOM     41  H7  UNL     1     -19.482 -15.091 -26.597  1.00  0.00     0.187 HD
BRANCH  34  42
HETATM   42  O7  UNL     1     -20.551 -14.751 -21.611  1.00  0.00    -0.344 OA
ATOM     43  H7  UNL     1     -21.198 -14.139 -21.281  1.00  0.00     0.219 HD
ENDBRANCH  34  42
ENDBRANCH  30  32
ENDBRANCH  27  30
ENDBRANCH   4  27
TORSDOF 15
ENDMDL
MODEL 2
REMARK VINA RESULT: -9.960934405      0.941      1.743
REMARK  15 active torsions:
REMARK  status: ('A' for Active; 'I' for Inactive)
REMARK    1  A    between atoms: N1_1  and  C1_5 
REMARK    2  A    between atoms: C1_5  and  C2_6 
REMARK       I    between atoms: C2_6  and  N2_8 
REMARK    3  A    between atoms: N2_8  and  C3_10 
REMARK    4  A    between atoms: C3_10  and  C4_11 
REMARK    5  A    between atoms: C4_11  and  O2_12 
REMARK    6  A    between atoms: O2_12  and  C5_13 
REMARK    7  A    between atoms: C5_13  and  C6_14 
REMARK    8  A    between atoms: C6_14  and  N3_15 
REMARK       I    between atoms: N3_15  and  C7_17 
REMARK    9  A    between atoms: C7_17  and  C8_19 
REMARK   10  A    between atoms: C8_19  and  O4_20 
REMARK   11  A    between atoms: O4_20  and  C9_21 
REMARK   12  A    between atoms: C12_24  and  S1_25 
REMARK   13  A    between atoms: S1_25  and  N4_28 
REMARK   14  A    between atoms: N4_28  and  C13_30 
REMARK   15  A    between atoms: C14_33  and  O7_34 
ROOT
HETATM    1  C9  UNL     1     -16.616 -20.789 -21.439  1.00  0.00     0.069 A 
HETATM    2  C10 UNL     1     -15.699 -20.381 -22.385  1.00  0.00     0.038 A 
HETATM    3  C11 UNL     1     -16.113 -19.693 -23.504  1.00  0.00     0.028 A 
HETATM    4  C12 UNL     1     -17.454 -19.413 -23.671  1.00  0.00     0.080 A 
HETATM    5  C17 UNL     1     -18.358 -19.826 -22.720  1.00  0.00     0.028 A 
HETATM    6  C18 UNL     1     -17.936 -20.511 -21.609  1.00  0.00     0.038 A 
ENDROOT
BRANCH   1   7
HETATM    7  O4  UNL     1     -16.162 -21.491 -20.306  1.00  0.00    -0.342 OA
BRANCH   7   8
HETATM    8  C8  UNL     1     -17.063 -21.841 -19.298  1.00  0.00     0.278 C 
BRANCH   8   9
HETATM    9  C7  UNL     1     -16.538 -21.412 -17.942  1.00  0.00     0.241 C 
HETATM   10  N3  UNL     1     -15.194 -21.521 -17.689  1.00  0.00    -0.357 N 
ATOM     11  H3  UNL     1     -14.652 -21.892 -18.470  1.00  0.00     0.162 HD
HETATM   12  O3  UNL     1     -17.413 -20.995 -17.180  1.00  0.00    -0.271 OA
BRANCH  10  13
HETATM   13  C6  UNL     1     -14.423 -21.213 -16.545  1.00  0.00     0.148 C 
BRANCH  13  14
HETATM   14  C5  UNL     1     -14.225 -22.241 -15.509  1.00  0.00     0.187 C 
BRANCH  14  15
HETATM   15  O2  UNL     1     -13.451 -23.324 -15.717  1.00  0.00    -0.388 OA
BRANCH  15  16
HETATM   16  C4  UNL     1     -12.662 -23.683 -14.614  1.00  0.00     0.187 C 
BRANCH  16  17
HETATM   17  C3  UNL     1     -12.026 -25.044 -14.798  1.00  0.00     0.148 C 
BRANCH  17  18
HETATM   18  N2  UNL     1     -12.884 -26.108 -14.336  1.00  0.00    -0.358 N 
HETATM   19  C2  UNL     1     -13.399 -27.029 -15.265  1.00  0.00     0.243 C 
HETATM   20  O1  UNL     1     -13.120 -26.933 -16.477  1.00  0.00    -0.272 OA
ATOM     21  H2  UNL     1     -13.115 -26.191 -13.346  1.00  0.00     0.162 HD
BRANCH  19  22
HETATM   22  C1  UNL     1     -14.278 -28.123 -14.809  1.00  0.00     0.331 C 
BRANCH  22  23
HETATM   23  N1  UNL     1     -15.074 -28.649 -15.901  1.00  0.00    -0.071 N 
ATOM     24  H13 UNL     1     -14.658 -28.432 -16.807  1.00  0.00     0.274 HD
ATOM     25  H12 UNL     1     -15.024 -29.667 -15.945  1.00  0.00     0.274 HD
ATOM     26  H11 UNL     1     -16.040 -28.324 -15.846  1.00  0.00     0.274 HD
ENDBRANCH  22  23
ENDBRANCH  19  22
ENDBRANCH  17  18
ENDBRANCH  16  17
ENDBRANCH  15  16
ENDBRANCH  14  15
ENDBRANCH  13  14
ENDBRANCH  10  13
ENDBRANCH   8   9
ENDBRANCH   7   8
ENDBRANCH   1   7
BRANCH   4  27
HETATM   27  S1  UNL     1     -17.992 -18.547 -25.073  1.00  0.00     0.276 S 
HETATM   28  O5  UNL     1     -19.502 -18.710 -25.161  1.00  0.00    -0.200 OA
HETATM   29  O6  UNL     1     -17.432 -19.160 -26.345  1.00  0.00    -0.200 OA
BRANCH  27  30
HETATM   30  N4  UNL     1     -17.545 -16.893 -24.934  1.00  0.00    -0.112 N 
ATOM     31  H4  UNL     1     -16.608 -16.613 -25.225  1.00  0.00     0.197 HD
BRANCH  30  32
HETATM   32  C13 UNL     1     -18.350 -15.984 -24.473  1.00  0.00     0.697 A 
HETATM   33  N5  UNL     1     -18.646 -14.900 -25.227  1.00  0.00    -0.168 N 
HETATM   34  C14 UNL     1     -19.470 -13.922 -24.813  1.00  0.00     0.185 A 
ATOM     35  H5  UNL     1     -18.224 -14.821 -26.152  1.00  0.00     0.186 HD
HETATM   36  C15 UNL     1     -20.058 -13.996 -23.564  1.00  0.00     0.165 A 
HETATM   37  N6  UNL     1     -20.937 -12.968 -23.105  1.00  0.00    -0.092 NA
HETATM   38  C16 UNL     1     -19.762 -15.097 -22.789  1.00  0.00     0.288 A 
HETATM   39  O8  UNL     1     -20.268 -15.205 -21.664  1.00  0.00    -0.265 OA
HETATM   40  N7  UNL     1     -18.922 -16.056 -23.259  1.00  0.00    -0.153 N 
ATOM     41  H7  UNL     1     -18.718 -16.860 -22.667  1.00  0.00     0.187 HD
BRANCH  34  42
HETATM   42  O7  UNL     1     -19.758 -12.815 -25.613  1.00  0.00    -0.344 OA
ATOM     43  H7  UNL     1     -19.783 -11.934 -25.259  1.00  0.00     0.219 HD
ENDBRANCH  34  42
ENDBRANCH  30  32
ENDBRANCH  27  30
ENDBRANCH   4  27
TORSDOF 15
ENDMDL
MODEL 3
REMARK VINA RESULT: -9.884144024      0.939      1.046
REMARK  15 active torsions:
REMARK  status: ('A' for Active; 'I' for Inactive)
REMARK    1  A    between atoms: N1_1  and  C1_5 
REMARK    2  A    between atoms: C1_5  and  C2_6 
REMARK       I    between atoms: C2_6  and  N2_8 
REMARK    3  A    between atoms: N2_8  and  C3_10 
REMARK    4  A    between atoms: C3_10  and  C4_11 
REMARK    5  A    between atoms: C4_11  and  O2_12 
REMARK    6  A    between atoms: O2_12  and  C5_13 
REMARK    7  A    between atoms: C5_13  and  C6_14 
REMARK    8  A    between atoms: C6_14  and  N3_15 
REMARK       I    between atoms: N3_15  and  C7_17 
REMARK    9  A    between atoms: C7_17  and  C8_19 
REMARK   10  A    between atoms: C8_19  and  O4_20 
REMARK   11  A    between atoms: O4_20  and  C9_21 
REMARK   12  A    between atoms: C12_24  and  S1_25 
REMARK   13  A    between atoms: S1_25  and  N4_28 
REMARK   14  A    between atoms: N4_28  and  C13_30 
REMARK   15  A    between atoms: C14_33  and  O7_34 
ROOT
HETATM    1  C9  UNL     1     -16.325 -20.522 -21.458  1.00  0.00     0.069 A 
HETATM    2  C10 UNL     1     -15.445 -20.508 -22.520  1.00  0.00     0.038 A 
HETATM    3  C11 UNL     1     -15.641 -19.645 -23.575  1.00  0.00     0.028 A 
HETATM    4  C12 UNL     1     -16.727 -18.792 -23.561  1.00  0.00     0.080 A 
HETATM    5  C17 UNL     1     -17.596 -18.817 -22.496  1.00  0.00     0.028 A 
HETATM    6  C18 UNL     1     -17.393 -19.681 -21.450  1.00  0.00     0.038 A 
ENDROOT
BRANCH   1   7
HETATM    7  O4  UNL     1     -16.097 -21.417 -20.394  1.00  0.00    -0.342 OA
BRANCH   7   8
HETATM    8  C8  UNL     1     -17.091 -21.622 -19.434  1.00  0.00     0.278 C 
BRANCH   8   9
HETATM    9  C7  UNL     1     -16.568 -21.297 -18.050  1.00  0.00     0.241 C 
HETATM   10  N3  UNL     1     -15.227 -21.438 -17.799  1.00  0.00    -0.357 N 
ATOM     11  H3  UNL     1     -14.684 -21.758 -18.601  1.00  0.00     0.162 HD
HETATM   12  O3  UNL     1     -17.443 -20.925 -17.264  1.00  0.00    -0.271 OA
BRANCH  10  13
HETATM   13  C6  UNL     1     -14.459 -21.221 -16.632  1.00  0.00     0.148 C 
BRANCH  13  14
HETATM   14  C5  UNL     1     -14.419 -22.260 -15.590  1.00  0.00     0.187 C 
BRANCH  14  15
HETATM   15  O2  UNL     1     -13.743 -23.414 -15.758  1.00  0.00    -0.388 OA
BRANCH  15  16
HETATM   16  C4  UNL     1     -12.604 -23.534 -14.946  1.00  0.00     0.187 C 
BRANCH  16  17
HETATM   17  C3  UNL     1     -12.310 -24.978 -14.603  1.00  0.00     0.148 C 
BRANCH  17  18
HETATM   18  N2  UNL     1     -12.938 -25.892 -15.525  1.00  0.00    -0.358 N 
HETATM   19  C2  UNL     1     -13.764 -26.914 -15.027  1.00  0.00     0.243 C 
HETATM   20  O1  UNL     1     -13.956 -27.035 -13.800  1.00  0.00    -0.272 OA
ATOM     21  H2  UNL     1     -12.784 -25.797 -16.529  1.00  0.00     0.162 HD
BRANCH  19  22
HETATM   22  C1  UNL     1     -14.415 -27.857 -15.957  1.00  0.00     0.331 C 
BRANCH  22  23
HETATM   23  N1  UNL     1     -14.613 -29.154 -15.339  1.00  0.00    -0.071 N 
ATOM     24  H13 UNL     1     -15.400 -29.651 -15.756  1.00  0.00     0.274 HD
ATOM     25  H12 UNL     1     -13.868 -29.805 -15.588  1.00  0.00     0.274 HD
ATOM     26  H11 UNL     1     -14.715 -29.071 -14.328  1.00  0.00     0.274 HD
ENDBRANCH  22  23
ENDBRANCH  19  22
ENDBRANCH  17  18
ENDBRANCH  16  17
ENDBRANCH  15  16
ENDBRANCH  14  15
ENDBRANCH  13  14
ENDBRANCH  10  13
ENDBRANCH   8   9
ENDBRANCH   7   8
ENDBRANCH   1   7
BRANCH   4  27
HETATM   27  S1  UNL     1     -16.989 -17.700 -24.881  1.00  0.00     0.276 S 
HETATM   28  O5  UNL     1     -16.496 -18.384 -26.147  1.00  0.00    -0.200 OA
HETATM   29  O6  UNL     1     -16.148 -16.444 -24.731  1.00  0.00    -0.200 OA
BRANCH  27  30
HETATM   30  N4  UNL     1     -18.662 -17.315 -24.986  1.00  0.00    -0.112 N 
ATOM     31  H4  UNL     1     -19.303 -18.017 -25.356  1.00  0.00     0.197 HD
BRANCH  30  32
HETATM   32  C13 UNL     1     -19.143 -16.168 -24.613  1.00  0.00     0.697 A 
HETATM   33  N5  UNL     1     -19.668 -16.027 -23.373  1.00  0.00    -0.168 N 
HETATM   34  C14 UNL     1     -20.182 -14.871 -22.923  1.00  0.00     0.185 A 
ATOM     35  H5  UNL     1     -19.672 -16.836 -22.753  1.00  0.00     0.186 HD
HETATM   36  C15 UNL     1     -20.194 -13.754 -23.738  1.00  0.00     0.165 A 
HETATM   37  N6  UNL     1     -20.736 -12.515 -23.279  1.00  0.00    -0.092 NA
HETATM   38  C16 UNL     1     -19.662 -13.889 -25.003  1.00  0.00     0.288 A 
HETATM   39  O8  UNL     1     -19.651 -12.914 -25.767  1.00  0.00    -0.265 OA
HETATM   40  N7  UNL     1     -19.154 -15.083 -25.406  1.00  0.00    -0.153 N 
ATOM     41  H7  UNL     1     -18.767 -15.158 -26.346  1.00  0.00     0.187 HD
BRANCH  34  42
HETATM   42  O7  UNL     1     -20.716 -14.754 -21.638  1.00  0.00    -0.344 OA
ATOM     43  H7  UNL     1     -21.544 -14.317 -21.478  1.00  0.00     0.219 HD
ENDBRANCH  34  42
ENDBRANCH  30  32
ENDBRANCH  27  30
ENDBRANCH   4  27
TORSDOF 15
ENDMDL
MODEL 4
REMARK VINA RESULT: -9.823674367      1.528      2.290
REMARK  15 active torsions:
REMARK  status: ('A' for Active; 'I' for Inactive)
REMARK    1  A    between atoms: N1_1  and  C1_5 
REMARK    2  A    between atoms: C1_5  and  C2_6 
REMARK       I    between atoms: C2_6  and  N2_8 
REMARK    3  A    between atoms: N2_8  and  C3_10 
REMARK    4  A    between atoms: C3_10  and  C4_11 
REMARK    5  A    between atoms: C4_11  and  O2_12 
REMARK    6  A    between atoms: O2_12  and  C5_13 
REMARK    7  A    between atoms: C5_13  and  C6_14 
REMARK    8  A    between atoms: C6_14  and  N3_15 
REMARK       I    between atoms: N3_15  and  C7_17 
REMARK    9  A    between atoms: C7_17  and  C8_19 
REMARK   10  A    between atoms: C8_19  and  O4_20 
REMARK   11  A    between atoms: O4_20  and  C9_21 
REMARK   12  A    between atoms: C12_24  and  S1_25 
REMARK   13  A    between atoms: S1_25  and  N4_28 
REMARK   14  A    between atoms: N4_28  and  C13_30 
REMARK   15  A    between atoms: C14_33  and  O7_34 
ROOT
HETATM    1  C9  UNL     1     -15.853 -21.486 -20.988  1.00  0.00     0.069 A 
HETATM    2  C10 UNL     1     -17.027 -20.769 -21.087  1.00  0.00     0.038 A 
HETATM    3  C11 UNL     1     -17.347 -20.117 -22.258  1.00  0.00     0.028 A 
HETATM    4  C12 UNL     1     -16.483 -20.188 -23.332  1.00  0.00     0.080 A 
HETATM    5  C17 UNL     1     -15.316 -20.907 -23.219  1.00  0.00     0.028 A 
HETATM    6  C18 UNL     1     -15.006 -21.552 -22.049  1.00  0.00     0.038 A 
ENDROOT
BRANCH   1   7
HETATM    7  O4  UNL     1     -15.554 -22.141 -19.777  1.00  0.00    -0.342 OA
BRANCH   7   8
HETATM    8  C8  UNL     1     -16.566 -22.371 -18.843  1.00  0.00     0.278 C 
BRANCH   8   9
HETATM    9  C7  UNL     1     -16.215 -21.735 -17.512  1.00  0.00     0.241 C 
HETATM   10  N3  UNL     1     -14.956 -21.921 -17.001  1.00  0.00    -0.357 N 
ATOM     11  H3  UNL     1     -14.348 -22.491 -17.590  1.00  0.00     0.162 HD
HETATM   12  O3  UNL     1     -17.141 -21.092 -17.011  1.00  0.00    -0.271 OA
BRANCH  10  13
HETATM   13  C6  UNL     1     -14.347 -21.470 -15.809  1.00  0.00     0.148 C 
BRANCH  13  14
HETATM   14  C5  UNL     1     -13.606 -22.426 -14.969  1.00  0.00     0.187 C 
BRANCH  14  15
HETATM   15  O2  UNL     1     -13.151 -23.598 -15.453  1.00  0.00    -0.388 OA
BRANCH  15  16
HETATM   16  C4  UNL     1     -13.178 -24.650 -14.525  1.00  0.00     0.187 C 
BRANCH  16  17
HETATM   17  C3  UNL     1     -12.685 -25.946 -15.131  1.00  0.00     0.148 C 
BRANCH  17  18
HETATM   18  N2  UNL     1     -13.501 -27.069 -14.742  1.00  0.00    -0.358 N 
HETATM   19  C2  UNL     1     -14.273 -27.729 -15.715  1.00  0.00     0.243 C 
HETATM   20  O1  UNL     1     -14.255 -27.351 -16.904  1.00  0.00    -0.272 OA
ATOM     21  H2  UNL     1     -13.520 -27.382 -13.772  1.00  0.00     0.162 HD
BRANCH  19  22
HETATM   22  C1  UNL     1     -15.113 -28.880 -15.334  1.00  0.00     0.331 C 
BRANCH  22  23
HETATM   23  N1  UNL     1     -15.974 -29.289 -16.428  1.00  0.00    -0.071 N 
ATOM     24  H13 UNL     1     -16.929 -29.456 -16.111  1.00  0.00     0.274 HD
ATOM     25  H12 UNL     1     -16.154 -28.518 -17.071  1.00  0.00     0.274 HD
ATOM     26  H11 UNL     1     -15.595 -30.102 -16.914  1.00  0.00     0.274 HD
ENDBRANCH  22  23
ENDBRANCH  19  22
ENDBRANCH  17  18
ENDBRANCH  16  17
ENDBRANCH  15  16
ENDBRANCH  14  15
ENDBRANCH  13  14
ENDBRANCH  10  13
ENDBRANCH   8   9
ENDBRANCH   7   8
ENDBRANCH   1   7
BRANCH   4  27
HETATM   27  S1  UNL     1     -16.870 -19.374 -24.812  1.00  0.00     0.276 S 
HETATM   28  O5  UNL     1     -16.702 -20.376 -25.944  1.00  0.00    -0.200 OA
HETATM   29  O6  UNL     1     -15.886 -18.253 -25.097  1.00  0.00    -0.200 OA
BRANCH  27  30
HETATM   30  N4  UNL     1     -18.482 -18.778 -24.736  1.00  0.00    -0.112 N 
ATOM     31  H4  UNL     1     -19.242 -19.381 -25.049  1.00  0.00     0.197 HD
BRANCH  30  32
HETATM   32  C13 UNL     1     -18.771 -17.590 -24.295  1.00  0.00     0.697 A 
HETATM   33  N5  UNL     1     -18.692 -16.525 -25.127  1.00  0.00    -0.168 N 
HETATM   34  C14 UNL     1     -18.976 -15.271 -24.739  1.00  0.00     0.185 A 
ATOM     35  H5  UNL     1     -18.404 -16.682 -26.092  1.00  0.00     0.186 HD
HETATM   36  C15 UNL     1     -19.369 -15.021 -23.437  1.00  0.00     0.165 A 
HETATM   37  N6  UNL     1     -19.676 -13.695 -23.004  1.00  0.00    -0.092 NA
HETATM   38  C16 UNL     1     -19.452 -16.100 -22.583  1.00  0.00     0.288 A 
HETATM   39  O8  UNL     1     -19.801 -15.924 -21.408  1.00  0.00    -0.265 OA
HETATM   40  N7  UNL     1     -19.153 -17.348 -23.030  1.00  0.00    -0.153 N 
ATOM     41  H7  UNL     1     -19.221 -18.131 -22.380  1.00  0.00     0.187 HD
BRANCH  34  42
HETATM   42  O7  UNL     1     -18.887 -14.190 -25.618  1.00  0.00    -0.344 OA
ATOM     43  H7  UNL     1     -18.318 -13.450 -25.446  1.00  0.00     0.219 HD
ENDBRANCH  34  42
ENDBRANCH  30  32
ENDBRANCH  27  30
ENDBRANCH   4  27
TORSDOF 15
ENDMDL
MODEL 5
REMARK VINA RESULT: -9.821584971      3.676      6.734
REMARK  15 active torsions:
REMARK  status: ('A' for Active; 'I' for Inactive)
REMARK    1  A    between atoms: N1_1  and  C1_5 
REMARK    2  A    between atoms: C1_5  and  C2_6 
REMARK       I    between atoms: C2_6  and  N2_8 
REMARK    3  A    between atoms: N2_8  and  C3_10 
REMARK    4  A    between atoms: C3_10  and  C4_11 
REMARK    5  A    between atoms: C4_11  and  O2_12 
REMARK    6  A    between atoms: O2_12  and  C5_13 
REMARK    7  A    between atoms: C5_13  and  C6_14 
REMARK    8  A    between atoms: C6_14  and  N3_15 
REMARK       I    between atoms: N3_15  and  C7_17 
REMARK    9  A    between atoms: C7_17  and  C8_19 
REMARK   10  A    between atoms: C8_19  and  O4_20 
REMARK   11  A    between atoms: O4_20  and  C9_21 
REMARK   12  A    between atoms: C12_24  and  S1_25 
REMARK   13  A    between atoms: S1_25  and  N4_28 
REMARK   14  A    between atoms: N4_28  and  C13_30 
REMARK   15  A    between atoms: C14_33  and  O7_34 
ROOT
HETATM    1  C9  UNL     1     -17.469 -20.018 -20.857  1.00  0.00     0.069 A 
HETATM    2  C10 UNL     1     -18.678 -20.307 -21.455  1.00  0.00     0.038 A 
HETATM    3  C11 UNL     1     -18.984 -19.787 -22.693  1.00  0.00     0.028 A 
HETATM    4  C12 UNL     1     -18.070 -18.973 -23.332  1.00  0.00     0.080 A 
HETATM    5  C17 UNL     1     -16.869 -18.692 -22.724  1.00  0.00     0.028 A 
HETATM    6  C18 UNL     1     -16.573 -19.215 -21.490  1.00  0.00     0.038 A 
ENDROOT
BRANCH   1   7
HETATM    7  O4  UNL     1     -17.186 -20.565 -19.590  1.00  0.00    -0.342 OA
BRANCH   7   8
HETATM    8  C8  UNL     1     -15.871 -20.898 -19.256  1.00  0.00     0.278 C 
BRANCH   8   9
HETATM    9  C7  UNL     1     -15.467 -22.198 -19.922  1.00  0.00     0.241 C 
HETATM   10  N3  UNL     1     -14.812 -22.149 -21.126  1.00  0.00    -0.357 N 
ATOM     11  H3  UNL     1     -14.649 -21.203 -21.473  1.00  0.00     0.162 HD
HETATM   12  O3  UNL     1     -15.784 -23.203 -19.282  1.00  0.00    -0.271 OA
BRANCH  10  13
HETATM   13  C6  UNL     1     -14.323 -23.167 -21.975  1.00  0.00     0.148 C 
BRANCH  13  14
HETATM   14  C5  UNL     1     -13.275 -22.847 -22.959  1.00  0.00     0.187 C 
BRANCH  14  15
HETATM   15  O2  UNL     1     -13.147 -21.615 -23.490  1.00  0.00    -0.388 OA
BRANCH  15  16
HETATM   16  C4  UNL     1     -12.429 -21.583 -24.695  1.00  0.00     0.187 C 
BRANCH  16  17
HETATM   17  C3  UNL     1     -12.876 -20.443 -25.584  1.00  0.00     0.148 C 
BRANCH  17  18
HETATM   18  N2  UNL     1     -13.853 -20.867 -26.557  1.00  0.00    -0.358 N 
HETATM   19  C2  UNL     1     -14.573 -19.898 -27.277  1.00  0.00     0.243 C 
HETATM   20  O1  UNL     1     -14.373 -18.681 -27.081  1.00  0.00    -0.272 OA
ATOM     21  H2  UNL     1     -14.020 -21.859 -26.720  1.00  0.00     0.162 HD
BRANCH  19  22
HETATM   22  C1  UNL     1     -15.576 -20.314 -28.275  1.00  0.00     0.331 C 
BRANCH  22  23
HETATM   23  N1  UNL     1     -14.986 -21.165 -29.292  1.00  0.00    -0.071 N 
ATOM     24  H13 UNL     1     -14.429 -21.913 -28.877  1.00  0.00     0.274 HD
ATOM     25  H12 UNL     1     -15.692 -21.736 -29.758  1.00  0.00     0.274 HD
ATOM     26  H11 UNL     1     -14.442 -20.621 -29.961  1.00  0.00     0.274 HD
ENDBRANCH  22  23
ENDBRANCH  19  22
ENDBRANCH  17  18
ENDBRANCH  16  17
ENDBRANCH  15  16
ENDBRANCH  14  15
ENDBRANCH  13  14
ENDBRANCH  10  13
ENDBRANCH   8   9
ENDBRANCH   7   8
ENDBRANCH   1   7
BRANCH   4  27
HETATM   27  S1  UNL     1     -18.440 -18.310 -24.890  1.00  0.00     0.276 S 
HETATM   28  O5  UNL     1     -19.946 -18.401 -25.081  1.00  0.00    -0.200 OA
HETATM   29  O6  UNL     1     -17.826 -19.143 -26.002  1.00  0.00    -0.200 OA
BRANCH  27  30
HETATM   30  N4  UNL     1     -17.894 -16.680 -24.965  1.00  0.00    -0.112 N 
ATOM     31  H4  UNL     1     -16.958 -16.494 -25.323  1.00  0.00     0.197 HD
BRANCH  30  32
HETATM   32  C13 UNL     1     -18.625 -15.676 -24.584  1.00  0.00     0.697 A 
HETATM   33  N5  UNL     1     -19.200 -15.687 -23.359  1.00  0.00    -0.168 N 
HETATM   34  C14 UNL     1     -19.967 -14.684 -22.901  1.00  0.00     0.185 A 
ATOM     35  H5  UNL     1     -19.044 -16.494 -22.756  1.00  0.00     0.186 HD
HETATM   36  C15 UNL     1     -20.202 -13.575 -23.693  1.00  0.00     0.165 A 
HETATM   37  N6  UNL     1     -21.014 -12.498 -23.225  1.00  0.00    -0.092 NA
HETATM   38  C16 UNL     1     -19.620 -13.556 -24.942  1.00  0.00     0.288 A 
HETATM   39  O8  UNL     1     -19.802 -12.582 -25.686  1.00  0.00    -0.265 OA
HETATM   40  N7  UNL     1     -18.853 -14.598 -25.354  1.00  0.00    -0.153 N 
ATOM     41  H7  UNL     1     -18.433 -14.562 -26.283  1.00  0.00     0.187 HD
BRANCH  34  42
HETATM   42  O7  UNL     1     -20.548 -14.722 -21.632  1.00  0.00    -0.344 OA
ATOM     43  H7  UNL     1     -21.001 -15.492 -21.312  1.00  0.00     0.219 HD
ENDBRANCH  34  42
ENDBRANCH  30  32
ENDBRANCH  27  30
ENDBRANCH   4  27
TORSDOF 15
ENDMDL
