MODEL 1
REMARK VINA RESULT: -9.623728518      0.000      0.000
REMARK  17 active torsions:
REMARK  status: ('A' for Active; 'I' for Inactive)
REMARK    1  A    between atoms: C4_4  and  N1_5 
REMARK       I    between atoms: N1_5  and  C5_7 
REMARK    2  A    between atoms: C5_7  and  C6_9 
REMARK    3  A    between atoms: C8_14  and  O2_15 
REMARK    4  A    between atoms: C9_17  and  O3_18 
REMARK    5  A    between atoms: C11_25  and  N5_26 
REMARK    6  A    between atoms: N5_26  and  C12_28 
REMARK    7  A    between atoms: C12_28  and  C13_29 
REMARK    8  A    between atoms: C13_29  and  O4_30 
REMARK    9  A    between atoms: O4_30  and  C14_31 
REMARK   10  A    between atoms: C14_31  and  C15_32 
REMARK   11  A    between atoms: C15_32  and  O5_33 
REMARK   12  A    between atoms: O5_33  and  C16_34 
REMARK   13  A    between atoms: C16_34  and  C17_35 
REMARK   14  A    between atoms: C17_35  and  O6_36 
REMARK   15  A    between atoms: O6_36  and  C18_37 
REMARK   16  A    between atoms: C18_37  and  C19_38 
REMARK   17  A    between atoms: C19_38  and  O7_39 
ROOT
HETATM    1  C1  UNL     1     -13.776 -20.226 -25.757  1.00  0.00     0.049 C 
HETATM    2  C2  UNL     1     -14.698 -19.688 -24.727  1.00  0.00    -0.041 A 
HETATM    3  C3  UNL     1     -15.372 -18.496 -24.910  1.00  0.00     0.056 A 
HETATM    4  C4  UNL     1     -16.236 -17.944 -23.997  1.00  0.00     0.109 A 
HETATM    5  N3  UNL     1     -16.425 -18.622 -22.859  1.00  0.00    -0.327 N 
ATOM      6  H3  UNL     1     -17.061 -18.242 -22.157  1.00  0.00     0.169 HD
HETATM    7  C10 UNL     1     -15.803 -19.792 -22.608  1.00  0.00     0.137 A 
HETATM    8  N4  UNL     1     -16.023 -20.438 -21.453  1.00  0.00    -0.176 N 
ATOM      9  H4  UNL     1     -16.666 -20.025 -20.777  1.00  0.00     0.186 HD
HETATM   10  C11 UNL     1     -15.423 -21.626 -21.144  1.00  0.00     0.681 A 
HETATM   11  N6  UNL     1     -14.602 -22.118 -22.051  1.00  0.00    -0.176 N 
ATOM     12  H6  UNL     1     -14.148 -23.005 -21.833  1.00  0.00     0.186 HD
HETATM   13  C20 UNL     1     -14.304 -21.546 -23.257  1.00  0.00     0.129 A 
HETATM   14  N7  UNL     1     -13.532 -22.047 -24.052  1.00  0.00    -0.384 N 
ATOM     15  H71 UNL     1     -13.310 -21.621 -24.952  1.00  0.00     0.157 HD
ATOM     16  H72 UNL     1     -13.065 -22.933 -23.857  1.00  0.00     0.157 HD
HETATM   17  C21 UNL     1     -14.939 -20.340 -23.523  1.00  0.00     0.059 A 
ENDROOT
BRANCH   4  18
HETATM   18  N1  UNL     1     -16.857 -16.837 -24.191  1.00  0.00    -0.311 N 
HETATM   19  C5  UNL     1     -17.817 -16.215 -23.409  1.00  0.00     0.256 C 
HETATM   20  O1  UNL     1     -17.434 -15.782 -22.266  1.00  0.00    -0.271 OA
ATOM     21  H1  UNL     1     -16.607 -16.343 -25.047  1.00  0.00     0.170 HD
BRANCH  19  22
HETATM   22  C6  UNL     1     -19.226 -15.998 -23.757  1.00  0.00     0.308 C 
HETATM   23  N2  UNL     1     -19.399 -15.749 -25.193  1.00  0.00    -0.057 N 
HETATM   24  C7  UNL     1     -20.662 -15.065 -25.316  1.00  0.00     0.267 C 
ATOM     25  H22 UNL     1     -18.618 -15.249 -25.620  1.00  0.00     0.278 HD
ATOM     26  H21 UNL     1     -19.330 -16.590 -25.767  1.00  0.00     0.278 HD
HETATM   27  C8  UNL     1     -20.763 -14.220 -24.089  1.00  0.00     0.175 C 
HETATM   28  C9  UNL     1     -19.741 -14.706 -23.114  1.00  0.00     0.188 C 
BRANCH  27  29
HETATM   29  O2  UNL     1     -20.487 -12.892 -24.425  1.00  0.00    -0.391 OA
ATOM     30  H2  UNL     1     -19.549 -12.789 -24.537  1.00  0.00     0.210 HD
ENDBRANCH  27  29
BRANCH  28  31
HETATM   31  O3  UNL     1     -20.293 -14.916 -21.857  1.00  0.00    -0.390 OA
ATOM     32  H3  UNL     1     -19.639 -15.137 -21.203  1.00  0.00     0.210 HD
ENDBRANCH  28  31
ENDBRANCH  19  22
ENDBRANCH   4  18
BRANCH  10  33
HETATM   33  N5  UNL     1     -15.687 -22.181 -20.016  1.00  0.00    -0.224 N 
ATOM     34  H5  UNL     1     -15.115 -22.991 -19.778  1.00  0.00     0.177 HD
BRANCH  33  35
HETATM   35  C12 UNL     1     -16.668 -21.821 -19.055  1.00  0.00     0.164 C 
BRANCH  35  36
HETATM   36  C13 UNL     1     -16.138 -20.889 -17.986  1.00  0.00     0.188 C 
BRANCH  36  37
HETATM   37  O4  UNL     1     -16.424 -21.349 -16.721  1.00  0.00    -0.387 OA
BRANCH  37  38
HETATM   38  C14 UNL     1     -15.869 -22.588 -16.517  1.00  0.00     0.193 C 
BRANCH  38  39
HETATM   39  C15 UNL     1     -14.497 -22.487 -15.869  1.00  0.00     0.193 C 
BRANCH  39  40
HETATM   40  O5  UNL     1     -13.958 -23.747 -15.793  1.00  0.00    -0.387 OA
BRANCH  40  41
HETATM   41  C16 UNL     1     -12.794 -23.794 -15.042  1.00  0.00     0.193 C 
BRANCH  41  42
HETATM   42  C17 UNL     1     -12.314 -25.176 -14.722  1.00  0.00     0.193 C 
BRANCH  42  43
HETATM   43  O6  UNL     1     -12.748 -26.033 -15.754  1.00  0.00    -0.387 OA
BRANCH  43  44
HETATM   44  C18 UNL     1     -13.379 -27.150 -15.221  1.00  0.00     0.193 C 
BRANCH  44  45
HETATM   45  C19 UNL     1     -14.415 -27.584 -16.245  1.00  0.00     0.190 C 
BRANCH  45  46
HETATM   46  O7  UNL     1     -15.003 -26.482 -16.851  1.00  0.00    -0.399 OA
ATOM     47  H7  UNL     1     -15.437 -26.731 -17.659  1.00  0.00     0.209 HD
ENDBRANCH  45  46
ENDBRANCH  44  45
ENDBRANCH  43  44
ENDBRANCH  42  43
ENDBRANCH  41  42
ENDBRANCH  40  41
ENDBRANCH  39  40
ENDBRANCH  38  39
ENDBRANCH  37  38
ENDBRANCH  36  37
ENDBRANCH  35  36
ENDBRANCH  33  35
ENDBRANCH  10  33
TORSDOF 17
ENDMDL
MODEL 2
REMARK VINA RESULT: -9.518839972      1.164      1.638
REMARK  17 active torsions:
REMARK  status: ('A' for Active; 'I' for Inactive)
REMARK    1  A    between atoms: C4_4  and  N1_5 
REMARK       I    between atoms: N1_5  and  C5_7 
REMARK    2  A    between atoms: C5_7  and  C6_9 
REMARK    3  A    between atoms: C8_14  and  O2_15 
REMARK    4  A    between atoms: C9_17  and  O3_18 
REMARK    5  A    between atoms: C11_25  and  N5_26 
REMARK    6  A    between atoms: N5_26  and  C12_28 
REMARK    7  A    between atoms: C12_28  and  C13_29 
REMARK    8  A    between atoms: C13_29  and  O4_30 
REMARK    9  A    between atoms: O4_30  and  C14_31 
REMARK   10  A    between atoms: C14_31  and  C15_32 
REMARK   11  A    between atoms: C15_32  and  O5_33 
REMARK   12  A    between atoms: O5_33  and  C16_34 
REMARK   13  A    between atoms: C16_34  and  C17_35 
REMARK   14  A    between atoms: C17_35  and  O6_36 
REMARK   15  A    between atoms: O6_36  and  C18_37 
REMARK   16  A    between atoms: C18_37  and  C19_38 
REMARK   17  A    between atoms: C19_38  and  O7_39 
ROOT
HETATM    1  C1  UNL     1     -13.826 -21.214 -24.384  1.00  0.00     0.049 C 
HETATM    2  C2  UNL     1     -14.807 -20.459 -23.567  1.00  0.00    -0.041 A 
HETATM    3  C3  UNL     1     -15.395 -19.298 -24.032  1.00  0.00     0.056 A 
HETATM    4  C4  UNL     1     -16.307 -18.552 -23.327  1.00  0.00     0.109 A 
HETATM    5  N3  UNL     1     -16.636 -18.997 -22.108  1.00  0.00    -0.327 N 
ATOM      6  H3  UNL     1     -17.311 -18.469 -21.555  1.00  0.00     0.169 HD
HETATM    7  C10 UNL     1     -16.104 -20.121 -21.586  1.00  0.00     0.137 A 
HETATM    8  N4  UNL     1     -16.464 -20.531 -20.360  1.00  0.00    -0.176 N 
ATOM      9  H4  UNL     1     -17.142 -19.975 -19.839  1.00  0.00     0.186 HD
HETATM   10  C11 UNL     1     -15.961 -21.661 -19.780  1.00  0.00     0.681 A 
HETATM   11  N6  UNL     1     -15.089 -22.345 -20.495  1.00  0.00    -0.176 N 
ATOM     12  H6  UNL     1     -14.706 -23.191 -20.074  1.00  0.00     0.186 HD
HETATM   13  C20 UNL     1     -14.652 -22.021 -21.750  1.00  0.00     0.129 A 
HETATM   14  N7  UNL     1     -13.839 -22.691 -22.358  1.00  0.00    -0.384 N 
ATOM     15  H71 UNL     1     -13.513 -22.450 -23.295  1.00  0.00     0.157 HD
ATOM     16  H72 UNL     1     -13.441 -23.541 -21.959  1.00  0.00     0.157 HD
HETATM   17  C21 UNL     1     -15.193 -20.863 -22.294  1.00  0.00     0.059 A 
ENDROOT
BRANCH   4  18
HETATM   18  N1  UNL     1     -16.846 -17.480 -23.781  1.00  0.00    -0.311 N 
HETATM   19  C5  UNL     1     -17.745 -16.618 -23.173  1.00  0.00     0.256 C 
HETATM   20  O1  UNL     1     -17.312 -15.955 -22.166  1.00  0.00    -0.271 OA
ATOM     21  H1  UNL     1     -16.573 -17.224 -24.730  1.00  0.00     0.170 HD
BRANCH  19  22
HETATM   22  C6  UNL     1     -19.138 -16.383 -23.566  1.00  0.00     0.308 C 
HETATM   23  N2  UNL     1     -19.265 -16.156 -25.011  1.00  0.00    -0.057 N 
HETATM   24  C7  UNL     1     -20.511 -15.453 -25.184  1.00  0.00     0.267 C 
ATOM     25  H22 UNL     1     -18.463 -15.678 -25.423  1.00  0.00     0.278 HD
ATOM     26  H21 UNL     1     -19.194 -17.009 -25.568  1.00  0.00     0.278 HD
HETATM   27  C8  UNL     1     -20.633 -14.584 -23.975  1.00  0.00     0.175 C 
HETATM   28  C9  UNL     1     -19.650 -15.070 -22.962  1.00  0.00     0.188 C 
BRANCH  27  29
HETATM   29  O2  UNL     1     -20.324 -13.268 -24.327  1.00  0.00    -0.391 OA
ATOM     30  H2  UNL     1     -21.112 -12.740 -24.278  1.00  0.00     0.210 HD
ENDBRANCH  27  29
BRANCH  28  31
HETATM   31  O3  UNL     1     -20.241 -15.248 -21.718  1.00  0.00    -0.390 OA
ATOM     32  H3  UNL     1     -19.702 -14.923 -21.007  1.00  0.00     0.210 HD
ENDBRANCH  28  31
ENDBRANCH  19  22
ENDBRANCH   4  18
BRANCH  10  33
HETATM   33  N5  UNL     1     -16.357 -21.984 -18.601  1.00  0.00    -0.224 N 
ATOM     34  H5  UNL     1     -16.848 -22.875 -18.530  1.00  0.00     0.177 HD
BRANCH  33  35
HETATM   35  C12 UNL     1     -16.203 -21.270 -17.384  1.00  0.00     0.164 C 
BRANCH  35  36
HETATM   36  C13 UNL     1     -14.779 -21.273 -16.869  1.00  0.00     0.188 C 
BRANCH  36  37
HETATM   37  O4  UNL     1     -14.364 -22.540 -16.527  1.00  0.00    -0.387 OA
BRANCH  37  38
HETATM   38  C14 UNL     1     -13.744 -22.534 -15.302  1.00  0.00     0.193 C 
BRANCH  38  39
HETATM   39  C15 UNL     1     -12.926 -23.797 -15.083  1.00  0.00     0.193 C 
BRANCH  39  40
HETATM   40  O5  UNL     1     -13.667 -24.874 -15.501  1.00  0.00    -0.387 OA
BRANCH  40  41
HETATM   41  C16 UNL     1     -13.239 -26.073 -14.953  1.00  0.00     0.193 C 
BRANCH  41  42
HETATM   42  C17 UNL     1     -13.655 -27.291 -15.717  1.00  0.00     0.193 C 
BRANCH  42  43
HETATM   43  O6  UNL     1     -14.954 -27.641 -15.297  1.00  0.00    -0.387 OA
BRANCH  43  44
HETATM   44  C18 UNL     1     -15.213 -28.975 -15.591  1.00  0.00     0.193 C 
BRANCH  44  45
HETATM   45  C19 UNL     1     -16.355 -28.976 -16.594  1.00  0.00     0.190 C 
BRANCH  45  46
HETATM   46  O7  UNL     1     -15.873 -29.102 -17.891  1.00  0.00    -0.399 OA
ATOM     47  H7  UNL     1     -16.132 -28.357 -18.421  1.00  0.00     0.209 HD
ENDBRANCH  45  46
ENDBRANCH  44  45
ENDBRANCH  43  44
ENDBRANCH  42  43
ENDBRANCH  41  42
ENDBRANCH  40  41
ENDBRANCH  39  40
ENDBRANCH  38  39
ENDBRANCH  37  38
ENDBRANCH  36  37
ENDBRANCH  35  36
ENDBRANCH  33  35
ENDBRANCH  10  33
TORSDOF 17
ENDMDL
MODEL 3
REMARK VINA RESULT: -9.137547980      0.852      1.070
REMARK  17 active torsions:
REMARK  status: ('A' for Active; 'I' for Inactive)
REMARK    1  A    between atoms: C4_4  and  N1_5 
REMARK       I    between atoms: N1_5  and  C5_7 
REMARK    2  A    between atoms: C5_7  and  C6_9 
REMARK    3  A    between atoms: C8_14  and  O2_15 
REMARK    4  A    between atoms: C9_17  and  O3_18 
REMARK    5  A    between atoms: C11_25  and  N5_26 
REMARK    6  A    between atoms: N5_26  and  C12_28 
REMARK    7  A    between atoms: C12_28  and  C13_29 
REMARK    8  A    between atoms: C13_29  and  O4_30 
REMARK    9  A    between atoms: O4_30  and  C14_31 
REMARK   10  A    between atoms: C14_31  and  C15_32 
REMARK   11  A    between atoms: C15_32  and  O5_33 
REMARK   12  A    between atoms: O5_33  and  C16_34 
REMARK   13  A    between atoms: C16_34  and  C17_35 
REMARK   14  A    between atoms: C17_35  and  O6_36 
REMARK   15  A    between atoms: O6_36  and  C18_37 
REMARK   16  A    between atoms: C18_37  and  C19_38 
REMARK   17  A    between atoms: C19_38  and  O7_39 
ROOT
HETATM    1  C1  UNL     1     -13.489 -20.373 -25.805  1.00  0.00     0.049 C 
HETATM    2  C2  UNL     1     -14.432 -19.890 -24.767  1.00  0.00    -0.041 A 
HETATM    3  C3  UNL     1     -15.159 -18.727 -24.934  1.00  0.00     0.056 A 
HETATM    4  C4  UNL     1     -16.045 -18.225 -24.013  1.00  0.00     0.109 A 
HETATM    5  N3  UNL     1     -16.201 -18.926 -22.883  1.00  0.00    -0.327 N 
ATOM      6  H3  UNL     1     -16.852 -18.583 -22.176  1.00  0.00     0.169 HD
HETATM    7  C10 UNL     1     -15.527 -20.070 -22.648  1.00  0.00     0.137 A 
HETATM    8  N4  UNL     1     -15.716 -20.740 -21.501  1.00  0.00    -0.176 N 
ATOM      9  H4  UNL     1     -16.375 -20.365 -20.819  1.00  0.00     0.186 HD
HETATM   10  C11 UNL     1     -15.063 -21.904 -21.209  1.00  0.00     0.681 A 
HETATM   11  N6  UNL     1     -14.222 -22.347 -22.123  1.00  0.00    -0.176 N 
ATOM     12  H6  UNL     1     -13.729 -23.216 -21.917  1.00  0.00     0.186 HD
HETATM   13  C20 UNL     1     -13.953 -21.747 -23.322  1.00  0.00     0.129 A 
HETATM   14  N7  UNL     1     -13.161 -22.203 -24.125  1.00  0.00    -0.384 N 
ATOM     15  H71 UNL     1     -12.960 -21.756 -25.020  1.00  0.00     0.157 HD
ATOM     16  H72 UNL     1     -12.655 -23.070 -23.942  1.00  0.00     0.157 HD
HETATM   17  C21 UNL     1     -14.642 -20.567 -23.571  1.00  0.00     0.059 A 
ENDROOT
BRANCH   4  18
HETATM   18  N1  UNL     1     -16.715 -17.145 -24.191  1.00  0.00    -0.311 N 
HETATM   19  C5  UNL     1     -17.644 -16.536 -23.363  1.00  0.00     0.256 C 
HETATM   20  O1  UNL     1     -17.203 -16.062 -22.258  1.00  0.00    -0.271 OA
ATOM     21  H1  UNL     1     -16.537 -16.664 -25.073  1.00  0.00     0.170 HD
BRANCH  19  22
HETATM   22  C6  UNL     1     -19.079 -16.374 -23.624  1.00  0.00     0.308 C 
HETATM   23  N2  UNL     1     -19.348 -16.115 -25.043  1.00  0.00    -0.057 N 
HETATM   24  C7  UNL     1     -20.643 -15.484 -25.081  1.00  0.00     0.267 C 
ATOM     25  H22 UNL     1     -18.615 -15.577 -25.508  1.00  0.00     0.278 HD
ATOM     26  H21 UNL     1     -19.279 -16.945 -25.632  1.00  0.00     0.278 HD
HETATM   27  C8  UNL     1     -20.705 -14.658 -23.838  1.00  0.00     0.175 C 
HETATM   28  C9  UNL     1     -19.608 -15.112 -22.933  1.00  0.00     0.188 C 
BRANCH  27  29
HETATM   29  O2  UNL     1     -20.505 -13.316 -24.171  1.00  0.00    -0.391 OA
ATOM     30  H2  UNL     1     -19.747 -13.247 -24.739  1.00  0.00     0.210 HD
ENDBRANCH  27  29
BRANCH  28  31
HETATM   31  O3  UNL     1     -20.074 -15.361 -21.648  1.00  0.00    -0.390 OA
ATOM     32  H3  UNL     1     -20.399 -14.578 -21.219  1.00  0.00     0.210 HD
ENDBRANCH  28  31
ENDBRANCH  19  22
ENDBRANCH   4  18
BRANCH  10  33
HETATM   33  N5  UNL     1     -15.300 -22.485 -20.087  1.00  0.00    -0.224 N 
ATOM     34  H5  UNL     1     -14.810 -23.366 -19.935  1.00  0.00     0.177 HD
BRANCH  33  35
HETATM   35  C12 UNL     1     -16.150 -22.067 -19.030  1.00  0.00     0.164 C 
BRANCH  35  36
HETATM   36  C13 UNL     1     -16.658 -23.217 -18.186  1.00  0.00     0.188 C 
BRANCH  36  37
HETATM   37  O4  UNL     1     -16.009 -23.285 -16.974  1.00  0.00    -0.387 OA
BRANCH  37  38
HETATM   38  C14 UNL     1     -15.732 -22.026 -16.501  1.00  0.00     0.193 C 
BRANCH  38  39
HETATM   39  C15 UNL     1     -14.468 -22.012 -15.655  1.00  0.00     0.193 C 
BRANCH  39  40
HETATM   40  O5  UNL     1     -13.664 -23.049 -16.058  1.00  0.00    -0.387 OA
BRANCH  40  41
HETATM   41  C16 UNL     1     -12.766 -23.449 -15.081  1.00  0.00     0.193 C 
BRANCH  41  42
HETATM   42  C17 UNL     1     -12.803 -24.911 -14.761  1.00  0.00     0.193 C 
BRANCH  42  43
HETATM   43  O6  UNL     1     -13.899 -25.474 -15.445  1.00  0.00    -0.387 OA
BRANCH  43  44
HETATM   44  C18 UNL     1     -13.781 -26.859 -15.488  1.00  0.00     0.193 C 
BRANCH  44  45
HETATM   45  C19 UNL     1     -13.938 -27.344 -14.056  1.00  0.00     0.190 C 
BRANCH  45  46
HETATM   46  O7  UNL     1     -12.916 -28.221 -13.716  1.00  0.00    -0.399 OA
ATOM     47  H7  UNL     1     -13.255 -29.097 -13.575  1.00  0.00     0.209 HD
ENDBRANCH  45  46
ENDBRANCH  44  45
ENDBRANCH  43  44
ENDBRANCH  42  43
ENDBRANCH  41  42
ENDBRANCH  40  41
ENDBRANCH  39  40
ENDBRANCH  38  39
ENDBRANCH  37  38
ENDBRANCH  36  37
ENDBRANCH  35  36
ENDBRANCH  33  35
ENDBRANCH  10  33
TORSDOF 17
ENDMDL
MODEL 4
REMARK VINA RESULT: -9.127330741      2.759      8.527
REMARK  17 active torsions:
REMARK  status: ('A' for Active; 'I' for Inactive)
REMARK    1  A    between atoms: C4_4  and  N1_5 
REMARK       I    between atoms: N1_5  and  C5_7 
REMARK    2  A    between atoms: C5_7  and  C6_9 
REMARK    3  A    between atoms: C8_14  and  O2_15 
REMARK    4  A    between atoms: C9_17  and  O3_18 
REMARK    5  A    between atoms: C11_25  and  N5_26 
REMARK    6  A    between atoms: N5_26  and  C12_28 
REMARK    7  A    between atoms: C12_28  and  C13_29 
REMARK    8  A    between atoms: C13_29  and  O4_30 
REMARK    9  A    between atoms: O4_30  and  C14_31 
REMARK   10  A    between atoms: C14_31  and  C15_32 
REMARK   11  A    between atoms: C15_32  and  O5_33 
REMARK   12  A    between atoms: O5_33  and  C16_34 
REMARK   13  A    between atoms: C16_34  and  C17_35 
REMARK   14  A    between atoms: C17_35  and  O6_36 
REMARK   15  A    between atoms: O6_36  and  C18_37 
REMARK   16  A    between atoms: C18_37  and  C19_38 
REMARK   17  A    between atoms: C19_38  and  O7_39 
ROOT
HETATM    1  C1  UNL     1     -13.133 -20.662 -25.173  1.00  0.00     0.049 C 
HETATM    2  C2  UNL     1     -14.367 -20.614 -24.352  1.00  0.00    -0.041 A 
HETATM    3  C3  UNL     1     -14.453 -21.262 -23.135  1.00  0.00     0.056 A 
HETATM    4  C4  UNL     1     -15.564 -21.259 -22.329  1.00  0.00     0.109 A 
HETATM    5  N3  UNL     1     -16.627 -20.576 -22.770  1.00  0.00    -0.327 N 
ATOM      6  H3  UNL     1     -17.471 -20.551 -22.197  1.00  0.00     0.169 HD
HETATM    7  C10 UNL     1     -16.620 -19.919 -23.948  1.00  0.00     0.137 A 
HETATM    8  N4  UNL     1     -17.709 -19.246 -24.351  1.00  0.00    -0.176 N 
ATOM      9  H4  UNL     1     -18.533 -19.245 -23.750  1.00  0.00     0.186 HD
HETATM   10  C11 UNL     1     -17.760 -18.561 -25.532  1.00  0.00     0.681 A 
HETATM   11  N6  UNL     1     -16.669 -18.592 -26.272  1.00  0.00    -0.176 N 
ATOM     12  H6  UNL     1     -16.694 -18.085 -27.156  1.00  0.00     0.186 HD
HETATM   13  C20 UNL     1     -15.508 -19.244 -25.961  1.00  0.00     0.129 A 
HETATM   14  N7  UNL     1     -14.534 -19.240 -26.690  1.00  0.00    -0.384 N 
ATOM     15  H71 UNL     1     -13.667 -19.726 -26.458  1.00  0.00     0.157 HD
ATOM     16  H72 UNL     1     -14.534 -18.741 -27.579  1.00  0.00     0.157 HD
HETATM   17  C21 UNL     1     -15.507 -19.925 -24.750  1.00  0.00     0.059 A 
ENDROOT
BRANCH   4  18
HETATM   18  N1  UNL     1     -15.619 -21.863 -21.197  1.00  0.00    -0.311 N 
HETATM   19  C5  UNL     1     -16.317 -21.523 -20.049  1.00  0.00     0.256 C 
HETATM   20  O1  UNL     1     -17.595 -21.570 -20.119  1.00  0.00    -0.271 OA
ATOM     21  H1  UNL     1     -15.068 -22.718 -21.134  1.00  0.00     0.170 HD
BRANCH  19  22
HETATM   22  C6  UNL     1     -15.742 -21.120 -18.760  1.00  0.00     0.308 C 
HETATM   23  N2  UNL     1     -14.431 -21.739 -18.532  1.00  0.00    -0.057 N 
HETATM   24  C7  UNL     1     -14.229 -21.699 -17.106  1.00  0.00     0.267 C 
ATOM     25  H22 UNL     1     -14.343 -22.673 -18.933  1.00  0.00     0.278 HD
ATOM     26  H21 UNL     1     -13.675 -21.308 -19.066  1.00  0.00     0.278 HD
HETATM   27  C8  UNL     1     -15.590 -21.886 -16.519  1.00  0.00     0.175 C 
HETATM   28  C9  UNL     1     -16.590 -21.663 -17.604  1.00  0.00     0.188 C 
BRANCH  27  29
HETATM   29  O2  UNL     1     -15.705 -23.195 -16.044  1.00  0.00    -0.391 OA
ATOM     30  H2  UNL     1     -16.383 -23.645 -16.535  1.00  0.00     0.210 HD
ENDBRANCH  27  29
BRANCH  28  31
HETATM   31  O3  UNL     1     -17.586 -20.779 -17.209  1.00  0.00    -0.390 OA
ATOM     32  H3  UNL     1     -18.032 -21.060 -16.419  1.00  0.00     0.210 HD
ENDBRANCH  28  31
ENDBRANCH  19  22
ENDBRANCH   4  18
BRANCH  10  33
HETATM   33  N5  UNL     1     -18.842 -17.942 -25.845  1.00  0.00    -0.224 N 
ATOM     34  H5  UNL     1     -19.002 -17.813 -26.844  1.00  0.00     0.177 HD
BRANCH  33  35
HETATM   35  C12 UNL     1     -19.844 -17.412 -24.991  1.00  0.00     0.164 C 
BRANCH  35  36
HETATM   36  C13 UNL     1     -21.136 -18.200 -25.032  1.00  0.00     0.188 C 
BRANCH  36  37
HETATM   37  O4  UNL     1     -21.509 -18.634 -23.781  1.00  0.00    -0.387 OA
BRANCH  37  38
HETATM   38  C14 UNL     1     -21.165 -19.951 -23.601  1.00  0.00     0.193 C 
BRANCH  38  39
HETATM   39  C15 UNL     1     -20.639 -20.206 -22.197  1.00  0.00     0.193 C 
BRANCH  39  40
HETATM   40  O5  UNL     1     -19.421 -19.587 -22.070  1.00  0.00    -0.387 OA
BRANCH  40  41
HETATM   41  C16 UNL     1     -19.411 -18.609 -21.087  1.00  0.00     0.193 C 
BRANCH  41  42
HETATM   42  C17 UNL     1     -18.952 -17.263 -21.552  1.00  0.00     0.193 C 
BRANCH  42  43
HETATM   43  O6  UNL     1     -17.671 -17.416 -22.120  1.00  0.00    -0.387 OA
BRANCH  43  44
HETATM   44  C18 UNL     1     -17.222 -16.204 -22.632  1.00  0.00     0.193 C 
BRANCH  44  45
HETATM   45  C19 UNL     1     -15.738 -16.383 -22.910  1.00  0.00     0.190 C 
BRANCH  45  46
HETATM   46  O7  UNL     1     -15.472 -16.272 -24.268  1.00  0.00    -0.399 OA
ATOM     47  H7  UNL     1     -14.587 -16.558 -24.464  1.00  0.00     0.209 HD
ENDBRANCH  45  46
ENDBRANCH  44  45
ENDBRANCH  43  44
ENDBRANCH  42  43
ENDBRANCH  41  42
ENDBRANCH  40  41
ENDBRANCH  39  40
ENDBRANCH  38  39
ENDBRANCH  37  38
ENDBRANCH  36  37
ENDBRANCH  35  36
ENDBRANCH  33  35
ENDBRANCH  10  33
TORSDOF 17
ENDMDL
MODEL 5
REMARK VINA RESULT: -9.072428058      4.752      7.860
REMARK  17 active torsions:
REMARK  status: ('A' for Active; 'I' for Inactive)
REMARK    1  A    between atoms: C4_4  and  N1_5 
REMARK       I    between atoms: N1_5  and  C5_7 
REMARK    2  A    between atoms: C5_7  and  C6_9 
REMARK    3  A    between atoms: C8_14  and  O2_15 
REMARK    4  A    between atoms: C9_17  and  O3_18 
REMARK    5  A    between atoms: C11_25  and  N5_26 
REMARK    6  A    between atoms: N5_26  and  C12_28 
REMARK    7  A    between atoms: C12_28  and  C13_29 
REMARK    8  A    between atoms: C13_29  and  O4_30 
REMARK    9  A    between atoms: O4_30  and  C14_31 
REMARK   10  A    between atoms: C14_31  and  C15_32 
REMARK   11  A    between atoms: C15_32  and  O5_33 
REMARK   12  A    between atoms: O5_33  and  C16_34 
REMARK   13  A    between atoms: C16_34  and  C17_35 
REMARK   14  A    between atoms: C17_35  and  O6_36 
REMARK   15  A    between atoms: O6_36  and  C18_37 
REMARK   16  A    between atoms: C18_37  and  C19_38 
REMARK   17  A    between atoms: C19_38  and  O7_39 
ROOT
HETATM    1  C1  UNL     1     -17.266 -20.995 -19.470  1.00  0.00     0.049 C 
HETATM    2  C2  UNL     1     -17.164 -20.799 -20.937  1.00  0.00    -0.041 A 
HETATM    3  C3  UNL     1     -18.182 -20.209 -21.661  1.00  0.00     0.056 A 
HETATM    4  C4  UNL     1     -18.151 -20.000 -23.017  1.00  0.00     0.109 A 
HETATM    5  N3  UNL     1     -17.050 -20.403 -23.664  1.00  0.00    -0.327 N 
ATOM      6  H3  UNL     1     -16.992 -20.263 -24.673  1.00  0.00     0.169 HD
HETATM    7  C10 UNL     1     -16.016 -20.987 -23.027  1.00  0.00     0.137 A 
HETATM    8  N4  UNL     1     -14.931 -21.373 -23.716  1.00  0.00    -0.176 N 
ATOM      9  H4  UNL     1     -14.911 -21.217 -24.723  1.00  0.00     0.186 HD
HETATM   10  C11 UNL     1     -13.853 -21.969 -23.125  1.00  0.00     0.681 A 
HETATM   11  N6  UNL     1     -13.928 -22.148 -21.820  1.00  0.00    -0.176 N 
ATOM     12  H6  UNL     1     -13.129 -22.590 -21.367  1.00  0.00     0.186 HD
HETATM   13  C20 UNL     1     -14.980 -21.794 -21.022  1.00  0.00     0.129 A 
HETATM   14  N7  UNL     1     -14.992 -21.992 -19.821  1.00  0.00    -0.384 N 
ATOM     15  H71 UNL     1     -15.777 -21.727 -19.225  1.00  0.00     0.157 HD
ATOM     16  H72 UNL     1     -14.206 -22.432 -19.345  1.00  0.00     0.157 HD
HETATM   17  C21 UNL     1     -16.051 -21.194 -21.671  1.00  0.00     0.059 A 
ENDROOT
BRANCH   4  18
HETATM   18  N1  UNL     1     -19.107 -19.444 -23.669  1.00  0.00    -0.311 N 
HETATM   19  C5  UNL     1     -19.078 -18.341 -24.508  1.00  0.00     0.256 C 
HETATM   20  O1  UNL     1     -18.426 -18.469 -25.603  1.00  0.00    -0.271 OA
ATOM     21  H1  UNL     1     -20.022 -19.877 -23.553  1.00  0.00     0.170 HD
BRANCH  19  22
HETATM   22  C6  UNL     1     -19.720 -17.043 -24.272  1.00  0.00     0.308 C 
HETATM   23  N2  UNL     1     -20.558 -16.637 -25.408  1.00  0.00    -0.057 N 
HETATM   24  C7  UNL     1     -20.693 -15.206 -25.294  1.00  0.00     0.267 C 
ATOM     25  H22 UNL     1     -20.200 -16.945 -26.312  1.00  0.00     0.278 HD
ATOM     26  H21 UNL     1     -21.449 -17.130 -25.457  1.00  0.00     0.278 HD
HETATM   27  C8  UNL     1     -19.387 -14.739 -24.739  1.00  0.00     0.175 C 
HETATM   28  C9  UNL     1     -18.667 -15.931 -24.201  1.00  0.00     0.188 C 
BRANCH  27  29
HETATM   29  O2  UNL     1     -18.633 -14.167 -25.766  1.00  0.00    -0.391 OA
ATOM     30  H2  UNL     1     -17.947 -13.630 -25.386  1.00  0.00     0.210 HD
ENDBRANCH  27  29
BRANCH  28  31
HETATM   31  O3  UNL     1     -18.206 -15.712 -22.909  1.00  0.00    -0.390 OA
ATOM     32  H3  UNL     1     -17.317 -15.378 -22.890  1.00  0.00     0.210 HD
ENDBRANCH  28  31
ENDBRANCH  19  22
ENDBRANCH   4  18
BRANCH  10  33
HETATM   33  N5  UNL     1     -12.853 -22.310 -23.856  1.00  0.00    -0.224 N 
ATOM     34  H5  UNL     1     -12.691 -23.314 -23.941  1.00  0.00     0.177 HD
BRANCH  33  35
HETATM   35  C12 UNL     1     -11.942 -21.481 -24.562  1.00  0.00     0.164 C 
BRANCH  35  36
HETATM   36  C13 UNL     1     -12.501 -20.968 -25.873  1.00  0.00     0.188 C 
BRANCH  36  37
HETATM   37  O4  UNL     1     -13.111 -19.744 -25.722  1.00  0.00    -0.387 OA
BRANCH  37  38
HETATM   38  C14 UNL     1     -14.207 -19.644 -26.543  1.00  0.00     0.193 C 
BRANCH  38  39
HETATM   39  C15 UNL     1     -14.229 -20.752 -27.585  1.00  0.00     0.193 C 
BRANCH  39  40
HETATM   40  O5  UNL     1     -15.529 -20.954 -27.976  1.00  0.00    -0.387 OA
BRANCH  40  41
HETATM   41  C16 UNL     1     -15.662 -21.130 -29.345  1.00  0.00     0.193 C 
BRANCH  41  42
HETATM   42  C17 UNL     1     -14.871 -22.270 -29.906  1.00  0.00     0.193 C 
BRANCH  42  43
HETATM   43  O6  UNL     1     -15.722 -23.392 -29.978  1.00  0.00    -0.387 OA
BRANCH  43  44
HETATM   44  C18 UNL     1     -15.151 -24.381 -30.769  1.00  0.00     0.193 C 
BRANCH  44  45
HETATM   45  C19 UNL     1     -15.494 -25.706 -30.107  1.00  0.00     0.190 C 
BRANCH  45  46
HETATM   46  O7  UNL     1     -16.518 -25.547 -29.183  1.00  0.00    -0.399 OA
ATOM     47  H7  UNL     1     -16.478 -26.222 -28.515  1.00  0.00     0.209 HD
ENDBRANCH  45  46
ENDBRANCH  44  45
ENDBRANCH  43  44
ENDBRANCH  42  43
ENDBRANCH  41  42
ENDBRANCH  40  41
ENDBRANCH  39  40
ENDBRANCH  38  39
ENDBRANCH  37  38
ENDBRANCH  36  37
ENDBRANCH  35  36
ENDBRANCH  33  35
ENDBRANCH  10  33
TORSDOF 17
ENDMDL
