MODEL 1
REMARK VINA RESULT: -7.389365748      0.000      0.000
REMARK  8 active torsions:
REMARK  status: ('A' for Active; 'I' for Inactive)
REMARK    1  A    between atoms: O1_2  and  C2_3 
REMARK    2  A    between atoms: C3_4  and  C4_5 
REMARK    3  A    between atoms: C4_5  and  C5_6 
REMARK    4  A    between atoms: C5_6  and  C6_7 
REMARK    5  A    between atoms: C6_7  and  O2_8 
REMARK    6  A    between atoms: C14_17  and  O3_18 
REMARK    7  A    between atoms: C16_20  and  O4_21 
REMARK    8  A    between atoms: C20_26  and  O6_27 
ROOT
HETATM    1  C2  UNL     1     -17.448   3.551  11.309  1.00  0.00     0.113 A 
HETATM    2  C3  UNL     1     -16.301   3.757  10.586  1.00  0.00     0.005 A 
HETATM    3  C12 UNL     1     -15.326   2.782  10.646  1.00  0.00     0.049 A 
HETATM    4  C13 UNL     1     -15.524   1.631  11.427  1.00  0.00     0.012 A 
HETATM    5  C14 UNL     1     -16.693   1.461  12.141  1.00  0.00     0.113 A 
HETATM    6  C16 UNL     1     -17.676   2.426  12.090  1.00  0.00     0.136 A 
HETATM    7  C18 UNL     1     -14.503   0.557  11.523  1.00  0.00     0.127 C 
HETATM    8  C19 UNL     1     -13.217   1.071  11.007  1.00  0.00     0.179 C 
HETATM    9  O5  UNL     1     -12.192   0.867  11.596  1.00  0.00    -0.293 OA
HETATM   10  C20 UNL     1     -13.211   1.845   9.746  1.00  0.00     0.289 C 
HETATM   11  N1  UNL     1     -14.129   2.951   9.907  1.00  0.00    -0.357 N 
ATOM     12  H1  UNL     1     -13.913   3.855   9.488  1.00  0.00     0.162 HD
ENDROOT
BRANCH   2  13
HETATM   13  C4  UNL     1     -16.186   4.998   9.789  1.00  0.00     0.047 C 
BRANCH  13  14
HETATM   14  C5  UNL     1     -15.557   6.123  10.584  1.00  0.00     0.042 C 
BRANCH  14  15
HETATM   15  C6  UNL     1     -14.227   6.462   9.964  1.00  0.00     0.058 C 
HETATM   16  C7  UNL     1     -13.829   7.898  10.164  1.00  0.00     0.038 C 
HETATM   17  C8  UNL     1     -13.167   8.506   8.965  1.00  0.00     0.003 C 
HETATM   18  C9  UNL     1     -12.322   7.583   8.176  1.00  0.00     0.000 C 
HETATM   19  C10 UNL     1     -12.844   6.206   7.988  1.00  0.00     0.003 C 
HETATM   20  C11 UNL     1     -14.278   6.138   8.479  1.00  0.00     0.038 C 
BRANCH  15  21
HETATM   21  O2  UNL     1     -13.228   5.669  10.524  1.00  0.00    -0.390 OA
ATOM     22  H2  UNL     1     -13.107   5.901  11.437  1.00  0.00     0.210 HD
ENDBRANCH  15  21
ENDBRANCH  14  15
ENDBRANCH  13  14
ENDBRANCH   2  13
BRANCH   1  23
HETATM   23  O1  UNL     1     -18.448   4.490  11.283  1.00  0.00    -0.352 OA
HETATM   24  C1  UNL     1     -18.558   5.575  12.199  1.00  0.00     0.210 C 
ENDBRANCH   1  23
BRANCH   6  25
HETATM   25  O4  UNL     1     -18.863   2.285  12.795  1.00  0.00    -0.351 OA
HETATM   26  C17 UNL     1     -19.040   2.545  14.152  1.00  0.00     0.210 C 
ENDBRANCH   6  25
BRANCH   5  27
HETATM   27  O3  UNL     1     -16.862   0.310  12.907  1.00  0.00    -0.352 OA
HETATM   28  C15 UNL     1     -17.791  -0.701  12.657  1.00  0.00     0.210 C 
ENDBRANCH   5  27
BRANCH  10  29
HETATM   29  O6  UNL     1     -13.668   1.089   8.670  1.00  0.00    -0.370 OA
ATOM     30  H6  UNL     1     -13.155   0.298   8.549  1.00  0.00     0.212 HD
ENDBRANCH  10  29
TORSDOF 8
ENDMDL
MODEL 2
REMARK VINA RESULT: -7.235827689      1.532      6.246
REMARK  8 active torsions:
REMARK  status: ('A' for Active; 'I' for Inactive)
REMARK    1  A    between atoms: O1_2  and  C2_3 
REMARK    2  A    between atoms: C3_4  and  C4_5 
REMARK    3  A    between atoms: C4_5  and  C5_6 
REMARK    4  A    between atoms: C5_6  and  C6_7 
REMARK    5  A    between atoms: C6_7  and  O2_8 
REMARK    6  A    between atoms: C14_17  and  O3_18 
REMARK    7  A    between atoms: C16_20  and  O4_21 
REMARK    8  A    between atoms: C20_26  and  O6_27 
ROOT
HETATM    1  C2  UNL     1     -16.245   5.520  10.158  1.00  0.00     0.113 A 
HETATM    2  C3  UNL     1     -16.036   4.232  10.580  1.00  0.00     0.005 A 
HETATM    3  C12 UNL     1     -14.852   3.625  10.215  1.00  0.00     0.049 A 
HETATM    4  C13 UNL     1     -13.910   4.322   9.439  1.00  0.00     0.012 A 
HETATM    5  C14 UNL     1     -14.158   5.617   9.033  1.00  0.00     0.113 A 
HETATM    6  C16 UNL     1     -15.336   6.237   9.390  1.00  0.00     0.136 A 
HETATM    7  C18 UNL     1     -12.623   3.709   9.022  1.00  0.00     0.127 C 
HETATM    8  C19 UNL     1     -12.699   2.248   9.229  1.00  0.00     0.179 C 
HETATM    9  O5  UNL     1     -12.306   1.486   8.389  1.00  0.00    -0.293 OA
HETATM   10  C20 UNL     1     -13.269   1.734  10.493  1.00  0.00     0.289 C 
HETATM   11  N1  UNL     1     -14.592   2.298  10.638  1.00  0.00    -0.357 N 
ATOM     12  H1  UNL     1     -15.341   1.738  11.045  1.00  0.00     0.162 HD
ENDROOT
BRANCH   2  13
HETATM   13  C4  UNL     1     -17.084   3.583  11.398  1.00  0.00     0.047 C 
BRANCH  13  14
HETATM   14  C5  UNL     1     -17.360   2.166  10.940  1.00  0.00     0.042 C 
BRANCH  14  15
HETATM   15  C6  UNL     1     -17.659   1.321  12.151  1.00  0.00     0.058 C 
HETATM   16  C7  UNL     1     -18.399   0.054  11.822  1.00  0.00     0.038 C 
HETATM   17  C8  UNL     1     -19.453  -0.300  12.827  1.00  0.00     0.003 C 
HETATM   18  C9  UNL     1     -19.131   0.055  14.227  1.00  0.00     0.000 C 
HETATM   19  C10 UNL     1     -18.456   1.359  14.441  1.00  0.00     0.003 C 
HETATM   20  C11 UNL     1     -18.458   2.148  13.145  1.00  0.00     0.038 C 
BRANCH  15  21
HETATM   21  O2  UNL     1     -16.470   0.959  12.779  1.00  0.00    -0.390 OA
ATOM     22  H2  UNL     1     -16.288   0.040  12.620  1.00  0.00     0.210 HD
ENDBRANCH  15  21
ENDBRANCH  14  15
ENDBRANCH  13  14
ENDBRANCH   2  13
BRANCH   1  23
HETATM   23  O1  UNL     1     -17.407   6.168  10.493  1.00  0.00    -0.352 OA
HETATM   24  C1  UNL     1     -17.602   6.899  11.700  1.00  0.00     0.210 C 
ENDBRANCH   1  23
BRANCH   6  25
HETATM   25  O4  UNL     1     -15.615   7.539   8.999  1.00  0.00    -0.351 OA
HETATM   26  C17 UNL     1     -15.140   8.694   9.616  1.00  0.00     0.210 C 
ENDBRANCH   6  25
BRANCH   5  27
HETATM   27  O3  UNL     1     -13.206   6.284   8.264  1.00  0.00    -0.352 OA
HETATM   28  C15 UNL     1     -13.247   6.437   6.878  1.00  0.00     0.210 C 
ENDBRANCH   5  27
BRANCH  10  29
HETATM   29  O6  UNL     1     -12.529   2.139  11.600  1.00  0.00    -0.370 OA
ATOM     30  H6  UNL     1     -12.983   1.960  12.416  1.00  0.00     0.212 HD
ENDBRANCH  10  29
TORSDOF 8
ENDMDL
MODEL 3
REMARK VINA RESULT: -6.964697069      0.760      1.223
REMARK  8 active torsions:
REMARK  status: ('A' for Active; 'I' for Inactive)
REMARK    1  A    between atoms: O1_2  and  C2_3 
REMARK    2  A    between atoms: C3_4  and  C4_5 
REMARK    3  A    between atoms: C4_5  and  C5_6 
REMARK    4  A    between atoms: C5_6  and  C6_7 
REMARK    5  A    between atoms: C6_7  and  O2_8 
REMARK    6  A    between atoms: C14_17  and  O3_18 
REMARK    7  A    between atoms: C16_20  and  O4_21 
REMARK    8  A    between atoms: C20_26  and  O6_27 
ROOT
HETATM    1  C2  UNL     1     -17.335   3.625  11.242  1.00  0.00     0.113 A 
HETATM    2  C3  UNL     1     -16.166   3.810  10.547  1.00  0.00     0.005 A 
HETATM    3  C12 UNL     1     -15.215   2.814  10.623  1.00  0.00     0.049 A 
HETATM    4  C13 UNL     1     -15.457   1.661  11.391  1.00  0.00     0.012 A 
HETATM    5  C14 UNL     1     -16.645   1.513  12.075  1.00  0.00     0.113 A 
HETATM    6  C16 UNL     1     -17.606   2.500  12.009  1.00  0.00     0.136 A 
HETATM    7  C18 UNL     1     -14.462   0.564  11.502  1.00  0.00     0.127 C 
HETATM    8  C19 UNL     1     -13.153   1.054  11.021  1.00  0.00     0.179 C 
HETATM    9  O5  UNL     1     -12.147   0.823  11.633  1.00  0.00    -0.293 OA
HETATM   10  C20 UNL     1     -13.100   1.836   9.767  1.00  0.00     0.289 C 
HETATM   11  N1  UNL     1     -13.997   2.961   9.914  1.00  0.00    -0.357 N 
ATOM     12  H1  UNL     1     -13.751   3.863   9.507  1.00  0.00     0.162 HD
ENDROOT
BRANCH   2  13
HETATM   13  C4  UNL     1     -16.005   5.054   9.763  1.00  0.00     0.047 C 
BRANCH  13  14
HETATM   14  C5  UNL     1     -15.155   6.074  10.492  1.00  0.00     0.042 C 
BRANCH  14  15
HETATM   15  C6  UNL     1     -14.547   7.004   9.475  1.00  0.00     0.058 C 
HETATM   16  C7  UNL     1     -13.812   6.285   8.378  1.00  0.00     0.038 C 
HETATM   17  C8  UNL     1     -12.545   6.969   7.961  1.00  0.00     0.003 C 
HETATM   18  C9  UNL     1     -12.581   8.447   8.013  1.00  0.00     0.000 C 
HETATM   19  C10 UNL     1     -13.281   9.051   9.174  1.00  0.00     0.003 C 
HETATM   20  C11 UNL     1     -13.611   7.968  10.185  1.00  0.00     0.038 C 
BRANCH  15  21
HETATM   21  O2  UNL     1     -15.546   7.768   8.876  1.00  0.00    -0.390 OA
ATOM     22  H2  UNL     1     -15.244   8.661   8.760  1.00  0.00     0.210 HD
ENDBRANCH  15  21
ENDBRANCH  14  15
ENDBRANCH  13  14
ENDBRANCH   2  13
BRANCH   1  23
HETATM   23  O1  UNL     1     -18.312   4.586  11.199  1.00  0.00    -0.352 OA
HETATM   24  C1  UNL     1     -18.409   5.678  12.109  1.00  0.00     0.210 C 
ENDBRANCH   1  23
BRANCH   6  25
HETATM   25  O4  UNL     1     -18.812   2.380  12.685  1.00  0.00    -0.351 OA
HETATM   26  C17 UNL     1     -19.012   2.619  14.043  1.00  0.00     0.210 C 
ENDBRANCH   6  25
BRANCH   5  27
HETATM   27  O3  UNL     1     -16.859   0.360  12.829  1.00  0.00    -0.352 OA
HETATM   28  C15 UNL     1     -17.790  -0.637  12.539  1.00  0.00     0.210 C 
ENDBRANCH   5  27
BRANCH  10  29
HETATM   29  O6  UNL     1     -13.548   1.098   8.674  1.00  0.00    -0.370 OA
ATOM     30  H6  UNL     1     -13.431   1.568   7.857  1.00  0.00     0.212 HD
ENDBRANCH  10  29
TORSDOF 8
ENDMDL
MODEL 4
REMARK VINA RESULT: -6.947367369      1.427      1.904
REMARK  8 active torsions:
REMARK  status: ('A' for Active; 'I' for Inactive)
REMARK    1  A    between atoms: O1_2  and  C2_3 
REMARK    2  A    between atoms: C3_4  and  C4_5 
REMARK    3  A    between atoms: C4_5  and  C5_6 
REMARK    4  A    between atoms: C5_6  and  C6_7 
REMARK    5  A    between atoms: C6_7  and  O2_8 
REMARK    6  A    between atoms: C14_17  and  O3_18 
REMARK    7  A    between atoms: C16_20  and  O4_21 
REMARK    8  A    between atoms: C20_26  and  O6_27 
ROOT
HETATM    1  C2  UNL     1     -16.646   5.223  10.840  1.00  0.00     0.113 A 
HETATM    2  C3  UNL     1     -15.310   5.380  10.569  1.00  0.00     0.005 A 
HETATM    3  C12 UNL     1     -14.533   4.241  10.518  1.00  0.00     0.049 A 
HETATM    4  C13 UNL     1     -15.111   2.979  10.739  1.00  0.00     0.012 A 
HETATM    5  C14 UNL     1     -16.459   2.864  11.009  1.00  0.00     0.113 A 
HETATM    6  C16 UNL     1     -17.249   3.993  11.063  1.00  0.00     0.136 A 
HETATM    7  C18 UNL     1     -14.313   1.727  10.694  1.00  0.00     0.127 C 
HETATM    8  C19 UNL     1     -12.877   2.072  10.758  1.00  0.00     0.179 C 
HETATM    9  O5  UNL     1     -12.131   1.465  11.476  1.00  0.00    -0.293 OA
HETATM   10  C20 UNL     1     -12.370   3.180   9.920  1.00  0.00     0.289 C 
HETATM   11  N1  UNL     1     -13.150   4.357  10.232  1.00  0.00    -0.357 N 
ATOM     12  H1  UNL     1     -12.702   5.273  10.248  1.00  0.00     0.162 HD
ENDROOT
BRANCH   2  13
HETATM   13  C4  UNL     1     -14.795   6.749  10.346  1.00  0.00     0.047 C 
BRANCH  13  14
HETATM   14  C5  UNL     1     -14.729   7.093   8.872  1.00  0.00     0.042 C 
BRANCH  14  15
HETATM   15  C6  UNL     1     -13.354   7.625   8.566  1.00  0.00     0.058 C 
HETATM   16  C7  UNL     1     -13.361   9.061   8.119  1.00  0.00     0.038 C 
HETATM   17  C8  UNL     1     -12.385   9.348   7.018  1.00  0.00     0.003 C 
HETATM   18  C9  UNL     1     -11.127   8.571   7.074  1.00  0.00     0.000 C 
HETATM   19  C10 UNL     1     -11.247   7.145   7.467  1.00  0.00     0.003 C 
HETATM   20  C11 UNL     1     -12.712   6.751   7.502  1.00  0.00     0.038 C 
BRANCH  15  21
HETATM   21  O2  UNL     1     -12.553   7.546   9.703  1.00  0.00    -0.390 OA
ATOM     22  H2  UNL     1     -12.461   6.639   9.970  1.00  0.00     0.210 HD
ENDBRANCH  15  21
ENDBRANCH  14  15
ENDBRANCH  13  14
ENDBRANCH   2  13
BRANCH   1  23
HETATM   23  O1  UNL     1     -17.462   6.324  10.902  1.00  0.00    -0.352 OA
HETATM   24  C1  UNL     1     -17.767   7.034  12.099  1.00  0.00     0.210 C 
ENDBRANCH   1  23
BRANCH   6  25
HETATM   25  O4  UNL     1     -18.608   3.910  11.331  1.00  0.00    -0.351 OA
HETATM   26  C17 UNL     1     -19.184   3.805  12.595  1.00  0.00     0.210 C 
ENDBRANCH   6  25
BRANCH   5  27
HETATM   27  O3  UNL     1     -17.006   1.600  11.224  1.00  0.00    -0.352 OA
HETATM   28  C15 UNL     1     -17.094   0.955  12.457  1.00  0.00     0.210 C 
ENDBRANCH   5  27
BRANCH  10  29
HETATM   29  O6  UNL     1     -12.541   2.925   8.562  1.00  0.00    -0.370 OA
ATOM     30  H6  UNL     1     -11.727   3.014   8.079  1.00  0.00     0.212 HD
ENDBRANCH  10  29
TORSDOF 8
ENDMDL
MODEL 5
REMARK VINA RESULT: -6.884796807      2.284      6.145
REMARK  8 active torsions:
REMARK  status: ('A' for Active; 'I' for Inactive)
REMARK    1  A    between atoms: O1_2  and  C2_3 
REMARK    2  A    between atoms: C3_4  and  C4_5 
REMARK    3  A    between atoms: C4_5  and  C5_6 
REMARK    4  A    between atoms: C5_6  and  C6_7 
REMARK    5  A    between atoms: C6_7  and  O2_8 
REMARK    6  A    between atoms: C14_17  and  O3_18 
REMARK    7  A    between atoms: C16_20  and  O4_21 
REMARK    8  A    between atoms: C20_26  and  O6_27 
ROOT
HETATM    1  C2  UNL     1     -16.618   6.844  10.185  1.00  0.00     0.113 A 
HETATM    2  C3  UNL     1     -15.993   5.885   9.430  1.00  0.00     0.005 A 
HETATM    3  C12 UNL     1     -14.844   6.251   8.759  1.00  0.00     0.049 A 
HETATM    4  C13 UNL     1     -14.354   7.565   8.859  1.00  0.00     0.012 A 
HETATM    5  C14 UNL     1     -15.014   8.501   9.629  1.00  0.00     0.113 A 
HETATM    6  C16 UNL     1     -16.162   8.150  10.306  1.00  0.00     0.136 A 
HETATM    7  C18 UNL     1     -13.124   8.004   8.153  1.00  0.00     0.127 C 
HETATM    8  C19 UNL     1     -12.779   7.003   7.123  1.00  0.00     0.179 C 
HETATM    9  O5  UNL     1     -12.460   7.343   6.017  1.00  0.00    -0.293 OA
HETATM   10  C20 UNL     1     -12.833   5.567   7.475  1.00  0.00     0.289 C 
HETATM   11  N1  UNL     1     -14.161   5.289   7.975  1.00  0.00    -0.357 N 
ATOM     12  H1  UNL     1     -14.608   4.397   7.762  1.00  0.00     0.162 HD
ENDROOT
BRANCH   2  13
HETATM   13  C4  UNL     1     -16.581   4.528   9.391  1.00  0.00     0.047 C 
BRANCH  13  14
HETATM   14  C5  UNL     1     -16.336   3.769  10.678  1.00  0.00     0.042 C 
BRANCH  14  15
HETATM   15  C6  UNL     1     -15.215   2.789  10.450  1.00  0.00     0.058 C 
HETATM   16  C7  UNL     1     -15.429   1.472  11.144  1.00  0.00     0.038 C 
HETATM   17  C8  UNL     1     -14.176   0.899  11.734  1.00  0.00     0.003 C 
HETATM   18  C9  UNL     1     -12.940   1.166  10.967  1.00  0.00     0.000 C 
HETATM   19  C10 UNL     1     -12.806   2.521  10.377  1.00  0.00     0.003 C 
HETATM   20  C11 UNL     1     -13.910   3.416  10.911  1.00  0.00     0.038 C 
BRANCH  15  21
HETATM   21  O2  UNL     1     -15.087   2.527   9.088  1.00  0.00    -0.390 OA
ATOM     22  H2  UNL     1     -14.508   3.165   8.689  1.00  0.00     0.210 HD
ENDBRANCH  15  21
ENDBRANCH  14  15
ENDBRANCH  13  14
ENDBRANCH   2  13
BRANCH   1  23
HETATM   23  O1  UNL     1     -17.764   6.531  10.872  1.00  0.00    -0.352 OA
HETATM   24  C1  UNL     1     -17.838   6.372  12.286  1.00  0.00     0.210 C 
ENDBRANCH   1  23
BRANCH   6  25
HETATM   25  O4  UNL     1     -16.848   9.068  11.089  1.00  0.00    -0.351 OA
HETATM   26  C17 UNL     1     -17.860   9.917  10.650  1.00  0.00     0.210 C 
ENDBRANCH   6  25
BRANCH   5  27
HETATM   27  O3  UNL     1     -14.506   9.796   9.710  1.00  0.00    -0.352 OA
HETATM   28  C15 UNL     1     -13.813  10.328  10.798  1.00  0.00     0.210 C 
ENDBRANCH   5  27
BRANCH  10  29
HETATM   29  O6  UNL     1     -11.938   5.247   8.492  1.00  0.00    -0.370 OA
ATOM     30  H6  UNL     1     -12.149   5.693   9.304  1.00  0.00     0.212 HD
ENDBRANCH  10  29
TORSDOF 8
ENDMDL
