MODEL 1
REMARK VINA RESULT: -7.171192250      0.000      0.000
REMARK  8 active torsions:
REMARK  status: ('A' for Active; 'I' for Inactive)
REMARK    1  A    between atoms: O1_2  and  C2_3 
REMARK    2  A    between atoms: C4_5  and  C5_6 
REMARK    3  A    between atoms: C7_8  and  C8_9 
REMARK    4  A    between atoms: C8_9  and  C9_10 
REMARK    5  A    between atoms: C9_10  and  C10_11 
REMARK    6  A    between atoms: C13_17  and  O2_18 
REMARK    7  A    between atoms: C16_25  and  O4_26 
REMARK    8  A    between atoms: C18_28  and  O5_29 
ROOT
HETATM    1  C5  UNL     1     -14.357   2.239   9.557  1.00  0.00     0.110 C 
HETATM    2  C6  UNL     1     -12.857   2.326   9.411  1.00  0.00     0.047 C 
HETATM    3  C7  UNL     1     -13.234   3.606   8.611  1.00  0.00     0.077 C 
HETATM    4  N2  UNL     1     -14.360   3.710   9.521  1.00  0.00    -0.214 NA
HETATM    5 CL1  UNL     1     -13.900   4.447  11.011  1.00  0.00    -0.021 Cl
ENDROOT
BRANCH   3   6
HETATM    6  C8  UNL     1     -12.193   4.650   8.676  1.00  0.00     0.026 C 
BRANCH   6   7
HETATM    7  C9  UNL     1     -12.236   5.822   7.809  1.00  0.00     0.070 C 
BRANCH   7   8
HETATM    8  C10 UNL     1     -12.924   7.063   8.204  1.00  0.00     0.222 C 
HETATM    9  C11 UNL     1     -12.538   8.218   7.330  1.00  0.00     0.078 C 
HETATM   10  N1  UNL     1     -12.605   7.374   9.592  1.00  0.00    -0.041 N 
HETATM   11  C12 UNL     1     -13.433   8.408  10.153  1.00  0.00     0.269 C 
ATOM     12  H12 UNL     1     -12.640   6.533  10.167  1.00  0.00     0.280 HD
ATOM     13  H11 UNL     1     -11.618   7.608   9.692  1.00  0.00     0.280 HD
HETATM   14  C13 UNL     1     -14.865   7.861  10.064  1.00  0.00     0.167 C 
HETATM   15  C14 UNL     1     -15.126   7.762   8.566  1.00  0.00     0.204 C 
HETATM   16  O3  UNL     1     -14.288   6.849   8.012  1.00  0.00    -0.352 OA
BRANCH  14  17
HETATM   17  O2  UNL     1     -15.781   8.740  10.607  1.00  0.00    -0.392 OA
ATOM     18  H2  UNL     1     -16.570   8.293  10.890  1.00  0.00     0.210 HD
ENDBRANCH  14  17
ENDBRANCH   7   8
ENDBRANCH   6   7
ENDBRANCH   3   6
BRANCH   1  19
HETATM   19  C4  UNL     1     -14.843   1.654  10.810  1.00  0.00    -0.034 A 
HETATM   20  C3  UNL     1     -13.937   1.044  11.649  1.00  0.00     0.048 A 
HETATM   21  C2  UNL     1     -14.307   0.468  12.847  1.00  0.00     0.104 A 
HETATM   22  C18 UNL     1     -15.624   0.483  13.253  1.00  0.00     0.133 A 
HETATM   23  C16 UNL     1     -16.535   1.092  12.414  1.00  0.00     0.104 A 
HETATM   24  C15 UNL     1     -16.162   1.670  11.212  1.00  0.00     0.048 A 
BRANCH  21  25
HETATM   25  O1  UNL     1     -13.398  -0.150  13.704  1.00  0.00    -0.353 OA
HETATM   26  C1  UNL     1     -12.016   0.172  13.515  1.00  0.00     0.210 C 
ENDBRANCH  21  25
BRANCH  22  27
HETATM   27  O5  UNL     1     -16.022  -0.094  14.458  1.00  0.00    -0.356 OA
ATOM     28  H5  UNL     1     -16.645  -0.810  14.484  1.00  0.00     0.218 HD
ENDBRANCH  22  27
BRANCH  23  29
HETATM   29  O4  UNL     1     -17.870   1.123  12.794  1.00  0.00    -0.353 OA
HETATM   30  C17 UNL     1     -18.615   2.321  12.782  1.00  0.00     0.210 C 
ENDBRANCH  23  29
ENDBRANCH   1  19
TORSDOF 8
ENDMDL
MODEL 2
REMARK VINA RESULT: -7.146334936      0.495      2.503
REMARK  8 active torsions:
REMARK  status: ('A' for Active; 'I' for Inactive)
REMARK    1  A    between atoms: O1_2  and  C2_3 
REMARK    2  A    between atoms: C4_5  and  C5_6 
REMARK    3  A    between atoms: C7_8  and  C8_9 
REMARK    4  A    between atoms: C8_9  and  C9_10 
REMARK    5  A    between atoms: C9_10  and  C10_11 
REMARK    6  A    between atoms: C13_17  and  O2_18 
REMARK    7  A    between atoms: C16_25  and  O4_26 
REMARK    8  A    between atoms: C18_28  and  O5_29 
ROOT
HETATM    1  C5  UNL     1     -14.208   2.272   9.518  1.00  0.00     0.110 C 
HETATM    2  C6  UNL     1     -12.719   2.415   9.307  1.00  0.00     0.047 C 
HETATM    3  C7  UNL     1     -13.175   3.700   8.557  1.00  0.00     0.077 C 
HETATM    4  N2  UNL     1     -14.262   3.743   9.519  1.00  0.00    -0.214 NA
HETATM    5 CL1  UNL     1     -13.760   4.460  11.005  1.00  0.00    -0.021 Cl
ENDROOT
BRANCH   3   6
HETATM    6  C8  UNL     1     -12.168   4.777   8.602  1.00  0.00     0.026 C 
BRANCH   6   7
HETATM    7  C9  UNL     1     -12.274   5.953   7.746  1.00  0.00     0.070 C 
BRANCH   7   8
HETATM    8  C10 UNL     1     -12.953   7.184   8.187  1.00  0.00     0.222 C 
HETATM    9  C11 UNL     1     -12.564   8.365   7.350  1.00  0.00     0.078 C 
HETATM   10  N1  UNL     1     -12.623   7.446   9.583  1.00  0.00    -0.041 N 
HETATM   11  C12 UNL     1     -13.441   8.465  10.183  1.00  0.00     0.269 C 
ATOM     12  H12 UNL     1     -12.659   6.586  10.129  1.00  0.00     0.280 HD
ATOM     13  H11 UNL     1     -11.634   7.671   9.684  1.00  0.00     0.280 HD
HETATM   14  C13 UNL     1     -14.877   7.930  10.085  1.00  0.00     0.167 C 
HETATM   15  C14 UNL     1     -15.148   7.882   8.586  1.00  0.00     0.204 C 
HETATM   16  O3  UNL     1     -14.318   6.984   7.997  1.00  0.00    -0.352 OA
BRANCH  14  17
HETATM   17  O2  UNL     1     -15.784   8.795  10.663  1.00  0.00    -0.392 OA
ATOM     18  H2  UNL     1     -16.679   8.508  10.525  1.00  0.00     0.210 HD
ENDBRANCH  14  17
ENDBRANCH   7   8
ENDBRANCH   6   7
ENDBRANCH   3   6
BRANCH   1  19
HETATM   19  C4  UNL     1     -14.616   1.641  10.776  1.00  0.00    -0.034 A 
HETATM   20  C3  UNL     1     -15.954   1.631  11.106  1.00  0.00     0.048 A 
HETATM   21  C2  UNL     1     -16.425   1.058  12.269  1.00  0.00     0.104 A 
HETATM   22  C18 UNL     1     -15.556   0.465  13.160  1.00  0.00     0.133 A 
HETATM   23  C16 UNL     1     -14.216   0.474  12.832  1.00  0.00     0.104 A 
HETATM   24  C15 UNL     1     -13.744   1.048  11.664  1.00  0.00     0.048 A 
BRANCH  21  25
HETATM   25  O1  UNL     1     -17.776   1.042  12.613  1.00  0.00    -0.353 OA
HETATM   26  C1  UNL     1     -18.589   0.052  11.973  1.00  0.00     0.210 C 
ENDBRANCH  21  25
BRANCH  22  27
HETATM   27  O5  UNL     1     -16.010  -0.119  14.342  1.00  0.00    -0.356 OA
ATOM     28  H5  UNL     1     -15.439  -0.652  14.882  1.00  0.00     0.218 HD
ENDBRANCH  22  27
BRANCH  23  29
HETATM   29  O4  UNL     1     -13.314  -0.115  13.709  1.00  0.00    -0.353 OA
HETATM   30  C17 UNL     1     -11.941   0.209  13.687  1.00  0.00     0.210 C 
ENDBRANCH  23  29
ENDBRANCH   1  19
TORSDOF 8
ENDMDL
MODEL 3
REMARK VINA RESULT: -6.895479057      2.076      7.931
REMARK  8 active torsions:
REMARK  status: ('A' for Active; 'I' for Inactive)
REMARK    1  A    between atoms: O1_2  and  C2_3 
REMARK    2  A    between atoms: C4_5  and  C5_6 
REMARK    3  A    between atoms: C7_8  and  C8_9 
REMARK    4  A    between atoms: C8_9  and  C9_10 
REMARK    5  A    between atoms: C9_10  and  C10_11 
REMARK    6  A    between atoms: C13_17  and  O2_18 
REMARK    7  A    between atoms: C16_25  and  O4_26 
REMARK    8  A    between atoms: C18_28  and  O5_29 
ROOT
HETATM    1  C5  UNL     1     -13.923   4.706  10.153  1.00  0.00     0.110 C 
HETATM    2  C6  UNL     1     -13.739   3.307   9.613  1.00  0.00     0.047 C 
HETATM    3  C7  UNL     1     -14.606   2.955  10.856  1.00  0.00     0.077 C 
HETATM    4  N2  UNL     1     -15.230   4.249  10.652  1.00  0.00    -0.214 NA
HETATM    5 CL1  UNL     1     -16.454   4.173   9.439  1.00  0.00    -0.021 Cl
ENDROOT
BRANCH   3   6
HETATM    6  C8  UNL     1     -15.431   1.748  10.655  1.00  0.00     0.026 C 
BRANCH   6   7
HETATM    7  C9  UNL     1     -15.883   0.940  11.783  1.00  0.00     0.070 C 
BRANCH   7   8
HETATM    8  C10 UNL     1     -17.248   1.046  12.325  1.00  0.00     0.222 C 
HETATM    9  C11 UNL     1     -18.173   0.041  11.707  1.00  0.00     0.078 C 
HETATM   10  N1  UNL     1     -17.761   2.390  12.089  1.00  0.00    -0.041 N 
HETATM   11  C12 UNL     1     -18.970   2.678  12.812  1.00  0.00     0.269 C 
ATOM     12  H12 UNL     1     -17.046   3.089  12.289  1.00  0.00     0.280 HD
ATOM     13  H11 UNL     1     -17.888   2.558  11.092  1.00  0.00     0.280 HD
HETATM   14  C13 UNL     1     -18.593   2.523  14.293  1.00  0.00     0.167 C 
HETATM   15  C14 UNL     1     -18.261   1.043  14.432  1.00  0.00     0.204 C 
HETATM   16  O3  UNL     1     -17.170   0.743  13.683  1.00  0.00    -0.352 OA
BRANCH  14  17
HETATM   17  O2  UNL     1     -19.659   2.809  15.122  1.00  0.00    -0.392 OA
ATOM     18  H2  UNL     1     -19.649   3.716  15.405  1.00  0.00     0.210 HD
ENDBRANCH  14  17
ENDBRANCH   7   8
ENDBRANCH   6   7
ENDBRANCH   3   6
BRANCH   1  19
HETATM   19  C4  UNL     1     -13.987   5.773   9.151  1.00  0.00    -0.034 A 
HETATM   20  C3  UNL     1     -14.170   7.071   9.578  1.00  0.00     0.048 A 
HETATM   21  C2  UNL     1     -14.241   8.136   8.704  1.00  0.00     0.104 A 
HETATM   22  C18 UNL     1     -14.129   7.934   7.345  1.00  0.00     0.133 A 
HETATM   23  C16 UNL     1     -13.945   6.636   6.914  1.00  0.00     0.104 A 
HETATM   24  C15 UNL     1     -13.874   5.568   7.792  1.00  0.00     0.048 A 
BRANCH  21  25
HETATM   25  O1  UNL     1     -14.425   9.451   9.126  1.00  0.00    -0.353 OA
HETATM   26  C1  UNL     1     -15.394   9.664  10.158  1.00  0.00     0.210 C 
ENDBRANCH  21  25
BRANCH  22  27
HETATM   27  O5  UNL     1     -14.198   8.995   6.443  1.00  0.00    -0.356 OA
ATOM     28  H5  UNL     1     -14.154   8.852   5.505  1.00  0.00     0.218 HD
ENDBRANCH  22  27
BRANCH  23  29
HETATM   29  O4  UNL     1     -13.830   6.400   5.550  1.00  0.00    -0.353 OA
HETATM   30  C17 UNL     1     -12.573   6.213   4.936  1.00  0.00     0.210 C 
ENDBRANCH  23  29
ENDBRANCH   1  19
TORSDOF 8
ENDMDL
MODEL 4
REMARK VINA RESULT: -6.860852681      2.047      7.754
REMARK  8 active torsions:
REMARK  status: ('A' for Active; 'I' for Inactive)
REMARK    1  A    between atoms: O1_2  and  C2_3 
REMARK    2  A    between atoms: C4_5  and  C5_6 
REMARK    3  A    between atoms: C7_8  and  C8_9 
REMARK    4  A    between atoms: C8_9  and  C9_10 
REMARK    5  A    between atoms: C9_10  and  C10_11 
REMARK    6  A    between atoms: C13_17  and  O2_18 
REMARK    7  A    between atoms: C16_25  and  O4_26 
REMARK    8  A    between atoms: C18_28  and  O5_29 
ROOT
HETATM    1  C5  UNL     1     -13.743   4.587  10.261  1.00  0.00     0.110 C 
HETATM    2  C6  UNL     1     -13.731   3.235   9.589  1.00  0.00     0.047 C 
HETATM    3  C7  UNL     1     -14.494   2.834  10.885  1.00  0.00     0.077 C 
HETATM    4  N2  UNL     1     -15.026   4.184  10.859  1.00  0.00    -0.214 NA
HETATM    5 CL1  UNL     1     -16.368   4.310   9.783  1.00  0.00    -0.021 Cl
ENDROOT
BRANCH   3   6
HETATM    6  C8  UNL     1     -15.433   1.715  10.674  1.00  0.00     0.026 C 
BRANCH   6   7
HETATM    7  C9  UNL     1     -15.913   0.905  11.788  1.00  0.00     0.070 C 
BRANCH   7   8
HETATM    8  C10 UNL     1     -17.278   1.040  12.323  1.00  0.00     0.222 C 
HETATM    9  C11 UNL     1     -18.227   0.075  11.680  1.00  0.00     0.078 C 
HETATM   10  N1  UNL     1     -17.750   2.403  12.110  1.00  0.00    -0.041 N 
HETATM   11  C12 UNL     1     -18.957   2.712  12.829  1.00  0.00     0.269 C 
ATOM     12  H12 UNL     1     -17.017   3.077  12.328  1.00  0.00     0.280 HD
ATOM     13  H11 UNL     1     -17.865   2.594  11.115  1.00  0.00     0.280 HD
HETATM   14  C13 UNL     1     -18.595   2.519  14.310  1.00  0.00     0.167 C 
HETATM   15  C14 UNL     1     -18.306   1.026  14.423  1.00  0.00     0.204 C 
HETATM   16  O3  UNL     1     -17.219   0.710  13.675  1.00  0.00    -0.352 OA
BRANCH  14  17
HETATM   17  O2  UNL     1     -19.658   2.819  15.137  1.00  0.00    -0.392 OA
ATOM     18  H2  UNL     1     -19.385   2.897  16.044  1.00  0.00     0.210 HD
ENDBRANCH  14  17
ENDBRANCH   7   8
ENDBRANCH   6   7
ENDBRANCH   3   6
BRANCH   1  19
HETATM   19  C4  UNL     1     -13.818   5.744   9.365  1.00  0.00    -0.034 A 
HETATM   20  C3  UNL     1     -13.812   5.528   8.004  1.00  0.00     0.048 A 
HETATM   21  C2  UNL     1     -13.880   6.558   7.090  1.00  0.00     0.104 A 
HETATM   22  C18 UNL     1     -13.957   7.867   7.515  1.00  0.00     0.133 A 
HETATM   23  C16 UNL     1     -13.964   8.087   8.877  1.00  0.00     0.104 A 
HETATM   24  C15 UNL     1     -13.895   7.052   9.794  1.00  0.00     0.048 A 
BRANCH  21  25
HETATM   25  O1  UNL     1     -13.875   6.350   5.712  1.00  0.00    -0.353 OA
HETATM   26  C1  UNL     1     -12.661   5.849   5.143  1.00  0.00     0.210 C 
ENDBRANCH  21  25
BRANCH  22  27
HETATM   27  O5  UNL     1     -14.026   8.925   6.609  1.00  0.00    -0.356 OA
ATOM     28  H5  UNL     1     -14.653   8.927   5.896  1.00  0.00     0.218 HD
ENDBRANCH  22  27
BRANCH  23  29
HETATM   29  O4  UNL     1     -14.040   9.395   9.338  1.00  0.00    -0.353 OA
HETATM   30  C17 UNL     1     -15.051   9.807  10.232  1.00  0.00     0.210 C 
ENDBRANCH  23  29
ENDBRANCH   1  19
TORSDOF 8
ENDMDL
MODEL 5
REMARK VINA RESULT: -6.725995186      2.101      7.754
REMARK  8 active torsions:
REMARK  status: ('A' for Active; 'I' for Inactive)
REMARK    1  A    between atoms: O1_2  and  C2_3 
REMARK    2  A    between atoms: C4_5  and  C5_6 
REMARK    3  A    between atoms: C7_8  and  C8_9 
REMARK    4  A    between atoms: C8_9  and  C9_10 
REMARK    5  A    between atoms: C9_10  and  C10_11 
REMARK    6  A    between atoms: C13_17  and  O2_18 
REMARK    7  A    between atoms: C16_25  and  O4_26 
REMARK    8  A    between atoms: C18_28  and  O5_29 
ROOT
HETATM    1  C5  UNL     1     -14.952   4.220   9.122  1.00  0.00     0.110 C 
HETATM    2  C6  UNL     1     -15.609   4.100  10.476  1.00  0.00     0.047 C 
HETATM    3  C7  UNL     1     -15.352   2.587  10.217  1.00  0.00     0.077 C 
HETATM    4  N2  UNL     1     -14.176   3.025   9.487  1.00  0.00    -0.214 NA
HETATM    5 CL1  UNL     1     -12.857   3.345  10.551  1.00  0.00    -0.021 Cl
ENDROOT
BRANCH   3   6
HETATM    6  C8  UNL     1     -15.149   1.820  11.462  1.00  0.00     0.026 C 
BRANCH   6   7
HETATM    7  C9  UNL     1     -16.005   0.690  11.806  1.00  0.00     0.070 C 
BRANCH   7   8
HETATM    8  C10 UNL     1     -17.356   0.872  12.363  1.00  0.00     0.222 C 
HETATM    9  C11 UNL     1     -18.338  -0.091  11.768  1.00  0.00     0.078 C 
HETATM   10  N1  UNL     1     -17.802   2.238  12.116  1.00  0.00    -0.041 N 
HETATM   11  C12 UNL     1     -18.987   2.595  12.849  1.00  0.00     0.269 C 
ATOM     12  H12 UNL     1     -17.050   2.902  12.299  1.00  0.00     0.280 HD
ATOM     13  H11 UNL     1     -17.932   2.401  11.118  1.00  0.00     0.280 HD
HETATM   14  C13 UNL     1     -18.600   2.439  14.327  1.00  0.00     0.167 C 
HETATM   15  C14 UNL     1     -18.341   0.945  14.481  1.00  0.00     0.204 C 
HETATM   16  O3  UNL     1     -17.276   0.582  13.723  1.00  0.00    -0.352 OA
BRANCH  14  17
HETATM   17  O2  UNL     1     -19.639   2.789  15.165  1.00  0.00    -0.392 OA
ATOM     18  H2  UNL     1     -19.454   2.559  16.068  1.00  0.00     0.210 HD
ENDBRANCH  14  17
ENDBRANCH   7   8
ENDBRANCH   6   7
ENDBRANCH   3   6
BRANCH   1  19
HETATM   19  C4  UNL     1     -14.153   5.430   8.905  1.00  0.00    -0.034 A 
HETATM   20  C3  UNL     1     -13.515   5.592   7.695  1.00  0.00     0.048 A 
HETATM   21  C2  UNL     1     -12.744   6.699   7.406  1.00  0.00     0.104 A 
HETATM   22  C18 UNL     1     -12.581   7.701   8.339  1.00  0.00     0.133 A 
HETATM   23  C16 UNL     1     -13.219   7.541   9.552  1.00  0.00     0.104 A 
HETATM   24  C15 UNL     1     -13.993   6.430   9.840  1.00  0.00     0.048 A 
BRANCH  21  25
HETATM   25  O1  UNL     1     -12.095   6.873   6.185  1.00  0.00    -0.353 OA
HETATM   26  C1  UNL     1     -12.759   6.359   5.026  1.00  0.00     0.210 C 
ENDBRANCH  21  25
BRANCH  22  27
HETATM   27  O5  UNL     1     -11.806   8.828   8.070  1.00  0.00    -0.356 OA
ATOM     28  H5  UNL     1     -11.901   9.313   7.259  1.00  0.00     0.218 HD
ENDBRANCH  22  27
BRANCH  23  29
HETATM   29  O4  UNL     1     -13.075   8.533  10.514  1.00  0.00    -0.353 OA
HETATM   30  C17 UNL     1     -13.990   9.602  10.617  1.00  0.00     0.210 C 
ENDBRANCH  23  29
ENDBRANCH   1  19
TORSDOF 8
ENDMDL
