MODEL 1
REMARK VINA RESULT: -7.248391226      0.000      0.000
REMARK  9 active torsions:
REMARK  status: ('A' for Active; 'I' for Inactive)
REMARK    1  A    between atoms: C2_2  and  O1_3 
REMARK    2  A    between atoms: O1_3  and  C3_4 
REMARK    3  A    between atoms: C3_4  and  C4_5 
REMARK    4  A    between atoms: C4_5  and  N1_6 
REMARK    5  A    between atoms: C5_9  and  O2_10 
REMARK    6  A    between atoms: C6_12  and  N3_13 
REMARK    7  A    between atoms: N3_13  and  N4_15 
REMARK    8  A    between atoms: N4_15  and  C7_17 
REMARK    9  A    between atoms: C8_18  and  O3_19 
ROOT
HETATM    1  N3  UNL     1     -15.357   4.346   8.902  1.00  0.00    -0.291 N 
ATOM      2  H3  UNL     1     -14.986   4.943   8.164  1.00  0.00     0.187 HD
ENDROOT
BRANCH   1   3
HETATM    3  C6  UNL     1     -14.452   3.672   9.762  1.00  0.00     0.170 A 
HETATM    4  C5  UNL     1     -13.597   4.303  10.648  1.00  0.00     0.189 A 
HETATM    5  N2  UNL     1     -12.920   3.336  11.263  1.00  0.00    -0.273 N 
HETATM    6  N1  UNL     1     -13.279   2.137  10.838  1.00  0.00    -0.252 N 
ATOM      7  H2  UNL     1     -12.211   3.501  11.976  1.00  0.00     0.189 HD
HETATM    8  C13 UNL     1     -14.230   2.318   9.904  1.00  0.00     0.294 A 
HETATM    9  O4  UNL     1     -14.824   1.407   9.261  1.00  0.00    -0.264 OA
BRANCH   4  10
HETATM   10  O2  UNL     1     -13.515   5.691  10.809  1.00  0.00    -0.343 OA
ATOM     11  H2  UNL     1     -13.406   6.203  11.602  1.00  0.00     0.219 HD
ENDBRANCH   4  10
BRANCH   6  12
HETATM   12  C4  UNL     1     -12.759   0.836  11.278  1.00  0.00     0.178 C 
BRANCH  12  13
HETATM   13  C3  UNL     1     -13.511   0.438  12.518  1.00  0.00     0.189 C 
BRANCH  13  14
HETATM   14  O1  UNL     1     -14.753  -0.091  12.275  1.00  0.00    -0.390 OA
BRANCH  14  15
HETATM   15  C2  UNL     1     -15.773   0.520  12.995  1.00  0.00     0.163 C 
HETATM   16  C1  UNL     1     -16.952   0.754  12.071  1.00  0.00     0.033 C 
ENDBRANCH  14  15
ENDBRANCH  13  14
ENDBRANCH  12  13
ENDBRANCH   6  12
ENDBRANCH   1   3
BRANCH   1  17
HETATM   17  N4  UNL     1     -16.634   4.226   9.027  1.00  0.00    -0.297 N 
ATOM     18  H4  UNL     1     -17.204   3.716   8.353  1.00  0.00     0.187 HD
BRANCH  17  19
HETATM   19  C7  UNL     1     -17.197   4.866  10.187  1.00  0.00     0.086 A 
HETATM   20  C8  UNL     1     -17.082   6.184  10.257  1.00  0.00     0.128 A 
HETATM   21  C9  UNL     1     -17.643   6.851  11.417  1.00  0.00     0.115 A 
HETATM   22 BR1  UNL     1     -17.477   8.761  11.522  1.00  0.00    -0.028 Br
HETATM   23  N5  UNL     1     -18.233   6.185  12.350  1.00  0.00    -0.352 N 
HETATM   24  C10 UNL     1     -18.360   4.788  12.282  1.00  0.00     0.008 A 
ATOM     25  H5  UNL     1     -18.617   6.683  13.153  1.00  0.00     0.166 HD
HETATM   26  C11 UNL     1     -19.049   4.005  13.369  1.00  0.00     0.068 C 
HETATM   27  C12 UNL     1     -17.861   4.146  11.240  1.00  0.00     0.058 A 
BRANCH  20  28
HETATM   28  O3  UNL     1     -16.440   6.894   9.239  1.00  0.00    -0.356 OA
ATOM     29  H3  UNL     1     -16.354   7.839   9.292  1.00  0.00     0.218 HD
ENDBRANCH  20  28
ENDBRANCH  17  19
ENDBRANCH   1  17
TORSDOF 9
ENDMDL
MODEL 2
REMARK VINA RESULT: -7.089675370      2.581      5.506
REMARK  9 active torsions:
REMARK  status: ('A' for Active; 'I' for Inactive)
REMARK    1  A    between atoms: C2_2  and  O1_3 
REMARK    2  A    between atoms: O1_3  and  C3_4 
REMARK    3  A    between atoms: C3_4  and  C4_5 
REMARK    4  A    between atoms: C4_5  and  N1_6 
REMARK    5  A    between atoms: C5_9  and  O2_10 
REMARK    6  A    between atoms: C6_12  and  N3_13 
REMARK    7  A    between atoms: N3_13  and  N4_15 
REMARK    8  A    between atoms: N4_15  and  C7_17 
REMARK    9  A    between atoms: C8_18  and  O3_19 
ROOT
HETATM    1  N3  UNL     1     -12.442   3.826   8.974  1.00  0.00    -0.291 N 
ATOM      2  H3  UNL     1     -11.453   3.956   9.186  1.00  0.00     0.187 HD
ENDROOT
BRANCH   1   3
HETATM    3  C6  UNL     1     -13.283   4.965   8.889  1.00  0.00     0.170 A 
HETATM    4  C5  UNL     1     -13.674   5.563   7.705  1.00  0.00     0.189 A 
HETATM    5  N2  UNL     1     -14.449   6.589   8.045  1.00  0.00    -0.273 N 
HETATM    6  N1  UNL     1     -14.583   6.691   9.356  1.00  0.00    -0.252 N 
ATOM      7  H2  UNL     1     -14.887   7.221   7.375  1.00  0.00     0.189 HD
HETATM    8  C13 UNL     1     -13.867   5.694   9.905  1.00  0.00     0.294 A 
HETATM    9  O4  UNL     1     -13.746   5.457  11.139  1.00  0.00    -0.264 OA
BRANCH   4  10
HETATM   10  O2  UNL     1     -13.288   5.119   6.434  1.00  0.00    -0.343 OA
ATOM     11  H2  UNL     1     -12.713   4.402   6.192  1.00  0.00     0.219 HD
ENDBRANCH   4  10
BRANCH   6  12
HETATM   12  C4  UNL     1     -15.357   7.691  10.104  1.00  0.00     0.178 C 
BRANCH  12  13
HETATM   13  C3  UNL     1     -16.719   7.112  10.369  1.00  0.00     0.189 C 
BRANCH  13  14
HETATM   14  O1  UNL     1     -16.976   5.949   9.688  1.00  0.00    -0.390 OA
BRANCH  14  15
HETATM   15  C2  UNL     1     -17.543   4.953  10.475  1.00  0.00     0.163 C 
HETATM   16  C1  UNL     1     -17.871   5.533  11.837  1.00  0.00     0.033 C 
ENDBRANCH  14  15
ENDBRANCH  13  14
ENDBRANCH  12  13
ENDBRANCH   6  12
ENDBRANCH   1   3
BRANCH   1  17
HETATM   17  N4  UNL     1     -12.890   2.632   8.793  1.00  0.00    -0.297 N 
ATOM     18  H4  UNL     1     -12.876   2.175   7.881  1.00  0.00     0.187 HD
BRANCH  17  19
HETATM   19  C7  UNL     1     -13.411   1.989   9.971  1.00  0.00     0.086 A 
HETATM   20  C8  UNL     1     -14.730   1.945  10.094  1.00  0.00     0.128 A 
HETATM   21  C9  UNL     1     -15.278   1.302  11.273  1.00  0.00     0.115 A 
HETATM   22 BR1  UNL     1     -17.188   1.237  11.454  1.00  0.00    -0.028 Br
HETATM   23  N5  UNL     1     -14.510   0.790  12.173  1.00  0.00    -0.352 N 
HETATM   24  C10 UNL     1     -13.111   0.832  12.050  1.00  0.00     0.008 A 
ATOM     25  H5  UNL     1     -14.926   0.345  12.991  1.00  0.00     0.166 HD
HETATM   26  C11 UNL     1     -12.209   0.236  13.097  1.00  0.00     0.068 C 
HETATM   27  C12 UNL     1     -12.575   1.410  10.988  1.00  0.00     0.058 A 
BRANCH  20  28
HETATM   28  O3  UNL     1     -15.551   2.504   9.111  1.00  0.00    -0.356 OA
ATOM     29  H3  UNL     1     -16.300   3.035   9.355  1.00  0.00     0.218 HD
ENDBRANCH  20  28
ENDBRANCH  17  19
ENDBRANCH   1  17
TORSDOF 9
ENDMDL
MODEL 3
REMARK VINA RESULT: -6.860812444      2.451      3.379
REMARK  9 active torsions:
REMARK  status: ('A' for Active; 'I' for Inactive)
REMARK    1  A    between atoms: C2_2  and  O1_3 
REMARK    2  A    between atoms: O1_3  and  C3_4 
REMARK    3  A    between atoms: C3_4  and  C4_5 
REMARK    4  A    between atoms: C4_5  and  N1_6 
REMARK    5  A    between atoms: C5_9  and  O2_10 
REMARK    6  A    between atoms: C6_12  and  N3_13 
REMARK    7  A    between atoms: N3_13  and  N4_15 
REMARK    8  A    between atoms: N4_15  and  C7_17 
REMARK    9  A    between atoms: C8_18  and  O3_19 
ROOT
HETATM    1  N3  UNL     1     -14.767   2.682   9.749  1.00  0.00    -0.291 N 
ATOM      2  H3  UNL     1     -13.797   2.809   9.463  1.00  0.00     0.187 HD
ENDROOT
BRANCH   1   3
HETATM    3  C6  UNL     1     -15.056   1.817  10.835  1.00  0.00     0.170 A 
HETATM    4  C5  UNL     1     -14.105   1.110  11.547  1.00  0.00     0.189 A 
HETATM    5  N2  UNL     1     -14.769   0.422  12.474  1.00  0.00    -0.273 N 
HETATM    6  N1  UNL     1     -16.071   0.639  12.407  1.00  0.00    -0.252 N 
ATOM      7  H2  UNL     1     -14.326  -0.196  13.152  1.00  0.00     0.189 HD
HETATM    8  C13 UNL     1     -16.277   1.502  11.396  1.00  0.00     0.294 A 
HETATM    9  O4  UNL     1     -17.395   1.952  11.019  1.00  0.00    -0.264 OA
BRANCH   4  10
HETATM   10  O2  UNL     1     -12.730   1.157  11.286  1.00  0.00    -0.343 OA
ATOM     11  H2  UNL     1     -11.997   1.101  11.888  1.00  0.00     0.219 HD
ENDBRANCH   4  10
BRANCH   6  12
HETATM   12  C4  UNL     1     -17.121   0.062  13.257  1.00  0.00     0.178 C 
BRANCH  12  13
HETATM   13  C3  UNL     1     -16.835   0.468  14.677  1.00  0.00     0.189 C 
BRANCH  13  14
HETATM   14  O1  UNL     1     -17.636   1.480  15.143  1.00  0.00    -0.390 OA
BRANCH  14  15
HETATM   15  C2  UNL     1     -18.812   1.642  14.419  1.00  0.00     0.163 C 
HETATM   16  C1  UNL     1     -18.983   3.111  14.088  1.00  0.00     0.033 C 
ENDBRANCH  14  15
ENDBRANCH  13  14
ENDBRANCH  12  13
ENDBRANCH   6  12
ENDBRANCH   1   3
BRANCH   1  17
HETATM   17  N4  UNL     1     -15.694   3.313   9.114  1.00  0.00    -0.297 N 
ATOM     18  H4  UNL     1     -16.296   2.856   8.430  1.00  0.00     0.187 HD
BRANCH  17  19
HETATM   19  C7  UNL     1     -15.816   4.710   9.440  1.00  0.00     0.086 A 
HETATM   20  C8  UNL     1     -15.034   5.549   8.777  1.00  0.00     0.128 A 
HETATM   21  C9  UNL     1     -15.140   6.963   9.089  1.00  0.00     0.115 A 
HETATM   22 BR1  UNL     1     -14.008   8.180   8.130  1.00  0.00    -0.028 Br
HETATM   23  N5  UNL     1     -15.967   7.389   9.981  1.00  0.00    -0.352 N 
HETATM   24  C10 UNL     1     -16.799   6.506  10.688  1.00  0.00     0.008 A 
ATOM     25  H5  UNL     1     -16.017   8.389  10.178  1.00  0.00     0.166 HD
HETATM   26  C11 UNL     1     -17.767   6.999  11.731  1.00  0.00     0.068 C 
HETATM   27  C12 UNL     1     -16.731   5.211  10.431  1.00  0.00     0.058 A 
BRANCH  20  28
HETATM   28  O3  UNL     1     -14.143   5.074   7.813  1.00  0.00    -0.356 OA
ATOM     29  H3  UNL     1     -13.647   5.680   7.275  1.00  0.00     0.218 HD
ENDBRANCH  20  28
ENDBRANCH  17  19
ENDBRANCH   1  17
TORSDOF 9
ENDMDL
MODEL 4
REMARK VINA RESULT: -6.833797650      3.460      6.088
REMARK  9 active torsions:
REMARK  status: ('A' for Active; 'I' for Inactive)
REMARK    1  A    between atoms: C2_2  and  O1_3 
REMARK    2  A    between atoms: O1_3  and  C3_4 
REMARK    3  A    between atoms: C3_4  and  C4_5 
REMARK    4  A    between atoms: C4_5  and  N1_6 
REMARK    5  A    between atoms: C5_9  and  O2_10 
REMARK    6  A    between atoms: C6_12  and  N3_13 
REMARK    7  A    between atoms: N3_13  and  N4_15 
REMARK    8  A    between atoms: N4_15  and  C7_17 
REMARK    9  A    between atoms: C8_18  and  O3_19 
ROOT
HETATM    1  N3  UNL     1     -15.915   3.743   8.783  1.00  0.00    -0.291 N 
ATOM      2  H3  UNL     1     -16.872   3.936   8.489  1.00  0.00     0.187 HD
ENDROOT
BRANCH   1   3
HETATM    3  C6  UNL     1     -15.057   4.830   9.090  1.00  0.00     0.170 A 
HETATM    4  C5  UNL     1     -13.681   4.806   8.949  1.00  0.00     0.189 A 
HETATM    5  N2  UNL     1     -13.247   6.003   9.336  1.00  0.00    -0.273 N 
HETATM    6  N1  UNL     1     -14.242   6.789   9.713  1.00  0.00    -0.252 N 
ATOM      7  H2  UNL     1     -12.266   6.281   9.342  1.00  0.00     0.189 HD
HETATM    8  C13 UNL     1     -15.378   6.084   9.570  1.00  0.00     0.294 A 
HETATM    9  O4  UNL     1     -16.545   6.492   9.828  1.00  0.00    -0.264 OA
BRANCH   4  10
HETATM   10  O2  UNL     1     -12.957   3.702   8.484  1.00  0.00    -0.343 OA
ATOM     11  H2  UNL     1     -13.180   2.779   8.506  1.00  0.00     0.219 HD
ENDBRANCH   4  10
BRANCH   6  12
HETATM   12  C4  UNL     1     -14.157   8.172  10.201  1.00  0.00     0.178 C 
BRANCH  12  13
HETATM   13  C3  UNL     1     -13.593   9.015   9.091  1.00  0.00     0.189 C 
BRANCH  13  14
HETATM   14  O1  UNL     1     -12.303   8.700   8.747  1.00  0.00    -0.390 OA
BRANCH  14  15
HETATM   15  C2  UNL     1     -12.038   8.828   7.388  1.00  0.00     0.163 C 
HETATM   16  C1  UNL     1     -10.903   7.892   7.021  1.00  0.00     0.033 C 
ENDBRANCH  14  15
ENDBRANCH  13  14
ENDBRANCH  12  13
ENDBRANCH   6  12
ENDBRANCH   1   3
BRANCH   1  17
HETATM   17  N4  UNL     1     -15.521   2.519   8.863  1.00  0.00    -0.297 N 
ATOM     18  H4  UNL     1     -15.142   2.013   8.064  1.00  0.00     0.187 HD
BRANCH  17  19
HETATM   19  C7  UNL     1     -15.654   1.919  10.165  1.00  0.00     0.086 A 
HETATM   20  C8  UNL     1     -14.559   1.399  10.699  1.00  0.00     0.128 A 
HETATM   21  C9  UNL     1     -14.670   0.788  12.011  1.00  0.00     0.115 A 
HETATM   22 BR1  UNL     1     -13.084   0.034  12.786  1.00  0.00    -0.028 Br
HETATM   23  N5  UNL     1     -15.796   0.752  12.638  1.00  0.00    -0.352 N 
HETATM   24  C10 UNL     1     -16.961   1.302  12.079  1.00  0.00     0.008 A 
ATOM     25  H5  UNL     1     -15.841   0.316  13.558  1.00  0.00     0.166 HD
HETATM   26  C11 UNL     1     -18.279   1.263  12.806  1.00  0.00     0.068 C 
HETATM   27  C12 UNL     1     -16.899   1.866  10.885  1.00  0.00     0.058 A 
BRANCH  20  28
HETATM   28  O3  UNL     1     -13.346   1.445  10.009  1.00  0.00    -0.356 OA
ATOM     29  H3  UNL     1     -12.614   1.944  10.355  1.00  0.00     0.218 HD
ENDBRANCH  20  28
ENDBRANCH  17  19
ENDBRANCH   1  17
TORSDOF 9
ENDMDL
MODEL 5
REMARK VINA RESULT: -6.828438120      3.296      5.648
REMARK  9 active torsions:
REMARK  status: ('A' for Active; 'I' for Inactive)
REMARK    1  A    between atoms: C2_2  and  O1_3 
REMARK    2  A    between atoms: O1_3  and  C3_4 
REMARK    3  A    between atoms: C3_4  and  C4_5 
REMARK    4  A    between atoms: C4_5  and  N1_6 
REMARK    5  A    between atoms: C5_9  and  O2_10 
REMARK    6  A    between atoms: C6_12  and  N3_13 
REMARK    7  A    between atoms: N3_13  and  N4_15 
REMARK    8  A    between atoms: N4_15  and  C7_17 
REMARK    9  A    between atoms: C8_18  and  O3_19 
ROOT
HETATM    1  N3  UNL     1     -16.303   7.469   9.869  1.00  0.00    -0.291 N 
ATOM      2  H3  UNL     1     -16.770   7.932   9.089  1.00  0.00     0.187 HD
ENDROOT
BRANCH   1   3
HETATM    3  C6  UNL     1     -17.085   6.754  10.812  1.00  0.00     0.170 A 
HETATM    4  C5  UNL     1     -17.728   7.330  11.893  1.00  0.00     0.189 A 
HETATM    5  N2  UNL     1     -18.347   6.338  12.528  1.00  0.00    -0.273 N 
HETATM    6  N1  UNL     1     -18.149   5.173  11.934  1.00  0.00    -0.252 N 
ATOM      7  H2  UNL     1     -18.907   6.461  13.372  1.00  0.00     0.189 HD
HETATM    8  C13 UNL     1     -17.367   5.404  10.864  1.00  0.00     0.294 A 
HETATM    9  O4  UNL     1     -16.956   4.538  10.042  1.00  0.00    -0.264 OA
BRANCH   4  10
HETATM   10  O2  UNL     1     -17.689   8.696  12.196  1.00  0.00    -0.343 OA
ATOM     11  H2  UNL     1     -17.637   9.444  11.613  1.00  0.00     0.219 HD
ENDBRANCH   4  10
BRANCH   6  12
HETATM   12  C4  UNL     1     -18.667   3.860  12.339  1.00  0.00     0.178 C 
BRANCH  12  13
HETATM   13  C3  UNL     1     -19.393   4.037  13.644  1.00  0.00     0.189 C 
BRANCH  13  14
HETATM   14  O1  UNL     1     -19.086   3.092  14.590  1.00  0.00    -0.390 OA
BRANCH  14  15
HETATM   15  C2  UNL     1     -18.688   1.873  14.055  1.00  0.00     0.163 C 
HETATM   16  C1  UNL     1     -17.690   1.229  14.996  1.00  0.00     0.033 C 
ENDBRANCH  14  15
ENDBRANCH  13  14
ENDBRANCH  12  13
ENDBRANCH   6  12
ENDBRANCH   1   3
BRANCH   1  17
HETATM   17  N4  UNL     1     -15.022   7.551   9.967  1.00  0.00    -0.297 N 
ATOM     18  H4  UNL     1     -14.562   8.201  10.605  1.00  0.00     0.187 HD
BRANCH  17  19
HETATM   19  C7  UNL     1     -14.285   6.658   9.111  1.00  0.00     0.086 A 
HETATM   20  C8  UNL     1     -13.812   5.552   9.666  1.00  0.00     0.128 A 
HETATM   21  C9  UNL     1     -13.066   4.638   8.822  1.00  0.00     0.115 A 
HETATM   22 BR1  UNL     1     -12.379   3.035   9.623  1.00  0.00    -0.028 Br
HETATM   23  N5  UNL     1     -12.870   4.891   7.573  1.00  0.00    -0.352 N 
HETATM   24  C10 UNL     1     -13.368   6.061   6.977  1.00  0.00     0.008 A 
ATOM     25  H5  UNL     1     -12.341   4.228   7.006  1.00  0.00     0.166 HD
HETATM   26  C11 UNL     1     -13.142   6.361   5.519  1.00  0.00     0.068 C 
HETATM   27  C12 UNL     1     -14.053   6.918   7.715  1.00  0.00     0.058 A 
BRANCH  20  28
HETATM   28  O3  UNL     1     -14.032   5.290  11.020  1.00  0.00    -0.356 OA
ATOM     29  H3  UNL     1     -13.906   4.415  11.367  1.00  0.00     0.218 HD
ENDBRANCH  20  28
ENDBRANCH  17  19
ENDBRANCH   1  17
TORSDOF 9
ENDMDL
