MODEL 1
REMARK VINA RESULT: -7.978491466      0.000      0.000
REMARK  9 active torsions:
REMARK  status: ('A' for Active; 'I' for Inactive)
REMARK    1  A    between atoms: C2_2  and  C3_3 
REMARK    2  A    between atoms: C3_3  and  C4_4 
REMARK    3  A    between atoms: C4_4  and  N1_5 
REMARK    4  A    between atoms: N1_5  and  C5_7 
REMARK    5  A    between atoms: C7_14  and  N5_15 
REMARK    6  A    between atoms: N5_15  and  C8_17 
REMARK    7  A    between atoms: C8_17  and  C9_18 
REMARK    8  A    between atoms: C9_18  and  C10_19 
REMARK    9  A    between atoms: C10_19  and  N6_20 
ROOT
HETATM    1  C5  UNL     1     -10.777  -8.933  -6.999  1.00  0.00     0.695 A 
HETATM    2  N2  UNL     1     -11.303  -8.977  -8.234  1.00  0.00    -0.162 N 
ATOM      3  H2  UNL     1     -12.171  -9.487  -8.399  1.00  0.00     0.187 HD
HETATM    4  C6  UNL     1     -10.681  -8.340  -9.269  1.00  0.00     0.221 A 
HETATM    5  N3  UNL     1     -11.255  -8.400 -10.568  1.00  0.00    -0.062 NA
HETATM    6  N4  UNL     1      -9.536  -7.671  -9.028  1.00  0.00    -0.162 N 
ATOM      7  H4  UNL     1      -9.070  -7.193  -9.800  1.00  0.00     0.187 HD
HETATM    8  C7  UNL     1      -8.993  -7.613  -7.804  1.00  0.00     0.695 A 
HETATM    9  N7  UNL     1      -9.637  -8.258  -6.795  1.00  0.00    -0.022 N 
ATOM     10  H7  UNL     1      -9.241  -8.227  -5.855  1.00  0.00     0.203 HD
ENDROOT
BRANCH   8  11
HETATM   11  N5  UNL     1      -7.909  -6.994  -7.514  1.00  0.00    -0.225 N 
ATOM     12  H5  UNL     1      -7.717  -6.686  -6.560  1.00  0.00     0.177 HD
BRANCH  11  13
HETATM   13  C8  UNL     1      -6.968  -6.746  -8.583  1.00  0.00     0.140 C 
BRANCH  13  14
HETATM   14  C9  UNL     1      -5.544  -7.126  -8.152  1.00  0.00     0.050 C 
BRANCH  14  15
HETATM   15  C10 UNL     1      -5.362  -6.608  -6.769  1.00  0.00     0.274 C 
BRANCH  15  16
HETATM   16  N6  UNL     1      -4.475  -5.485  -6.658  1.00  0.00     0.092 N 
HETATM   17  C11 UNL     1      -3.880  -5.396  -5.333  1.00  0.00     0.298 C 
HETATM   18  C12 UNL     1      -2.751  -4.385  -5.446  1.00  0.00     0.198 C 
HETATM   19  O1  UNL     1      -1.699  -5.006  -6.101  1.00  0.00    -0.388 OA
HETATM   20  C13 UNL     1      -2.102  -5.755  -7.195  1.00  0.00     0.198 C 
HETATM   21  C14 UNL     1      -3.490  -5.358  -7.672  1.00  0.00     0.298 C 
ENDBRANCH  15  16
ENDBRANCH  14  15
ENDBRANCH  13  14
ENDBRANCH  11  13
ENDBRANCH   8  11
BRANCH   1  22
HETATM   22  N1  UNL     1     -11.366  -9.534  -6.024  1.00  0.00    -0.225 N 
ATOM     23  H1  UNL     1     -11.939  -9.004  -5.367  1.00  0.00     0.177 HD
BRANCH  22  24
HETATM   24  C4  UNL     1     -11.209 -10.971  -5.862  1.00  0.00     0.138 C 
BRANCH  24  25
HETATM   25  C3  UNL     1     -11.365 -11.370  -4.409  1.00  0.00     0.020 C 
BRANCH  25  26
HETATM   26  C2  UNL     1      -9.977 -11.802  -3.936  1.00  0.00    -0.003 C 
HETATM   27  C1  UNL     1     -10.073 -12.937  -2.928  1.00  0.00     0.005 C 
ENDBRANCH  25  26
ENDBRANCH  24  25
ENDBRANCH  22  24
ENDBRANCH   1  22
TORSDOF 9
ENDMDL
MODEL 2
REMARK VINA RESULT: -7.970466059      1.968      2.790
REMARK  9 active torsions:
REMARK  status: ('A' for Active; 'I' for Inactive)
REMARK    1  A    between atoms: C2_2  and  C3_3 
REMARK    2  A    between atoms: C3_3  and  C4_4 
REMARK    3  A    between atoms: C4_4  and  N1_5 
REMARK    4  A    between atoms: N1_5  and  C5_7 
REMARK    5  A    between atoms: C7_14  and  N5_15 
REMARK    6  A    between atoms: N5_15  and  C8_17 
REMARK    7  A    between atoms: C8_17  and  C9_18 
REMARK    8  A    between atoms: C9_18  and  C10_19 
REMARK    9  A    between atoms: C10_19  and  N6_20 
ROOT
HETATM    1  C5  UNL     1      -9.139  -7.648  -7.547  1.00  0.00     0.695 A 
HETATM    2  N2  UNL     1      -9.424  -7.924  -8.829  1.00  0.00    -0.162 N 
ATOM      3  H2  UNL     1     -10.344  -8.288  -9.078  1.00  0.00     0.187 HD
HETATM    4  C6  UNL     1      -8.488  -7.719  -9.801  1.00  0.00     0.221 A 
HETATM    5  N3  UNL     1      -8.811  -8.018 -11.153  1.00  0.00    -0.062 NA
HETATM    6  N4  UNL     1      -7.279  -7.236  -9.449  1.00  0.00    -0.162 N 
ATOM      7  H4  UNL     1      -6.578  -7.081 -10.174  1.00  0.00     0.187 HD
HETATM    8  C7  UNL     1      -6.973  -6.953  -8.176  1.00  0.00     0.695 A 
HETATM    9  N7  UNL     1      -7.927  -7.169  -7.231  1.00  0.00    -0.022 N 
ATOM     10  H7  UNL     1      -7.715  -6.960  -6.256  1.00  0.00     0.203 HD
ENDROOT
BRANCH   8  11
HETATM   11  N5  UNL     1      -5.844  -6.493  -7.781  1.00  0.00    -0.225 N 
ATOM     12  H5  UNL     1      -5.740  -6.070  -6.858  1.00  0.00     0.177 HD
BRANCH  11  13
HETATM   13  C8  UNL     1      -4.721  -6.593  -8.687  1.00  0.00     0.140 C 
BRANCH  13  14
HETATM   14  C9  UNL     1      -3.415  -6.822  -7.911  1.00  0.00     0.050 C 
BRANCH  14  15
HETATM   15  C10 UNL     1      -3.763  -6.780  -6.465  1.00  0.00     0.274 C 
BRANCH  15  16
HETATM   16  N6  UNL     1      -2.964  -5.886  -5.678  1.00  0.00     0.092 N 
HETATM   17  C11 UNL     1      -2.835  -4.581  -6.307  1.00  0.00     0.298 C 
HETATM   18  C12 UNL     1      -2.252  -3.659  -5.248  1.00  0.00     0.198 C 
HETATM   19  O1  UNL     1      -3.267  -3.356  -4.355  1.00  0.00    -0.388 OA
HETATM   20  C13 UNL     1      -4.033  -4.456  -4.004  1.00  0.00     0.198 C 
HETATM   21  C14 UNL     1      -3.320  -5.763  -4.309  1.00  0.00     0.298 C 
ENDBRANCH  15  16
ENDBRANCH  14  15
ENDBRANCH  13  14
ENDBRANCH  11  13
ENDBRANCH   8  11
BRANCH   1  22
HETATM   22  N1  UNL     1     -10.024  -7.842  -6.631  1.00  0.00    -0.225 N 
ATOM     23  H1  UNL     1      -9.934  -7.381  -5.726  1.00  0.00     0.177 HD
BRANCH  22  24
HETATM   24  C4  UNL     1     -11.151  -8.722  -6.893  1.00  0.00     0.138 C 
BRANCH  24  25
HETATM   25  C3  UNL     1     -10.802 -10.159  -6.561  1.00  0.00     0.020 C 
BRANCH  25  26
HETATM   26  C2  UNL     1     -11.803 -11.026  -7.323  1.00  0.00    -0.003 C 
HETATM   27  C1  UNL     1     -11.877 -10.616  -8.786  1.00  0.00     0.005 C 
ENDBRANCH  25  26
ENDBRANCH  24  25
ENDBRANCH  22  24
ENDBRANCH   1  22
TORSDOF 9
ENDMDL
MODEL 3
REMARK VINA RESULT: -7.967503346      1.335      2.002
REMARK  9 active torsions:
REMARK  status: ('A' for Active; 'I' for Inactive)
REMARK    1  A    between atoms: C2_2  and  C3_3 
REMARK    2  A    between atoms: C3_3  and  C4_4 
REMARK    3  A    between atoms: C4_4  and  N1_5 
REMARK    4  A    between atoms: N1_5  and  C5_7 
REMARK    5  A    between atoms: C7_14  and  N5_15 
REMARK    6  A    between atoms: N5_15  and  C8_17 
REMARK    7  A    between atoms: C8_17  and  C9_18 
REMARK    8  A    between atoms: C9_18  and  C10_19 
REMARK    9  A    between atoms: C10_19  and  N6_20 
ROOT
HETATM    1  C5  UNL     1      -9.618  -7.929  -7.449  1.00  0.00     0.695 A 
HETATM    2  N2  UNL     1     -10.075  -8.368  -8.633  1.00  0.00    -0.162 N 
ATOM      3  H2  UNL     1     -10.978  -8.837  -8.687  1.00  0.00     0.187 HD
HETATM    4  C6  UNL     1      -9.333  -8.186  -9.764  1.00  0.00     0.221 A 
HETATM    5  N3  UNL     1      -9.834  -8.659 -11.008  1.00  0.00    -0.062 NA
HETATM    6  N4  UNL     1      -8.142  -7.562  -9.669  1.00  0.00    -0.162 N 
ATOM      7  H4  UNL     1      -7.586  -7.425 -10.514  1.00  0.00     0.187 HD
HETATM    8  C7  UNL     1      -7.667  -7.116  -8.498  1.00  0.00     0.695 A 
HETATM    9  N7  UNL     1      -8.429  -7.312  -7.390  1.00  0.00    -0.022 N 
ATOM     10  H7  UNL     1      -8.088  -6.980  -6.488  1.00  0.00     0.203 HD
ENDROOT
BRANCH   8  11
HETATM   11  N5  UNL     1      -6.545  -6.517  -8.345  1.00  0.00    -0.225 N 
ATOM     12  H5  UNL     1      -6.174  -5.898  -9.067  1.00  0.00     0.177 HD
BRANCH  11  13
HETATM   13  C8  UNL     1      -5.821  -6.746  -7.114  1.00  0.00     0.140 C 
BRANCH  13  14
HETATM   14  C9  UNL     1      -4.307  -6.628  -7.344  1.00  0.00     0.050 C 
BRANCH  14  15
HETATM   15  C10 UNL     1      -3.649  -6.990  -6.060  1.00  0.00     0.274 C 
BRANCH  15  16
HETATM   16  N6  UNL     1      -2.866  -5.944  -5.468  1.00  0.00     0.092 N 
HETATM   17  C11 UNL     1      -2.925  -4.717  -6.247  1.00  0.00     0.298 C 
HETATM   18  C12 UNL     1      -2.333  -3.629  -5.367  1.00  0.00     0.198 C 
HETATM   19  O1  UNL     1      -3.280  -3.308  -4.408  1.00  0.00    -0.388 OA
HETATM   20  C13 UNL     1      -3.899  -4.418  -3.856  1.00  0.00     0.198 C 
HETATM   21  C14 UNL     1      -3.096  -5.688  -4.090  1.00  0.00     0.298 C 
ENDBRANCH  15  16
ENDBRANCH  14  15
ENDBRANCH  13  14
ENDBRANCH  11  13
ENDBRANCH   8  11
BRANCH   1  22
HETATM   22  N1  UNL     1     -10.320  -8.100  -6.382  1.00  0.00    -0.225 N 
ATOM     23  H1  UNL     1     -10.270  -7.422  -5.622  1.00  0.00     0.177 HD
BRANCH  22  24
HETATM   24  C4  UNL     1     -11.183  -9.265  -6.266  1.00  0.00     0.138 C 
BRANCH  24  25
HETATM   25  C3  UNL     1     -10.392 -10.482  -5.830  1.00  0.00     0.020 C 
BRANCH  25  26
HETATM   26  C2  UNL     1     -11.262 -11.210  -4.806  1.00  0.00    -0.003 C 
HETATM   27  C1  UNL     1     -10.406 -11.977  -3.810  1.00  0.00     0.005 C 
ENDBRANCH  25  26
ENDBRANCH  24  25
ENDBRANCH  22  24
ENDBRANCH   1  22
TORSDOF 9
ENDMDL
MODEL 4
REMARK VINA RESULT: -7.903673235      1.102      1.545
REMARK  9 active torsions:
REMARK  status: ('A' for Active; 'I' for Inactive)
REMARK    1  A    between atoms: C2_2  and  C3_3 
REMARK    2  A    between atoms: C3_3  and  C4_4 
REMARK    3  A    between atoms: C4_4  and  N1_5 
REMARK    4  A    between atoms: N1_5  and  C5_7 
REMARK    5  A    between atoms: C7_14  and  N5_15 
REMARK    6  A    between atoms: N5_15  and  C8_17 
REMARK    7  A    between atoms: C8_17  and  C9_18 
REMARK    8  A    between atoms: C9_18  and  C10_19 
REMARK    9  A    between atoms: C10_19  and  N6_20 
ROOT
HETATM    1  C5  UNL     1      -9.576  -7.920  -7.469  1.00  0.00     0.695 A 
HETATM    2  N2  UNL     1     -10.013  -8.287  -8.684  1.00  0.00    -0.162 N 
ATOM      3  H2  UNL     1     -10.929  -8.724  -8.784  1.00  0.00     0.187 HD
HETATM    4  C6  UNL     1      -9.236  -8.075  -9.786  1.00  0.00     0.221 A 
HETATM    5  N3  UNL     1      -9.718  -8.472 -11.063  1.00  0.00    -0.062 NA
HETATM    6  N4  UNL     1      -8.029  -7.495  -9.631  1.00  0.00    -0.162 N 
ATOM      7  H4  UNL     1      -7.447  -7.335 -10.453  1.00  0.00     0.187 HD
HETATM    8  C7  UNL     1      -7.573  -7.120  -8.428  1.00  0.00     0.695 A 
HETATM    9  N7  UNL     1      -8.371  -7.344  -7.350  1.00  0.00    -0.022 N 
ATOM     10  H7  UNL     1      -8.043  -7.067  -6.424  1.00  0.00     0.203 HD
ENDROOT
BRANCH   8  11
HETATM   11  N5  UNL     1      -6.437  -6.565  -8.217  1.00  0.00    -0.225 N 
ATOM     12  H5  UNL     1      -6.278  -5.986  -7.392  1.00  0.00     0.177 HD
BRANCH  11  13
HETATM   13  C8  UNL     1      -5.389  -6.785  -9.188  1.00  0.00     0.140 C 
BRANCH  13  14
HETATM   14  C9  UNL     1      -4.015  -6.837  -8.503  1.00  0.00     0.050 C 
BRANCH  14  15
HETATM   15  C10 UNL     1      -4.220  -6.388  -7.099  1.00  0.00     0.274 C 
BRANCH  15  16
HETATM   16  N6  UNL     1      -3.432  -5.255  -6.708  1.00  0.00     0.092 N 
HETATM   17  C11 UNL     1      -3.583  -4.955  -5.292  1.00  0.00     0.298 C 
HETATM   18  C12 UNL     1      -2.482  -3.965  -4.951  1.00  0.00     0.198 C 
HETATM   19  O1  UNL     1      -1.292  -4.672  -4.884  1.00  0.00    -0.388 OA
HETATM   20  C13 UNL     1      -1.140  -5.585  -5.915  1.00  0.00     0.198 C 
HETATM   21  C14 UNL     1      -2.063  -5.280  -7.083  1.00  0.00     0.298 C 
ENDBRANCH  15  16
ENDBRANCH  14  15
ENDBRANCH  13  14
ENDBRANCH  11  13
ENDBRANCH   8  11
BRANCH   1  22
HETATM   22  N1  UNL     1     -10.311  -8.119  -6.430  1.00  0.00    -0.225 N 
ATOM     23  H1  UNL     1     -10.235  -7.500  -5.622  1.00  0.00     0.177 HD
BRANCH  22  24
HETATM   24  C4  UNL     1     -11.249  -9.230  -6.413  1.00  0.00     0.138 C 
BRANCH  24  25
HETATM   25  C3  UNL     1     -10.537 -10.533  -6.107  1.00  0.00     0.020 C 
BRANCH  25  26
HETATM   26  C2  UNL     1     -11.114 -11.032  -4.783  1.00  0.00    -0.003 C 
HETATM   27  C1  UNL     1     -10.051 -11.737  -3.955  1.00  0.00     0.005 C 
ENDBRANCH  25  26
ENDBRANCH  24  25
ENDBRANCH  22  24
ENDBRANCH   1  22
TORSDOF 9
ENDMDL
MODEL 5
REMARK VINA RESULT: -7.881124924      1.680      2.317
REMARK  9 active torsions:
REMARK  status: ('A' for Active; 'I' for Inactive)
REMARK    1  A    between atoms: C2_2  and  C3_3 
REMARK    2  A    between atoms: C3_3  and  C4_4 
REMARK    3  A    between atoms: C4_4  and  N1_5 
REMARK    4  A    between atoms: N1_5  and  C5_7 
REMARK    5  A    between atoms: C7_14  and  N5_15 
REMARK    6  A    between atoms: N5_15  and  C8_17 
REMARK    7  A    between atoms: C8_17  and  C9_18 
REMARK    8  A    between atoms: C9_18  and  C10_19 
REMARK    9  A    between atoms: C10_19  and  N6_20 
ROOT
HETATM    1  C5  UNL     1      -9.350  -7.797  -7.561  1.00  0.00     0.695 A 
HETATM    2  N2  UNL     1      -9.704  -8.139  -8.811  1.00  0.00    -0.162 N 
ATOM      3  H2  UNL     1     -10.618  -8.555  -8.985  1.00  0.00     0.187 HD
HETATM    4  C6  UNL     1      -8.842  -7.932  -9.849  1.00  0.00     0.221 A 
HETATM    5  N3  UNL     1      -9.236  -8.302 -11.164  1.00  0.00    -0.062 NA
HETATM    6  N4  UNL     1      -7.638  -7.380  -9.597  1.00  0.00    -0.162 N 
ATOM      7  H4  UNL     1      -6.993  -7.223 -10.371  1.00  0.00     0.187 HD
HETATM    8  C7  UNL     1      -7.265  -7.030  -8.358  1.00  0.00     0.695 A 
HETATM    9  N7  UNL     1      -8.145  -7.250  -7.345  1.00  0.00    -0.022 N 
ATOM     10  H7  UNL     1      -7.882  -6.991  -6.395  1.00  0.00     0.203 HD
ENDROOT
BRANCH   8  11
HETATM   11  N5  UNL     1      -6.137  -6.502  -8.056  1.00  0.00    -0.225 N 
ATOM     12  H5  UNL     1      -5.992  -6.047  -7.155  1.00  0.00     0.177 HD
BRANCH  11  13
HETATM   13  C8  UNL     1      -5.077  -6.573  -9.037  1.00  0.00     0.140 C 
BRANCH  13  14
HETATM   14  C9  UNL     1      -3.744  -6.947  -8.370  1.00  0.00     0.050 C 
BRANCH  14  15
HETATM   15  C10 UNL     1      -3.856  -6.556  -6.939  1.00  0.00     0.274 C 
BRANCH  15  16
HETATM   16  N6  UNL     1      -3.162  -5.351  -6.587  1.00  0.00     0.092 N 
HETATM   17  C11 UNL     1      -3.495  -4.909  -5.241  1.00  0.00     0.298 C 
HETATM   18  C12 UNL     1      -2.478  -3.837  -4.886  1.00  0.00     0.198 C 
HETATM   19  O1  UNL     1      -1.281  -4.474  -4.603  1.00  0.00    -0.388 OA
HETATM   20  C13 UNL     1      -0.973  -5.484  -5.500  1.00  0.00     0.198 C 
HETATM   21  C14 UNL     1      -1.758  -5.349  -6.795  1.00  0.00     0.298 C 
ENDBRANCH  15  16
ENDBRANCH  14  15
ENDBRANCH  13  14
ENDBRANCH  11  13
ENDBRANCH   8  11
BRANCH   1  22
HETATM   22  N1  UNL     1     -10.165  -7.993  -6.583  1.00  0.00    -0.225 N 
ATOM     23  H1  UNL     1     -10.027  -7.506  -5.697  1.00  0.00     0.177 HD
BRANCH  22  24
HETATM   24  C4  UNL     1     -11.280  -8.911  -6.745  1.00  0.00     0.138 C 
BRANCH  24  25
HETATM   25  C3  UNL     1     -10.912 -10.299  -6.260  1.00  0.00     0.020 C 
BRANCH  25  26
HETATM   26  C2  UNL     1     -11.872 -11.262  -6.958  1.00  0.00    -0.003 C 
HETATM   27  C1  UNL     1     -11.944 -10.974  -8.450  1.00  0.00     0.005 C 
ENDBRANCH  25  26
ENDBRANCH  24  25
ENDBRANCH  22  24
ENDBRANCH   1  22
TORSDOF 9
ENDMDL
