MODEL 1
REMARK VINA RESULT: -8.428973139      0.000      0.000
REMARK  7 active torsions:
REMARK  status: ('A' for Active; 'I' for Inactive)
REMARK    1  A    between atoms: C3_6  and  N3_7 
REMARK    2  A    between atoms: N3_7  and  C4_10 
REMARK    3  A    between atoms: C4_10  and  C5_11 
REMARK    4  A    between atoms: C5_11  and  C6_12 
REMARK    5  A    between atoms: C6_12  and  C7_13 
REMARK    6  A    between atoms: C7_13  and  N4_14 
REMARK    7  A    between atoms: N5_17  and  C10_18 
ROOT
HETATM    1  C5  UNL     1      -5.671  -6.731  -8.992  1.00  0.00     0.029 C 
ENDROOT
BRANCH   1   2
HETATM    2  C4  UNL     1      -6.614  -7.703  -8.359  1.00  0.00     0.235 C 
BRANCH   2   3
HETATM    3  N3  UNL     1      -7.667  -7.005  -7.621  1.00  0.00    -0.053 N 
ATOM      4  H32 UNL     1      -7.572  -5.990  -7.674  1.00  0.00     0.279 HD
ATOM      5  H31 UNL     1      -7.566  -7.105  -6.611  1.00  0.00     0.279 HD
BRANCH   3   6
HETATM    6  C3  UNL     1      -8.944  -7.461  -8.092  1.00  0.00     0.304 A 
HETATM    7  C2  UNL     1      -8.828  -8.790  -8.762  1.00  0.00     0.176 A 
HETATM    8  N2  UNL     1      -9.611  -9.657  -7.894  1.00  0.00    -0.361 N 
HETATM    9  C1  UNL     1     -10.171  -9.006  -6.951  1.00  0.00     0.185 A 
ATOM     10  H2  UNL     1      -9.702 -10.664  -8.024  1.00  0.00     0.162 HD
HETATM   11  N1  UNL     1     -11.014  -9.550  -5.912  1.00  0.00    -0.064 NA
HETATM   12  N6  UNL     1      -9.893  -7.626  -7.002  1.00  0.00    -0.336 N 
ATOM     13  H6  UNL     1     -10.276  -6.896  -6.402  1.00  0.00     0.164 HD
ENDBRANCH   3   6
ENDBRANCH   2   3
ENDBRANCH   1   2
BRANCH   1  14
HETATM   14  C6  UNL     1      -4.331  -6.778  -8.322  1.00  0.00     0.032 C 
BRANCH  14  15
HETATM   15  C7  UNL     1      -3.962  -5.516  -7.620  1.00  0.00     0.273 C 
BRANCH  15  16
HETATM   16  N4  UNL     1      -3.278  -5.781  -6.389  1.00  0.00     0.097 N 
HETATM   17  C8  UNL     1      -4.006  -6.654  -5.549  1.00  0.00     0.292 C 
HETATM   18  C9  UNL     1      -3.076  -7.485  -4.642  1.00  0.00     0.147 C 
HETATM   19  N5  UNL     1      -2.264  -6.610  -3.896  1.00  0.00    -0.400 N 
HETATM   20  C13 UNL     1      -2.866  -5.474  -3.305  1.00  0.00     0.197 C 
HETATM   21  C14 UNL     1      -3.289  -4.552  -4.384  1.00  0.00     0.172 C 
HETATM   22  O1  UNL     1      -4.091  -3.707  -4.059  1.00  0.00    -0.294 OA
HETATM   23  C15 UNL     1      -2.843  -4.547  -5.816  1.00  0.00     0.352 C 
BRANCH  19  24
HETATM   24  C10 UNL     1      -1.020  -7.048  -3.406  1.00  0.00     0.079 A 
HETATM   25  C11 UNL     1      -0.725  -7.470  -2.036  1.00  0.00     0.027 A 
HETATM   26  C12 UNL     1      -0.248  -6.121  -2.534  1.00  0.00     0.027 A 
ENDBRANCH  19  24
ENDBRANCH  15  16
ENDBRANCH  14  15
ENDBRANCH   1  14
TORSDOF 7
ENDMDL
MODEL 2
REMARK VINA RESULT: -8.274769945      1.740      2.336
REMARK  7 active torsions:
REMARK  status: ('A' for Active; 'I' for Inactive)
REMARK    1  A    between atoms: C3_6  and  N3_7 
REMARK    2  A    between atoms: N3_7  and  C4_10 
REMARK    3  A    between atoms: C4_10  and  C5_11 
REMARK    4  A    between atoms: C5_11  and  C6_12 
REMARK    5  A    between atoms: C6_12  and  C7_13 
REMARK    6  A    between atoms: C7_13  and  N4_14 
REMARK    7  A    between atoms: N5_17  and  C10_18 
ROOT
HETATM    1  C5  UNL     1      -6.817  -6.814  -8.890  1.00  0.00     0.029 C 
ENDROOT
BRANCH   1   2
HETATM    2  C4  UNL     1      -7.856  -7.847  -8.597  1.00  0.00     0.235 C 
BRANCH   2   3
HETATM    3  N3  UNL     1      -8.700  -7.435  -7.475  1.00  0.00    -0.053 N 
ATOM      4  H32 UNL     1      -8.722  -6.422  -7.357  1.00  0.00     0.279 HD
ATOM      5  H31 UNL     1      -8.292  -7.675  -6.572  1.00  0.00     0.279 HD
BRANCH   3   6
HETATM    6  C3  UNL     1     -10.011  -7.995  -7.650  1.00  0.00     0.304 A 
HETATM    7  C2  UNL     1      -9.988  -9.121  -8.630  1.00  0.00     0.176 A 
HETATM    8  N2  UNL     1     -10.361 -10.266  -7.813  1.00  0.00    -0.361 N 
HETATM    9  C1  UNL     1     -10.647  -9.925  -6.619  1.00  0.00     0.185 A 
ATOM     10  H2  UNL     1     -10.390 -11.226  -8.156  1.00  0.00     0.162 HD
HETATM   11  N1  UNL     1     -11.052 -10.804  -5.547  1.00  0.00    -0.064 NA
HETATM   12  N6  UNL     1     -10.535  -8.537  -6.407  1.00  0.00    -0.336 N 
ATOM     13  H6  UNL     1     -10.772  -8.021  -5.560  1.00  0.00     0.164 HD
ENDBRANCH   3   6
ENDBRANCH   2   3
ENDBRANCH   1   2
BRANCH   1  14
HETATM   14  C6  UNL     1      -5.550  -7.109  -8.146  1.00  0.00     0.032 C 
BRANCH  14  15
HETATM   15  C7  UNL     1      -4.543  -6.012  -8.208  1.00  0.00     0.273 C 
BRANCH  15  16
HETATM   16  N4  UNL     1      -4.111  -5.621  -6.899  1.00  0.00     0.097 N 
HETATM   17  C8  UNL     1      -2.714  -5.412  -6.836  1.00  0.00     0.292 C 
HETATM   18  C9  UNL     1      -2.338  -4.367  -5.766  1.00  0.00     0.147 C 
HETATM   19  N5  UNL     1      -2.854  -4.780  -4.523  1.00  0.00    -0.400 N 
HETATM   20  C13 UNL     1      -2.709  -6.138  -4.153  1.00  0.00     0.197 C 
HETATM   21  C14 UNL     1      -3.550  -6.962  -5.051  1.00  0.00     0.172 C 
HETATM   22  O1  UNL     1      -3.289  -8.143  -5.067  1.00  0.00    -0.294 OA
HETATM   23  C15 UNL     1      -4.676  -6.506  -5.930  1.00  0.00     0.352 C 
BRANCH  19  24
HETATM   24  C10 UNL     1      -3.120  -3.830  -3.520  1.00  0.00     0.079 A 
HETATM   25  C11 UNL     1      -2.129  -3.094  -2.735  1.00  0.00     0.027 A 
HETATM   26  C12 UNL     1      -2.903  -4.232  -2.103  1.00  0.00     0.027 A 
ENDBRANCH  19  24
ENDBRANCH  15  16
ENDBRANCH  14  15
ENDBRANCH   1  14
TORSDOF 7
ENDMDL
MODEL 3
REMARK VINA RESULT: -8.195616090      1.655      2.056
REMARK  7 active torsions:
REMARK  status: ('A' for Active; 'I' for Inactive)
REMARK    1  A    between atoms: C3_6  and  N3_7 
REMARK    2  A    between atoms: N3_7  and  C4_10 
REMARK    3  A    between atoms: C4_10  and  C5_11 
REMARK    4  A    between atoms: C5_11  and  C6_12 
REMARK    5  A    between atoms: C6_12  and  C7_13 
REMARK    6  A    between atoms: C7_13  and  N4_14 
REMARK    7  A    between atoms: N5_17  and  C10_18 
ROOT
HETATM    1  C5  UNL     1      -6.043  -6.818  -8.885  1.00  0.00     0.029 C 
ENDROOT
BRANCH   1   2
HETATM    2  C4  UNL     1      -7.049  -7.830  -8.441  1.00  0.00     0.235 C 
BRANCH   2   3
HETATM    3  N3  UNL     1      -8.032  -7.228  -7.540  1.00  0.00    -0.053 N 
ATOM      4  H32 UNL     1      -7.953  -6.212  -7.501  1.00  0.00     0.279 HD
ATOM      5  H31 UNL     1      -7.833  -7.424  -6.559  1.00  0.00     0.279 HD
BRANCH   3   6
HETATM    6  C3  UNL     1      -9.345  -7.662  -7.930  1.00  0.00     0.304 A 
HETATM    7  C2  UNL     1      -9.272  -8.806  -8.884  1.00  0.00     0.176 A 
HETATM    8  N2  UNL     1      -9.889  -9.891  -8.135  1.00  0.00    -0.361 N 
HETATM    9  C1  UNL     1     -10.334  -9.496  -7.007  1.00  0.00     0.185 A 
ATOM     10  H2  UNL     1      -9.957 -10.851  -8.471  1.00  0.00     0.162 HD
HETATM   11  N1  UNL     1     -10.999 -10.306  -6.013  1.00  0.00    -0.064 NA
HETATM   12  N6  UNL     1     -10.121  -8.121  -6.788  1.00  0.00    -0.336 N 
ATOM     13  H6  UNL     1     -10.443  -7.564  -5.997  1.00  0.00     0.164 HD
ENDBRANCH   3   6
ENDBRANCH   2   3
ENDBRANCH   1   2
BRANCH   1  14
HETATM   14  C6  UNL     1      -4.829  -6.855  -8.006  1.00  0.00     0.032 C 
BRANCH  14  15
HETATM   15  C7  UNL     1      -4.968  -6.064  -6.750  1.00  0.00     0.273 C 
BRANCH  15  16
HETATM   16  N4  UNL     1      -3.720  -5.959  -6.054  1.00  0.00     0.097 N 
HETATM   17  C8  UNL     1      -2.617  -6.264  -6.884  1.00  0.00     0.292 C 
HETATM   18  C9  UNL     1      -1.344  -5.511  -6.446  1.00  0.00     0.147 C 
HETATM   19  N5  UNL     1      -1.075  -5.814  -5.098  1.00  0.00    -0.400 N 
HETATM   20  C13 UNL     1      -1.184  -7.161  -4.677  1.00  0.00     0.197 C 
HETATM   21  C14 UNL     1      -2.609  -7.557  -4.735  1.00  0.00     0.172 C 
HETATM   22  O1  UNL     1      -2.817  -8.748  -4.715  1.00  0.00    -0.294 OA
HETATM   23  C15 UNL     1      -3.810  -6.662  -4.814  1.00  0.00     0.352 C 
BRANCH  19  24
HETATM   24  C10 UNL     1      -0.334  -4.916  -4.309  1.00  0.00     0.079 A 
HETATM   25  C11 UNL     1      -0.153  -4.979  -2.857  1.00  0.00     0.027 A 
HETATM   26  C12 UNL     1      -1.084  -3.948  -3.462  1.00  0.00     0.027 A 
ENDBRANCH  19  24
ENDBRANCH  15  16
ENDBRANCH  14  15
ENDBRANCH   1  14
TORSDOF 7
ENDMDL
MODEL 4
REMARK VINA RESULT: -8.184269431      1.183      1.498
REMARK  7 active torsions:
REMARK  status: ('A' for Active; 'I' for Inactive)
REMARK    1  A    between atoms: C3_6  and  N3_7 
REMARK    2  A    between atoms: N3_7  and  C4_10 
REMARK    3  A    between atoms: C4_10  and  C5_11 
REMARK    4  A    between atoms: C5_11  and  C6_12 
REMARK    5  A    between atoms: C6_12  and  C7_13 
REMARK    6  A    between atoms: C7_13  and  N4_14 
REMARK    7  A    between atoms: N5_17  and  C10_18 
ROOT
HETATM    1  C5  UNL     1      -5.545  -6.786  -9.166  1.00  0.00     0.029 C 
ENDROOT
BRANCH   1   2
HETATM    2  C4  UNL     1      -6.722  -6.866  -8.250  1.00  0.00     0.235 C 
BRANCH   2   3
HETATM    3  N3  UNL     1      -7.975  -6.817  -9.004  1.00  0.00    -0.053 N 
ATOM      4  H32 UNL     1      -7.826  -6.613  -9.992  1.00  0.00     0.279 HD
ATOM      5  H31 UNL     1      -8.537  -5.998  -8.773  1.00  0.00     0.279 HD
BRANCH   3   6
HETATM    6  C3  UNL     1      -8.688  -8.046  -8.799  1.00  0.00     0.304 A 
HETATM    7  C2  UNL     1      -9.605  -7.948  -7.626  1.00  0.00     0.176 A 
HETATM    8  N2  UNL     1     -10.920  -8.089  -8.232  1.00  0.00    -0.361 N 
HETATM    9  C1  UNL     1     -10.845  -8.320  -9.483  1.00  0.00     0.185 A 
ATOM     10  H2  UNL     1     -11.798  -8.011  -7.717  1.00  0.00     0.162 HD
HETATM   11  N1  UNL     1     -11.952  -8.509 -10.392  1.00  0.00    -0.064 NA
HETATM   12  N6  UNL     1      -9.516  -8.386  -9.946  1.00  0.00    -0.336 N 
ATOM     13  H6  UNL     1      -9.201  -8.623 -10.886  1.00  0.00     0.164 HD
ENDBRANCH   3   6
ENDBRANCH   2   3
ENDBRANCH   1   2
BRANCH   1  14
HETATM   14  C6  UNL     1      -4.264  -6.808  -8.388  1.00  0.00     0.032 C 
BRANCH  14  15
HETATM   15  C7  UNL     1      -3.982  -5.543  -7.652  1.00  0.00     0.273 C 
BRANCH  15  16
HETATM   16  N4  UNL     1      -3.287  -5.793  -6.424  1.00  0.00     0.097 N 
HETATM   17  C8  UNL     1      -4.000  -6.668  -5.573  1.00  0.00     0.292 C 
HETATM   18  C9  UNL     1      -3.055  -7.484  -4.668  1.00  0.00     0.147 C 
HETATM   19  N5  UNL     1      -2.246  -6.595  -3.934  1.00  0.00    -0.400 N 
HETATM   20  C13 UNL     1      -2.855  -5.461  -3.346  1.00  0.00     0.197 C 
HETATM   21  C14 UNL     1      -3.294  -4.551  -4.428  1.00  0.00     0.172 C 
HETATM   22  O1  UNL     1      -4.101  -3.711  -4.102  1.00  0.00    -0.294 OA
HETATM   23  C15 UNL     1      -2.859  -4.551  -5.863  1.00  0.00     0.352 C 
BRANCH  19  24
HETATM   24  C10 UNL     1      -0.995  -7.019  -3.451  1.00  0.00     0.079 A 
HETATM   25  C11 UNL     1      -0.698  -7.485  -2.095  1.00  0.00     0.027 A 
HETATM   26  C12 UNL     1      -0.254  -6.106  -2.536  1.00  0.00     0.027 A 
ENDBRANCH  19  24
ENDBRANCH  15  16
ENDBRANCH  14  15
ENDBRANCH   1  14
TORSDOF 7
ENDMDL
MODEL 5
REMARK VINA RESULT: -8.179974102      1.113      1.121
REMARK  7 active torsions:
REMARK  status: ('A' for Active; 'I' for Inactive)
REMARK    1  A    between atoms: C3_6  and  N3_7 
REMARK    2  A    between atoms: N3_7  and  C4_10 
REMARK    3  A    between atoms: C4_10  and  C5_11 
REMARK    4  A    between atoms: C5_11  and  C6_12 
REMARK    5  A    between atoms: C6_12  and  C7_13 
REMARK    6  A    between atoms: C7_13  and  N4_14 
REMARK    7  A    between atoms: N5_17  and  C10_18 
ROOT
HETATM    1  C5  UNL     1      -5.390  -6.884  -9.013  1.00  0.00     0.029 C 
ENDROOT
BRANCH   1   2
HETATM    2  C4  UNL     1      -6.484  -6.801  -7.997  1.00  0.00     0.235 C 
BRANCH   2   3
HETATM    3  N3  UNL     1      -7.363  -7.967  -8.081  1.00  0.00    -0.053 N 
ATOM      4  H32 UNL     1      -7.844  -8.155  -7.201  1.00  0.00     0.279 HD
ATOM      5  H31 UNL     1      -6.845  -8.842  -8.149  1.00  0.00     0.279 HD
BRANCH   3   6
HETATM    6  C3  UNL     1      -8.275  -7.783  -9.176  1.00  0.00     0.304 A 
HETATM    7  C2  UNL     1      -8.344  -9.006 -10.029  1.00  0.00     0.176 A 
HETATM    8  N2  UNL     1      -9.722  -9.441  -9.857  1.00  0.00    -0.361 N 
HETATM    9  C1  UNL     1     -10.391  -8.627  -9.139  1.00  0.00     0.185 A 
ATOM     10  H2  UNL     1     -10.106 -10.295 -10.262  1.00  0.00     0.162 HD
HETATM   11  N1  UNL     1     -11.782  -8.751  -8.767  1.00  0.00    -0.064 NA
HETATM   12  N6  UNL     1      -9.628  -7.523  -8.712  1.00  0.00    -0.336 N 
ATOM     13  H6  UNL     1      -9.956  -6.712  -8.187  1.00  0.00     0.164 HD
ENDBRANCH   3   6
ENDBRANCH   2   3
ENDBRANCH   1   2
BRANCH   1  14
HETATM   14  C6  UNL     1      -4.048  -6.758  -8.359  1.00  0.00     0.032 C 
BRANCH  14  15
HETATM   15  C7  UNL     1      -3.867  -5.495  -7.589  1.00  0.00     0.273 C 
BRANCH  15  16
HETATM   16  N4  UNL     1      -3.173  -5.725  -6.356  1.00  0.00     0.097 N 
HETATM   17  C8  UNL     1      -3.846  -6.653  -5.528  1.00  0.00     0.292 C 
HETATM   18  C9  UNL     1      -2.867  -7.429  -4.624  1.00  0.00     0.147 C 
HETATM   19  N5  UNL     1      -2.118  -6.509  -3.866  1.00  0.00    -0.400 N 
HETATM   20  C13 UNL     1      -2.796  -5.421  -3.268  1.00  0.00     0.197 C 
HETATM   21  C14 UNL     1      -3.274  -4.519  -4.341  1.00  0.00     0.172 C 
HETATM   22  O1  UNL     1      -4.131  -3.731  -4.012  1.00  0.00    -0.294 OA
HETATM   23  C15 UNL     1      -2.823  -4.471  -5.770  1.00  0.00     0.352 C 
BRANCH  19  24
HETATM   24  C10 UNL     1      -0.850  -6.869  -3.374  1.00  0.00     0.079 A 
HETATM   25  C11 UNL     1      -0.528  -7.255  -1.999  1.00  0.00     0.027 A 
HETATM   26  C12 UNL     1      -0.130  -5.888  -2.516  1.00  0.00     0.027 A 
ENDBRANCH  19  24
ENDBRANCH  15  16
ENDBRANCH  14  15
ENDBRANCH   1  14
TORSDOF 7
ENDMDL
