MODEL 1
REMARK VINA RESULT: -8.291488440      0.000      0.000
REMARK  9 active torsions:
REMARK  status: ('A' for Active; 'I' for Inactive)
REMARK    1  A    between atoms: N1_2  and  C2_3 
REMARK    2  A    between atoms: C2_3  and  C3_4 
REMARK    3  A    between atoms: C3_4  and  C4_5 
REMARK    4  A    between atoms: C4_5  and  N2_6 
REMARK    5  A    between atoms: C7_12  and  C8_13 
REMARK    6  A    between atoms: C8_13  and  O1_14 
REMARK    7  A    between atoms: O1_14  and  C9_15 
REMARK    8  A    between atoms: C10_17  and  C11_18 
REMARK    9  A    between atoms: C11_18  and  O3_19 
ROOT
HETATM    1  C1  UNL     1      -7.599  -9.105 -10.358  1.00  0.00     0.272 C 
HETATM    2  N1  UNL     1      -8.368  -8.096  -9.667  1.00  0.00    -0.070 N 
HETATM    3  C5  UNL     1      -7.880  -6.807 -10.037  1.00  0.00     0.237 C 
HETATM    4  C6  UNL     1      -6.475  -6.804  -9.414  1.00  0.00     0.036 C 
HETATM    5  C7  UNL     1      -6.626  -7.679  -8.198  1.00  0.00     0.037 C 
HETATM    6  C14 UNL     1      -8.052  -8.112  -8.232  1.00  0.00     0.243 C 
ENDROOT
BRANCH   5   7
HETATM    7  C8  UNL     1      -6.362  -6.811  -6.980  1.00  0.00     0.179 C 
BRANCH   7   8
HETATM    8  O1  UNL     1      -5.411  -5.867  -7.346  1.00  0.00    -0.339 OA
BRANCH   8   9
HETATM    9  C9  UNL     1      -4.242  -6.128  -6.664  1.00  0.00     0.416 C 
HETATM   10  O2  UNL     1      -4.568  -6.747  -5.460  1.00  0.00    -0.326 OA
HETATM   11  C10 UNL     1      -3.667  -6.280  -4.504  1.00  0.00     0.216 C 
HETATM   12  C12 UNL     1      -3.376  -4.897  -5.001  1.00  0.00     0.233 C 
HETATM   13  C13 UNL     1      -2.106  -4.261  -4.517  1.00  0.00     0.216 C 
HETATM   14  O4  UNL     1      -4.004  -3.855  -4.340  1.00  0.00    -0.242 OA
HETATM   15  O5  UNL     1      -3.546  -4.965  -6.357  1.00  0.00    -0.296 OA
HETATM   16  N3  UNL     1      -2.929  -3.075  -4.690  1.00  0.00    -0.092 NA
BRANCH  11  17
HETATM   17  C11 UNL     1      -2.429  -7.143  -4.411  1.00  0.00     0.201 C 
BRANCH  17  18
HETATM   18  O3  UNL     1      -2.859  -8.472  -4.426  1.00  0.00    -0.398 OA
ATOM     19  H3  UNL     1      -2.671  -8.813  -5.292  1.00  0.00     0.209 HD
ENDBRANCH  17  18
ENDBRANCH  11  17
ENDBRANCH   8   9
ENDBRANCH   7   8
ENDBRANCH   5   7
BRANCH   2  20
HETATM   20  C2  UNL     1      -9.770  -8.307  -9.795  1.00  0.00     0.238 C 
BRANCH  20  21
HETATM   21  C3  UNL     1     -10.586  -8.316  -8.563  1.00  0.00     0.055 C 
BRANCH  21  22
HETATM   22  C4  UNL     1     -12.005  -8.720  -8.667  1.00  0.00     0.231 C 
BRANCH  22  23
HETATM   23  N2  UNL     1     -12.606  -9.078  -7.397  1.00  0.00    -0.079 N 
ATOM     24  H23 UNL     1     -11.892  -9.172  -6.675  1.00  0.00     0.274 HD
ATOM     25  H22 UNL     1     -13.135  -8.293  -7.015  1.00  0.00     0.274 HD
ATOM     26  H21 UNL     1     -13.188  -9.916  -7.438  1.00  0.00     0.274 HD
ENDBRANCH  22  23
ENDBRANCH  21  22
ENDBRANCH  20  21
ENDBRANCH   2  20
TORSDOF 9
ENDMDL
MODEL 2
REMARK VINA RESULT: -8.274782930      1.351      1.551
REMARK  9 active torsions:
REMARK  status: ('A' for Active; 'I' for Inactive)
REMARK    1  A    between atoms: N1_2  and  C2_3 
REMARK    2  A    between atoms: C2_3  and  C3_4 
REMARK    3  A    between atoms: C3_4  and  C4_5 
REMARK    4  A    between atoms: C4_5  and  N2_6 
REMARK    5  A    between atoms: C7_12  and  C8_13 
REMARK    6  A    between atoms: C8_13  and  O1_14 
REMARK    7  A    between atoms: O1_14  and  C9_15 
REMARK    8  A    between atoms: C10_17  and  C11_18 
REMARK    9  A    between atoms: C11_18  and  O3_19 
ROOT
HETATM    1  C1  UNL     1      -7.704  -9.540 -10.371  1.00  0.00     0.272 C 
HETATM    2  N1  UNL     1      -8.548  -8.610  -9.657  1.00  0.00    -0.070 N 
HETATM    3  C5  UNL     1      -8.366  -7.305 -10.206  1.00  0.00     0.237 C 
HETATM    4  C6  UNL     1      -6.916  -6.988  -9.810  1.00  0.00     0.036 C 
HETATM    5  C7  UNL     1      -6.732  -7.734  -8.516  1.00  0.00     0.037 C 
HETATM    6  C14 UNL     1      -8.042  -8.409  -8.292  1.00  0.00     0.243 C 
ENDROOT
BRANCH   5   7
HETATM    7  C8  UNL     1      -6.472  -6.703  -7.432  1.00  0.00     0.179 C 
BRANCH   7   8
HETATM    8  O1  UNL     1      -5.452  -7.198  -6.628  1.00  0.00    -0.339 OA
BRANCH   8   9
HETATM    9  C9  UNL     1      -4.337  -6.404  -6.790  1.00  0.00     0.416 C 
HETATM   10  O2  UNL     1      -3.234  -7.093  -6.294  1.00  0.00    -0.326 OA
HETATM   11  C10 UNL     1      -2.399  -6.150  -5.696  1.00  0.00     0.216 C 
HETATM   12  C12 UNL     1      -3.380  -5.128  -5.213  1.00  0.00     0.233 C 
HETATM   13  C13 UNL     1      -2.843  -3.752  -4.948  1.00  0.00     0.216 C 
HETATM   14  O4  UNL     1      -3.674  -5.140  -3.860  1.00  0.00    -0.242 OA
HETATM   15  O5  UNL     1      -4.437  -5.214  -6.078  1.00  0.00    -0.296 OA
HETATM   16  N3  UNL     1      -3.920  -3.793  -3.970  1.00  0.00    -0.092 NA
BRANCH  11  17
HETATM   17  C11 UNL     1      -1.388  -5.583  -6.666  1.00  0.00     0.201 C 
BRANCH  17  18
HETATM   18  O3  UNL     1      -0.264  -5.225  -5.918  1.00  0.00    -0.398 OA
ATOM     19  H3  UNL     1      -0.486  -4.429  -5.450  1.00  0.00     0.209 HD
ENDBRANCH  17  18
ENDBRANCH  11  17
ENDBRANCH   8   9
ENDBRANCH   7   8
ENDBRANCH   5   7
BRANCH   2  20
HETATM   20  C2  UNL     1      -9.889  -9.074  -9.549  1.00  0.00     0.238 C 
BRANCH  20  21
HETATM   21  C3  UNL     1     -10.878  -8.572 -10.526  1.00  0.00     0.055 C 
BRANCH  21  22
HETATM   22  C4  UNL     1     -12.298  -8.517 -10.119  1.00  0.00     0.231 C 
BRANCH  22  23
HETATM   23  N2  UNL     1     -12.495  -8.463  -8.684  1.00  0.00    -0.079 N 
ATOM     24  H23 UNL     1     -12.518  -7.495  -8.361  1.00  0.00     0.274 HD
ATOM     25  H22 UNL     1     -13.444  -8.747  -8.440  1.00  0.00     0.274 HD
ATOM     26  H21 UNL     1     -11.811  -9.002  -8.152  1.00  0.00     0.274 HD
ENDBRANCH  22  23
ENDBRANCH  21  22
ENDBRANCH  20  21
ENDBRANCH   2  20
TORSDOF 9
ENDMDL
MODEL 3
REMARK VINA RESULT: -8.155674972      1.407      2.309
REMARK  9 active torsions:
REMARK  status: ('A' for Active; 'I' for Inactive)
REMARK    1  A    between atoms: N1_2  and  C2_3 
REMARK    2  A    between atoms: C2_3  and  C3_4 
REMARK    3  A    between atoms: C3_4  and  C4_5 
REMARK    4  A    between atoms: C4_5  and  N2_6 
REMARK    5  A    between atoms: C7_12  and  C8_13 
REMARK    6  A    between atoms: C8_13  and  O1_14 
REMARK    7  A    between atoms: O1_14  and  C9_15 
REMARK    8  A    between atoms: C10_17  and  C11_18 
REMARK    9  A    between atoms: C11_18  and  O3_19 
ROOT
HETATM    1  C1  UNL     1      -7.741  -9.660 -10.352  1.00  0.00     0.272 C 
HETATM    2  N1  UNL     1      -8.600  -8.594  -9.891  1.00  0.00    -0.070 N 
HETATM    3  C5  UNL     1      -8.138  -7.358 -10.436  1.00  0.00     0.237 C 
HETATM    4  C6  UNL     1      -6.786  -7.181  -9.728  1.00  0.00     0.036 C 
HETATM    5  C7  UNL     1      -6.993  -7.853  -8.397  1.00  0.00     0.037 C 
HETATM    6  C14 UNL     1      -8.393  -8.360  -8.456  1.00  0.00     0.243 C 
ENDROOT
BRANCH   5   7
HETATM    7  C8  UNL     1      -6.856  -6.786  -7.325  1.00  0.00     0.179 C 
BRANCH   7   8
HETATM    8  O1  UNL     1      -5.548  -6.320  -7.372  1.00  0.00    -0.339 OA
BRANCH   8   9
HETATM    9  C9  UNL     1      -5.145  -6.006  -6.092  1.00  0.00     0.416 C 
HETATM   10  O2  UNL     1      -4.091  -5.100  -6.176  1.00  0.00    -0.326 OA
HETATM   11  C10 UNL     1      -3.207  -5.406  -5.141  1.00  0.00     0.216 C 
HETATM   12  C12 UNL     1      -3.394  -6.885  -5.000  1.00  0.00     0.233 C 
HETATM   13  C13 UNL     1      -2.980  -7.494  -3.694  1.00  0.00     0.216 C 
HETATM   14  O4  UNL     1      -2.409  -7.690  -5.546  1.00  0.00    -0.242 OA
HETATM   15  O5  UNL     1      -4.681  -7.120  -5.402  1.00  0.00    -0.296 OA
HETATM   16  N3  UNL     1      -2.727  -8.617  -4.583  1.00  0.00    -0.092 NA
BRANCH  11  17
HETATM   17  C11 UNL     1      -3.525  -4.650  -3.872  1.00  0.00     0.201 C 
BRANCH  17  18
HETATM   18  O3  UNL     1      -3.635  -3.302  -4.219  1.00  0.00    -0.398 OA
ATOM     19  H3  UNL     1      -2.967  -2.836  -3.730  1.00  0.00     0.209 HD
ENDBRANCH  17  18
ENDBRANCH  11  17
ENDBRANCH   8   9
ENDBRANCH   7   8
ENDBRANCH   5   7
BRANCH   2  20
HETATM   20  C2  UNL     1      -9.979  -8.896 -10.078  1.00  0.00     0.238 C 
BRANCH  20  21
HETATM   21  C3  UNL     1     -10.970  -8.125  -9.299  1.00  0.00     0.055 C 
BRANCH  21  22
HETATM   22  C4  UNL     1     -12.289  -8.741  -9.039  1.00  0.00     0.231 C 
BRANCH  22  23
HETATM   23  N2  UNL     1     -12.575  -8.941  -7.632  1.00  0.00    -0.079 N 
ATOM     24  H23 UNL     1     -13.397  -8.405  -7.353  1.00  0.00     0.274 HD
ATOM     25  H22 UNL     1     -12.924  -9.886  -7.466  1.00  0.00     0.274 HD
ATOM     26  H21 UNL     1     -11.787  -8.737  -7.017  1.00  0.00     0.274 HD
ENDBRANCH  22  23
ENDBRANCH  21  22
ENDBRANCH  20  21
ENDBRANCH   2  20
TORSDOF 9
ENDMDL
MODEL 4
REMARK VINA RESULT: -8.127152649      1.785      2.418
REMARK  9 active torsions:
REMARK  status: ('A' for Active; 'I' for Inactive)
REMARK    1  A    between atoms: N1_2  and  C2_3 
REMARK    2  A    between atoms: C2_3  and  C3_4 
REMARK    3  A    between atoms: C3_4  and  C4_5 
REMARK    4  A    between atoms: C4_5  and  N2_6 
REMARK    5  A    between atoms: C7_12  and  C8_13 
REMARK    6  A    between atoms: C8_13  and  O1_14 
REMARK    7  A    between atoms: O1_14  and  C9_15 
REMARK    8  A    between atoms: C10_17  and  C11_18 
REMARK    9  A    between atoms: C11_18  and  O3_19 
ROOT
HETATM    1  C1  UNL     1      -7.866  -9.312  -9.436  1.00  0.00     0.272 C 
HETATM    2  N1  UNL     1      -8.253  -7.964  -9.089  1.00  0.00    -0.070 N 
HETATM    3  C5  UNL     1      -7.772  -7.071 -10.094  1.00  0.00     0.237 C 
HETATM    4  C6  UNL     1      -6.250  -7.163  -9.902  1.00  0.00     0.036 C 
HETATM    5  C7  UNL     1      -6.095  -7.441  -8.431  1.00  0.00     0.037 C 
HETATM    6  C14 UNL     1      -7.494  -7.503  -7.920  1.00  0.00     0.243 C 
ENDROOT
BRANCH   5   7
HETATM    7  C8  UNL     1      -5.357  -6.262  -7.823  1.00  0.00     0.179 C 
BRANCH   7   8
HETATM    8  O1  UNL     1      -5.641  -6.255  -6.463  1.00  0.00    -0.339 OA
BRANCH   8   9
HETATM    9  C9  UNL     1      -4.523  -5.828  -5.779  1.00  0.00     0.416 C 
HETATM   10  O2  UNL     1      -3.427  -5.919  -6.633  1.00  0.00    -0.326 OA
HETATM   11  C10 UNL     1      -2.336  -6.309  -5.856  1.00  0.00     0.216 C 
HETATM   12  C12 UNL     1      -2.991  -7.137  -4.795  1.00  0.00     0.233 C 
HETATM   13  C13 UNL     1      -2.221  -7.332  -3.522  1.00  0.00     0.216 C 
HETATM   14  O4  UNL     1      -2.883  -8.511  -4.925  1.00  0.00    -0.242 OA
HETATM   15  O5  UNL     1      -4.253  -6.623  -4.671  1.00  0.00    -0.296 OA
HETATM   16  N3  UNL     1      -2.967  -8.580  -3.555  1.00  0.00    -0.092 NA
BRANCH  11  17
HETATM   17  C11 UNL     1      -1.579  -5.127  -5.296  1.00  0.00     0.201 C 
BRANCH  17  18
HETATM   18  O3  UNL     1      -0.251  -5.264  -5.704  1.00  0.00    -0.398 OA
ATOM     19  H3  UNL     1      -0.228  -5.082  -6.636  1.00  0.00     0.209 HD
ENDBRANCH  17  18
ENDBRANCH  11  17
ENDBRANCH   8   9
ENDBRANCH   7   8
ENDBRANCH   5   7
BRANCH   2  20
HETATM   20  C2  UNL     1      -9.636  -7.869  -8.763  1.00  0.00     0.238 C 
BRANCH  20  21
HETATM   21  C3  UNL     1     -10.354  -9.114  -8.418  1.00  0.00     0.055 C 
BRANCH  21  22
HETATM   22  C4  UNL     1     -10.737  -9.334  -7.007  1.00  0.00     0.231 C 
BRANCH  22  23
HETATM   23  N2  UNL     1     -10.431  -8.216  -6.136  1.00  0.00    -0.079 N 
ATOM     24  H23 UNL     1     -10.734  -7.339  -6.557  1.00  0.00     0.274 HD
ATOM     25  H22 UNL     1     -11.033  -8.227  -5.312  1.00  0.00     0.274 HD
ATOM     26  H21 UNL     1      -9.450  -8.163  -5.862  1.00  0.00     0.274 HD
ENDBRANCH  22  23
ENDBRANCH  21  22
ENDBRANCH  20  21
ENDBRANCH   2  20
TORSDOF 9
ENDMDL
MODEL 5
REMARK VINA RESULT: -8.102445927      1.752      2.562
REMARK  9 active torsions:
REMARK  status: ('A' for Active; 'I' for Inactive)
REMARK    1  A    between atoms: N1_2  and  C2_3 
REMARK    2  A    between atoms: C2_3  and  C3_4 
REMARK    3  A    between atoms: C3_4  and  C4_5 
REMARK    4  A    between atoms: C4_5  and  N2_6 
REMARK    5  A    between atoms: C7_12  and  C8_13 
REMARK    6  A    between atoms: C8_13  and  O1_14 
REMARK    7  A    between atoms: O1_14  and  C9_15 
REMARK    8  A    between atoms: C10_17  and  C11_18 
REMARK    9  A    between atoms: C11_18  and  O3_19 
ROOT
HETATM    1  C1  UNL     1      -7.370  -8.999  -9.462  1.00  0.00     0.272 C 
HETATM    2  N1  UNL     1      -7.826  -7.713  -8.987  1.00  0.00    -0.070 N 
HETATM    3  C5  UNL     1      -7.294  -6.692  -9.831  1.00  0.00     0.237 C 
HETATM    4  C6  UNL     1      -5.790  -6.774  -9.525  1.00  0.00     0.036 C 
HETATM    5  C7  UNL     1      -5.746  -7.230  -8.091  1.00  0.00     0.037 C 
HETATM    6  C14 UNL     1      -7.178  -7.384  -7.710  1.00  0.00     0.243 C 
ENDROOT
BRANCH   5   7
HETATM    7  C8  UNL     1      -5.096  -6.120  -7.283  1.00  0.00     0.179 C 
BRANCH   7   8
HETATM    8  O1  UNL     1      -4.839  -6.629  -6.016  1.00  0.00    -0.339 OA
BRANCH   8   9
HETATM    9  C9  UNL     1      -4.136  -5.687  -5.296  1.00  0.00     0.416 C 
HETATM   10  O2  UNL     1      -3.625  -4.747  -6.186  1.00  0.00    -0.326 OA
HETATM   11  C10 UNL     1      -2.373  -4.368  -5.705  1.00  0.00     0.216 C 
HETATM   12  C12 UNL     1      -1.911  -5.618  -5.022  1.00  0.00     0.233 C 
HETATM   13  C13 UNL     1      -0.835  -5.462  -3.988  1.00  0.00     0.216 C 
HETATM   14  O4  UNL     1      -0.979  -6.387  -5.698  1.00  0.00    -0.242 OA
HETATM   15  O5  UNL     1      -3.058  -6.246  -4.619  1.00  0.00    -0.296 OA
HETATM   16  N3  UNL     1      -0.528  -6.801  -4.467  1.00  0.00    -0.092 NA
BRANCH  11  17
HETATM   17  C11 UNL     1      -2.451  -3.182  -4.771  1.00  0.00     0.201 C 
BRANCH  17  18
HETATM   18  O3  UNL     1      -2.112  -2.053  -5.519  1.00  0.00    -0.398 OA
ATOM     19  H3  UNL     1      -2.924  -1.605  -5.727  1.00  0.00     0.209 HD
ENDBRANCH  17  18
ENDBRANCH  11  17
ENDBRANCH   8   9
ENDBRANCH   7   8
ENDBRANCH   5   7
BRANCH   2  20
HETATM   20  C2  UNL     1      -9.233  -7.689  -8.769  1.00  0.00     0.238 C 
BRANCH  20  21
HETATM   21  C3  UNL     1      -9.916  -8.973  -8.508  1.00  0.00     0.055 C 
BRANCH  21  22
HETATM   22  C4  UNL     1     -10.754  -9.086  -7.295  1.00  0.00     0.231 C 
BRANCH  22  23
HETATM   23  N2  UNL     1     -10.376  -8.174  -6.235  1.00  0.00    -0.079 N 
ATOM     24  H23 UNL     1     -10.678  -7.224  -6.453  1.00  0.00     0.274 HD
ATOM     25  H22 UNL     1     -10.936  -8.343  -5.398  1.00  0.00     0.274 HD
ATOM     26  H21 UNL     1      -9.381  -8.191  -6.010  1.00  0.00     0.274 HD
ENDBRANCH  22  23
ENDBRANCH  21  22
ENDBRANCH  20  21
ENDBRANCH   2  20
TORSDOF 9
ENDMDL
