MODEL 1
REMARK VINA RESULT: -8.376822493      0.000      0.000
REMARK  14 active torsions:
REMARK  status: ('A' for Active; 'I' for Inactive)
REMARK    1  A    between atoms: N1_1  and  C1_5 
REMARK    2  A    between atoms: C1_5  and  C2_6 
REMARK    3  A    between atoms: C2_6  and  C3_7 
REMARK    4  A    between atoms: C5_12  and  C6_13 
REMARK    5  A    between atoms: C6_13  and  C7_14 
REMARK    6  A    between atoms: C7_14  and  C8_15 
REMARK    7  A    between atoms: C8_15  and  N3_16 
REMARK    8  A    between atoms: C15_28  and  C16_29 
REMARK    9  A    between atoms: C16_29  and  C17_30 
REMARK   10  A    between atoms: C17_30  and  C18_31 
REMARK   11  A    between atoms: C18_31  and  C19_32 
REMARK   12  A    between atoms: C19_32  and  C20_33 
REMARK       I    between atoms: C20_33  and  N7_35 
REMARK   13  A    between atoms: N7_35  and  C21_37 
REMARK   14  A    between atoms: C21_37  and  C22_38 
ROOT
HETATM    1  C3  UNL     1       5.105 -13.021 -23.820  1.00  0.00     0.178 C 
HETATM    2  N2  UNL     1       5.783 -14.246 -23.531  1.00  0.00    -0.342 N 
ATOM      3  H2  UNL     1       5.311 -15.099 -23.831  1.00  0.00     0.163 HD
HETATM    4  C4  UNL     1       7.028 -14.420 -22.880  1.00  0.00     0.268 C 
HETATM    5  O1  UNL     1       7.675 -15.470 -23.235  1.00  0.00    -0.266 OA
HETATM    6  C5  UNL     1       7.637 -13.568 -21.872  1.00  0.00     0.096 C 
HETATM    7  N6  UNL     1       8.400 -14.344 -20.880  1.00  0.00    -0.362 N 
ATOM      8  H6  UNL     1       9.142 -14.948 -21.233  1.00  0.00     0.165 HD
HETATM    9  C10 UNL     1       8.197 -14.327 -19.485  1.00  0.00     0.084 C 
HETATM   10  C11 UNL     1       7.178 -14.785 -18.795  1.00  0.00    -0.010 C 
HETATM   11  C12 UNL     1       5.958 -15.448 -19.281  1.00  0.00     0.028 C 
HETATM   12  C13 UNL     1       4.722 -14.779 -18.738  1.00  0.00     0.006 C 
HETATM   13  C14 UNL     1       4.159 -13.706 -19.599  1.00  0.00     0.025 C 
HETATM   14  C15 UNL     1       3.625 -14.128 -20.927  1.00  0.00     0.084 C 
HETATM   15  N8  UNL     1       3.477 -12.989 -21.806  1.00  0.00    -0.355 N 
ATOM     16  H8  UNL     1       2.559 -12.547 -21.790  1.00  0.00     0.162 HD
HETATM   17  C23 UNL     1       4.394 -12.409 -22.667  1.00  0.00     0.240 C 
HETATM   18  O4  UNL     1       4.668 -11.165 -22.434  1.00  0.00    -0.271 OA
ENDROOT
BRANCH  14  19
HETATM   19  C16 UNL     1       2.342 -14.922 -20.809  1.00  0.00     0.025 C 
BRANCH  19  20
HETATM   20  C17 UNL     1       2.311 -16.189 -21.587  1.00  0.00     0.002 C 
BRANCH  20  21
HETATM   21  C18 UNL     1       3.488 -17.084 -21.269  1.00  0.00     0.009 C 
BRANCH  21  22
HETATM   22  C19 UNL     1       4.447 -17.253 -22.397  1.00  0.00     0.103 C 
BRANCH  22  23
HETATM   23  C20 UNL     1       5.613 -18.061 -21.911  1.00  0.00     0.217 C 
HETATM   24  O2  UNL     1       5.591 -18.588 -20.767  1.00  0.00    -0.274 OA
HETATM   25  N7  UNL     1       6.766 -18.252 -22.721  1.00  0.00    -0.355 N 
ATOM     26  H7  UNL     1       6.780 -17.825 -23.647  1.00  0.00     0.162 HD
BRANCH  25  27
HETATM   27  C21 UNL     1       7.906 -19.010 -22.310  1.00  0.00     0.192 C 
BRANCH  27  28
HETATM   28  C22 UNL     1       9.019 -18.213 -21.763  1.00  0.00     0.250 C 
HETATM   29  O3  UNL     1       8.911 -17.486 -20.809  1.00  0.00    -0.305 OA
ENDBRANCH  27  28
ENDBRANCH  25  27
ENDBRANCH  22  23
ENDBRANCH  21  22
ENDBRANCH  20  21
ENDBRANCH  19  20
ENDBRANCH  14  19
BRANCH   1  30
HETATM   30  C2  UNL     1       4.128 -13.100 -24.977  1.00  0.00     0.062 C 
BRANCH  30  31
HETATM   31  C1  UNL     1       4.265 -12.074 -26.030  1.00  0.00     0.232 C 
BRANCH  31  32
HETATM   32  N1  UNL     1       4.788 -12.539 -27.268  1.00  0.00    -0.079 N 
ATOM     33  H13 UNL     1       4.472 -13.492 -27.446  1.00  0.00     0.274 HD
ATOM     34  H12 UNL     1       4.336 -12.053 -28.043  1.00  0.00     0.274 HD
ATOM     35  H11 UNL     1       5.801 -12.483 -27.363  1.00  0.00     0.274 HD
ENDBRANCH  31  32
ENDBRANCH  30  31
ENDBRANCH   1  30
BRANCH   6  36
HETATM   36  C6  UNL     1       8.301 -12.346 -22.282  1.00  0.00     0.010 C 
BRANCH  36  37
HETATM   37  C7  UNL     1       9.632 -12.257 -22.875  1.00  0.00     0.049 C 
BRANCH  37  38
HETATM   38  C8  UNL     1       9.780 -12.169 -24.354  1.00  0.00     0.126 C 
BRANCH  38  39
HETATM   39  N3  UNL     1       8.917 -13.048 -25.070  1.00  0.00    -0.367 N 
HETATM   40  C9  UNL     1       8.141 -12.974 -26.017  1.00  0.00     0.196 C 
HETATM   41  N4  UNL     1       7.449 -14.186 -26.414  1.00  0.00    -0.067 NA
HETATM   42  N5  UNL     1       7.833 -11.829 -26.780  1.00  0.00    -0.067 NA
ATOM     43  H3  UNL     1       8.955 -13.995 -24.694  1.00  0.00     0.161 HD
ENDBRANCH  38  39
ENDBRANCH  37  38
ENDBRANCH  36  37
ENDBRANCH   6  36
TORSDOF 14
ENDMDL
MODEL 2
REMARK VINA RESULT: -7.992761193      2.903      4.226
REMARK  14 active torsions:
REMARK  status: ('A' for Active; 'I' for Inactive)
REMARK    1  A    between atoms: N1_1  and  C1_5 
REMARK    2  A    between atoms: C1_5  and  C2_6 
REMARK    3  A    between atoms: C2_6  and  C3_7 
REMARK    4  A    between atoms: C5_12  and  C6_13 
REMARK    5  A    between atoms: C6_13  and  C7_14 
REMARK    6  A    between atoms: C7_14  and  C8_15 
REMARK    7  A    between atoms: C8_15  and  N3_16 
REMARK    8  A    between atoms: C15_28  and  C16_29 
REMARK    9  A    between atoms: C16_29  and  C17_30 
REMARK   10  A    between atoms: C17_30  and  C18_31 
REMARK   11  A    between atoms: C18_31  and  C19_32 
REMARK   12  A    between atoms: C19_32  and  C20_33 
REMARK       I    between atoms: C20_33  and  N7_35 
REMARK   13  A    between atoms: N7_35  and  C21_37 
REMARK   14  A    between atoms: C21_37  and  C22_38 
ROOT
HETATM    1  C3  UNL     1       5.106 -13.145 -23.778  1.00  0.00     0.178 C 
HETATM    2  N2  UNL     1       5.808 -14.356 -23.491  1.00  0.00    -0.342 N 
ATOM      3  H2  UNL     1       5.364 -15.216 -23.810  1.00  0.00     0.163 HD
HETATM    4  C4  UNL     1       7.044 -14.508 -22.817  1.00  0.00     0.268 C 
HETATM    5  O1  UNL     1       7.724 -15.537 -23.172  1.00  0.00    -0.266 OA
HETATM    6  C5  UNL     1       7.612 -13.654 -21.786  1.00  0.00     0.096 C 
HETATM    7  N6  UNL     1       8.374 -14.423 -20.789  1.00  0.00    -0.362 N 
ATOM      8  H6  UNL     1       9.138 -15.004 -21.135  1.00  0.00     0.165 HD
HETATM    9  C10 UNL     1       8.144 -14.430 -19.398  1.00  0.00     0.084 C 
HETATM   10  C11 UNL     1       7.123 -14.921 -18.734  1.00  0.00    -0.010 C 
HETATM   11  C12 UNL     1       5.930 -15.608 -19.253  1.00  0.00     0.028 C 
HETATM   12  C13 UNL     1       4.668 -14.977 -18.727  1.00  0.00     0.006 C 
HETATM   13  C14 UNL     1       4.095 -13.907 -19.585  1.00  0.00     0.025 C 
HETATM   14  C15 UNL     1       3.598 -14.325 -20.929  1.00  0.00     0.084 C 
HETATM   15  N8  UNL     1       3.438 -13.179 -21.796  1.00  0.00    -0.355 N 
ATOM     16  H8  UNL     1       2.509 -12.760 -21.793  1.00  0.00     0.162 HD
HETATM   17  C23 UNL     1       4.358 -12.565 -22.631  1.00  0.00     0.240 C 
HETATM   18  O4  UNL     1       4.596 -11.318 -22.378  1.00  0.00    -0.271 OA
ENDROOT
BRANCH  14  19
HETATM   19  C16 UNL     1       2.333 -15.152 -20.845  1.00  0.00     0.025 C 
BRANCH  19  20
HETATM   20  C17 UNL     1       2.464 -16.554 -21.325  1.00  0.00     0.002 C 
BRANCH  20  21
HETATM   21  C18 UNL     1       2.013 -16.712 -22.760  1.00  0.00     0.009 C 
BRANCH  21  22
HETATM   22  C19 UNL     1       0.649 -16.177 -23.033  1.00  0.00     0.103 C 
BRANCH  22  23
HETATM   23  C20 UNL     1      -0.353 -17.245 -22.716  1.00  0.00     0.217 C 
HETATM   24  O2  UNL     1      -0.433 -17.718 -21.551  1.00  0.00    -0.274 OA
HETATM   25  N7  UNL     1      -1.232 -17.751 -23.712  1.00  0.00    -0.355 N 
ATOM     26  H7  UNL     1      -1.165 -17.365 -24.654  1.00  0.00     0.162 HD
BRANCH  25  27
HETATM   27  C21 UNL     1      -2.204 -18.770 -23.468  1.00  0.00     0.192 C 
BRANCH  27  28
HETATM   28  C22 UNL     1      -3.607 -18.339 -23.611  1.00  0.00     0.250 C 
HETATM   29  O3  UNL     1      -4.478 -19.042 -24.056  1.00  0.00    -0.305 OA
ENDBRANCH  27  28
ENDBRANCH  25  27
ENDBRANCH  22  23
ENDBRANCH  21  22
ENDBRANCH  20  21
ENDBRANCH  19  20
ENDBRANCH  14  19
BRANCH   1  30
HETATM   30  C2  UNL     1       4.154 -13.233 -24.955  1.00  0.00     0.062 C 
BRANCH  30  31
HETATM   31  C1  UNL     1       4.174 -12.106 -25.907  1.00  0.00     0.232 C 
BRANCH  31  32
HETATM   32  N1  UNL     1       5.051 -11.038 -25.569  1.00  0.00    -0.079 N 
ATOM     33  H13 UNL     1       4.664 -10.498 -24.796  1.00  0.00     0.274 HD
ATOM     34  H12 UNL     1       5.895 -11.405 -25.128  1.00  0.00     0.274 HD
ATOM     35  H11 UNL     1       5.300 -10.418 -26.339  1.00  0.00     0.274 HD
ENDBRANCH  31  32
ENDBRANCH  30  31
ENDBRANCH   1  30
BRANCH   6  36
HETATM   36  C6  UNL     1       8.253 -12.410 -22.168  1.00  0.00     0.010 C 
BRANCH  36  37
HETATM   37  C7  UNL     1       9.549 -12.288 -22.829  1.00  0.00     0.049 C 
BRANCH  37  38
HETATM   38  C8  UNL     1       9.615 -12.133 -24.308  1.00  0.00     0.126 C 
BRANCH  38  39
HETATM   39  N3  UNL     1       8.828 -13.083 -25.021  1.00  0.00    -0.367 N 
HETATM   40  C9  UNL     1       8.087 -13.087 -25.997  1.00  0.00     0.196 C 
HETATM   41  N4  UNL     1       7.477 -14.349 -26.371  1.00  0.00    -0.067 NA
HETATM   42  N5  UNL     1       7.749 -11.990 -26.815  1.00  0.00    -0.067 NA
ATOM     43  H3  UNL     1       8.902 -14.012 -24.606  1.00  0.00     0.161 HD
ENDBRANCH  38  39
ENDBRANCH  37  38
ENDBRANCH  36  37
ENDBRANCH   6  36
TORSDOF 14
ENDMDL
MODEL 3
REMARK VINA RESULT: -7.991347602      2.849      4.319
REMARK  14 active torsions:
REMARK  status: ('A' for Active; 'I' for Inactive)
REMARK    1  A    between atoms: N1_1  and  C1_5 
REMARK    2  A    between atoms: C1_5  and  C2_6 
REMARK    3  A    between atoms: C2_6  and  C3_7 
REMARK    4  A    between atoms: C5_12  and  C6_13 
REMARK    5  A    between atoms: C6_13  and  C7_14 
REMARK    6  A    between atoms: C7_14  and  C8_15 
REMARK    7  A    between atoms: C8_15  and  N3_16 
REMARK    8  A    between atoms: C15_28  and  C16_29 
REMARK    9  A    between atoms: C16_29  and  C17_30 
REMARK   10  A    between atoms: C17_30  and  C18_31 
REMARK   11  A    between atoms: C18_31  and  C19_32 
REMARK   12  A    between atoms: C19_32  and  C20_33 
REMARK       I    between atoms: C20_33  and  N7_35 
REMARK   13  A    between atoms: N7_35  and  C21_37 
REMARK   14  A    between atoms: C21_37  and  C22_38 
ROOT
HETATM    1  C3  UNL     1       5.023 -13.256 -23.848  1.00  0.00     0.178 C 
HETATM    2  N2  UNL     1       5.629 -14.509 -23.523  1.00  0.00    -0.342 N 
ATOM      3  H2  UNL     1       5.138 -15.341 -23.848  1.00  0.00     0.163 HD
HETATM    4  C4  UNL     1       6.828 -14.736 -22.805  1.00  0.00     0.268 C 
HETATM    5  O1  UNL     1       7.447 -15.815 -23.123  1.00  0.00    -0.266 OA
HETATM    6  C5  UNL     1       7.418 -13.909 -21.765  1.00  0.00     0.096 C 
HETATM    7  N6  UNL     1       8.091 -14.715 -20.733  1.00  0.00    -0.362 N 
ATOM      8  H6  UNL     1       8.824 -15.352 -21.045  1.00  0.00     0.165 HD
HETATM    9  C10 UNL     1       7.814 -14.686 -19.351  1.00  0.00     0.084 C 
HETATM   10  C11 UNL     1       6.739 -15.096 -18.717  1.00  0.00    -0.010 C 
HETATM   11  C12 UNL     1       5.520 -15.707 -19.269  1.00  0.00     0.028 C 
HETATM   12  C13 UNL     1       4.287 -14.982 -18.795  1.00  0.00     0.006 C 
HETATM   13  C14 UNL     1       3.819 -13.888 -19.685  1.00  0.00     0.025 C 
HETATM   14  C15 UNL     1       3.340 -14.290 -21.041  1.00  0.00     0.084 C 
HETATM   15  N8  UNL     1       3.291 -13.148 -21.926  1.00  0.00    -0.355 N 
ATOM     16  H8  UNL     1       2.393 -12.665 -21.960  1.00  0.00     0.162 HD
HETATM   17  C23 UNL     1       4.278 -12.611 -22.736  1.00  0.00     0.240 C 
HETATM   18  O4  UNL     1       4.594 -11.379 -22.489  1.00  0.00    -0.271 OA
ENDROOT
BRANCH  14  19
HETATM   19  C16 UNL     1       2.019 -15.026 -20.992  1.00  0.00     0.025 C 
BRANCH  19  20
HETATM   20  C17 UNL     1       2.083 -16.461 -21.377  1.00  0.00     0.002 C 
BRANCH  20  21
HETATM   21  C18 UNL     1       1.490 -16.713 -22.745  1.00  0.00     0.009 C 
BRANCH  21  22
HETATM   22  C19 UNL     1       0.082 -16.250 -22.894  1.00  0.00     0.103 C 
BRANCH  22  23
HETATM   23  C20 UNL     1      -0.831 -17.372 -22.503  1.00  0.00     0.217 C 
HETATM   24  O2  UNL     1      -0.542 -18.562 -22.801  1.00  0.00    -0.274 OA
HETATM   25  N7  UNL     1      -2.038 -17.127 -21.792  1.00  0.00    -0.355 N 
ATOM     26  H7  UNL     1      -2.268 -16.164 -21.551  1.00  0.00     0.162 HD
BRANCH  25  27
HETATM   27  C21 UNL     1      -2.947 -18.157 -21.395  1.00  0.00     0.192 C 
BRANCH  27  28
HETATM   28  C22 UNL     1      -4.059 -17.710 -20.537  1.00  0.00     0.250 C 
HETATM   29  O3  UNL     1      -3.910 -17.032 -19.552  1.00  0.00    -0.305 OA
ENDBRANCH  27  28
ENDBRANCH  25  27
ENDBRANCH  22  23
ENDBRANCH  21  22
ENDBRANCH  20  21
ENDBRANCH  19  20
ENDBRANCH  14  19
BRANCH   1  30
HETATM   30  C2  UNL     1       4.108 -13.295 -25.057  1.00  0.00     0.062 C 
BRANCH  30  31
HETATM   31  C1  UNL     1       4.343 -12.275 -26.098  1.00  0.00     0.232 C 
BRANCH  31  32
HETATM   32  N1  UNL     1       4.905 -12.760 -27.310  1.00  0.00    -0.079 N 
ATOM     33  H13 UNL     1       5.923 -12.728 -27.262  1.00  0.00     0.274 HD
ATOM     34  H12 UNL     1       4.761 -13.767 -27.385  1.00  0.00     0.274 HD
ATOM     35  H11 UNL     1       4.581 -12.296 -28.158  1.00  0.00     0.274 HD
ENDBRANCH  31  32
ENDBRANCH  30  31
ENDBRANCH   1  30
BRANCH   6  36
HETATM   36  C6  UNL     1       8.157 -12.718 -22.139  1.00  0.00     0.010 C 
BRANCH  36  37
HETATM   37  C7  UNL     1       9.521 -12.690 -22.659  1.00  0.00     0.049 C 
BRANCH  37  38
HETATM   38  C8  UNL     1       9.752 -12.608 -24.127  1.00  0.00     0.126 C 
BRANCH  38  39
HETATM   39  N3  UNL     1       8.866 -13.418 -24.894  1.00  0.00    -0.367 N 
HETATM   40  C9  UNL     1       8.150 -13.286 -25.880  1.00  0.00     0.196 C 
HETATM   41  N4  UNL     1       7.393 -14.442 -26.321  1.00  0.00    -0.067 NA
HETATM   42  N5  UNL     1       7.970 -12.120 -26.652  1.00  0.00    -0.067 NA
ATOM     43  H3  UNL     1       8.814 -14.367 -24.522  1.00  0.00     0.161 HD
ENDBRANCH  38  39
ENDBRANCH  37  38
ENDBRANCH  36  37
ENDBRANCH   6  36
TORSDOF 14
ENDMDL
MODEL 4
REMARK VINA RESULT: -7.891972132     11.362     14.663
REMARK  14 active torsions:
REMARK  status: ('A' for Active; 'I' for Inactive)
REMARK    1  A    between atoms: N1_1  and  C1_5 
REMARK    2  A    between atoms: C1_5  and  C2_6 
REMARK    3  A    between atoms: C2_6  and  C3_7 
REMARK    4  A    between atoms: C5_12  and  C6_13 
REMARK    5  A    between atoms: C6_13  and  C7_14 
REMARK    6  A    between atoms: C7_14  and  C8_15 
REMARK    7  A    between atoms: C8_15  and  N3_16 
REMARK    8  A    between atoms: C15_28  and  C16_29 
REMARK    9  A    between atoms: C16_29  and  C17_30 
REMARK   10  A    between atoms: C17_30  and  C18_31 
REMARK   11  A    between atoms: C18_31  and  C19_32 
REMARK   12  A    between atoms: C19_32  and  C20_33 
REMARK       I    between atoms: C20_33  and  N7_35 
REMARK   13  A    between atoms: N7_35  and  C21_37 
REMARK   14  A    between atoms: C21_37  and  C22_38 
ROOT
HETATM    1  C3  UNL     1      -6.414 -18.668 -22.572  1.00  0.00     0.178 C 
HETATM    2  N2  UNL     1      -7.446 -17.790 -22.118  1.00  0.00    -0.342 N 
ATOM      3  H2  UNL     1      -8.378 -18.197 -22.043  1.00  0.00     0.163 HD
HETATM    4  C4  UNL     1      -7.334 -16.425 -21.758  1.00  0.00     0.268 C 
HETATM    5  O1  UNL     1      -8.184 -16.031 -20.882  1.00  0.00    -0.266 OA
HETATM    6  C5  UNL     1      -6.392 -15.441 -22.267  1.00  0.00     0.096 C 
HETATM    7  N6  UNL     1      -6.991 -14.099 -22.360  1.00  0.00    -0.362 N 
ATOM      8  H6  UNL     1      -7.386 -13.706 -21.505  1.00  0.00     0.165 HD
HETATM    9  C10 UNL     1      -7.069 -13.308 -23.524  1.00  0.00     0.084 C 
HETATM   10  C11 UNL     1      -7.781 -13.506 -24.609  1.00  0.00    -0.010 C 
HETATM   11  C12 UNL     1      -8.705 -14.609 -24.917  1.00  0.00     0.028 C 
HETATM   12  C13 UNL     1      -8.373 -15.241 -26.244  1.00  0.00     0.006 C 
HETATM   13  C14 UNL     1      -7.441 -16.398 -26.174  1.00  0.00     0.025 C 
HETATM   14  C15 UNL     1      -7.938 -17.611 -25.461  1.00  0.00     0.084 C 
HETATM   15  N8  UNL     1      -6.841 -18.491 -25.120  1.00  0.00    -0.355 N 
ATOM     16  H8  UNL     1      -6.635 -19.212 -25.810  1.00  0.00     0.162 HD
HETATM   17  C23 UNL     1      -6.029 -18.500 -23.998  1.00  0.00     0.240 C 
HETATM   18  O4  UNL     1      -4.764 -18.342 -24.224  1.00  0.00    -0.271 OA
ENDROOT
BRANCH  14  19
HETATM   19  C16 UNL     1      -9.022 -18.331 -26.232  1.00  0.00     0.025 C 
BRANCH  19  20
HETATM   20  C17 UNL     1     -10.364 -18.321 -25.591  1.00  0.00     0.002 C 
BRANCH  20  21
HETATM   21  C18 UNL     1     -11.073 -19.650 -25.730  1.00  0.00     0.009 C 
BRANCH  21  22
HETATM   22  C19 UNL     1     -10.163 -20.806 -25.960  1.00  0.00     0.103 C 
BRANCH  22  23
HETATM   23  C20 UNL     1      -9.824 -21.417 -24.634  1.00  0.00     0.217 C 
HETATM   24  O2  UNL     1      -8.961 -22.330 -24.554  1.00  0.00    -0.274 OA
HETATM   25  N7  UNL     1     -10.464 -20.985 -23.439  1.00  0.00    -0.355 N 
ATOM     26  H7  UNL     1     -11.162 -20.245 -23.507  1.00  0.00     0.162 HD
BRANCH  25  27
HETATM   27  C21 UNL     1     -10.183 -21.532 -22.148  1.00  0.00     0.192 C 
BRANCH  27  28
HETATM   28  C22 UNL     1     -11.093 -21.094 -21.075  1.00  0.00     0.250 C 
HETATM   29  O3  UNL     1     -11.529 -21.832 -20.229  1.00  0.00    -0.305 OA
ENDBRANCH  27  28
ENDBRANCH  25  27
ENDBRANCH  22  23
ENDBRANCH  21  22
ENDBRANCH  20  21
ENDBRANCH  19  20
ENDBRANCH  14  19
BRANCH   1  30
HETATM   30  C2  UNL     1      -6.690 -20.140 -22.337  1.00  0.00     0.062 C 
BRANCH  30  31
HETATM   31  C1  UNL     1      -5.535 -20.977 -21.957  1.00  0.00     0.232 C 
BRANCH  31  32
HETATM   32  N1  UNL     1      -4.624 -21.271 -23.008  1.00  0.00    -0.079 N 
ATOM     33  H13 UNL     1      -5.112 -21.733 -23.775  1.00  0.00     0.274 HD
ATOM     34  H12 UNL     1      -4.334 -20.410 -23.471  1.00  0.00     0.274 HD
ATOM     35  H11 UNL     1      -3.806 -21.816 -22.737  1.00  0.00     0.274 HD
ENDBRANCH  31  32
ENDBRANCH  30  31
ENDBRANCH   1  30
BRANCH   6  36
HETATM   36  C6  UNL     1      -5.033 -15.432 -21.761  1.00  0.00     0.010 C 
BRANCH  36  37
HETATM   37  C7  UNL     1      -3.898 -14.755 -22.381  1.00  0.00     0.049 C 
BRANCH  37  38
HETATM   38  C8  UNL     1      -2.681 -15.531 -22.744  1.00  0.00     0.126 C 
BRANCH  38  39
HETATM   39  N3  UNL     1      -2.756 -16.912 -22.399  1.00  0.00    -0.367 N 
HETATM   40  C9  UNL     1      -1.989 -17.787 -22.014  1.00  0.00     0.196 C 
HETATM   41  N4  UNL     1      -2.540 -19.108 -21.781  1.00  0.00    -0.067 NA
HETATM   42  N5  UNL     1      -0.606 -17.660 -21.767  1.00  0.00    -0.067 NA
ATOM     43  H3  UNL     1      -3.706 -17.269 -22.500  1.00  0.00     0.161 HD
ENDBRANCH  38  39
ENDBRANCH  37  38
ENDBRANCH  36  37
ENDBRANCH   6  36
TORSDOF 14
ENDMDL
MODEL 5
REMARK VINA RESULT: -7.864718433      2.900      6.776
REMARK  14 active torsions:
REMARK  status: ('A' for Active; 'I' for Inactive)
REMARK    1  A    between atoms: N1_1  and  C1_5 
REMARK    2  A    between atoms: C1_5  and  C2_6 
REMARK    3  A    between atoms: C2_6  and  C3_7 
REMARK    4  A    between atoms: C5_12  and  C6_13 
REMARK    5  A    between atoms: C6_13  and  C7_14 
REMARK    6  A    between atoms: C7_14  and  C8_15 
REMARK    7  A    between atoms: C8_15  and  N3_16 
REMARK    8  A    between atoms: C15_28  and  C16_29 
REMARK    9  A    between atoms: C16_29  and  C17_30 
REMARK   10  A    between atoms: C17_30  and  C18_31 
REMARK   11  A    between atoms: C18_31  and  C19_32 
REMARK   12  A    between atoms: C19_32  and  C20_33 
REMARK       I    between atoms: C20_33  and  N7_35 
REMARK   13  A    between atoms: N7_35  and  C21_37 
REMARK   14  A    between atoms: C21_37  and  C22_38 
ROOT
HETATM    1  C3  UNL     1       4.183 -14.745 -23.944  1.00  0.00     0.178 C 
HETATM    2  N2  UNL     1       4.481 -13.709 -23.007  1.00  0.00    -0.342 N 
ATOM      3  H2  UNL     1       5.257 -13.094 -23.251  1.00  0.00     0.163 HD
HETATM    4  C4  UNL     1       3.831 -13.429 -21.780  1.00  0.00     0.268 C 
HETATM    5  O1  UNL     1       3.866 -12.197 -21.424  1.00  0.00    -0.266 OA
HETATM    6  C5  UNL     1       3.153 -14.362 -20.895  1.00  0.00     0.096 C 
HETATM    7  N6  UNL     1       3.320 -14.000 -19.477  1.00  0.00    -0.362 N 
ATOM      8  H6  UNL     1       3.019 -13.066 -19.197  1.00  0.00     0.165 HD
HETATM    9  C10 UNL     1       3.859 -14.827 -18.471  1.00  0.00     0.084 C 
HETATM   10  C11 UNL     1       5.094 -15.249 -18.325  1.00  0.00    -0.010 C 
HETATM   11  C12 UNL     1       6.269 -14.974 -19.167  1.00  0.00     0.028 C 
HETATM   12  C13 UNL     1       6.957 -16.251 -19.573  1.00  0.00     0.006 C 
HETATM   13  C14 UNL     1       6.500 -16.828 -20.865  1.00  0.00     0.025 C 
HETATM   14  C15 UNL     1       6.776 -16.020 -22.090  1.00  0.00     0.084 C 
HETATM   15  N8  UNL     1       5.962 -16.473 -23.197  1.00  0.00    -0.355 N 
ATOM     16  H8  UNL     1       6.396 -17.177 -23.793  1.00  0.00     0.162 HD
HETATM   17  C23 UNL     1       4.683 -16.094 -23.568  1.00  0.00     0.240 C 
HETATM   18  O4  UNL     1       3.804 -17.045 -23.592  1.00  0.00    -0.271 OA
ENDROOT
BRANCH  14  19
HETATM   19  C16 UNL     1       8.246 -15.991 -22.444  1.00  0.00     0.025 C 
BRANCH  19  20
HETATM   20  C17 UNL     1       8.843 -14.632 -22.546  1.00  0.00     0.002 C 
BRANCH  20  21
HETATM   21  C18 UNL     1       7.916 -13.560 -22.018  1.00  0.00     0.009 C 
BRANCH  21  22
HETATM   22  C19 UNL     1       8.467 -12.179 -22.111  1.00  0.00     0.103 C 
BRANCH  22  23
HETATM   23  C20 UNL     1       7.614 -11.390 -23.059  1.00  0.00     0.217 C 
HETATM   24  O2  UNL     1       6.400 -11.176 -22.797  1.00  0.00    -0.274 OA
HETATM   25  N7  UNL     1       8.146 -10.867 -24.269  1.00  0.00    -0.355 N 
ATOM     26  H7  UNL     1       9.129 -11.041 -24.478  1.00  0.00     0.162 HD
BRANCH  25  27
HETATM   27  C21 UNL     1       7.381 -10.111 -25.210  1.00  0.00     0.192 C 
BRANCH  27  28
HETATM   28  C22 UNL     1       7.513 -10.545 -26.612  1.00  0.00     0.250 C 
HETATM   29  O3  UNL     1       8.164 -11.498 -26.956  1.00  0.00    -0.305 OA
ENDBRANCH  27  28
ENDBRANCH  25  27
ENDBRANCH  22  23
ENDBRANCH  21  22
ENDBRANCH  20  21
ENDBRANCH  19  20
ENDBRANCH  14  19
BRANCH   1  30
HETATM   30  C2  UNL     1       4.638 -14.461 -25.362  1.00  0.00     0.062 C 
BRANCH  30  31
HETATM   31  C1  UNL     1       5.816 -13.585 -25.516  1.00  0.00     0.232 C 
BRANCH  31  32
HETATM   32  N1  UNL     1       7.053 -14.257 -25.716  1.00  0.00    -0.079 N 
ATOM     33  H13 UNL     1       7.208 -14.934 -24.969  1.00  0.00     0.274 HD
ATOM     34  H12 UNL     1       6.985 -14.885 -26.517  1.00  0.00     0.274 HD
ATOM     35  H11 UNL     1       7.868 -13.652 -25.814  1.00  0.00     0.274 HD
ENDBRANCH  31  32
ENDBRANCH  30  31
ENDBRANCH   1  30
BRANCH   6  36
HETATM   36  C6  UNL     1       1.812 -14.804 -21.222  1.00  0.00     0.010 C 
BRANCH  36  37
HETATM   37  C7  UNL     1       1.446 -16.135 -21.699  1.00  0.00     0.049 C 
BRANCH  37  38
HETATM   38  C8  UNL     1       0.387 -16.285 -22.734  1.00  0.00     0.126 C 
BRANCH  38  39
HETATM   39  N3  UNL     1      -0.898 -16.592 -22.202  1.00  0.00    -0.367 N 
HETATM   40  C9  UNL     1      -1.670 -17.545 -22.204  1.00  0.00     0.196 C 
HETATM   41  N4  UNL     1      -2.926 -17.393 -21.494  1.00  0.00    -0.067 NA
HETATM   42  N5  UNL     1      -1.479 -18.795 -22.827  1.00  0.00    -0.067 NA
ATOM     43  H3  UNL     1      -1.280 -15.806 -21.676  1.00  0.00     0.161 HD
ENDBRANCH  38  39
ENDBRANCH  37  38
ENDBRANCH  36  37
ENDBRANCH   6  36
TORSDOF 14
ENDMDL
