MODEL 1
REMARK VINA RESULT: -8.291635298      0.000      0.000
REMARK  15 active torsions:
REMARK  status: ('A' for Active; 'I' for Inactive)
REMARK    1  A    between atoms: N1_1  and  C1_5 
REMARK    2  A    between atoms: C1_5  and  C2_6 
REMARK    3  A    between atoms: C2_6  and  C3_7 
REMARK    4  A    between atoms: C3_7  and  C4_8 
REMARK    5  A    between atoms: C6_13  and  C7_14 
REMARK    6  A    between atoms: C8_15  and  C9_16 
REMARK    7  A    between atoms: C9_16  and  O2_17 
REMARK    8  A    between atoms: C16_27  and  C17_28 
REMARK       I    between atoms: C17_28  and  N4_30 
REMARK    9  A    between atoms: N4_30  and  C18_32 
REMARK   10  A    between atoms: C18_32  and  C19_33 
REMARK   11  A    between atoms: C19_33  and  C20_34 
REMARK   12  A    between atoms: C20_34  and  C21_35 
REMARK   13  A    between atoms: C21_35  and  N5_36 
REMARK       I    between atoms: N5_36  and  C22_38 
REMARK   14  A    between atoms: C22_38  and  C23_40 
REMARK   15  A    between atoms: C23_40  and  N6_41 
ROOT
HETATM    1  C9  UNL     1       7.773 -14.726 -21.647  1.00  0.00     0.092 C 
HETATM    2  C10 UNL     1       8.777 -14.426 -20.568  1.00  0.00     0.049 C 
HETATM    3  C11 UNL     1       9.907 -15.419 -20.513  1.00  0.00     0.061 C 
HETATM    4  C12 UNL     1       9.311 -16.757 -20.251  1.00  0.00     0.016 A 
HETATM    5  N3  UNL     1       9.632 -17.790 -19.449  1.00  0.00    -0.369 N 
ATOM      6  H3  UNL     1      10.437 -17.805 -18.823  1.00  0.00     0.165 HD
HETATM    7  C13 UNL     1       8.763 -18.787 -19.580  1.00  0.00     0.089 A 
HETATM    8  C14 UNL     1       7.842 -18.358 -20.519  1.00  0.00     0.027 A 
HETATM    9  C15 UNL     1       8.184 -17.091 -20.938  1.00  0.00    -0.018 A 
HETATM   10  C16 UNL     1       7.563 -16.169 -21.911  1.00  0.00     0.151 C 
ENDROOT
BRANCH   1  11
HETATM   11  C8  UNL     1       8.102 -14.035 -22.919  1.00  0.00     0.008 C 
HETATM   12  C7  UNL     1       7.477 -12.954 -23.342  1.00  0.00    -0.013 C 
BRANCH  12  13
HETATM   13  C6  UNL     1       7.783 -12.251 -24.596  1.00  0.00     0.107 C 
HETATM   14  C5  UNL     1       6.822 -11.171 -24.925  1.00  0.00     0.226 C 
HETATM   15  N2  UNL     1       5.565 -11.527 -25.444  1.00  0.00    -0.349 N 
HETATM   16  O1  UNL     1       7.098  -9.934 -24.753  1.00  0.00    -0.273 OA
HETATM   17  C4  UNL     1       5.412 -12.621 -26.362  1.00  0.00     0.154 C 
ATOM     18  H2  UNL     1       4.741 -10.995 -25.163  1.00  0.00     0.163 HD
HETATM   19  C25 UNL     1       6.482 -13.605 -26.197  1.00  0.00     0.150 C 
HETATM   20  C24 UNL     1       7.822 -13.258 -25.725  1.00  0.00     0.098 C 
HETATM   21  O5  UNL     1       6.229 -14.772 -26.472  1.00  0.00    -0.296 OA
BRANCH  17  22
HETATM   22  C3  UNL     1       5.204 -12.146 -27.785  1.00  0.00     0.034 C 
BRANCH  22  23
HETATM   23  C2  UNL     1       3.863 -12.480 -28.351  1.00  0.00     0.029 C 
BRANCH  23  24
HETATM   24  C1  UNL     1       3.907 -13.843 -29.047  1.00  0.00     0.230 C 
BRANCH  24  25
HETATM   25  N1  UNL     1       3.514 -13.688 -30.431  1.00  0.00    -0.079 N 
ATOM     26  H13 UNL     1       2.595 -14.089 -30.619  1.00  0.00     0.274 HD
ATOM     27  H12 UNL     1       3.300 -12.719 -30.665  1.00  0.00     0.274 HD
ATOM     28  H11 UNL     1       4.238 -14.081 -31.034  1.00  0.00     0.274 HD
ENDBRANCH  24  25
ENDBRANCH  23  24
ENDBRANCH  22  23
ENDBRANCH  17  22
ENDBRANCH  12  13
ENDBRANCH   1  11
BRANCH   1  29
HETATM   29  O2  UNL     1       6.563 -14.122 -21.218  1.00  0.00    -0.385 OA
ATOM     30  H2  UNL     1       6.610 -14.146 -20.270  1.00  0.00     0.211 HD
ENDBRANCH   1  29
BRANCH  10  31
HETATM   31  C17 UNL     1       6.103 -16.458 -21.893  1.00  0.00     0.229 C 
HETATM   32  O3  UNL     1       5.528 -16.576 -20.812  1.00  0.00    -0.273 OA
HETATM   33  N4  UNL     1       5.435 -16.585 -23.135  1.00  0.00    -0.360 N 
ATOM     34  H4  UNL     1       5.992 -16.474 -23.983  1.00  0.00     0.162 HD
BRANCH  33  35
HETATM   35  C18 UNL     1       4.021 -16.859 -23.292  1.00  0.00     0.122 C 
BRANCH  35  36
HETATM   36  C19 UNL     1       3.354 -15.680 -23.914  1.00  0.00     0.021 C 
BRANCH  36  37
HETATM   37  C20 UNL     1       4.112 -14.401 -23.601  1.00  0.00     0.021 C 
BRANCH  37  38
HETATM   38  C21 UNL     1       3.456 -13.534 -22.596  1.00  0.00     0.122 C 
BRANCH  38  39
HETATM   39  N5  UNL     1       3.565 -14.099 -21.282  1.00  0.00    -0.360 N 
HETATM   40  C22 UNL     1       3.259 -13.449 -20.088  1.00  0.00     0.243 C 
HETATM   41  O4  UNL     1       2.847 -12.244 -20.102  1.00  0.00    -0.272 OA
ATOM     42  H5  UNL     1       3.896 -15.062 -21.216  1.00  0.00     0.162 HD
BRANCH  40  43
HETATM   43  C23 UNL     1       3.401 -14.128 -18.773  1.00  0.00     0.331 C 
BRANCH  43  44
HETATM   44  N6  UNL     1       4.668 -14.806 -18.724  1.00  0.00    -0.071 N 
ATOM     45  H63 UNL     1       4.969 -15.133 -19.643  1.00  0.00     0.274 HD
ATOM     46  H62 UNL     1       5.442 -14.168 -18.538  1.00  0.00     0.274 HD
ATOM     47  H61 UNL     1       4.619 -15.563 -18.042  1.00  0.00     0.274 HD
ENDBRANCH  43  44
ENDBRANCH  40  43
ENDBRANCH  38  39
ENDBRANCH  37  38
ENDBRANCH  36  37
ENDBRANCH  35  36
ENDBRANCH  33  35
ENDBRANCH  10  31
TORSDOF 15
ENDMDL
MODEL 2
REMARK VINA RESULT: -8.174207468      2.289      5.101
REMARK  15 active torsions:
REMARK  status: ('A' for Active; 'I' for Inactive)
REMARK    1  A    between atoms: N1_1  and  C1_5 
REMARK    2  A    between atoms: C1_5  and  C2_6 
REMARK    3  A    between atoms: C2_6  and  C3_7 
REMARK    4  A    between atoms: C3_7  and  C4_8 
REMARK    5  A    between atoms: C6_13  and  C7_14 
REMARK    6  A    between atoms: C8_15  and  C9_16 
REMARK    7  A    between atoms: C9_16  and  O2_17 
REMARK    8  A    between atoms: C16_27  and  C17_28 
REMARK       I    between atoms: C17_28  and  N4_30 
REMARK    9  A    between atoms: N4_30  and  C18_32 
REMARK   10  A    between atoms: C18_32  and  C19_33 
REMARK   11  A    between atoms: C19_33  and  C20_34 
REMARK   12  A    between atoms: C20_34  and  C21_35 
REMARK   13  A    between atoms: C21_35  and  N5_36 
REMARK       I    between atoms: N5_36  and  C22_38 
REMARK   14  A    between atoms: C22_38  and  C23_40 
REMARK   15  A    between atoms: C23_40  and  N6_41 
ROOT
HETATM    1  C9  UNL     1       4.743 -15.063 -23.450  1.00  0.00     0.092 C 
HETATM    2  C10 UNL     1       4.199 -15.512 -24.778  1.00  0.00     0.049 C 
HETATM    3  C11 UNL     1       2.744 -15.176 -24.970  1.00  0.00     0.061 C 
HETATM    4  C12 UNL     1       1.984 -15.858 -23.888  1.00  0.00     0.016 A 
HETATM    5  N3  UNL     1       0.832 -16.554 -23.842  1.00  0.00    -0.369 N 
ATOM      6  H3  UNL     1       0.236 -16.737 -24.649  1.00  0.00     0.165 HD
HETATM    7  C13 UNL     1       0.573 -16.969 -22.606  1.00  0.00     0.089 A 
HETATM    8  C14 UNL     1       1.620 -16.508 -21.830  1.00  0.00     0.027 A 
HETATM    9  C15 UNL     1       2.501 -15.815 -22.629  1.00  0.00    -0.018 A 
HETATM   10  C16 UNL     1       3.771 -15.120 -22.333  1.00  0.00     0.151 C 
ENDROOT
BRANCH   1  11
HETATM   11  C8  UNL     1       5.332 -13.702 -23.522  1.00  0.00     0.008 C 
HETATM   12  C7  UNL     1       6.310 -13.375 -24.344  1.00  0.00    -0.013 C 
BRANCH  12  13
HETATM   13  C6  UNL     1       6.909 -12.037 -24.435  1.00  0.00     0.107 C 
HETATM   14  C5  UNL     1       5.997 -10.944 -24.022  1.00  0.00     0.226 C 
HETATM   15  N2  UNL     1       4.987 -10.540 -24.915  1.00  0.00    -0.349 N 
HETATM   16  O1  UNL     1       6.097 -10.360 -22.889  1.00  0.00    -0.273 OA
HETATM   17  C4  UNL     1       5.212 -10.488 -26.332  1.00  0.00     0.154 C 
ATOM     18  H2  UNL     1       4.073 -10.277 -24.547  1.00  0.00     0.163 HD
HETATM   19  C25 UNL     1       6.269 -11.414 -26.736  1.00  0.00     0.150 C 
HETATM   20  C24 UNL     1       7.373 -11.803 -25.857  1.00  0.00     0.098 C 
HETATM   21  O5  UNL     1       6.215 -11.881 -27.868  1.00  0.00    -0.296 OA
BRANCH  17  22
HETATM   22  C3  UNL     1       5.395  -9.067 -26.827  1.00  0.00     0.034 C 
BRANCH  22  23
HETATM   23  C2  UNL     1       4.426  -8.662 -27.889  1.00  0.00     0.029 C 
BRANCH  23  24
HETATM   24  C1  UNL     1       3.078  -9.355 -27.669  1.00  0.00     0.230 C 
BRANCH  24  25
HETATM   25  N1  UNL     1       2.739 -10.127 -28.845  1.00  0.00    -0.079 N 
ATOM     26  H13 UNL     1       3.426 -10.856 -29.039  1.00  0.00     0.274 HD
ATOM     27  H12 UNL     1       1.930 -10.729 -28.692  1.00  0.00     0.274 HD
ATOM     28  H11 UNL     1       2.609  -9.498 -29.637  1.00  0.00     0.274 HD
ENDBRANCH  24  25
ENDBRANCH  23  24
ENDBRANCH  22  23
ENDBRANCH  17  22
ENDBRANCH  12  13
ENDBRANCH   1  11
BRANCH   1  29
HETATM   29  O2  UNL     1       5.848 -15.913 -23.187  1.00  0.00    -0.385 OA
ATOM     30  H2  UNL     1       5.746 -16.159 -22.275  1.00  0.00     0.211 HD
ENDBRANCH   1  29
BRANCH  10  31
HETATM   31  C17 UNL     1       4.389 -15.843 -21.188  1.00  0.00     0.229 C 
HETATM   32  O3  UNL     1       4.417 -17.072 -21.200  1.00  0.00    -0.273 OA
HETATM   33  N4  UNL     1       4.924 -15.073 -20.127  1.00  0.00    -0.360 N 
ATOM     34  H4  UNL     1       4.854 -14.057 -20.200  1.00  0.00     0.162 HD
BRANCH  33  35
HETATM   35  C18 UNL     1       5.562 -15.619 -18.946  1.00  0.00     0.122 C 
BRANCH  35  36
HETATM   36  C19 UNL     1       6.919 -15.023 -18.796  1.00  0.00     0.021 C 
BRANCH  36  37
HETATM   37  C20 UNL     1       7.530 -14.718 -20.153  1.00  0.00     0.021 C 
BRANCH  37  38
HETATM   38  C21 UNL     1       8.610 -15.646 -20.558  1.00  0.00     0.122 C 
BRANCH  38  39
HETATM   39  N5  UNL     1       8.080 -16.761 -21.288  1.00  0.00    -0.360 N 
HETATM   40  C22 UNL     1       7.905 -18.051 -20.790  1.00  0.00     0.243 C 
HETATM   41  O4  UNL     1       8.232 -18.324 -19.589  1.00  0.00    -0.272 OA
ATOM     42  H5  UNL     1       7.806 -16.596 -22.257  1.00  0.00     0.162 HD
BRANCH  40  43
HETATM   43  C23 UNL     1       7.339 -19.139 -21.630  1.00  0.00     0.331 C 
BRANCH  43  44
HETATM   44  N6  UNL     1       6.638 -18.562 -22.745  1.00  0.00    -0.071 N 
ATOM     45  H63 UNL     1       5.662 -18.855 -22.783  1.00  0.00     0.274 HD
ATOM     46  H62 UNL     1       6.484 -17.561 -22.630  1.00  0.00     0.274 HD
ATOM     47  H61 UNL     1       7.141 -18.779 -23.606  1.00  0.00     0.274 HD
ENDBRANCH  43  44
ENDBRANCH  40  43
ENDBRANCH  38  39
ENDBRANCH  37  38
ENDBRANCH  36  37
ENDBRANCH  35  36
ENDBRANCH  33  35
ENDBRANCH  10  31
TORSDOF 15
ENDMDL
MODEL 3
REMARK VINA RESULT: -8.125632646      2.326      3.179
REMARK  15 active torsions:
REMARK  status: ('A' for Active; 'I' for Inactive)
REMARK    1  A    between atoms: N1_1  and  C1_5 
REMARK    2  A    between atoms: C1_5  and  C2_6 
REMARK    3  A    between atoms: C2_6  and  C3_7 
REMARK    4  A    between atoms: C3_7  and  C4_8 
REMARK    5  A    between atoms: C6_13  and  C7_14 
REMARK    6  A    between atoms: C8_15  and  C9_16 
REMARK    7  A    between atoms: C9_16  and  O2_17 
REMARK    8  A    between atoms: C16_27  and  C17_28 
REMARK       I    between atoms: C17_28  and  N4_30 
REMARK    9  A    between atoms: N4_30  and  C18_32 
REMARK   10  A    between atoms: C18_32  and  C19_33 
REMARK   11  A    between atoms: C19_33  and  C20_34 
REMARK   12  A    between atoms: C20_34  and  C21_35 
REMARK   13  A    between atoms: C21_35  and  N5_36 
REMARK       I    between atoms: N5_36  and  C22_38 
REMARK   14  A    between atoms: C22_38  and  C23_40 
REMARK   15  A    between atoms: C23_40  and  N6_41 
ROOT
HETATM    1  C9  UNL     1       9.034 -15.002 -22.032  1.00  0.00     0.092 C 
HETATM    2  C10 UNL     1      10.091 -16.070 -21.981  1.00  0.00     0.049 C 
HETATM    3  C11 UNL     1       9.789 -17.249 -22.868  1.00  0.00     0.061 C 
HETATM    4  C12 UNL     1       8.500 -17.832 -22.410  1.00  0.00     0.016 A 
HETATM    5  N3  UNL     1       8.052 -19.086 -22.207  1.00  0.00    -0.369 N 
ATOM      6  H3  UNL     1       8.607 -19.927 -22.359  1.00  0.00     0.165 HD
HETATM    7  C13 UNL     1       6.792 -19.082 -21.783  1.00  0.00     0.089 A 
HETATM    8  C14 UNL     1       6.424 -17.751 -21.717  1.00  0.00     0.027 A 
HETATM    9  C15 UNL     1       7.490 -16.970 -22.107  1.00  0.00    -0.018 A 
HETATM   10  C16 UNL     1       7.654 -15.506 -22.224  1.00  0.00     0.151 C 
ENDROOT
BRANCH   1  11
HETATM   11  C8  UNL     1       9.331 -13.976 -23.064  1.00  0.00     0.008 C 
HETATM   12  C7  UNL     1       8.657 -13.863 -24.192  1.00  0.00    -0.013 C 
BRANCH  12  13
HETATM   13  C6  UNL     1       8.930 -12.858 -25.228  1.00  0.00     0.107 C 
HETATM   14  C5  UNL     1       8.996 -11.469 -24.712  1.00  0.00     0.226 C 
HETATM   15  N2  UNL     1       7.793 -10.810 -24.405  1.00  0.00    -0.349 N 
HETATM   16  O1  UNL     1      10.105 -10.856 -24.537  1.00  0.00    -0.273 OA
HETATM   17  C4  UNL     1       6.613 -10.984 -25.206  1.00  0.00     0.154 C 
ATOM     18  H2  UNL     1       7.756 -10.193 -23.593  1.00  0.00     0.163 HD
HETATM   19  C25 UNL     1       6.629 -12.271 -25.900  1.00  0.00     0.150 C 
HETATM   20  C24 UNL     1       7.861 -12.953 -26.296  1.00  0.00     0.098 C 
HETATM   21  O5  UNL     1       5.550 -12.792 -26.156  1.00  0.00    -0.296 OA
BRANCH  17  22
HETATM   22  C3  UNL     1       6.350  -9.788 -26.098  1.00  0.00     0.034 C 
BRANCH  22  23
HETATM   23  C2  UNL     1       4.904  -9.536 -26.372  1.00  0.00     0.029 C 
BRANCH  23  24
HETATM   24  C1  UNL     1       4.661  -9.432 -27.881  1.00  0.00     0.230 C 
BRANCH  24  25
HETATM   25  N1  UNL     1       5.831  -9.904 -28.589  1.00  0.00    -0.079 N 
ATOM     26  H13 UNL     1       6.174  -9.223 -29.266  1.00  0.00     0.274 HD
ATOM     27  H12 UNL     1       6.656  -9.941 -27.990  1.00  0.00     0.274 HD
ATOM     28  H11 UNL     1       5.625 -10.806 -29.019  1.00  0.00     0.274 HD
ENDBRANCH  24  25
ENDBRANCH  23  24
ENDBRANCH  22  23
ENDBRANCH  17  22
ENDBRANCH  12  13
ENDBRANCH   1  11
BRANCH   1  29
HETATM   29  O2  UNL     1       9.138 -14.306 -20.801  1.00  0.00    -0.385 OA
ATOM     30  H2  UNL     1      10.067 -14.317 -20.600  1.00  0.00     0.211 HD
ENDBRANCH   1  29
BRANCH  10  31
HETATM   31  C17 UNL     1       6.767 -14.899 -21.195  1.00  0.00     0.229 C 
HETATM   32  O3  UNL     1       6.079 -13.925 -21.495  1.00  0.00    -0.273 OA
HETATM   33  N4  UNL     1       6.756 -15.478 -19.903  1.00  0.00    -0.360 N 
ATOM     34  H4  UNL     1       7.362 -16.283 -19.741  1.00  0.00     0.162 HD
BRANCH  33  35
HETATM   35  C18 UNL     1       5.949 -15.012 -18.793  1.00  0.00     0.122 C 
BRANCH  35  36
HETATM   36  C19 UNL     1       4.533 -15.427 -19.002  1.00  0.00     0.021 C 
BRANCH  36  37
HETATM   37  C20 UNL     1       3.588 -14.256 -18.790  1.00  0.00     0.021 C 
BRANCH  37  38
HETATM   38  C21 UNL     1       2.702 -13.972 -19.941  1.00  0.00     0.122 C 
BRANCH  38  39
HETATM   39  N5  UNL     1       2.865 -14.958 -20.969  1.00  0.00    -0.360 N 
HETATM   40  C22 UNL     1       1.873 -15.392 -21.846  1.00  0.00     0.243 C 
HETATM   41  O4  UNL     1       0.696 -14.910 -21.771  1.00  0.00    -0.272 OA
ATOM     42  H5  UNL     1       3.789 -15.379 -21.068  1.00  0.00     0.162 HD
BRANCH  40  43
HETATM   43  C23 UNL     1       2.147 -16.419 -22.885  1.00  0.00     0.331 C 
BRANCH  43  44
HETATM   44  N6  UNL     1       1.244 -16.232 -23.988  1.00  0.00    -0.071 N 
ATOM     45  H63 UNL     1       0.560 -16.985 -24.061  1.00  0.00     0.274 HD
ATOM     46  H62 UNL     1       0.593 -15.462 -23.829  1.00  0.00     0.274 HD
ATOM     47  H61 UNL     1       1.781 -16.113 -24.846  1.00  0.00     0.274 HD
ENDBRANCH  43  44
ENDBRANCH  40  43
ENDBRANCH  38  39
ENDBRANCH  37  38
ENDBRANCH  36  37
ENDBRANCH  35  36
ENDBRANCH  33  35
ENDBRANCH  10  31
TORSDOF 15
ENDMDL
MODEL 4
REMARK VINA RESULT: -8.118376136      2.239      3.236
REMARK  15 active torsions:
REMARK  status: ('A' for Active; 'I' for Inactive)
REMARK    1  A    between atoms: N1_1  and  C1_5 
REMARK    2  A    between atoms: C1_5  and  C2_6 
REMARK    3  A    between atoms: C2_6  and  C3_7 
REMARK    4  A    between atoms: C3_7  and  C4_8 
REMARK    5  A    between atoms: C6_13  and  C7_14 
REMARK    6  A    between atoms: C8_15  and  C9_16 
REMARK    7  A    between atoms: C9_16  and  O2_17 
REMARK    8  A    between atoms: C16_27  and  C17_28 
REMARK       I    between atoms: C17_28  and  N4_30 
REMARK    9  A    between atoms: N4_30  and  C18_32 
REMARK   10  A    between atoms: C18_32  and  C19_33 
REMARK   11  A    between atoms: C19_33  and  C20_34 
REMARK   12  A    between atoms: C20_34  and  C21_35 
REMARK   13  A    between atoms: C21_35  and  N5_36 
REMARK       I    between atoms: N5_36  and  C22_38 
REMARK   14  A    between atoms: C22_38  and  C23_40 
REMARK   15  A    between atoms: C23_40  and  N6_41 
ROOT
HETATM    1  C9  UNL     1       8.076 -13.636 -21.848  1.00  0.00     0.092 C 
HETATM    2  C10 UNL     1       9.382 -13.560 -22.589  1.00  0.00     0.049 C 
HETATM    3  C11 UNL     1       9.455 -14.496 -23.766  1.00  0.00     0.061 C 
HETATM    4  C12 UNL     1       9.282 -15.879 -23.246  1.00  0.00     0.016 A 
HETATM    5  N3  UNL     1       9.885 -17.058 -23.488  1.00  0.00    -0.369 N 
ATOM      6  H3  UNL     1      10.649 -17.189 -24.151  1.00  0.00     0.165 HD
HETATM    7  C13 UNL     1       9.355 -18.028 -22.750  1.00  0.00     0.089 A 
HETATM    8  C14 UNL     1       8.361 -17.426 -22.001  1.00  0.00     0.027 A 
HETATM    9  C15 UNL     1       8.315 -16.085 -22.310  1.00  0.00    -0.018 A 
HETATM   10  C16 UNL     1       7.460 -14.985 -21.818  1.00  0.00     0.151 C 
ENDROOT
BRANCH   1  11
HETATM   11  C8  UNL     1       7.087 -12.655 -22.363  1.00  0.00     0.008 C 
HETATM   12  C7  UNL     1       7.411 -11.623 -23.116  1.00  0.00    -0.013 C 
BRANCH  12  13
HETATM   13  C6  UNL     1       6.454 -10.639 -23.639  1.00  0.00     0.107 C 
HETATM   14  C5  UNL     1       5.045 -11.098 -23.603  1.00  0.00     0.226 C 
HETATM   15  N2  UNL     1       4.614 -12.017 -24.577  1.00  0.00    -0.349 N 
HETATM   16  O1  UNL     1       4.214 -10.689 -22.721  1.00  0.00    -0.273 OA
HETATM   17  C4  UNL     1       5.077 -11.948 -25.934  1.00  0.00     0.154 C 
ATOM     18  H2  UNL     1       3.956 -12.751 -24.313  1.00  0.00     0.163 HD
HETATM   19  C25 UNL     1       6.384 -11.298 -26.016  1.00  0.00     0.150 C 
HETATM   20  C24 UNL     1       6.838 -10.288 -25.060  1.00  0.00     0.098 C 
HETATM   21  O5  UNL     1       7.126 -11.626 -26.935  1.00  0.00    -0.296 OA
BRANCH  17  22
HETATM   22  C3  UNL     1       4.027 -11.374 -26.865  1.00  0.00     0.034 C 
BRANCH  22  23
HETATM   23  C2  UNL     1       3.870  -9.893 -26.768  1.00  0.00     0.029 C 
BRANCH  23  24
HETATM   24  C1  UNL     1       4.044  -9.250 -28.148  1.00  0.00     0.230 C 
BRANCH  24  25
HETATM   25  N1  UNL     1       5.330  -9.629 -28.694  1.00  0.00    -0.079 N 
ATOM     26  H13 UNL     1       5.475 -10.638 -28.675  1.00  0.00     0.274 HD
ATOM     27  H12 UNL     1       5.374  -9.494 -29.704  1.00  0.00     0.274 HD
ATOM     28  H11 UNL     1       6.067  -9.123 -28.203  1.00  0.00     0.274 HD
ENDBRANCH  24  25
ENDBRANCH  23  24
ENDBRANCH  22  23
ENDBRANCH  17  22
ENDBRANCH  12  13
ENDBRANCH   1  11
BRANCH   1  29
HETATM   29  O2  UNL     1       8.360 -13.194 -20.531  1.00  0.00    -0.385 OA
ATOM     30  H2  UNL     1       8.753 -13.949 -20.107  1.00  0.00     0.211 HD
ENDBRANCH   1  29
BRANCH  10  31
HETATM   31  C17 UNL     1       7.103 -15.324 -20.414  1.00  0.00     0.229 C 
HETATM   32  O3  UNL     1       7.983 -15.714 -19.649  1.00  0.00    -0.273 OA
HETATM   33  N4  UNL     1       5.752 -15.179 -20.018  1.00  0.00    -0.360 N 
ATOM     34  H4  UNL     1       5.087 -14.850 -20.720  1.00  0.00     0.162 HD
BRANCH  33  35
HETATM   35  C18 UNL     1       5.241 -15.461 -18.692  1.00  0.00     0.122 C 
BRANCH  35  36
HETATM   36  C19 UNL     1       3.970 -14.711 -18.481  1.00  0.00     0.021 C 
BRANCH  36  37
HETATM   37  C20 UNL     1       3.668 -13.812 -19.667  1.00  0.00     0.021 C 
BRANCH  37  38
HETATM   38  C21 UNL     1       2.303 -13.967 -20.219  1.00  0.00     0.122 C 
BRANCH  38  39
HETATM   39  N5  UNL     1       2.226 -15.113 -21.079  1.00  0.00    -0.360 N 
HETATM   40  C22 UNL     1       2.578 -15.143 -22.427  1.00  0.00     0.243 C 
HETATM   41  O4  UNL     1       3.006 -14.089 -23.002  1.00  0.00    -0.272 OA
ATOM     42  H5  UNL     1       1.885 -15.981 -20.668  1.00  0.00     0.162 HD
BRANCH  40  43
HETATM   43  C23 UNL     1       2.467 -16.387 -23.233  1.00  0.00     0.331 C 
BRANCH  43  44
HETATM   44  N6  UNL     1       1.378 -16.255 -24.163  1.00  0.00    -0.071 N 
ATOM     45  H63 UNL     1       1.535 -16.784 -25.021  1.00  0.00     0.274 HD
ATOM     46  H62 UNL     1       0.537 -16.739 -23.847  1.00  0.00     0.274 HD
ATOM     47  H61 UNL     1       1.208 -15.265 -24.344  1.00  0.00     0.274 HD
ENDBRANCH  43  44
ENDBRANCH  40  43
ENDBRANCH  38  39
ENDBRANCH  37  38
ENDBRANCH  36  37
ENDBRANCH  35  36
ENDBRANCH  33  35
ENDBRANCH  10  31
TORSDOF 15
ENDMDL
MODEL 5
REMARK VINA RESULT: -8.110312347      2.376      3.090
REMARK  15 active torsions:
REMARK  status: ('A' for Active; 'I' for Inactive)
REMARK    1  A    between atoms: N1_1  and  C1_5 
REMARK    2  A    between atoms: C1_5  and  C2_6 
REMARK    3  A    between atoms: C2_6  and  C3_7 
REMARK    4  A    between atoms: C3_7  and  C4_8 
REMARK    5  A    between atoms: C6_13  and  C7_14 
REMARK    6  A    between atoms: C8_15  and  C9_16 
REMARK    7  A    between atoms: C9_16  and  O2_17 
REMARK    8  A    between atoms: C16_27  and  C17_28 
REMARK       I    between atoms: C17_28  and  N4_30 
REMARK    9  A    between atoms: N4_30  and  C18_32 
REMARK   10  A    between atoms: C18_32  and  C19_33 
REMARK   11  A    between atoms: C19_33  and  C20_34 
REMARK   12  A    between atoms: C20_34  and  C21_35 
REMARK   13  A    between atoms: C21_35  and  N5_36 
REMARK       I    between atoms: N5_36  and  C22_38 
REMARK   14  A    between atoms: C22_38  and  C23_40 
REMARK   15  A    between atoms: C23_40  and  N6_41 
ROOT
HETATM    1  C9  UNL     1       8.672 -14.211 -21.478  1.00  0.00     0.092 C 
HETATM    2  C10 UNL     1      10.005 -14.660 -22.010  1.00  0.00     0.049 C 
HETATM    3  C11 UNL     1       9.896 -15.532 -23.232  1.00  0.00     0.061 C 
HETATM    4  C12 UNL     1       9.106 -16.733 -22.852  1.00  0.00     0.016 A 
HETATM    5  N3  UNL     1       9.224 -18.053 -23.094  1.00  0.00    -0.369 N 
ATOM      6  H3  UNL     1       9.972 -18.473 -23.646  1.00  0.00     0.165 HD
HETATM    7  C13 UNL     1       8.239 -18.735 -22.520  1.00  0.00     0.089 A 
HETATM    8  C14 UNL     1       7.454 -17.792 -21.881  1.00  0.00     0.027 A 
HETATM    9  C15 UNL     1       7.995 -16.543 -22.088  1.00  0.00    -0.018 A 
HETATM   10  C16 UNL     1       7.578 -15.197 -21.643  1.00  0.00     0.151 C 
ENDROOT
BRANCH   1  11
HETATM   11  C8  UNL     1       8.253 -12.909 -22.055  1.00  0.00     0.008 C 
HETATM   12  C7  UNL     1       7.317 -12.789 -22.976  1.00  0.00    -0.013 C 
BRANCH  12  13
HETATM   13  C6  UNL     1       6.883 -11.514 -23.563  1.00  0.00     0.107 C 
HETATM   14  C5  UNL     1       5.424 -11.273 -23.458  1.00  0.00     0.226 C 
HETATM   15  N2  UNL     1       4.567 -11.957 -24.339  1.00  0.00    -0.349 N 
HETATM   16  O1  UNL     1       4.923 -10.470 -22.599  1.00  0.00    -0.273 OA
HETATM   17  C4  UNL     1       4.931 -12.201 -25.706  1.00  0.00     0.154 C 
ATOM     18  H2  UNL     1       3.664 -12.288 -23.998  1.00  0.00     0.163 HD
HETATM   19  C25 UNL     1       6.384 -12.230 -25.871  1.00  0.00     0.150 C 
HETATM   20  C24 UNL     1       7.302 -11.477 -25.017  1.00  0.00     0.098 C 
HETATM   21  O5  UNL     1       6.840 -12.923 -26.773  1.00  0.00    -0.296 OA
BRANCH  17  22
HETATM   22  C3  UNL     1       4.205 -11.275 -26.662  1.00  0.00     0.034 C 
BRANCH  22  23
HETATM   23  C2  UNL     1       3.126 -11.939 -27.453  1.00  0.00     0.029 C 
BRANCH  23  24
HETATM   24  C1  UNL     1       3.695 -13.126 -28.235  1.00  0.00     0.230 C 
BRANCH  24  25
HETATM   25  N1  UNL     1       4.717 -12.655 -29.144  1.00  0.00    -0.079 N 
ATOM     26  H13 UNL     1       4.384 -11.898 -29.740  1.00  0.00     0.274 HD
ATOM     27  H12 UNL     1       5.458 -12.146 -28.662  1.00  0.00     0.274 HD
ATOM     28  H11 UNL     1       5.077 -13.442 -29.685  1.00  0.00     0.274 HD
ENDBRANCH  24  25
ENDBRANCH  23  24
ENDBRANCH  22  23
ENDBRANCH  17  22
ENDBRANCH  12  13
ENDBRANCH   1  11
BRANCH   1  29
HETATM   29  O2  UNL     1       8.885 -13.937 -20.103  1.00  0.00    -0.385 OA
ATOM     30  H2  UNL     1       8.023 -14.013 -19.710  1.00  0.00     0.211 HD
ENDBRANCH   1  29
BRANCH  10  31
HETATM   31  C17 UNL     1       6.887 -15.380 -20.338  1.00  0.00     0.229 C 
HETATM   32  O3  UNL     1       7.387 -16.122 -19.494  1.00  0.00    -0.273 OA
HETATM   33  N4  UNL     1       5.674 -14.682 -20.124  1.00  0.00    -0.360 N 
ATOM     34  H4  UNL     1       5.332 -14.089 -20.881  1.00  0.00     0.162 HD
BRANCH  33  35
HETATM   35  C18 UNL     1       4.883 -14.746 -18.912  1.00  0.00     0.122 C 
BRANCH  35  36
HETATM   36  C19 UNL     1       3.442 -14.578 -19.251  1.00  0.00     0.021 C 
BRANCH  36  37
HETATM   37  C20 UNL     1       3.075 -15.396 -20.477  1.00  0.00     0.021 C 
BRANCH  37  38
HETATM   38  C21 UNL     1       2.165 -14.707 -21.420  1.00  0.00     0.122 C 
BRANCH  38  39
HETATM   39  N5  UNL     1       0.942 -15.440 -21.580  1.00  0.00    -0.360 N 
HETATM   40  C22 UNL     1       0.480 -16.004 -22.768  1.00  0.00     0.243 C 
HETATM   41  O4  UNL     1       1.158 -15.884 -23.840  1.00  0.00    -0.272 OA
ATOM     42  H5  UNL     1       0.360 -15.560 -20.751  1.00  0.00     0.162 HD
BRANCH  40  43
HETATM   43  C23 UNL     1      -0.802 -16.753 -22.826  1.00  0.00     0.331 C 
BRANCH  43  44
HETATM   44  N6  UNL     1      -0.629 -17.928 -23.637  1.00  0.00    -0.071 N 
ATOM     45  H63 UNL     1       0.070 -17.794 -24.369  1.00  0.00     0.274 HD
ATOM     46  H62 UNL     1      -0.164 -18.683 -23.132  1.00  0.00     0.274 HD
ATOM     47  H61 UNL     1      -1.532 -18.214 -24.013  1.00  0.00     0.274 HD
ENDBRANCH  43  44
ENDBRANCH  40  43
ENDBRANCH  38  39
ENDBRANCH  37  38
ENDBRANCH  36  37
ENDBRANCH  35  36
ENDBRANCH  33  35
ENDBRANCH  10  31
TORSDOF 15
ENDMDL
