MODEL 1
REMARK VINA RESULT: -8.376285958      0.000      0.000
REMARK  15 active torsions:
REMARK  status: ('A' for Active; 'I' for Inactive)
REMARK    1  A    between atoms: C2_2  and  C3_4 
REMARK    2  A    between atoms: C3_4  and  C4_5 
REMARK    3  A    between atoms: C4_5  and  C5_6 
REMARK    4  A    between atoms: C5_6  and  C6_7 
REMARK    5  A    between atoms: C6_7  and  C7_8 
REMARK    6  A    between atoms: C7_8  and  C8_9 
REMARK    7  A    between atoms: C10_14  and  C11_15 
REMARK    8  A    between atoms: C11_15  and  C12_16 
REMARK    9  A    between atoms: C12_16  and  C13_17 
REMARK   10  A    between atoms: C13_17  and  N2_18 
REMARK   11  A    between atoms: C16_27  and  C17_28 
REMARK   12  A    between atoms: C17_28  and  C18_29 
REMARK   13  A    between atoms: C18_29  and  C19_30 
REMARK   14  A    between atoms: C19_30  and  N6_31 
REMARK   15  A    between atoms: C19_30  and  O4_35 
ROOT
HETATM    1  C8  UNL     1       4.226 -13.852 -23.136  1.00  0.00     0.176 C 
HETATM    2  N1  UNL     1       5.289 -13.153 -22.492  1.00  0.00    -0.346 N 
ATOM      3  H1  UNL     1       5.386 -13.322 -21.492  1.00  0.00     0.163 HD
HETATM    4  C9  UNL     1       6.224 -12.260 -23.051  1.00  0.00     0.241 C 
HETATM    5  O2  UNL     1       6.352 -11.080 -22.556  1.00  0.00    -0.271 OA
HETATM    6  C10 UNL     1       7.128 -12.525 -24.200  1.00  0.00     0.176 C 
HETATM    7  N5  UNL     1       7.288 -11.386 -25.081  1.00  0.00    -0.347 N 
ATOM      8  H5  UNL     1       7.708 -10.553 -24.670  1.00  0.00     0.163 HD
HETATM    9  C15 UNL     1       6.931 -11.298 -26.439  1.00  0.00     0.222 C 
HETATM   10  O3  UNL     1       7.846 -10.964 -27.281  1.00  0.00    -0.273 OA
HETATM   11  C16 UNL     1       5.605 -11.547 -27.045  1.00  0.00     0.078 C 
HETATM   12  C20 UNL     1       5.388 -12.983 -27.469  1.00  0.00     0.015 C 
HETATM   13  C21 UNL     1       3.923 -13.357 -27.516  1.00  0.00     0.020 C 
HETATM   14  C22 UNL     1       3.440 -13.584 -26.093  1.00  0.00     0.122 C 
HETATM   15  N7  UNL     1       4.149 -14.702 -25.550  1.00  0.00    -0.359 N 
ATOM     16  H7  UNL     1       4.354 -15.483 -26.174  1.00  0.00     0.162 HD
HETATM   17  C23 UNL     1       4.595 -14.801 -24.183  1.00  0.00     0.240 C 
HETATM   18  O5  UNL     1       5.352 -15.811 -23.977  1.00  0.00    -0.271 OA
ENDROOT
BRANCH  11  19
HETATM   19  C17 UNL     1       5.384 -10.717 -28.295  1.00  0.00     0.018 C 
BRANCH  19  20
HETATM   20  C18 UNL     1       4.548  -9.490 -28.070  1.00  0.00     0.062 C 
BRANCH  20  21
HETATM   21  C19 UNL     1       3.125  -9.956 -27.765  1.00  0.00     0.316 C 
BRANCH  21  22
HETATM   22  N6  UNL     1       2.342  -9.900 -29.000  1.00  0.00    -0.053 N 
ATOM     23  H63 UNL     1       2.702  -9.211 -29.659  1.00  0.00     0.277 HD
ATOM     24  H62 UNL     1       2.468 -10.729 -29.580  1.00  0.00     0.277 HD
ATOM     25  H61 UNL     1       1.365  -9.737 -28.757  1.00  0.00     0.277 HD
ENDBRANCH  21  22
BRANCH  21  26
HETATM   26  O4  UNL     1       2.517  -9.186 -26.805  1.00  0.00    -0.370 OA
ATOM     27  H4  UNL     1       2.817  -9.398 -25.929  1.00  0.00     0.212 HD
ENDBRANCH  21  26
ENDBRANCH  20  21
ENDBRANCH  19  20
ENDBRANCH  11  19
BRANCH   6  28
HETATM   28  C11 UNL     1       8.528 -12.909 -23.703  1.00  0.00     0.036 C 
BRANCH  28  29
HETATM   29  C12 UNL     1       8.859 -14.336 -23.957  1.00  0.00     0.022 C 
BRANCH  29  30
HETATM   30  C13 UNL     1       8.749 -15.057 -22.603  1.00  0.00     0.122 C 
BRANCH  30  31
HETATM   31  N2  UNL     1       8.126 -16.318 -22.859  1.00  0.00    -0.367 N 
HETATM   32  C14 UNL     1       8.544 -17.461 -22.463  1.00  0.00     0.196 C 
HETATM   33  N3  UNL     1       7.771 -18.599 -22.828  1.00  0.00    -0.067 NA
HETATM   34  N4  UNL     1       9.720 -17.617 -21.693  1.00  0.00    -0.067 NA
ATOM     35  H2  UNL     1       7.267 -16.306 -23.409  1.00  0.00     0.161 HD
ENDBRANCH  30  31
ENDBRANCH  29  30
ENDBRANCH  28  29
ENDBRANCH   6  28
BRANCH   1  36
HETATM   36  C7  UNL     1       3.351 -14.565 -22.124  1.00  0.00     0.035 C 
BRANCH  36  37
HETATM   37  C6  UNL     1       2.901 -13.743 -20.978  1.00  0.00     0.002 C 
BRANCH  37  38
HETATM   38  C5  UNL     1       2.887 -14.584 -19.718  1.00  0.00     0.000 C 
BRANCH  38  39
HETATM   39  C4  UNL     1       3.950 -14.238 -18.734  1.00  0.00     0.007 C 
BRANCH  39  40
HETATM   40  C3  UNL     1       4.909 -15.394 -18.551  1.00  0.00     0.077 C 
BRANCH  40  41
HETATM   41  C2  UNL     1       6.052 -15.319 -19.470  1.00  0.00     0.123 C 
HETATM   42  C1  UNL     1       7.324 -14.663 -19.020  1.00  0.00     0.091 C 
HETATM   43  O1  UNL     1       6.068 -15.756 -20.606  1.00  0.00    -0.298 OA
ENDBRANCH  40  41
ENDBRANCH  39  40
ENDBRANCH  38  39
ENDBRANCH  37  38
ENDBRANCH  36  37
ENDBRANCH   1  36
TORSDOF 15
ENDMDL
MODEL 2
REMARK VINA RESULT: -8.343498452      2.675      5.801
REMARK  15 active torsions:
REMARK  status: ('A' for Active; 'I' for Inactive)
REMARK    1  A    between atoms: C2_2  and  C3_4 
REMARK    2  A    between atoms: C3_4  and  C4_5 
REMARK    3  A    between atoms: C4_5  and  C5_6 
REMARK    4  A    between atoms: C5_6  and  C6_7 
REMARK    5  A    between atoms: C6_7  and  C7_8 
REMARK    6  A    between atoms: C7_8  and  C8_9 
REMARK    7  A    between atoms: C10_14  and  C11_15 
REMARK    8  A    between atoms: C11_15  and  C12_16 
REMARK    9  A    between atoms: C12_16  and  C13_17 
REMARK   10  A    between atoms: C13_17  and  N2_18 
REMARK   11  A    between atoms: C16_27  and  C17_28 
REMARK   12  A    between atoms: C17_28  and  C18_29 
REMARK   13  A    between atoms: C18_29  and  C19_30 
REMARK   14  A    between atoms: C19_30  and  N6_31 
REMARK   15  A    between atoms: C19_30  and  O4_35 
ROOT
HETATM    1  C8  UNL     1       7.274 -14.426 -21.738  1.00  0.00     0.176 C 
HETATM    2  N1  UNL     1       7.117 -13.077 -22.173  1.00  0.00    -0.346 N 
ATOM      3  H1  UNL     1       7.832 -12.424 -21.853  1.00  0.00     0.163 HD
HETATM    4  C9  UNL     1       6.107 -12.523 -22.984  1.00  0.00     0.241 C 
HETATM    5  O2  UNL     1       5.430 -11.516 -22.559  1.00  0.00    -0.271 OA
HETATM    6  C10 UNL     1       5.708 -12.979 -24.340  1.00  0.00     0.176 C 
HETATM    7  N5  UNL     1       4.278 -12.923 -24.568  1.00  0.00    -0.347 N 
ATOM      8  H5  UNL     1       3.849 -12.000 -24.521  1.00  0.00     0.163 HD
HETATM    9  C15 UNL     1       3.414 -13.998 -24.847  1.00  0.00     0.222 C 
HETATM   10  O3  UNL     1       2.699 -13.933 -25.915  1.00  0.00    -0.273 OA
HETATM   11  C16 UNL     1       3.211 -15.227 -24.051  1.00  0.00     0.078 C 
HETATM   12  C20 UNL     1       4.136 -16.362 -24.437  1.00  0.00     0.015 C 
HETATM   13  C21 UNL     1       4.350 -17.343 -23.306  1.00  0.00     0.020 C 
HETATM   14  C22 UNL     1       5.328 -16.731 -22.317  1.00  0.00     0.122 C 
HETATM   15  N7  UNL     1       6.586 -16.558 -22.977  1.00  0.00    -0.359 N 
ATOM     16  H7  UNL     1       6.879 -17.278 -23.639  1.00  0.00     0.162 HD
HETATM   17  C23 UNL     1       7.469 -15.437 -22.773  1.00  0.00     0.240 C 
HETATM   18  O5  UNL     1       8.448 -15.417 -23.596  1.00  0.00    -0.271 OA
ENDROOT
BRANCH  11  19
HETATM   19  C17 UNL     1       1.807 -15.780 -24.200  1.00  0.00     0.018 C 
BRANCH  19  20
HETATM   20  C18 UNL     1       1.035 -15.836 -22.913  1.00  0.00     0.062 C 
BRANCH  20  21
HETATM   21  C19 UNL     1       0.541 -17.272 -22.738  1.00  0.00     0.316 C 
BRANCH  21  22
HETATM   22  N6  UNL     1      -0.474 -17.541 -23.757  1.00  0.00    -0.053 N 
ATOM     23  H63 UNL     1      -0.877 -16.687 -24.142  1.00  0.00     0.277 HD
ATOM     24  H62 UNL     1      -0.073 -17.909 -24.620  1.00  0.00     0.277 HD
ATOM     25  H61 UNL     1      -1.177 -18.162 -23.357  1.00  0.00     0.277 HD
ENDBRANCH  21  22
BRANCH  21  26
HETATM   26  O4  UNL     1       0.007 -17.492 -21.494  1.00  0.00    -0.370 OA
ATOM     27  H4  UNL     1      -0.567 -16.787 -21.217  1.00  0.00     0.212 HD
ENDBRANCH  21  26
ENDBRANCH  20  21
ENDBRANCH  19  20
ENDBRANCH  11  19
BRANCH   6  28
HETATM   28  C11 UNL     1       6.369 -12.108 -25.416  1.00  0.00     0.036 C 
BRANCH  28  29
HETATM   29  C12 UNL     1       6.437 -12.778 -26.740  1.00  0.00     0.022 C 
BRANCH  29  30
HETATM   30  C13 UNL     1       5.560 -11.951 -27.695  1.00  0.00     0.122 C 
BRANCH  30  31
HETATM   31  N2  UNL     1       4.637 -12.861 -28.298  1.00  0.00    -0.367 N 
HETATM   32  C14 UNL     1       4.732 -13.369 -29.469  1.00  0.00     0.196 C 
HETATM   33  N3  UNL     1       3.699 -14.258 -29.878  1.00  0.00    -0.067 NA
HETATM   34  N4  UNL     1       5.807 -13.077 -30.340  1.00  0.00    -0.067 NA
ATOM     35  H2  UNL     1       3.825 -13.131 -27.742  1.00  0.00     0.161 HD
ENDBRANCH  30  31
ENDBRANCH  29  30
ENDBRANCH  28  29
ENDBRANCH   6  28
BRANCH   1  36
HETATM   36  C7  UNL     1       8.397 -14.546 -20.728  1.00  0.00     0.035 C 
BRANCH  36  37
HETATM   37  C6  UNL     1       8.111 -15.400 -19.553  1.00  0.00     0.002 C 
BRANCH  37  38
HETATM   38  C5  UNL     1       6.846 -14.922 -18.869  1.00  0.00     0.000 C 
BRANCH  38  39
HETATM   39  C4  UNL     1       5.740 -15.921 -18.852  1.00  0.00     0.007 C 
BRANCH  39  40
HETATM   40  C3  UNL     1       4.502 -15.339 -18.206  1.00  0.00     0.077 C 
BRANCH  40  41
HETATM   41  C2  UNL     1       3.793 -14.413 -19.099  1.00  0.00     0.123 C 
HETATM   42  C1  UNL     1       2.972 -14.955 -20.231  1.00  0.00     0.091 C 
HETATM   43  O1  UNL     1       3.808 -13.198 -19.004  1.00  0.00    -0.298 OA
ENDBRANCH  40  41
ENDBRANCH  39  40
ENDBRANCH  38  39
ENDBRANCH  37  38
ENDBRANCH  36  37
ENDBRANCH   1  36
TORSDOF 15
ENDMDL
MODEL 3
REMARK VINA RESULT: -8.304832070      1.086      1.195
REMARK  15 active torsions:
REMARK  status: ('A' for Active; 'I' for Inactive)
REMARK    1  A    between atoms: C2_2  and  C3_4 
REMARK    2  A    between atoms: C3_4  and  C4_5 
REMARK    3  A    between atoms: C4_5  and  C5_6 
REMARK    4  A    between atoms: C5_6  and  C6_7 
REMARK    5  A    between atoms: C6_7  and  C7_8 
REMARK    6  A    between atoms: C7_8  and  C8_9 
REMARK    7  A    between atoms: C10_14  and  C11_15 
REMARK    8  A    between atoms: C11_15  and  C12_16 
REMARK    9  A    between atoms: C12_16  and  C13_17 
REMARK   10  A    between atoms: C13_17  and  N2_18 
REMARK   11  A    between atoms: C16_27  and  C17_28 
REMARK   12  A    between atoms: C17_28  and  C18_29 
REMARK   13  A    between atoms: C18_29  and  C19_30 
REMARK   14  A    between atoms: C19_30  and  N6_31 
REMARK   15  A    between atoms: C19_30  and  O4_35 
ROOT
HETATM    1  C8  UNL     1       3.933 -14.000 -23.634  1.00  0.00     0.176 C 
HETATM    2  N1  UNL     1       4.455 -13.078 -22.680  1.00  0.00    -0.346 N 
ATOM      3  H1  UNL     1       4.306 -13.324 -21.702  1.00  0.00     0.163 HD
HETATM    4  C9  UNL     1       5.147 -11.872 -22.906  1.00  0.00     0.241 C 
HETATM    5  O2  UNL     1       4.713 -10.780 -22.382  1.00  0.00    -0.271 OA
HETATM    6  C10 UNL     1       6.381 -11.694 -23.713  1.00  0.00     0.176 C 
HETATM    7  N5  UNL     1       6.392 -10.468 -24.486  1.00  0.00    -0.347 N 
ATOM      8  H5  UNL     1       6.362  -9.599 -23.954  1.00  0.00     0.163 HD
HETATM    9  C15 UNL     1       6.441 -10.341 -25.886  1.00  0.00     0.222 C 
HETATM   10  O3  UNL     1       7.389  -9.633 -26.392  1.00  0.00    -0.273 OA
HETATM   11  C16 UNL     1       5.519 -10.928 -26.882  1.00  0.00     0.078 C 
HETATM   12  C20 UNL     1       5.941 -12.298 -27.370  1.00  0.00     0.015 C 
HETATM   13  C21 UNL     1       4.775 -13.114 -27.880  1.00  0.00     0.020 C 
HETATM   14  C22 UNL     1       4.004 -13.651 -26.685  1.00  0.00     0.122 C 
HETATM   15  N7  UNL     1       4.861 -14.538 -25.959  1.00  0.00    -0.359 N 
ATOM     16  H7  UNL     1       5.494 -15.132 -26.495  1.00  0.00     0.162 HD
HETATM   17  C23 UNL     1       4.893 -14.649 -24.523  1.00  0.00     0.240 C 
HETATM   18  O5  UNL     1       5.855 -15.380 -24.100  1.00  0.00    -0.271 OA
ENDROOT
BRANCH  11  19
HETATM   19  C17 UNL     1       5.403 -10.072 -28.128  1.00  0.00     0.018 C 
BRANCH  19  20
HETATM   20  C18 UNL     1       4.233  -9.130 -28.112  1.00  0.00     0.062 C 
BRANCH  20  21
HETATM   21  C19 UNL     1       2.982  -9.962 -27.829  1.00  0.00     0.316 C 
BRANCH  21  22
HETATM   22  N6  UNL     1       2.543 -10.583 -29.079  1.00  0.00    -0.053 N 
ATOM     23  H63 UNL     1       2.089  -9.919 -29.706  1.00  0.00     0.277 HD
ATOM     24  H62 UNL     1       3.323 -10.837 -29.684  1.00  0.00     0.277 HD
ATOM     25  H61 UNL     1       1.948 -11.379 -28.853  1.00  0.00     0.277 HD
ENDBRANCH  21  22
BRANCH  21  26
HETATM   26  O4  UNL     1       1.960  -9.206 -27.312  1.00  0.00    -0.370 OA
ATOM     27  H4  UNL     1       1.239  -9.740 -26.998  1.00  0.00     0.212 HD
ENDBRANCH  21  26
ENDBRANCH  20  21
ENDBRANCH  19  20
ENDBRANCH  11  19
BRANCH   6  28
HETATM   28  C11 UNL     1       7.618 -11.664 -22.805  1.00  0.00     0.036 C 
BRANCH  28  29
HETATM   29  C12 UNL     1       8.666 -12.630 -23.225  1.00  0.00     0.022 C 
BRANCH  29  30
HETATM   30  C13 UNL     1       8.855 -13.607 -22.053  1.00  0.00     0.122 C 
BRANCH  30  31
HETATM   31  N2  UNL     1       8.424 -14.891 -22.514  1.00  0.00    -0.367 N 
HETATM   32  C14 UNL     1       8.911 -16.021 -22.165  1.00  0.00     0.196 C 
HETATM   33  N3  UNL     1       8.333 -17.185 -22.745  1.00  0.00    -0.067 NA
HETATM   34  N4  UNL     1       9.978 -16.139 -21.244  1.00  0.00    -0.067 NA
ATOM     35  H2  UNL     1       7.655 -14.906 -23.184  1.00  0.00     0.161 HD
ENDBRANCH  30  31
ENDBRANCH  29  30
ENDBRANCH  28  29
ENDBRANCH   6  28
BRANCH   1  36
HETATM   36  C7  UNL     1       3.100 -15.070 -22.959  1.00  0.00     0.035 C 
BRANCH  36  37
HETATM   37  C6  UNL     1       2.293 -14.617 -21.803  1.00  0.00     0.002 C 
BRANCH  37  38
HETATM   38  C5  UNL     1       2.791 -15.283 -20.537  1.00  0.00     0.000 C 
BRANCH  38  39
HETATM   39  C4  UNL     1       3.215 -14.336 -19.468  1.00  0.00     0.007 C 
BRANCH  39  40
HETATM   40  C3  UNL     1       4.435 -14.857 -18.741  1.00  0.00     0.077 C 
BRANCH  40  41
HETATM   41  C2  UNL     1       5.565 -15.092 -19.649  1.00  0.00     0.123 C 
HETATM   42  C1  UNL     1       6.267 -16.417 -19.633  1.00  0.00     0.091 C 
HETATM   43  O1  UNL     1       6.005 -14.282 -20.446  1.00  0.00    -0.298 OA
ENDBRANCH  40  41
ENDBRANCH  39  40
ENDBRANCH  38  39
ENDBRANCH  37  38
ENDBRANCH  36  37
ENDBRANCH   1  36
TORSDOF 15
ENDMDL
MODEL 4
REMARK VINA RESULT: -8.196342625      2.523      8.042
REMARK  15 active torsions:
REMARK  status: ('A' for Active; 'I' for Inactive)
REMARK    1  A    between atoms: C2_2  and  C3_4 
REMARK    2  A    between atoms: C3_4  and  C4_5 
REMARK    3  A    between atoms: C4_5  and  C5_6 
REMARK    4  A    between atoms: C5_6  and  C6_7 
REMARK    5  A    between atoms: C6_7  and  C7_8 
REMARK    6  A    between atoms: C7_8  and  C8_9 
REMARK    7  A    between atoms: C10_14  and  C11_15 
REMARK    8  A    between atoms: C11_15  and  C12_16 
REMARK    9  A    between atoms: C12_16  and  C13_17 
REMARK   10  A    between atoms: C13_17  and  N2_18 
REMARK   11  A    between atoms: C16_27  and  C17_28 
REMARK   12  A    between atoms: C17_28  and  C18_29 
REMARK   13  A    between atoms: C18_29  and  C19_30 
REMARK   14  A    between atoms: C19_30  and  N6_31 
REMARK   15  A    between atoms: C19_30  and  O4_35 
ROOT
HETATM    1  C8  UNL     1       7.541 -12.416 -24.781  1.00  0.00     0.176 C 
HETATM    2  N1  UNL     1       6.249 -12.106 -24.263  1.00  0.00    -0.346 N 
ATOM      3  H1  UNL     1       5.762 -11.339 -24.726  1.00  0.00     0.163 HD
HETATM    4  C9  UNL     1       5.554 -12.715 -23.200  1.00  0.00     0.241 C 
HETATM    5  O2  UNL     1       5.127 -11.996 -22.223  1.00  0.00    -0.271 OA
HETATM    6  C10 UNL     1       5.235 -14.159 -23.059  1.00  0.00     0.176 C 
HETATM    7  N5  UNL     1       5.353 -14.645 -21.699  1.00  0.00    -0.347 N 
ATOM      8  H5  UNL     1       4.728 -14.223 -21.013  1.00  0.00     0.163 HD
HETATM    9  C15 UNL     1       6.232 -15.633 -21.218  1.00  0.00     0.222 C 
HETATM   10  O3  UNL     1       5.722 -16.641 -20.600  1.00  0.00    -0.273 OA
HETATM   11  C16 UNL     1       7.705 -15.667 -21.330  1.00  0.00     0.078 C 
HETATM   12  C20 UNL     1       8.207 -16.364 -22.577  1.00  0.00     0.015 C 
HETATM   13  C21 UNL     1       9.586 -15.898 -22.985  1.00  0.00     0.020 C 
HETATM   14  C22 UNL     1       9.454 -14.541 -23.658  1.00  0.00     0.122 C 
HETATM   15  N7  UNL     1       8.687 -14.705 -24.855  1.00  0.00    -0.359 N 
ATOM     16  H7  UNL     1       8.829 -15.557 -25.398  1.00  0.00     0.162 HD
HETATM   17  C23 UNL     1       7.725 -13.751 -25.346  1.00  0.00     0.240 C 
HETATM   18  O5  UNL     1       7.044 -14.192 -26.335  1.00  0.00    -0.271 OA
ENDROOT
BRANCH  11  19
HETATM   19  C17 UNL     1       8.350 -16.400 -20.169  1.00  0.00     0.018 C 
BRANCH  19  20
HETATM   20  C18 UNL     1       9.193 -17.573 -20.583  1.00  0.00     0.062 C 
BRANCH  20  21
HETATM   21  C19 UNL     1       8.617 -18.813 -19.900  1.00  0.00     0.316 C 
BRANCH  21  22
HETATM   22  N6  UNL     1       9.037 -19.995 -20.652  1.00  0.00    -0.053 N 
ATOM     23  H63 UNL     1       8.807 -20.865 -20.172  1.00  0.00     0.277 HD
ATOM     24  H62 UNL     1       8.476 -20.145 -21.490  1.00  0.00     0.277 HD
ATOM     25  H61 UNL     1      10.032 -19.912 -20.857  1.00  0.00     0.277 HD
ENDBRANCH  21  22
BRANCH  21  26
HETATM   26  O4  UNL     1       7.247 -18.781 -19.830  1.00  0.00    -0.370 OA
ATOM     27  H4  UNL     1       6.838 -19.293 -20.517  1.00  0.00     0.212 HD
ENDBRANCH  21  26
ENDBRANCH  20  21
ENDBRANCH  19  20
ENDBRANCH  11  19
BRANCH   6  28
HETATM   28  C11 UNL     1       3.795 -14.437 -23.512  1.00  0.00     0.036 C 
BRANCH  28  29
HETATM   29  C12 UNL     1       3.548 -15.874 -23.800  1.00  0.00     0.022 C 
BRANCH  29  30
HETATM   30  C13 UNL     1       2.089 -15.980 -24.274  1.00  0.00     0.122 C 
BRANCH  30  31
HETATM   31  N2  UNL     1       1.427 -16.870 -23.371  1.00  0.00    -0.367 N 
HETATM   32  C14 UNL     1       0.670 -16.531 -22.397  1.00  0.00     0.196 C 
HETATM   33  N3  UNL     1       0.106 -17.579 -21.616  1.00  0.00    -0.067 NA
HETATM   34  N4  UNL     1       0.387 -15.180 -22.087  1.00  0.00    -0.067 NA
ATOM     35  H2  UNL     1       1.572 -17.869 -23.518  1.00  0.00     0.161 HD
ENDBRANCH  30  31
ENDBRANCH  29  30
ENDBRANCH  28  29
ENDBRANCH   6  28
BRANCH   1  36
HETATM   36  C7  UNL     1       7.978 -11.392 -25.807  1.00  0.00     0.035 C 
BRANCH  36  37
HETATM   37  C6  UNL     1       7.503 -10.009 -25.572  1.00  0.00     0.002 C 
BRANCH  37  38
HETATM   38  C5  UNL     1       6.483  -9.631 -26.626  1.00  0.00     0.000 C 
BRANCH  38  39
HETATM   39  C4  UNL     1       6.428 -10.557 -27.791  1.00  0.00     0.007 C 
BRANCH  39  40
HETATM   40  C3  UNL     1       5.046 -11.154 -27.938  1.00  0.00     0.077 C 
BRANCH  40  41
HETATM   41  C2  UNL     1       5.077 -12.478 -28.573  1.00  0.00     0.123 C 
HETATM   42  C1  UNL     1       4.072 -13.517 -28.171  1.00  0.00     0.091 C 
HETATM   43  O1  UNL     1       5.871 -12.828 -29.428  1.00  0.00    -0.298 OA
ENDBRANCH  40  41
ENDBRANCH  39  40
ENDBRANCH  38  39
ENDBRANCH  37  38
ENDBRANCH  36  37
ENDBRANCH   1  36
TORSDOF 15
ENDMDL
MODEL 5
REMARK VINA RESULT: -8.185628328      2.973      8.099
REMARK  15 active torsions:
REMARK  status: ('A' for Active; 'I' for Inactive)
REMARK    1  A    between atoms: C2_2  and  C3_4 
REMARK    2  A    between atoms: C3_4  and  C4_5 
REMARK    3  A    between atoms: C4_5  and  C5_6 
REMARK    4  A    between atoms: C5_6  and  C6_7 
REMARK    5  A    between atoms: C6_7  and  C7_8 
REMARK    6  A    between atoms: C7_8  and  C8_9 
REMARK    7  A    between atoms: C10_14  and  C11_15 
REMARK    8  A    between atoms: C11_15  and  C12_16 
REMARK    9  A    between atoms: C12_16  and  C13_17 
REMARK   10  A    between atoms: C13_17  and  N2_18 
REMARK   11  A    between atoms: C16_27  and  C17_28 
REMARK   12  A    between atoms: C17_28  and  C18_29 
REMARK   13  A    between atoms: C18_29  and  C19_30 
REMARK   14  A    between atoms: C19_30  and  N6_31 
REMARK   15  A    between atoms: C19_30  and  O4_35 
ROOT
HETATM    1  C8  UNL     1       6.128 -12.765 -24.897  1.00  0.00     0.176 C 
HETATM    2  N1  UNL     1       4.747 -12.917 -24.580  1.00  0.00    -0.346 N 
ATOM      3  H1  UNL     1       4.100 -12.382 -25.159  1.00  0.00     0.163 HD
HETATM    4  C9  UNL     1       4.153 -13.705 -23.575  1.00  0.00     0.241 C 
HETATM    5  O2  UNL     1       3.362 -13.158 -22.720  1.00  0.00    -0.271 OA
HETATM    6  C10 UNL     1       4.333 -15.165 -23.369  1.00  0.00     0.176 C 
HETATM    7  N5  UNL     1       4.406 -15.545 -21.972  1.00  0.00    -0.347 N 
ATOM      8  H5  UNL     1       3.579 -15.353 -21.409  1.00  0.00     0.163 HD
HETATM    9  C15 UNL     1       5.488 -16.148 -21.306  1.00  0.00     0.222 C 
HETATM   10  O3  UNL     1       5.270 -17.256 -20.687  1.00  0.00    -0.273 OA
HETATM   11  C16 UNL     1       6.882 -15.664 -21.219  1.00  0.00     0.078 C 
HETATM   12  C20 UNL     1       7.774 -16.171 -22.332  1.00  0.00     0.015 C 
HETATM   13  C21 UNL     1       8.953 -15.259 -22.588  1.00  0.00     0.020 C 
HETATM   14  C22 UNL     1       8.465 -14.052 -23.374  1.00  0.00     0.122 C 
HETATM   15  N7  UNL     1       7.990 -14.505 -24.646  1.00  0.00    -0.359 N 
ATOM     16  H7  UNL     1       8.497 -15.265 -25.099  1.00  0.00     0.162 HD
HETATM   17  C23 UNL     1       6.844 -13.962 -25.330  1.00  0.00     0.240 C 
HETATM   18  O5  UNL     1       6.514 -14.639 -26.364  1.00  0.00    -0.271 OA
ENDROOT
BRANCH  11  19
HETATM   19  C17 UNL     1       7.557 -16.095 -19.931  1.00  0.00     0.018 C 
BRANCH  19  20
HETATM   20  C18 UNL     1       7.820 -14.966 -18.975  1.00  0.00     0.062 C 
BRANCH  20  21
HETATM   21  C19 UNL     1       9.322 -14.680 -19.009  1.00  0.00     0.316 C 
BRANCH  21  22
HETATM   22  N6  UNL     1      10.038 -15.955 -19.025  1.00  0.00    -0.053 N 
ATOM     23  H63 UNL     1      10.699 -16.042 -18.253  1.00  0.00     0.277 HD
ATOM     24  H62 UNL     1       9.438 -16.744 -18.785  1.00  0.00     0.277 HD
ATOM     25  H61 UNL     1      10.483 -16.065 -19.936  1.00  0.00     0.277 HD
ENDBRANCH  21  22
BRANCH  21  26
HETATM   26  O4  UNL     1       9.736 -13.939 -17.930  1.00  0.00    -0.370 OA
ATOM     27  H4  UNL     1       9.154 -13.210 -17.748  1.00  0.00     0.212 HD
ENDBRANCH  21  26
ENDBRANCH  20  21
ENDBRANCH  19  20
ENDBRANCH  11  19
BRANCH   6  28
HETATM   28  C11 UNL     1       3.163 -15.943 -23.986  1.00  0.00     0.036 C 
BRANCH  28  29
HETATM   29  C12 UNL     1       2.281 -16.565 -22.964  1.00  0.00     0.022 C 
BRANCH  29  30
HETATM   30  C13 UNL     1       0.839 -16.193 -23.347  1.00  0.00     0.122 C 
BRANCH  30  31
HETATM   31  N2  UNL     1       0.083 -17.407 -23.328  1.00  0.00    -0.367 N 
HETATM   32  C14 UNL     1      -1.085 -17.562 -22.828  1.00  0.00     0.196 C 
HETATM   33  N3  UNL     1      -1.663 -18.859 -22.914  1.00  0.00    -0.067 NA
HETATM   34  N4  UNL     1      -1.794 -16.506 -22.210  1.00  0.00    -0.067 NA
ATOM     35  H2  UNL     1       0.516 -18.227 -23.753  1.00  0.00     0.161 HD
ENDBRANCH  30  31
ENDBRANCH  29  30
ENDBRANCH  28  29
ENDBRANCH   6  28
BRANCH   1  36
HETATM   36  C7  UNL     1       6.334 -11.677 -25.931  1.00  0.00     0.035 C 
BRANCH  36  37
HETATM   37  C6  UNL     1       5.609 -10.411 -25.680  1.00  0.00     0.002 C 
BRANCH  37  38
HETATM   38  C5  UNL     1       5.193  -9.789 -26.997  1.00  0.00     0.000 C 
BRANCH  38  39
HETATM   39  C4  UNL     1       4.923 -10.772 -28.085  1.00  0.00     0.007 C 
BRANCH  39  40
HETATM   40  C3  UNL     1       3.460 -11.158 -28.109  1.00  0.00     0.077 C 
BRANCH  40  41
HETATM   41  C2  UNL     1       3.250 -12.563 -27.737  1.00  0.00     0.123 C 
HETATM   42  C1  UNL     1       3.803 -13.652 -28.609  1.00  0.00     0.091 C 
HETATM   43  O1  UNL     1       2.648 -12.946 -26.750  1.00  0.00    -0.298 OA
ENDBRANCH  40  41
ENDBRANCH  39  40
ENDBRANCH  38  39
ENDBRANCH  37  38
ENDBRANCH  36  37
ENDBRANCH   1  36
TORSDOF 15
ENDMDL
