MODEL 1
REMARK VINA RESULT: -3.818011561      0.000      0.000
REMARK  4 active torsions:
REMARK  status: ('A' for Active; 'I' for Inactive)
REMARK    1  A    between atoms: C4_5  and  O2_6 
REMARK    2  A    between atoms: C5_8  and  N1_9 
REMARK    3  A    between atoms: N1_9  and  N2_11 
REMARK    4  A    between atoms: N2_11  and  N3_12 
ROOT
HETATM    1  C1  UNL     1      22.471  -2.832 -24.256  1.00  0.00     0.078 C 
HETATM    2  C2  UNL     1      22.525  -1.948 -23.036  1.00  0.00     0.163 C 
HETATM    3  C3  UNL     1      21.166  -1.931 -22.325  1.00  0.00     0.078 C 
HETATM    4  O1  UNL     1      22.928  -0.662 -23.299  1.00  0.00    -0.322 OA
HETATM    5  C4  UNL     1      24.172  -0.472 -22.734  1.00  0.00     0.311 C 
HETATM    6  C5  UNL     1      24.570  -1.786 -22.150  1.00  0.00     0.308 C 
HETATM    7  O3  UNL     1      23.409  -2.513 -22.140  1.00  0.00    -0.324 OA
ENDROOT
BRANCH   6   8
HETATM    8  N1  UNL     1      25.136  -1.622 -20.819  1.00  0.00    -0.218 N 
ATOM      9  H1  UNL     1      25.832  -0.895 -20.652  1.00  0.00     0.200 HD
BRANCH   8  10
HETATM   10  N2  UNL     1      24.788  -2.346 -19.902  1.00  0.00    -0.246 NA
BRANCH  10  11
HETATM   11  N3  UNL     1      24.355  -3.143 -19.059  1.00  0.00    -0.261 N 
ATOM     12  H32 UNL     1      24.206  -3.729 -19.880  1.00  0.00     0.193 HD
ATOM     13  H31 UNL     1      24.023  -3.723 -18.289  1.00  0.00     0.193 HD
ENDBRANCH  10  11
ENDBRANCH   8  10
ENDBRANCH   6   8
BRANCH   5  14
HETATM   14  O2  UNL     1      25.029  -0.055 -23.770  1.00  0.00    -0.367 OA
ATOM     15  H2  UNL     1      25.734   0.434 -23.363  1.00  0.00     0.212 HD
ENDBRANCH   5  14
TORSDOF 4
ENDMDL
MODEL 2
REMARK VINA RESULT: -3.710179593      1.225      1.476
REMARK  4 active torsions:
REMARK  status: ('A' for Active; 'I' for Inactive)
REMARK    1  A    between atoms: C4_5  and  O2_6 
REMARK    2  A    between atoms: C5_8  and  N1_9 
REMARK    3  A    between atoms: N1_9  and  N2_11 
REMARK    4  A    between atoms: N2_11  and  N3_12 
ROOT
HETATM    1  C1  UNL     1      22.567  -3.046 -23.926  1.00  0.00     0.078 C 
HETATM    2  C2  UNL     1      22.582  -2.014 -22.826  1.00  0.00     0.163 C 
HETATM    3  C3  UNL     1      21.341  -1.118 -22.917  1.00  0.00     0.078 C 
HETATM    4  O1  UNL     1      23.714  -1.240 -22.806  1.00  0.00    -0.322 OA
HETATM    5  C4  UNL     1      24.438  -1.558 -21.675  1.00  0.00     0.311 C 
HETATM    6  C5  UNL     1      23.704  -2.673 -21.010  1.00  0.00     0.308 C 
HETATM    7  O3  UNL     1      22.478  -2.677 -21.621  1.00  0.00    -0.324 OA
ENDROOT
BRANCH   6   8
HETATM    8  N1  UNL     1      23.609  -2.459 -19.573  1.00  0.00    -0.218 N 
ATOM      9  H1  UNL     1      22.904  -1.821 -19.203  1.00  0.00     0.200 HD
BRANCH   8  10
HETATM   10  N2  UNL     1      24.364  -3.034 -18.809  1.00  0.00    -0.246 NA
BRANCH  10  11
HETATM   11  N3  UNL     1      25.192  -3.502 -18.015  1.00  0.00    -0.261 N 
ATOM     12  H32 UNL     1      25.576  -3.918 -18.863  1.00  0.00     0.193 HD
ATOM     13  H31 UNL     1      25.819  -3.833 -17.283  1.00  0.00     0.193 HD
ENDBRANCH  10  11
ENDBRANCH   8  10
ENDBRANCH   6   8
BRANCH   5  14
HETATM   14  O2  UNL     1      25.723  -1.936 -22.110  1.00  0.00    -0.367 OA
ATOM     15  H2  UNL     1      26.122  -1.162 -22.490  1.00  0.00     0.212 HD
ENDBRANCH   5  14
TORSDOF 4
ENDMDL
MODEL 3
REMARK VINA RESULT: -3.578693210      3.314      3.916
REMARK  4 active torsions:
REMARK  status: ('A' for Active; 'I' for Inactive)
REMARK    1  A    between atoms: C4_5  and  O2_6 
REMARK    2  A    between atoms: C5_8  and  N1_9 
REMARK    3  A    between atoms: N1_9  and  N2_11 
REMARK    4  A    between atoms: N2_11  and  N3_12 
ROOT
HETATM    1  C1  UNL     1      21.737  -2.067 -21.715  1.00  0.00     0.078 C 
HETATM    2  C2  UNL     1      22.441  -2.170 -23.044  1.00  0.00     0.163 C 
HETATM    3  C3  UNL     1      21.906  -3.365 -23.843  1.00  0.00     0.078 C 
HETATM    4  O1  UNL     1      23.807  -2.252 -22.944  1.00  0.00    -0.322 OA
HETATM    5  C4  UNL     1      24.350  -1.086 -23.443  1.00  0.00     0.311 C 
HETATM    6  C5  UNL     1      23.198  -0.208 -23.799  1.00  0.00     0.308 C 
HETATM    7  O3  UNL     1      22.119  -1.051 -23.783  1.00  0.00    -0.324 OA
ENDROOT
BRANCH   6   8
HETATM    8  N1  UNL     1      23.395   0.421 -25.097  1.00  0.00    -0.218 N 
ATOM      9  H1  UNL     1      22.980   1.334 -25.283  1.00  0.00     0.200 HD
BRANCH   8  10
HETATM   10  N2  UNL     1      24.050  -0.133 -25.962  1.00  0.00    -0.246 NA
BRANCH  10  11
HETATM   11  N3  UNL     1      24.684  -0.593 -26.922  1.00  0.00    -0.261 N 
ATOM     12  H32 UNL     1      24.943  -1.307 -26.241  1.00  0.00     0.193 HD
ATOM     13  H31 UNL     1      25.168  -0.887 -27.770  1.00  0.00     0.193 HD
ENDBRANCH  10  11
ENDBRANCH   8  10
ENDBRANCH   6   8
BRANCH   5  14
HETATM   14  O2  UNL     1      25.153  -0.543 -22.421  1.00  0.00    -0.367 OA
ATOM     15  H2  UNL     1      26.041  -0.836 -22.586  1.00  0.00     0.212 HD
ENDBRANCH   5  14
TORSDOF 4
ENDMDL
MODEL 4
REMARK VINA RESULT: -3.389584670      2.042      2.594
REMARK  4 active torsions:
REMARK  status: ('A' for Active; 'I' for Inactive)
REMARK    1  A    between atoms: C4_5  and  O2_6 
REMARK    2  A    between atoms: C5_8  and  N1_9 
REMARK    3  A    between atoms: N1_9  and  N2_11 
REMARK    4  A    between atoms: N2_11  and  N3_12 
ROOT
HETATM    1  C1  UNL     1      22.115  -3.117 -23.912  1.00  0.00     0.078 C 
HETATM    2  C2  UNL     1      22.406  -1.863 -23.127  1.00  0.00     0.163 C 
HETATM    3  C3  UNL     1      21.503  -1.783 -21.890  1.00  0.00     0.078 C 
HETATM    4  O1  UNL     1      22.293  -0.709 -23.860  1.00  0.00    -0.322 OA
HETATM    5  C4  UNL     1      23.553  -0.167 -24.015  1.00  0.00     0.311 C 
HETATM    6  C5  UNL     1      24.501  -1.127 -23.380  1.00  0.00     0.308 C 
HETATM    7  O3  UNL     1      23.695  -1.955 -22.644  1.00  0.00    -0.324 OA
ENDROOT
BRANCH   6   8
HETATM    8  N1  UNL     1      25.485  -0.434 -22.561  1.00  0.00    -0.218 N 
ATOM      9  H1  UNL     1      26.068  -0.965 -21.915  1.00  0.00     0.200 HD
BRANCH   8  10
HETATM   10  N2  UNL     1      25.618   0.775 -22.640  1.00  0.00    -0.246 NA
BRANCH  10  11
HETATM   11  N3  UNL     1      25.825   1.996 -22.608  1.00  0.00    -0.261 N 
ATOM     12  H32 UNL     1      24.840   2.038 -22.869  1.00  0.00     0.193 HD
ATOM     13  H31 UNL     1      26.099   2.976 -22.553  1.00  0.00     0.193 HD
ENDBRANCH  10  11
ENDBRANCH   8  10
ENDBRANCH   6   8
BRANCH   5  14
HETATM   14  O2  UNL     1      23.766  -0.027 -25.400  1.00  0.00    -0.367 OA
ATOM     15  H2  UNL     1      23.560   0.875 -25.619  1.00  0.00     0.212 HD
ENDBRANCH   5  14
TORSDOF 4
ENDMDL
MODEL 5
REMARK VINA RESULT: -3.269692970      2.985      4.079
REMARK  4 active torsions:
REMARK  status: ('A' for Active; 'I' for Inactive)
REMARK    1  A    between atoms: C4_5  and  O2_6 
REMARK    2  A    between atoms: C5_8  and  N1_9 
REMARK    3  A    between atoms: N1_9  and  N2_11 
REMARK    4  A    between atoms: N2_11  and  N3_12 
ROOT
HETATM    1  C1  UNL     1      24.661  -3.063 -20.441  1.00  0.00     0.078 C 
HETATM    2  C2  UNL     1      24.244  -1.955 -21.375  1.00  0.00     0.163 C 
HETATM    3  C3  UNL     1      25.291  -0.835 -21.378  1.00  0.00     0.078 C 
HETATM    4  O1  UNL     1      23.005  -1.433 -21.099  1.00  0.00    -0.322 OA
HETATM    5  C4  UNL     1      22.148  -1.783 -22.122  1.00  0.00     0.311 C 
HETATM    6  C5  UNL     1      22.934  -2.652 -23.045  1.00  0.00     0.308 C 
HETATM    7  O3  UNL     1      24.234  -2.462 -22.657  1.00  0.00    -0.324 OA
ENDROOT
BRANCH   6   8
HETATM    8  N1  UNL     1      22.708  -2.285 -24.435  1.00  0.00    -0.218 N 
ATOM      9  H1  UNL     1      22.149  -2.894 -25.034  1.00  0.00     0.200 HD
BRANCH   8  10
HETATM   10  N2  UNL     1      23.180  -1.258 -24.892  1.00  0.00    -0.246 NA
BRANCH  10  11
HETATM   11  N3  UNL     1      23.759  -0.230 -25.268  1.00  0.00    -0.261 N 
ATOM     12  H32 UNL     1      23.389   0.142 -24.393  1.00  0.00     0.193 HD
ATOM     13  H31 UNL     1      24.267   0.559 -25.667  1.00  0.00     0.193 HD
ENDBRANCH  10  11
ENDBRANCH   8  10
ENDBRANCH   6   8
BRANCH   5  14
HETATM   14  O2  UNL     1      21.064  -2.459 -21.529  1.00  0.00    -0.367 OA
ATOM     15  H2  UNL     1      20.651  -2.968 -22.216  1.00  0.00     0.212 HD
ENDBRANCH   5  14
TORSDOF 4
ENDMDL
