MODEL 1
REMARK VINA RESULT: -4.352995819      0.000      0.000
REMARK  4 active torsions:
REMARK  status: ('A' for Active; 'I' for Inactive)
REMARK    1  A    between atoms: C2_2  and  N1_5 
REMARK    2  A    between atoms: C5_7  and  O1_8 
REMARK    3  A    between atoms: C5_7  and  O2_10 
REMARK    4  A    between atoms: O2_10  and  C6_11 
ROOT
HETATM    1  C6  UNL     1      23.806  -2.719 -19.610  1.00  0.00     0.303 C 
HETATM    2  C7  UNL     1      24.640  -3.511 -18.703  1.00  0.00     0.085 C 
HETATM    3  N2  UNL     1      25.288  -4.151 -17.980  1.00  0.00    -0.195 NA
ENDROOT
BRANCH   1   4
HETATM    4  O2  UNL     1      24.647  -2.050 -20.502  1.00  0.00    -0.303 OA
BRANCH   4   5
HETATM    5  C5  UNL     1      24.211  -1.788 -21.810  1.00  0.00     0.259 C 
HETATM    6  N1  UNL     1      22.999  -2.120 -22.076  1.00  0.00    -0.342 N 
ATOM      7  H1  UNL     1      22.430  -2.545 -21.344  1.00  0.00     0.164 HD
BRANCH   6   8
HETATM    8  C2  UNL     1      22.416  -1.908 -23.386  1.00  0.00     0.023 C 
HETATM    9  C1  UNL     1      22.760  -3.033 -24.338  1.00  0.00     0.037 C 
HETATM   10  C3  UNL     1      22.892  -0.620 -24.023  1.00  0.00     0.037 C 
HETATM   11  C4  UNL     1      20.903  -1.837 -23.321  1.00  0.00     0.037 C 
ENDBRANCH   6   8
BRANCH   5  12
HETATM   12  O1  UNL     1      25.070  -1.202 -22.733  1.00  0.00    -0.327 OA
ATOM     13  H1  UNL     1      25.050  -0.279 -22.958  1.00  0.00     0.221 HD
ENDBRANCH   5  12
ENDBRANCH   4   5
ENDBRANCH   1   4
TORSDOF 4
ENDMDL
MODEL 2
REMARK VINA RESULT: -4.332296733      0.012      1.272
REMARK  4 active torsions:
REMARK  status: ('A' for Active; 'I' for Inactive)
REMARK    1  A    between atoms: C2_2  and  N1_5 
REMARK    2  A    between atoms: C5_7  and  O1_8 
REMARK    3  A    between atoms: C5_7  and  O2_10 
REMARK    4  A    between atoms: O2_10  and  C6_11 
ROOT
HETATM    1  C6  UNL     1      23.807  -2.703 -19.612  1.00  0.00     0.303 C 
HETATM    2  C7  UNL     1      24.639  -3.500 -18.708  1.00  0.00     0.085 C 
HETATM    3  N2  UNL     1      25.284  -4.146 -17.987  1.00  0.00    -0.195 NA
ENDROOT
BRANCH   1   4
HETATM    4  O2  UNL     1      24.649  -2.047 -20.512  1.00  0.00    -0.303 OA
BRANCH   4   5
HETATM    5  C5  UNL     1      24.206  -1.785 -21.818  1.00  0.00     0.259 C 
HETATM    6  N1  UNL     1      22.995  -2.125 -22.080  1.00  0.00    -0.342 N 
ATOM      7  H1  UNL     1      22.432  -2.556 -21.347  1.00  0.00     0.164 HD
BRANCH   6   8
HETATM    8  C2  UNL     1      22.404  -1.914 -23.387  1.00  0.00     0.023 C 
HETATM    9  C1  UNL     1      22.891  -0.628 -24.017  1.00  0.00     0.037 C 
HETATM   10  C3  UNL     1      20.894  -1.840 -23.326  1.00  0.00     0.037 C 
HETATM   11  C4  UNL     1      22.755  -3.033 -24.348  1.00  0.00     0.037 C 
ENDBRANCH   6   8
BRANCH   5  12
HETATM   12  O1  UNL     1      25.057  -1.191 -22.743  1.00  0.00    -0.327 OA
ATOM     13  H1  UNL     1      25.040  -1.384 -23.673  1.00  0.00     0.221 HD
ENDBRANCH   5  12
ENDBRANCH   4   5
ENDBRANCH   1   4
TORSDOF 4
ENDMDL
MODEL 3
REMARK VINA RESULT: -4.328354881      0.026      1.265
REMARK  4 active torsions:
REMARK  status: ('A' for Active; 'I' for Inactive)
REMARK    1  A    between atoms: C2_2  and  N1_5 
REMARK    2  A    between atoms: C5_7  and  O1_8 
REMARK    3  A    between atoms: C5_7  and  O2_10 
REMARK    4  A    between atoms: O2_10  and  C6_11 
ROOT
HETATM    1  C6  UNL     1      23.809  -2.719 -19.599  1.00  0.00     0.303 C 
HETATM    2  C7  UNL     1      24.649  -3.521 -18.705  1.00  0.00     0.085 C 
HETATM    3  N2  UNL     1      25.300  -4.170 -17.993  1.00  0.00    -0.195 NA
ENDROOT
BRANCH   1   4
HETATM    4  O2  UNL     1      24.645  -2.053 -20.497  1.00  0.00    -0.303 OA
BRANCH   4   5
HETATM    5  C5  UNL     1      24.203  -1.799 -21.805  1.00  0.00     0.259 C 
HETATM    6  N1  UNL     1      22.992  -2.139 -22.066  1.00  0.00    -0.342 N 
ATOM      7  H1  UNL     1      22.428  -2.564 -21.330  1.00  0.00     0.164 HD
BRANCH   6   8
HETATM    8  C2  UNL     1      22.403  -1.937 -23.375  1.00  0.00     0.023 C 
HETATM    9  C1  UNL     1      20.893  -1.882 -23.302  1.00  0.00     0.037 C 
HETATM   10  C3  UNL     1      22.766  -3.043 -24.342  1.00  0.00     0.037 C 
HETATM   11  C4  UNL     1      22.860  -0.634 -24.000  1.00  0.00     0.037 C 
ENDBRANCH   6   8
BRANCH   5  12
HETATM   12  O1  UNL     1      25.056  -1.212 -22.733  1.00  0.00    -0.327 OA
ATOM     13  H1  UNL     1      25.787  -0.653 -22.497  1.00  0.00     0.221 HD
ENDBRANCH   5  12
ENDBRANCH   4   5
ENDBRANCH   1   4
TORSDOF 4
ENDMDL
MODEL 4
REMARK VINA RESULT: -4.030180690      1.437      2.027
REMARK  4 active torsions:
REMARK  status: ('A' for Active; 'I' for Inactive)
REMARK    1  A    between atoms: C2_2  and  N1_5 
REMARK    2  A    between atoms: C5_7  and  O1_8 
REMARK    3  A    between atoms: C5_7  and  O2_10 
REMARK    4  A    between atoms: O2_10  and  C6_11 
ROOT
HETATM    1  C6  UNL     1      24.428  -2.566 -19.895  1.00  0.00     0.303 C 
HETATM    2  C7  UNL     1      24.855  -3.459 -18.815  1.00  0.00     0.085 C 
HETATM    3  N2  UNL     1      25.211  -4.159 -17.957  1.00  0.00    -0.195 NA
ENDROOT
BRANCH   1   4
HETATM    4  O2  UNL     1      23.032  -2.532 -19.904  1.00  0.00    -0.303 OA
BRANCH   4   5
HETATM    5  C5  UNL     1      22.345  -2.375 -21.117  1.00  0.00     0.259 C 
HETATM    6  N1  UNL     1      23.039  -1.936 -22.105  1.00  0.00    -0.342 N 
ATOM      7  H1  UNL     1      24.028  -1.729 -21.961  1.00  0.00     0.164 HD
BRANCH   6   8
HETATM    8  C2  UNL     1      22.461  -1.726 -23.417  1.00  0.00     0.023 C 
HETATM    9  C1  UNL     1      23.141  -0.590 -24.150  1.00  0.00     0.037 C 
HETATM   10  C3  UNL     1      20.986  -1.394 -23.345  1.00  0.00     0.037 C 
HETATM   11  C4  UNL     1      22.596  -2.956 -24.293  1.00  0.00     0.037 C 
ENDBRANCH   6   8
BRANCH   5  12
HETATM   12  O1  UNL     1      20.994  -2.689 -21.205  1.00  0.00    -0.327 OA
ATOM     13  H1  UNL     1      20.488  -3.044 -20.484  1.00  0.00     0.221 HD
ENDBRANCH   5  12
ENDBRANCH   4   5
ENDBRANCH   1   4
TORSDOF 4
ENDMDL
MODEL 5
REMARK VINA RESULT: -4.023617795      1.432      2.109
REMARK  4 active torsions:
REMARK  status: ('A' for Active; 'I' for Inactive)
REMARK    1  A    between atoms: C2_2  and  N1_5 
REMARK    2  A    between atoms: C5_7  and  O1_8 
REMARK    3  A    between atoms: C5_7  and  O2_10 
REMARK    4  A    between atoms: O2_10  and  C6_11 
ROOT
HETATM    1  C6  UNL     1      24.445  -2.561 -19.893  1.00  0.00     0.303 C 
HETATM    2  C7  UNL     1      24.870  -3.457 -18.814  1.00  0.00     0.085 C 
HETATM    3  N2  UNL     1      25.224  -4.159 -17.957  1.00  0.00    -0.195 NA
ENDROOT
BRANCH   1   4
HETATM    4  O2  UNL     1      23.050  -2.524 -19.902  1.00  0.00    -0.303 OA
BRANCH   4   5
HETATM    5  C5  UNL     1      22.364  -2.367 -21.117  1.00  0.00     0.259 C 
HETATM    6  N1  UNL     1      23.055  -1.912 -22.099  1.00  0.00    -0.342 N 
ATOM      7  H1  UNL     1      24.041  -1.694 -21.951  1.00  0.00     0.164 HD
BRANCH   6   8
HETATM    8  C2  UNL     1      22.478  -1.699 -23.412  1.00  0.00     0.023 C 
HETATM    9  C1  UNL     1      21.013  -1.332 -23.322  1.00  0.00     0.037 C 
HETATM   10  C3  UNL     1      22.580  -2.930 -24.287  1.00  0.00     0.037 C 
HETATM   11  C4  UNL     1      23.169  -0.571 -24.152  1.00  0.00     0.037 C 
ENDBRANCH   6   8
BRANCH   5  12
HETATM   12  O1  UNL     1      21.016  -2.696 -21.211  1.00  0.00    -0.327 OA
ATOM     13  H1  UNL     1      20.446  -2.798 -20.458  1.00  0.00     0.221 HD
ENDBRANCH   5  12
ENDBRANCH   4   5
ENDBRANCH   1   4
TORSDOF 4
ENDMDL
