MODEL 1
REMARK VINA RESULT: -4.044926560      0.000      0.000
REMARK  4 active torsions:
REMARK  status: ('A' for Active; 'I' for Inactive)
REMARK    1  A    between atoms: C2_2  and  O1_3 
REMARK    2  A    between atoms: O1_3  and  C3_4 
REMARK       I    between atoms: C3_4  and  N1_6 
REMARK    3  A    between atoms: N1_6  and  C4_8 
REMARK    4  A    between atoms: C4_8  and  O3_10 
ROOT
HETATM    1  C3  UNL     1      22.647  -2.462 -20.809  1.00  0.00     0.367 C 
HETATM    2  O2  UNL     1      21.394  -2.504 -20.883  1.00  0.00    -0.238 OA
HETATM    3  N1  UNL     1      23.498  -2.080 -21.877  1.00  0.00    -0.273 N 
ATOM      4  H1  UNL     1      24.511  -2.067 -21.756  1.00  0.00     0.174 HD
ENDROOT
BRANCH   3   5
HETATM    5  C4  UNL     1      22.912  -1.716 -23.118  1.00  0.00     0.218 C 
HETATM    6  S1  UNL     1      22.390  -2.841 -24.190  1.00  0.00    -0.033 SA
BRANCH   5   7
HETATM    7  O3  UNL     1      22.797  -0.361 -23.397  1.00  0.00    -0.332 OA
HETATM    8  C5  UNL     1      23.417   0.111 -24.590  1.00  0.00     0.212 C 
ENDBRANCH   5   7
ENDBRANCH   3   5
BRANCH   1   9
HETATM    9  O1  UNL     1      23.232  -2.814 -19.605  1.00  0.00    -0.304 OA
BRANCH   9  10
HETATM   10  C2  UNL     1      24.654  -2.846 -19.483  1.00  0.00     0.176 C 
HETATM   11  C1  UNL     1      24.947  -3.610 -18.202  1.00  0.00     0.034 C 
ENDBRANCH   9  10
ENDBRANCH   1   9
TORSDOF 4
ENDMDL
MODEL 2
REMARK VINA RESULT: -4.033060077      1.410      1.608
REMARK  4 active torsions:
REMARK  status: ('A' for Active; 'I' for Inactive)
REMARK    1  A    between atoms: C2_2  and  O1_3 
REMARK    2  A    between atoms: O1_3  and  C3_4 
REMARK       I    between atoms: C3_4  and  N1_6 
REMARK    3  A    between atoms: N1_6  and  C4_8 
REMARK    4  A    between atoms: C4_8  and  O3_10 
ROOT
HETATM    1  C3  UNL     1      24.453  -1.909 -21.314  1.00  0.00     0.367 C 
HETATM    2  O2  UNL     1      25.371  -1.536 -22.086  1.00  0.00    -0.238 OA
HETATM    3  N1  UNL     1      23.094  -2.040 -21.692  1.00  0.00    -0.273 N 
ATOM      4  H1  UNL     1      22.393  -2.347 -21.018  1.00  0.00     0.174 HD
ENDROOT
BRANCH   3   5
HETATM    5  C4  UNL     1      22.727  -1.734 -23.030  1.00  0.00     0.218 C 
HETATM    6  S1  UNL     1      22.421  -2.909 -24.132  1.00  0.00    -0.033 SA
BRANCH   5   7
HETATM    7  O3  UNL     1      22.637  -0.393 -23.377  1.00  0.00    -0.332 OA
HETATM    8  C5  UNL     1      23.375   0.032 -24.519  1.00  0.00     0.212 C 
ENDBRANCH   5   7
ENDBRANCH   3   5
BRANCH   1   9
HETATM    9  O1  UNL     1      24.797  -2.211 -20.007  1.00  0.00    -0.304 OA
BRANCH   9  10
HETATM   10  C2  UNL     1      23.981  -3.096 -19.239  1.00  0.00     0.176 C 
HETATM   11  C1  UNL     1      24.900  -3.716 -18.199  1.00  0.00     0.034 C 
ENDBRANCH   9  10
ENDBRANCH   1   9
TORSDOF 4
ENDMDL
MODEL 3
REMARK VINA RESULT: -3.995930274      1.561      1.806
REMARK  4 active torsions:
REMARK  status: ('A' for Active; 'I' for Inactive)
REMARK    1  A    between atoms: C2_2  and  O1_3 
REMARK    2  A    between atoms: O1_3  and  C3_4 
REMARK       I    between atoms: C3_4  and  N1_6 
REMARK    3  A    between atoms: N1_6  and  C4_8 
REMARK    4  A    between atoms: C4_8  and  O3_10 
ROOT
HETATM    1  C3  UNL     1      23.582  -2.154 -21.196  1.00  0.00     0.367 C 
HETATM    2  O2  UNL     1      22.362  -2.021 -20.930  1.00  0.00    -0.238 OA
HETATM    3  N1  UNL     1      24.147  -1.952 -22.480  1.00  0.00    -0.273 N 
ATOM      4  H1  UNL     1      25.148  -2.078 -22.634  1.00  0.00     0.174 HD
ENDROOT
BRANCH   3   5
HETATM    5  C4  UNL     1      23.292  -1.572 -23.548  1.00  0.00     0.218 C 
HETATM    6  S1  UNL     1      23.332  -0.065 -24.191  1.00  0.00    -0.033 SA
BRANCH   5   7
HETATM    7  O3  UNL     1      22.411  -2.529 -24.033  1.00  0.00    -0.332 OA
HETATM    8  C5  UNL     1      21.032  -2.360 -23.717  1.00  0.00     0.212 C 
ENDBRANCH   5   7
ENDBRANCH   3   5
BRANCH   1   9
HETATM    9  O1  UNL     1      24.428  -2.525 -20.163  1.00  0.00    -0.304 OA
BRANCH   9  10
HETATM   10  C2  UNL     1      23.905  -3.195 -19.017  1.00  0.00     0.176 C 
HETATM   11  C1  UNL     1      25.101  -3.504 -18.131  1.00  0.00     0.034 C 
ENDBRANCH   9  10
ENDBRANCH   1   9
TORSDOF 4
ENDMDL
MODEL 4
REMARK VINA RESULT: -3.687332128      2.019      2.465
REMARK  4 active torsions:
REMARK  status: ('A' for Active; 'I' for Inactive)
REMARK    1  A    between atoms: C2_2  and  O1_3 
REMARK    2  A    between atoms: O1_3  and  C3_4 
REMARK       I    between atoms: C3_4  and  N1_6 
REMARK    3  A    between atoms: N1_6  and  C4_8 
REMARK    4  A    between atoms: C4_8  and  O3_10 
ROOT
HETATM    1  C3  UNL     1      24.050  -1.912 -21.711  1.00  0.00     0.367 C 
HETATM    2  O2  UNL     1      25.195  -1.902 -22.228  1.00  0.00    -0.238 OA
HETATM    3  N1  UNL     1      22.853  -1.629 -22.414  1.00  0.00    -0.273 N 
ATOM      4  H1  UNL     1      21.951  -1.652 -21.938  1.00  0.00     0.174 HD
ENDROOT
BRANCH   3   5
HETATM    5  C4  UNL     1      22.934  -1.312 -23.796  1.00  0.00     0.218 C 
HETATM    6  S1  UNL     1      23.431   0.161 -24.317  1.00  0.00    -0.033 SA
BRANCH   5   7
HETATM    7  O3  UNL     1      22.573  -2.301 -24.701  1.00  0.00    -0.332 OA
HETATM    8  C5  UNL     1      22.023  -3.501 -24.163  1.00  0.00     0.212 C 
ENDBRANCH   5   7
ENDBRANCH   3   5
BRANCH   1   9
HETATM    9  O1  UNL     1      23.956  -2.221 -20.364  1.00  0.00    -0.304 OA
BRANCH   9  10
HETATM   10  C2  UNL     1      22.737  -2.738 -19.833  1.00  0.00     0.176 C 
HETATM   11  C1  UNL     1      23.128  -3.565 -18.618  1.00  0.00     0.034 C 
ENDBRANCH   9  10
ENDBRANCH   1   9
TORSDOF 4
ENDMDL
MODEL 5
REMARK VINA RESULT: -3.188763825      2.302      4.740
REMARK  4 active torsions:
REMARK  status: ('A' for Active; 'I' for Inactive)
REMARK    1  A    between atoms: C2_2  and  O1_3 
REMARK    2  A    between atoms: O1_3  and  C3_4 
REMARK       I    between atoms: C3_4  and  N1_6 
REMARK    3  A    between atoms: N1_6  and  C4_8 
REMARK    4  A    between atoms: C4_8  and  O3_10 
ROOT
HETATM    1  C3  UNL     1      24.051  -1.858 -22.037  1.00  0.00     0.367 C 
HETATM    2  O2  UNL     1      25.223  -2.302 -21.952  1.00  0.00    -0.238 OA
HETATM    3  N1  UNL     1      23.063  -2.012 -21.033  1.00  0.00    -0.273 N 
ATOM      4  H1  UNL     1      22.127  -1.629 -21.161  1.00  0.00     0.174 HD
ENDROOT
BRANCH   3   5
HETATM    5  C4  UNL     1      23.403  -2.710 -19.844  1.00  0.00     0.218 C 
HETATM    6  S1  UNL     1      22.277  -3.503 -18.955  1.00  0.00    -0.033 SA
BRANCH   5   7
HETATM    7  O3  UNL     1      24.736  -2.698 -19.455  1.00  0.00    -0.332 OA
HETATM    8  C5  UNL     1      25.076  -3.433 -18.282  1.00  0.00     0.212 C 
ENDBRANCH   5   7
ENDBRANCH   3   5
BRANCH   1   9
HETATM    9  O1  UNL     1      23.706  -1.174 -23.190  1.00  0.00    -0.304 OA
BRANCH   9  10
HETATM   10  C2  UNL     1      22.415  -1.359 -23.771  1.00  0.00     0.176 C 
HETATM   11  C1  UNL     1      22.344  -2.823 -24.175  1.00  0.00     0.034 C 
ENDBRANCH   9  10
ENDBRANCH   1   9
TORSDOF 4
ENDMDL
