MODEL 1
REMARK VINA RESULT: -3.781204666      0.000      0.000
REMARK  1 active torsions:
REMARK  status: ('A' for Active; 'I' for Inactive)
REMARK    1  A    between atoms: C1_2  and  C2_4 
ROOT
HETATM    1  C2  UNL     1      22.967  -1.460 -22.529  1.00  0.00     0.157 C 
HETATM    2  C3  UNL     1      22.087  -2.498 -21.849  1.00  0.00     0.100 C 
HETATM    3  S1  UNL     1      22.414  -2.517 -20.090  1.00  0.00    -0.167 SA
HETATM    4  C4  UNL     1      24.175  -2.970 -19.860  1.00  0.00     0.084 C 
HETATM    5  C5  UNL     1      24.952  -1.742 -20.361  1.00  0.00     0.085 C 
HETATM    6  S2  UNL     1      24.727  -1.752 -22.178  1.00  0.00    -0.152 SA
ENDROOT
BRANCH   1   7
HETATM    7  C1  UNL     1      22.801  -1.494 -23.988  1.00  0.00     0.188 C 
HETATM    8  O1  UNL     1      22.385  -2.525 -24.541  1.00  0.00    -0.647 OA
HETATM    9  O2  UNL     1      23.108  -0.388 -24.736  1.00  0.00    -0.647 OA
ENDBRANCH   1   7
TORSDOF 1
ENDMDL
MODEL 2
REMARK VINA RESULT: -3.778305741      0.064      1.068
REMARK  1 active torsions:
REMARK  status: ('A' for Active; 'I' for Inactive)
REMARK    1  A    between atoms: C1_2  and  C2_4 
ROOT
HETATM    1  C2  UNL     1      22.967  -1.458 -22.511  1.00  0.00     0.157 C 
HETATM    2  C3  UNL     1      22.091  -2.497 -21.829  1.00  0.00     0.100 C 
HETATM    3  S1  UNL     1      22.429  -2.521 -20.071  1.00  0.00    -0.167 SA
HETATM    4  C4  UNL     1      24.191  -2.974 -19.853  1.00  0.00     0.084 C 
HETATM    5  C5  UNL     1      24.964  -1.745 -20.355  1.00  0.00     0.085 C 
HETATM    6  S2  UNL     1      24.729  -1.750 -22.170  1.00  0.00    -0.152 SA
ENDROOT
BRANCH   1   7
HETATM    7  C1  UNL     1      22.793  -1.488 -23.969  1.00  0.00     0.188 C 
HETATM    8  O1  UNL     1      23.039  -0.475 -24.644  1.00  0.00    -0.647 OA
HETATM    9  O2  UNL     1      22.360  -2.634 -24.582  1.00  0.00    -0.647 OA
ENDBRANCH   1   7
TORSDOF 1
ENDMDL
MODEL 3
REMARK VINA RESULT: -3.412847055      3.269      4.515
REMARK  1 active torsions:
REMARK  status: ('A' for Active; 'I' for Inactive)
REMARK    1  A    between atoms: C1_2  and  C2_4 
ROOT
HETATM    1  C2  UNL     1      23.701  -2.266 -20.168  1.00  0.00     0.157 C 
HETATM    2  C3  UNL     1      24.780  -2.392 -21.232  1.00  0.00     0.100 C 
HETATM    3  S1  UNL     1      24.390  -1.338 -22.626  1.00  0.00    -0.167 SA
HETATM    4  C4  UNL     1      22.789  -1.905 -23.316  1.00  0.00     0.084 C 
HETATM    5  C5  UNL     1      21.754  -1.502 -22.253  1.00  0.00     0.085 C 
HETATM    6  S2  UNL     1      22.055  -2.636 -20.849  1.00  0.00    -0.152 SA
ENDROOT
BRANCH   1   7
HETATM    7  C1  UNL     1      23.934  -3.199 -19.059  1.00  0.00     0.188 C 
HETATM    8  O1  UNL     1      23.001  -3.507 -18.300  1.00  0.00    -0.647 OA
HETATM    9  O2  UNL     1      25.183  -3.728 -18.863  1.00  0.00    -0.647 OA
ENDBRANCH   1   7
TORSDOF 1
ENDMDL
MODEL 4
REMARK VINA RESULT: -3.309875273      3.262      4.556
REMARK  1 active torsions:
REMARK  status: ('A' for Active; 'I' for Inactive)
REMARK    1  A    between atoms: C1_2  and  C2_4 
ROOT
HETATM    1  C2  UNL     1      23.763  -2.252 -20.180  1.00  0.00     0.157 C 
HETATM    2  C3  UNL     1      24.784  -2.392 -21.297  1.00  0.00     0.100 C 
HETATM    3  S1  UNL     1      24.320  -1.359 -22.683  1.00  0.00    -0.167 SA
HETATM    4  C4  UNL     1      22.685  -1.936 -23.279  1.00  0.00     0.084 C 
HETATM    5  C5  UNL     1      21.707  -1.518 -22.169  1.00  0.00     0.085 C 
HETATM    6  S2  UNL     1      22.083  -2.631 -20.766  1.00  0.00    -0.152 SA
ENDROOT
BRANCH   1   7
HETATM    7  C1  UNL     1      24.056  -3.169 -19.071  1.00  0.00     0.188 C 
HETATM    8  O1  UNL     1      25.225  -3.529 -18.856  1.00  0.00    -0.647 OA
HETATM    9  O2  UNL     1      23.038  -3.627 -18.276  1.00  0.00    -0.647 OA
ENDBRANCH   1   7
TORSDOF 1
ENDMDL
MODEL 5
REMARK VINA RESULT: -3.081408026      1.343      1.945
REMARK  1 active torsions:
REMARK  status: ('A' for Active; 'I' for Inactive)
REMARK    1  A    between atoms: C1_2  and  C2_4 
ROOT
HETATM    1  C2  UNL     1      23.224  -2.393 -22.600  1.00  0.00     0.157 C 
HETATM    2  C3  UNL     1      24.455  -1.764 -21.967  1.00  0.00     0.100 C 
HETATM    3  S1  UNL     1      24.766  -2.504 -20.368  1.00  0.00    -0.167 SA
HETATM    4  C4  UNL     1      23.305  -2.173 -19.312  1.00  0.00     0.084 C 
HETATM    5  C5  UNL     1      22.196  -3.053 -19.911  1.00  0.00     0.085 C 
HETATM    6  S2  UNL     1      21.776  -2.261 -21.506  1.00  0.00    -0.152 SA
ENDROOT
BRANCH   1   7
HETATM    7  C1  UNL     1      22.877  -1.733 -23.865  1.00  0.00     0.188 C 
HETATM    8  O1  UNL     1      22.431  -2.401 -24.811  1.00  0.00    -0.647 OA
HETATM    9  O2  UNL     1      23.048  -0.380 -23.998  1.00  0.00    -0.647 OA
ENDBRANCH   1   7
TORSDOF 1
ENDMDL
