MODEL 1
REMARK VINA RESULT: -9.014933246      0.000      0.000
REMARK  5 active torsions:
REMARK  status: ('A' for Active; 'I' for Inactive)
REMARK    1  A    between atoms: C6_7  and  N1_8 
REMARK    2  A    between atoms: N2_10  and  C7_12 
REMARK    3  A    between atoms: C9_14  and  C10_15 
REMARK    4  A    between atoms: C10_15  and  N3_16 
REMARK    5  A    between atoms: C16_25  and  N5_26 
ROOT
HETATM    1  C1  UNL     1       5.985  10.715  21.654  1.00  0.00     0.050 C 
HETATM    2  C2  UNL     1       6.101  12.158  21.893  1.00  0.00    -0.039 A 
HETATM    3  C3  UNL     1       4.978  12.912  22.171  1.00  0.00     0.026 A 
HETATM    4  C4  UNL     1       5.040  14.274  22.402  1.00  0.00     0.044 A 
HETATM    5  C5  UNL     1       3.894  15.008  22.680  1.00  0.00     0.216 A 
HETATM    6  O1  UNL     1       2.777  14.477  22.732  1.00  0.00    -0.285 OA
HETATM    7  C6  UNL     1       3.991  16.366  22.906  1.00  0.00     0.145 A 
HETATM    8  C16 UNL     1       5.249  16.925  22.840  1.00  0.00     0.152 A 
HETATM    9  N7  UNL     1       6.357  16.188  22.567  1.00  0.00    -0.339 N 
ATOM     10  H7  UNL     1       7.265  16.651  22.531  1.00  0.00     0.167 HD
HETATM   11  C17 UNL     1       6.287  14.863  22.343  1.00  0.00     0.049 A 
HETATM   12  C18 UNL     1       7.434  14.138  22.067  1.00  0.00     0.054 A 
HETATM   13  C19 UNL     1       7.334  12.777  21.841  1.00  0.00     0.042 A 
HETATM   14 CL1  UNL     1       8.738  11.784  21.484  1.00  0.00    -0.084 Cl
ENDROOT
BRANCH   7  15
HETATM   15  N1  UNL     1       2.878  17.202  23.197  1.00  0.00    -0.292 N 
HETATM   16  N2  UNL     1       1.926  16.848  23.951  1.00  0.00    -0.283 N 
ATOM     17  H2  UNL     1       1.924  15.926  24.387  1.00  0.00     0.188 HD
ATOM     18  H1  UNL     1       2.847  18.132  22.779  1.00  0.00     0.187 HD
BRANCH  16  19
HETATM   19  C7  UNL     1       0.859  17.763  24.178  1.00  0.00     0.142 A 
HETATM   20  C8  UNL     1       0.853  18.902  24.969  1.00  0.00     0.088 A 
HETATM   21  C9  UNL     1      -0.402  19.483  24.893  1.00  0.00     0.108 A 
HETATM   22  O2  UNL     1      -1.086  18.707  24.090  1.00  0.00    -0.239 OA
HETATM   23  N4  UNL     1      -0.396  17.716  23.666  1.00  0.00    -0.243 N 
ATOM     24  H4  UNL     1      -0.739  16.995  23.032  1.00  0.00     0.196 HD
BRANCH  21  25
HETATM   25  C10 UNL     1      -0.861  20.734  25.588  1.00  0.00     0.339 C 
BRANCH  25  26
HETATM   26  N3  UNL     1       0.191  21.209  26.435  1.00  0.00     0.094 N 
HETATM   27  C11 UNL     1      -0.162  21.211  27.821  1.00  0.00     0.273 C 
HETATM   28  C12 UNL     1       0.365  22.455  28.541  1.00  0.00     0.030 C 
HETATM   29  C13 UNL     1       1.823  22.609  28.112  1.00  0.00     0.003 C 
HETATM   30  C14 UNL     1       1.805  23.052  26.658  1.00  0.00     0.030 C 
HETATM   31  C15 UNL     1       0.582  22.527  25.963  1.00  0.00     0.273 C 
ENDBRANCH  25  26
ENDBRANCH  21  25
ENDBRANCH  16  19
ENDBRANCH   7  15
BRANCH   8  32
HETATM   32  N5  UNL     1       5.397  18.313  23.065  1.00  0.00    -0.290 N 
HETATM   33  N6  UNL     1       5.676  18.810  24.193  1.00  0.00    -0.344 N 
ATOM     34  H62 UNL     1       5.797  18.162  24.971  1.00  0.00     0.176 HD
ATOM     35  H61 UNL     1       5.783  19.811  24.355  1.00  0.00     0.176 HD
ATOM     36  H5  UNL     1       5.274  18.947  22.275  1.00  0.00     0.188 HD
ENDBRANCH   8  32
TORSDOF 5
ENDMDL
MODEL 2
REMARK VINA RESULT: -8.822310390      0.970      1.169
REMARK  5 active torsions:
REMARK  status: ('A' for Active; 'I' for Inactive)
REMARK    1  A    between atoms: C6_7  and  N1_8 
REMARK    2  A    between atoms: N2_10  and  C7_12 
REMARK    3  A    between atoms: C9_14  and  C10_15 
REMARK    4  A    between atoms: C10_15  and  N3_16 
REMARK    5  A    between atoms: C16_25  and  N5_26 
ROOT
HETATM    1  C1  UNL     1       6.049  10.597  21.681  1.00  0.00     0.050 C 
HETATM    2  C2  UNL     1       6.179  12.046  21.876  1.00  0.00    -0.039 A 
HETATM    3  C3  UNL     1       5.097  12.793  22.298  1.00  0.00     0.026 A 
HETATM    4  C4  UNL     1       5.173  14.160  22.495  1.00  0.00     0.044 A 
HETATM    5  C5  UNL     1       4.068  14.886  22.921  1.00  0.00     0.216 A 
HETATM    6  O1  UNL     1       2.978  14.344  23.141  1.00  0.00    -0.285 OA
HETATM    7  C6  UNL     1       4.178  16.249  23.108  1.00  0.00     0.145 A 
HETATM    8  C16 UNL     1       5.407  16.820  22.854  1.00  0.00     0.152 A 
HETATM    9  N7  UNL     1       6.474  16.091  22.438  1.00  0.00    -0.339 N 
ATOM     10  H7  UNL     1       7.362  16.562  22.265  1.00  0.00     0.167 HD
HETATM   11  C17 UNL     1       6.391  14.761  22.249  1.00  0.00     0.049 A 
HETATM   12  C18 UNL     1       7.497  14.043  21.825  1.00  0.00     0.054 A 
HETATM   13  C19 UNL     1       7.383  12.677  21.639  1.00  0.00     0.042 A 
HETATM   14 CL1  UNL     1       8.736  11.693  21.102  1.00  0.00    -0.084 Cl
ENDROOT
BRANCH   7  15
HETATM   15  N1  UNL     1       3.108  17.079  23.540  1.00  0.00    -0.292 N 
HETATM   16  N2  UNL     1       1.949  17.031  23.036  1.00  0.00    -0.283 N 
ATOM     17  H2  UNL     1       1.737  16.378  22.282  1.00  0.00     0.188 HD
ATOM     18  H1  UNL     1       3.283  17.744  24.294  1.00  0.00     0.187 HD
BRANCH  16  19
HETATM   19  C7  UNL     1       0.946  17.906  23.542  1.00  0.00     0.142 A 
HETATM   20  C8  UNL     1       1.103  19.166  24.100  1.00  0.00     0.088 A 
HETATM   21  C9  UNL     1      -0.146  19.649  24.453  1.00  0.00     0.108 A 
HETATM   22  O2  UNL     1      -0.984  18.701  24.111  1.00  0.00    -0.239 OA
HETATM   23  N4  UNL     1      -0.392  17.694  23.589  1.00  0.00    -0.243 N 
ATOM     24  H4  UNL     1      -0.860  16.852  23.255  1.00  0.00     0.196 HD
BRANCH  21  25
HETATM   25  C10 UNL     1      -0.454  20.975  25.091  1.00  0.00     0.339 C 
BRANCH  25  26
HETATM   26  N3  UNL     1      -0.702  20.774  26.486  1.00  0.00     0.094 N 
HETATM   27  C11 UNL     1      -1.434  21.846  27.087  1.00  0.00     0.273 C 
HETATM   28  C12 UNL     1      -0.909  22.181  28.485  1.00  0.00     0.030 C 
HETATM   29  C13 UNL     1      -0.753  20.848  29.212  1.00  0.00     0.003 C 
HETATM   30  C14 UNL     1       0.432  20.140  28.575  1.00  0.00     0.030 C 
HETATM   31  C15 UNL     1       0.577  20.547  27.137  1.00  0.00     0.273 C 
ENDBRANCH  25  26
ENDBRANCH  21  25
ENDBRANCH  16  19
ENDBRANCH   7  15
BRANCH   8  32
HETATM   32  N5  UNL     1       5.567  18.214  23.031  1.00  0.00    -0.290 N 
HETATM   33  N6  UNL     1       5.686  18.762  24.163  1.00  0.00    -0.344 N 
ATOM     34  H62 UNL     1       5.663  18.154  24.982  1.00  0.00     0.176 HD
ATOM     35  H61 UNL     1       5.801  19.767  24.291  1.00  0.00     0.176 HD
ATOM     36  H5  UNL     1       5.589  18.808  22.202  1.00  0.00     0.188 HD
ENDBRANCH   8  32
TORSDOF 5
ENDMDL
MODEL 3
REMARK VINA RESULT: -8.728845243      3.977     10.575
REMARK  5 active torsions:
REMARK  status: ('A' for Active; 'I' for Inactive)
REMARK    1  A    between atoms: C6_7  and  N1_8 
REMARK    2  A    between atoms: N2_10  and  C7_12 
REMARK    3  A    between atoms: C9_14  and  C10_15 
REMARK    4  A    between atoms: C10_15  and  N3_16 
REMARK    5  A    between atoms: C16_25  and  N5_26 
ROOT
HETATM    1  C1  UNL     1       5.072  21.071  25.546  1.00  0.00     0.050 C 
HETATM    2  C2  UNL     1       4.296  19.962  24.980  1.00  0.00    -0.039 A 
HETATM    3  C3  UNL     1       4.936  18.854  24.462  1.00  0.00     0.026 A 
HETATM    4  C4  UNL     1       4.245  17.786  23.919  1.00  0.00     0.044 A 
HETATM    5  C5  UNL     1       4.916  16.684  23.405  1.00  0.00     0.216 A 
HETATM    6  O1  UNL     1       6.151  16.612  23.412  1.00  0.00    -0.285 OA
HETATM    7  C6  UNL     1       4.196  15.635  22.870  1.00  0.00     0.145 A 
HETATM    8  C16 UNL     1       2.822  15.748  22.878  1.00  0.00     0.152 A 
HETATM    9  N7  UNL     1       2.186  16.836  23.387  1.00  0.00    -0.339 N 
ATOM     10  H7  UNL     1       1.167  16.869  23.369  1.00  0.00     0.167 HD
HETATM   11  C17 UNL     1       2.867  17.870  23.913  1.00  0.00     0.049 A 
HETATM   12  C18 UNL     1       2.192  18.966  24.424  1.00  0.00     0.054 A 
HETATM   13  C19 UNL     1       2.917  20.016  24.960  1.00  0.00     0.042 A 
HETATM   14 CL1  UNL     1       2.138  21.442  25.628  1.00  0.00    -0.084 Cl
ENDROOT
BRANCH   7  15
HETATM   15  N1  UNL     1       4.788  14.466  22.320  1.00  0.00    -0.292 N 
HETATM   16  N2  UNL     1       5.749  13.854  22.870  1.00  0.00    -0.283 N 
ATOM     17  H2  UNL     1       6.142  14.188  23.750  1.00  0.00     0.188 HD
ATOM     18  H1  UNL     1       4.421  14.102  21.440  1.00  0.00     0.187 HD
BRANCH  16  19
HETATM   19  C7  UNL     1       6.271  12.690  22.236  1.00  0.00     0.142 A 
HETATM   20  C8  UNL     1       5.576  11.639  21.656  1.00  0.00     0.088 A 
HETATM   21  C9  UNL     1       6.493  10.726  21.162  1.00  0.00     0.108 A 
HETATM   22  O2  UNL     1       7.665  11.235  21.449  1.00  0.00    -0.239 OA
HETATM   23  N4  UNL     1       7.573  12.355  22.062  1.00  0.00    -0.243 N 
ATOM     24  H4  UNL     1       8.365  12.916  22.374  1.00  0.00     0.196 HD
BRANCH  21  25
HETATM   25  C10 UNL     1       6.189   9.436  20.454  1.00  0.00     0.339 C 
BRANCH  25  26
HETATM   26  N3  UNL     1       6.965   8.387  21.043  1.00  0.00     0.094 N 
HETATM   27  C11 UNL     1       6.953   7.180  20.276  1.00  0.00     0.273 C 
HETATM   28  C12 UNL     1       6.860   5.940  21.167  1.00  0.00     0.030 C 
HETATM   29  C13 UNL     1       7.885   6.139  22.281  1.00  0.00     0.003 C 
HETATM   30  C14 UNL     1       7.341   7.235  23.183  1.00  0.00     0.030 C 
HETATM   31  C15 UNL     1       6.483   8.185  22.399  1.00  0.00     0.273 C 
ENDBRANCH  25  26
ENDBRANCH  21  25
ENDBRANCH  16  19
ENDBRANCH   7  15
BRANCH   8  32
HETATM   32  N5  UNL     1       2.042  14.698  22.341  1.00  0.00    -0.290 N 
HETATM   33  N6  UNL     1       0.779  14.680  22.378  1.00  0.00    -0.344 N 
ATOM     34  H62 UNL     1       0.313  15.472  22.823  1.00  0.00     0.176 HD
ATOM     35  H61 UNL     1       0.216  13.923  21.991  1.00  0.00     0.176 HD
ATOM     36  H5  UNL     1       2.523  13.915  21.900  1.00  0.00     0.188 HD
ENDBRANCH   8  32
TORSDOF 5
ENDMDL
MODEL 4
REMARK VINA RESULT: -8.720748814      4.616     11.389
REMARK  5 active torsions:
REMARK  status: ('A' for Active; 'I' for Inactive)
REMARK    1  A    between atoms: C6_7  and  N1_8 
REMARK    2  A    between atoms: N2_10  and  C7_12 
REMARK    3  A    between atoms: C9_14  and  C10_15 
REMARK    4  A    between atoms: C10_15  and  N3_16 
REMARK    5  A    between atoms: C16_25  and  N5_26 
ROOT
HETATM    1  C1  UNL     1       1.382  18.027  23.841  1.00  0.00     0.050 C 
HETATM    2  C2  UNL     1       2.741  17.545  23.569  1.00  0.00    -0.039 A 
HETATM    3  C3  UNL     1       2.984  16.196  23.406  1.00  0.00     0.026 A 
HETATM    4  C4  UNL     1       4.248  15.697  23.147  1.00  0.00     0.044 A 
HETATM    5  C5  UNL     1       4.463  14.334  22.987  1.00  0.00     0.216 A 
HETATM    6  O1  UNL     1       3.539  13.516  23.069  1.00  0.00    -0.285 OA
HETATM    7  C6  UNL     1       5.737  13.870  22.731  1.00  0.00     0.145 A 
HETATM    8  C16 UNL     1       6.743  14.809  22.647  1.00  0.00     0.152 A 
HETATM    9  N7  UNL     1       6.510  16.138  22.807  1.00  0.00    -0.339 N 
ATOM     10  H7  UNL     1       7.289  16.791  22.734  1.00  0.00     0.167 HD
HETATM   11  C17 UNL     1       5.276  16.614  23.058  1.00  0.00     0.049 A 
HETATM   12  C18 UNL     1       5.069  17.974  23.216  1.00  0.00     0.054 A 
HETATM   13  C19 UNL     1       3.791  18.437  23.473  1.00  0.00     0.042 A 
HETATM   14 CL1  UNL     1       3.442  20.145  23.686  1.00  0.00    -0.084 Cl
ENDROOT
BRANCH   7  15
HETATM   15  N1  UNL     1       6.059  12.497  22.553  1.00  0.00    -0.292 N 
HETATM   16  N2  UNL     1       5.686  11.824  21.549  1.00  0.00    -0.283 N 
ATOM     17  H2  UNL     1       5.127  12.256  20.813  1.00  0.00     0.188 HD
ATOM     18  H1  UNL     1       6.618  12.031  23.269  1.00  0.00     0.187 HD
BRANCH  16  19
HETATM   19  C7  UNL     1       6.063  10.454  21.465  1.00  0.00     0.142 A 
HETATM   20  C8  UNL     1       6.438   9.598  22.491  1.00  0.00     0.088 A 
HETATM   21  C9  UNL     1       6.718   8.356  21.947  1.00  0.00     0.108 A 
HETATM   22  O2  UNL     1       6.511   8.496  20.660  1.00  0.00    -0.239 OA
HETATM   23  N4  UNL     1       6.137   9.681  20.354  1.00  0.00    -0.243 N 
ATOM     24  H4  UNL     1       5.925   9.999  19.408  1.00  0.00     0.196 HD
BRANCH  21  25
HETATM   25  C10 UNL     1       7.162   7.126  22.687  1.00  0.00     0.339 C 
BRANCH  25  26
HETATM   26  N3  UNL     1       7.418   6.081  21.743  1.00  0.00     0.094 N 
HETATM   27  C11 UNL     1       6.297   5.215  21.545  1.00  0.00     0.273 C 
HETATM   28  C12 UNL     1       6.723   3.750  21.424  1.00  0.00     0.030 C 
HETATM   29  C13 UNL     1       7.899   3.728  20.451  1.00  0.00     0.003 C 
HETATM   30  C14 UNL     1       9.078   4.356  21.177  1.00  0.00     0.030 C 
HETATM   31  C15 UNL     1       8.600   5.361  22.186  1.00  0.00     0.273 C 
ENDBRANCH  25  26
ENDBRANCH  21  25
ENDBRANCH  16  19
ENDBRANCH   7  15
BRANCH   8  32
HETATM   32  N5  UNL     1       8.065  14.380  22.386  1.00  0.00    -0.290 N 
HETATM   33  N6  UNL     1       8.451  13.966  21.257  1.00  0.00    -0.344 N 
ATOM     34  H62 UNL     1       7.762  13.946  20.505  1.00  0.00     0.176 HD
ATOM     35  H61 UNL     1       9.404  13.656  21.068  1.00  0.00     0.176 HD
ATOM     36  H5  UNL     1       8.741  14.407  23.149  1.00  0.00     0.188 HD
ENDBRANCH   8  32
TORSDOF 5
ENDMDL
MODEL 5
REMARK VINA RESULT: -8.700539773      0.810      1.375
REMARK  5 active torsions:
REMARK  status: ('A' for Active; 'I' for Inactive)
REMARK    1  A    between atoms: C6_7  and  N1_8 
REMARK    2  A    between atoms: N2_10  and  C7_12 
REMARK    3  A    between atoms: C9_14  and  C10_15 
REMARK    4  A    between atoms: C10_15  and  N3_16 
REMARK    5  A    between atoms: C16_25  and  N5_26 
ROOT
HETATM    1  C1  UNL     1       5.989  10.668  21.733  1.00  0.00     0.050 C 
HETATM    2  C2  UNL     1       6.108  12.112  21.963  1.00  0.00    -0.039 A 
HETATM    3  C3  UNL     1       4.988  12.871  22.240  1.00  0.00     0.026 A 
HETATM    4  C4  UNL     1       5.054  14.234  22.464  1.00  0.00     0.044 A 
HETATM    5  C5  UNL     1       3.910  14.972  22.741  1.00  0.00     0.216 A 
HETATM    6  O1  UNL     1       2.792  14.443  22.800  1.00  0.00    -0.285 OA
HETATM    7  C6  UNL     1       4.010  16.330  22.959  1.00  0.00     0.145 A 
HETATM    8  C16 UNL     1       5.270  16.887  22.887  1.00  0.00     0.152 A 
HETATM    9  N7  UNL     1       6.375  16.146  22.614  1.00  0.00    -0.339 N 
ATOM     10  H7  UNL     1       7.284  16.607  22.573  1.00  0.00     0.167 HD
HETATM   11  C17 UNL     1       6.302  14.820  22.398  1.00  0.00     0.049 A 
HETATM   12  C18 UNL     1       7.446  14.091  22.123  1.00  0.00     0.054 A 
HETATM   13  C19 UNL     1       7.342  12.728  21.905  1.00  0.00     0.042 A 
HETATM   14 CL1  UNL     1       8.744  11.731  21.549  1.00  0.00    -0.084 Cl
ENDROOT
BRANCH   7  15
HETATM   15  N1  UNL     1       2.901  17.171  23.249  1.00  0.00    -0.292 N 
HETATM   16  N2  UNL     1       1.945  16.820  23.999  1.00  0.00    -0.283 N 
ATOM     17  H2  UNL     1       1.937  15.897  24.433  1.00  0.00     0.188 HD
ATOM     18  H1  UNL     1       2.874  18.102  22.832  1.00  0.00     0.187 HD
BRANCH  16  19
HETATM   19  C7  UNL     1       0.881  17.738  24.226  1.00  0.00     0.142 A 
HETATM   20  C8  UNL     1       0.858  18.843  25.063  1.00  0.00     0.088 A 
HETATM   21  C9  UNL     1      -0.385  19.444  24.965  1.00  0.00     0.108 A 
HETATM   22  O2  UNL     1      -1.048  18.711  24.105  1.00  0.00    -0.239 OA
HETATM   23  N4  UNL     1      -0.354  17.730  23.665  1.00  0.00    -0.243 N 
ATOM     24  H4  UNL     1      -0.682  17.041  22.989  1.00  0.00     0.196 HD
BRANCH  21  25
HETATM   25  C10 UNL     1      -0.855  20.671  25.696  1.00  0.00     0.339 C 
BRANCH  25  26
HETATM   26  N3  UNL     1       0.051  21.747  25.430  1.00  0.00     0.094 N 
HETATM   27  C11 UNL     1       0.343  21.905  24.039  1.00  0.00     0.273 C 
HETATM   28  C12 UNL     1       1.819  22.233  23.801  1.00  0.00     0.030 C 
HETATM   29  C13 UNL     1       2.175  23.335  24.796  1.00  0.00     0.003 C 
HETATM   30  C14 UNL     1       2.198  22.688  26.172  1.00  0.00     0.030 C 
HETATM   31  C15 UNL     1       1.248  21.527  26.224  1.00  0.00     0.273 C 
ENDBRANCH  25  26
ENDBRANCH  21  25
ENDBRANCH  16  19
ENDBRANCH   7  15
BRANCH   8  32
HETATM   32  N5  UNL     1       5.422  18.276  23.103  1.00  0.00    -0.290 N 
HETATM   33  N6  UNL     1       5.617  18.785  24.243  1.00  0.00    -0.344 N 
ATOM     34  H62 UNL     1       5.664  18.148  25.037  1.00  0.00     0.176 HD
ATOM     35  H61 UNL     1       5.726  19.787  24.399  1.00  0.00     0.176 HD
ATOM     36  H5  UNL     1       5.372  18.899  22.297  1.00  0.00     0.188 HD
ENDBRANCH   8  32
TORSDOF 5
ENDMDL
