MODEL 1
REMARK VINA RESULT: -9.455177407      0.000      0.000
REMARK  4 active torsions:
REMARK  status: ('A' for Active; 'I' for Inactive)
REMARK    1  A    between atoms: C4_6  and  N1_7 
REMARK    2  A    between atoms: N1_7  and  C5_9 
REMARK    3  A    between atoms: C7_11  and  C8_12 
REMARK    4  A    between atoms: N3_16  and  C10_17 
ROOT
HETATM    1  C8  UNL     1       6.219  13.013  22.016  1.00  0.00     0.009 A 
HETATM    2  C9  UNL     1       7.471  13.193  21.489  1.00  0.00     0.121 A 
HETATM    3  N2  UNL     1       7.983  11.972  21.229  1.00  0.00    -0.309 N 
ATOM      4  H2  UNL     1       8.906  11.801  20.830  1.00  0.00     0.186 HD
HETATM    5  N3  UNL     1       7.124  11.032  21.562  1.00  0.00    -0.298 N 
HETATM    6  C18 UNL     1       6.016  11.663  22.055  1.00  0.00     0.124 A 
ENDROOT
BRANCH   1   7
HETATM    7  C7  UNL     1       5.330  14.126  22.432  1.00  0.00    -0.014 A 
HETATM    8  C6  UNL     1       3.985  14.116  22.290  1.00  0.00     0.050 A 
HETATM    9  C5  UNL     1       3.278  15.188  22.701  1.00  0.00     0.075 A 
HETATM   10  S2  UNL     1       4.534  16.228  23.302  1.00  0.00    -0.083 SA
HETATM   11  C19 UNL     1       5.889  15.243  22.994  1.00  0.00     0.064 A 
BRANCH   9  12
HETATM   12  N1  UNL     1       1.935  15.609  22.702  1.00  0.00    -0.348 N 
ATOM     13  H1  UNL     1       1.255  14.991  22.259  1.00  0.00     0.166 HD
BRANCH  12  14
HETATM   14  C4  UNL     1       1.432  16.839  23.275  1.00  0.00     0.079 A 
HETATM   15  C1  UNL     1       0.702  17.730  22.571  1.00  0.00     0.149 A 
HETATM   16  F1  UNL     1       0.424  17.592  21.210  1.00  0.00    -0.203 F 
HETATM   17  C2  UNL     1       0.221  18.822  23.235  1.00  0.00     0.094 A 
HETATM   18  S1  UNL     1       0.788  18.599  24.821  1.00  0.00    -0.108 SA
HETATM   19  C3  UNL     1       1.622  17.119  24.602  1.00  0.00     0.082 A 
ENDBRANCH  12  14
ENDBRANCH   9  12
ENDBRANCH   1   7
BRANCH   5  20
HETATM   20  C10 UNL     1       7.227   9.601  21.469  1.00  0.00     0.107 C 
HETATM   21  C11 UNL     1       6.959   8.943  22.820  1.00  0.00     0.032 C 
HETATM   22  C12 UNL     1       6.068   7.748  22.700  1.00  0.00     0.071 C 
HETATM   23  C13 UNL     1       6.644   6.867  21.591  1.00  0.00     0.164 C 
HETATM   24  C14 UNL     1       6.383   7.583  20.298  1.00  0.00     0.071 C 
HETATM   25  O1  UNL     1       7.984   6.685  21.856  1.00  0.00    -0.353 OA
HETATM   26  O2  UNL     1       6.015   5.634  21.596  1.00  0.00    -0.353 OA
HETATM   27  C15 UNL     1       6.316   9.070  20.411  1.00  0.00     0.032 C 
HETATM   28  C16 UNL     1       8.212   5.332  22.001  1.00  0.00     0.197 C 
HETATM   29  C17 UNL     1       7.012   4.723  21.295  1.00  0.00     0.197 C 
ENDBRANCH   5  20
TORSDOF 4
ENDMDL
MODEL 2
REMARK VINA RESULT: -9.406758561      5.588     10.349
REMARK  4 active torsions:
REMARK  status: ('A' for Active; 'I' for Inactive)
REMARK    1  A    between atoms: C4_6  and  N1_7 
REMARK    2  A    between atoms: N1_7  and  C5_9 
REMARK    3  A    between atoms: C7_11  and  C8_12 
REMARK    4  A    between atoms: N3_16  and  C10_17 
ROOT
HETATM    1  C8  UNL     1       6.079  12.063  21.914  1.00  0.00     0.009 A 
HETATM    2  C9  UNL     1       6.913  13.055  21.469  1.00  0.00     0.121 A 
HETATM    3  N2  UNL     1       6.427  14.229  21.923  1.00  0.00    -0.309 N 
ATOM      4  H2  UNL     1       6.848  15.140  21.744  1.00  0.00     0.186 HD
HETATM    5  N3  UNL     1       5.334  14.033  22.629  1.00  0.00    -0.298 N 
HETATM    6  C18 UNL     1       5.101  12.686  22.635  1.00  0.00     0.124 A 
ENDROOT
BRANCH   1   7
HETATM    7  C7  UNL     1       6.280  10.622  21.622  1.00  0.00    -0.014 A 
HETATM    8  C6  UNL     1       6.585   9.693  22.556  1.00  0.00     0.050 A 
HETATM    9  C5  UNL     1       6.749   8.411  22.173  1.00  0.00     0.075 A 
HETATM   10  S2  UNL     1       6.464   8.517  20.462  1.00  0.00    -0.083 SA
HETATM   11  C19 UNL     1       6.155  10.187  20.329  1.00  0.00     0.064 A 
BRANCH   9  12
HETATM   12  N1  UNL     1       7.101   7.185  22.767  1.00  0.00    -0.348 N 
ATOM     13  H1  UNL     1       7.149   7.161  23.786  1.00  0.00     0.166 HD
BRANCH  12  14
HETATM   14  C4  UNL     1       7.400   5.956  22.065  1.00  0.00     0.079 A 
HETATM   15  C1  UNL     1       8.625   5.388  22.069  1.00  0.00     0.149 A 
HETATM   16  F1  UNL     1       9.737   5.965  22.686  1.00  0.00    -0.203 F 
HETATM   17  C2  UNL     1       8.773   4.192  21.429  1.00  0.00     0.094 A 
HETATM   18  S1  UNL     1       7.216   3.872  20.831  1.00  0.00    -0.108 SA
HETATM   19  C3  UNL     1       6.412   5.268  21.412  1.00  0.00     0.082 A 
ENDBRANCH  12  14
ENDBRANCH   9  12
ENDBRANCH   1   7
BRANCH   5  20
HETATM   20  C10 UNL     1       4.480  14.973  23.303  1.00  0.00     0.107 C 
HETATM   21  C11 UNL     1       5.193  16.306  23.517  1.00  0.00     0.032 C 
HETATM   22  C12 UNL     1       4.316  17.474  23.194  1.00  0.00     0.071 C 
HETATM   23  C13 UNL     1       2.992  17.259  23.928  1.00  0.00     0.164 C 
HETATM   24  C14 UNL     1       2.290  16.137  23.221  1.00  0.00     0.071 C 
HETATM   25  O1  UNL     1       3.286  16.979  25.245  1.00  0.00    -0.353 OA
HETATM   26  O2  UNL     1       2.232  18.415  23.874  1.00  0.00    -0.353 OA
HETATM   27  C15 UNL     1       3.196  15.152  22.559  1.00  0.00     0.032 C 
HETATM   28  C16 UNL     1       2.686  17.942  26.031  1.00  0.00     0.197 C 
HETATM   29  C17 UNL     1       1.612  18.492  25.108  1.00  0.00     0.197 C 
ENDBRANCH   5  20
TORSDOF 4
ENDMDL
MODEL 3
REMARK VINA RESULT: -9.387946189      5.262     10.525
REMARK  4 active torsions:
REMARK  status: ('A' for Active; 'I' for Inactive)
REMARK    1  A    between atoms: C4_6  and  N1_7 
REMARK    2  A    between atoms: N1_7  and  C5_9 
REMARK    3  A    between atoms: C7_11  and  C8_12 
REMARK    4  A    between atoms: N3_16  and  C10_17 
ROOT
HETATM    1  C8  UNL     1       4.208  14.759  22.487  1.00  0.00     0.009 A 
HETATM    2  C9  UNL     1       3.027  14.263  22.004  1.00  0.00     0.121 A 
HETATM    3  N2  UNL     1       2.044  15.105  22.387  1.00  0.00    -0.309 N 
ATOM      4  H2  UNL     1       1.056  14.984  22.166  1.00  0.00     0.186 HD
HETATM    5  N3  UNL     1       2.540  16.104  23.085  1.00  0.00    -0.298 N 
HETATM    6  C18 UNL     1       3.891  15.906  23.157  1.00  0.00     0.124 A 
ENDROOT
BRANCH   1   7
HETATM    7  C7  UNL     1       5.526  14.111  22.272  1.00  0.00    -0.014 A 
HETATM    8  C6  UNL     1       5.689  12.883  21.729  1.00  0.00     0.050 A 
HETATM    9  C5  UNL     1       6.936  12.393  21.586  1.00  0.00     0.075 A 
HETATM   10  S2  UNL     1       7.899  13.690  22.227  1.00  0.00    -0.083 SA
HETATM   11  C19 UNL     1       6.661  14.783  22.643  1.00  0.00     0.064 A 
BRANCH   9  12
HETATM   12  N1  UNL     1       7.541  11.203  21.140  1.00  0.00    -0.348 N 
ATOM     13  H1  UNL     1       8.401  11.295  20.599  1.00  0.00     0.166 HD
BRANCH  12  14
HETATM   14  C4  UNL     1       7.052   9.862  21.377  1.00  0.00     0.079 A 
HETATM   15  C1  UNL     1       6.768   8.997  20.380  1.00  0.00     0.149 A 
HETATM   16  F1  UNL     1       6.846   9.333  19.027  1.00  0.00    -0.203 F 
HETATM   17  C2  UNL     1       6.381   7.735  20.726  1.00  0.00     0.094 A 
HETATM   18  S1  UNL     1       6.414   7.765  22.424  1.00  0.00    -0.108 SA
HETATM   19  C3  UNL     1       6.923   9.383  22.654  1.00  0.00     0.082 A 
ENDBRANCH  12  14
ENDBRANCH   9  12
ENDBRANCH   1   7
BRANCH   5  20
HETATM   20  C10 UNL     1       1.886  17.230  23.693  1.00  0.00     0.107 C 
HETATM   21  C11 UNL     1       2.632  18.527  23.391  1.00  0.00     0.032 C 
HETATM   22  C12 UNL     1       1.705  19.639  23.014  1.00  0.00     0.071 C 
HETATM   23  C13 UNL     1       0.609  19.690  24.080  1.00  0.00     0.164 C 
HETATM   24  C14 UNL     1      -0.251  18.479  23.865  1.00  0.00     0.071 C 
HETATM   25  O1  UNL     1       1.225  19.714  25.312  1.00  0.00    -0.353 OA
HETATM   26  O2  UNL     1      -0.138  20.846  23.929  1.00  0.00    -0.353 OA
HETATM   27  C15 UNL     1       0.457  17.309  23.266  1.00  0.00     0.032 C 
HETATM   28  C16 UNL     1       0.846  20.873  25.958  1.00  0.00     0.197 C 
HETATM   29  C17 UNL     1      -0.426  21.255  25.220  1.00  0.00     0.197 C 
ENDBRANCH   5  20
TORSDOF 4
ENDMDL
MODEL 4
REMARK VINA RESULT: -9.188065577      1.725      1.941
REMARK  4 active torsions:
REMARK  status: ('A' for Active; 'I' for Inactive)
REMARK    1  A    between atoms: C4_6  and  N1_7 
REMARK    2  A    between atoms: N1_7  and  C5_9 
REMARK    3  A    between atoms: C7_11  and  C8_12 
REMARK    4  A    between atoms: N3_16  and  C10_17 
ROOT
HETATM    1  C8  UNL     1       6.268  12.911  22.272  1.00  0.00     0.009 A 
HETATM    2  C9  UNL     1       7.619  13.070  22.114  1.00  0.00     0.121 A 
HETATM    3  N2  UNL     1       8.149  11.849  21.890  1.00  0.00    -0.309 N 
ATOM      4  H2  UNL     1       9.140  11.665  21.736  1.00  0.00     0.186 HD
HETATM    5  N3  UNL     1       7.207  10.930  21.898  1.00  0.00    -0.298 N 
HETATM    6  C18 UNL     1       6.025  11.574  22.135  1.00  0.00     0.124 A 
ENDROOT
BRANCH   1   7
HETATM    7  C7  UNL     1       5.329  14.031  22.535  1.00  0.00    -0.014 A 
HETATM    8  C6  UNL     1       5.714  15.267  22.928  1.00  0.00     0.050 A 
HETATM    9  C5  UNL     1       4.771  16.206  23.142  1.00  0.00     0.075 A 
HETATM   10  S2  UNL     1       3.314  15.330  22.780  1.00  0.00    -0.083 SA
HETATM   11  C19 UNL     1       3.985  13.817  22.378  1.00  0.00     0.064 A 
BRANCH   9  12
HETATM   12  N1  UNL     1       4.715  17.541  23.583  1.00  0.00    -0.348 N 
ATOM     13  H1  UNL     1       5.600  18.045  23.649  1.00  0.00     0.166 HD
BRANCH  12  14
HETATM   14  C4  UNL     1       3.517  18.264  23.951  1.00  0.00     0.079 A 
HETATM   15  C1  UNL     1       2.957  18.181  25.177  1.00  0.00     0.149 A 
HETATM   16  F1  UNL     1       3.433  17.337  26.183  1.00  0.00    -0.203 F 
HETATM   17  C2  UNL     1       1.868  18.963  25.432  1.00  0.00     0.094 A 
HETATM   18  S1  UNL     1       1.634  19.798  23.973  1.00  0.00    -0.108 SA
HETATM   19  C3  UNL     1       2.930  19.135  23.072  1.00  0.00     0.082 A 
ENDBRANCH  12  14
ENDBRANCH   9  12
ENDBRANCH   1   7
BRANCH   5  20
HETATM   20  C10 UNL     1       7.293   9.508  21.707  1.00  0.00     0.107 C 
HETATM   21  C11 UNL     1       6.994   8.762  23.005  1.00  0.00     0.032 C 
HETATM   22  C12 UNL     1       6.089   7.591  22.789  1.00  0.00     0.071 C 
HETATM   23  C13 UNL     1       6.672   6.780  21.630  1.00  0.00     0.164 C 
HETATM   24  C14 UNL     1       6.441   7.588  20.386  1.00  0.00     0.071 C 
HETATM   25  O1  UNL     1       8.004   6.562  21.903  1.00  0.00    -0.353 OA
HETATM   26  O2  UNL     1       6.026   5.559  21.540  1.00  0.00    -0.353 OA
HETATM   27  C15 UNL     1       6.392   9.064  20.601  1.00  0.00     0.032 C 
HETATM   28  C16 UNL     1       8.213   5.198  21.956  1.00  0.00     0.197 C 
HETATM   29  C17 UNL     1       7.016   4.657  21.192  1.00  0.00     0.197 C 
ENDBRANCH   5  20
TORSDOF 4
ENDMDL
MODEL 5
REMARK VINA RESULT: -9.179238822      5.251     10.541
REMARK  4 active torsions:
REMARK  status: ('A' for Active; 'I' for Inactive)
REMARK    1  A    between atoms: C4_6  and  N1_7 
REMARK    2  A    between atoms: N1_7  and  C5_9 
REMARK    3  A    between atoms: C7_11  and  C8_12 
REMARK    4  A    between atoms: N3_16  and  C10_17 
ROOT
HETATM    1  C8  UNL     1       4.394  14.849  22.476  1.00  0.00     0.009 A 
HETATM    2  C9  UNL     1       3.176  14.296  22.180  1.00  0.00     0.121 A 
HETATM    3  N2  UNL     1       2.228  15.195  22.517  1.00  0.00    -0.309 N 
ATOM      4  H2  UNL     1       1.225  15.050  22.406  1.00  0.00     0.186 HD
HETATM    5  N3  UNL     1       2.779  16.283  23.010  1.00  0.00    -0.298 N 
HETATM    6  C18 UNL     1       4.132  16.086  22.992  1.00  0.00     0.124 A 
ENDROOT
BRANCH   1   7
HETATM    7  C7  UNL     1       5.691  14.165  22.246  1.00  0.00    -0.014 A 
HETATM    8  C6  UNL     1       5.812  12.932  21.704  1.00  0.00     0.050 A 
HETATM    9  C5  UNL     1       7.044  12.407  21.546  1.00  0.00     0.075 A 
HETATM   10  S2  UNL     1       8.050  13.679  22.169  1.00  0.00    -0.083 SA
HETATM   11  C19 UNL     1       6.848  14.806  22.599  1.00  0.00     0.064 A 
BRANCH   9  12
HETATM   12  N1  UNL     1       7.610  11.200  21.095  1.00  0.00    -0.348 N 
ATOM     13  H1  UNL     1       8.458  11.267  20.532  1.00  0.00     0.166 HD
BRANCH  12  14
HETATM   14  C4  UNL     1       7.097   9.872  21.357  1.00  0.00     0.079 A 
HETATM   15  C1  UNL     1       6.791   8.997  20.375  1.00  0.00     0.149 A 
HETATM   16  F1  UNL     1       6.867   9.310  19.017  1.00  0.00    -0.203 F 
HETATM   17  C2  UNL     1       6.382   7.748  20.744  1.00  0.00     0.094 A 
HETATM   18  S1  UNL     1       6.426   7.805  22.440  1.00  0.00    -0.108 SA
HETATM   19  C3  UNL     1       6.967   9.417  22.642  1.00  0.00     0.082 A 
ENDBRANCH  12  14
ENDBRANCH   9  12
ENDBRANCH   1   7
BRANCH   5  20
HETATM   20  C10 UNL     1       2.176  17.493  23.498  1.00  0.00     0.107 C 
HETATM   21  C11 UNL     1       1.050  17.954  22.577  1.00  0.00     0.032 C 
HETATM   22  C12 UNL     1      -0.162  18.389  23.339  1.00  0.00     0.071 C 
HETATM   23  C13 UNL     1       0.312  19.368  24.415  1.00  0.00     0.164 C 
HETATM   24  C14 UNL     1       1.048  18.553  25.438  1.00  0.00     0.071 C 
HETATM   25  O1  UNL     1       1.098  20.316  23.799  1.00  0.00    -0.353 OA
HETATM   26  O2  UNL     1      -0.779  19.995  24.991  1.00  0.00    -0.353 OA
HETATM   27  C15 UNL     1       1.698  17.320  24.903  1.00  0.00     0.032 C 
HETATM   28  C16 UNL     1       0.522  21.553  24.010  1.00  0.00     0.197 C 
HETATM   29  C17 UNL     1      -0.365  21.296  25.216  1.00  0.00     0.197 C 
ENDBRANCH   5  20
TORSDOF 4
ENDMDL
