MODEL 1
REMARK VINA RESULT: -8.288926014      0.000      0.000
REMARK  9 active torsions:
REMARK  status: ('A' for Active; 'I' for Inactive)
REMARK    1  A    between atoms: C3_3  and  C4_4 
REMARK    2  A    between atoms: C6_6  and  O1_7 
REMARK    3  A    between atoms: C9_16  and  C10_17 
REMARK    4  A    between atoms: C13_23  and  C14_24 
REMARK    5  A    between atoms: C14_24  and  C15_25 
REMARK    6  A    between atoms: N5_32  and  C19_33 
REMARK    7  A    between atoms: C19_33  and  C20_34 
REMARK    8  A    between atoms: C20_34  and  C21_35 
REMARK    9  A    between atoms: C21_35  and  C22_36 
ROOT
HETATM    1  C1  UNL     1      -8.758 -23.691  -1.827  1.00  0.00     0.044 C 
HETATM    2  C2  UNL     1      -7.637 -24.415  -1.756  1.00  0.00     0.035 A 
HETATM    3  C3  UNL     1      -6.999 -25.072  -2.778  1.00  0.00    -0.007 A 
HETATM    4  C8  UNL     1      -5.871 -25.692  -2.194  1.00  0.00     0.043 A 
HETATM    5  C9  UNL     1      -5.863 -25.397  -0.871  1.00  0.00     0.038 A 
HETATM    6  N5  UNL     1      -6.925 -24.629  -0.612  1.00  0.00    -0.347 N 
ENDROOT
BRANCH   5   7
HETATM    7  C10 UNL     1      -4.881 -25.834   0.105  1.00  0.00     0.065 C 
HETATM    8  C11 UNL     1      -3.728 -25.281   0.366  1.00  0.00     0.106 A 
HETATM    9  N3  UNL     1      -2.918 -25.808   1.309  1.00  0.00    -0.317 N 
HETATM   10  C18 UNL     1      -3.279 -24.163  -0.281  1.00  0.00     0.273 A 
HETATM   11  C12 UNL     1      -1.723 -25.265   1.605  1.00  0.00     0.272 A 
ATOM     12  H3  UNL     1      -3.221 -26.643   1.811  1.00  0.00     0.169 HD
HETATM   13  O3  UNL     1      -0.955 -25.737   2.476  1.00  0.00    -0.266 OA
HETATM   14  C13 UNL     1      -1.290 -24.137   0.940  1.00  0.00     0.100 A 
HETATM   15  N4  UNL     1      -2.068 -23.590   0.000  1.00  0.00    -0.317 N 
ATOM     16  H4  UNL     1      -1.763 -22.756  -0.501  1.00  0.00     0.169 HD
HETATM   17  O4  UNL     1      -3.988 -23.637  -1.160  1.00  0.00    -0.266 OA
BRANCH  14  18
HETATM   18  C14 UNL     1      -0.125 -23.568   1.194  1.00  0.00     0.012 C 
BRANCH  18  19
HETATM   19  C15 UNL     1       1.158 -24.043   0.658  1.00  0.00     0.002 C 
HETATM   20  C16 UNL     1       2.284 -23.055   0.895  1.00  0.00     0.013 C 
HETATM   21  C17 UNL     1       1.032 -24.199  -0.842  1.00  0.00     0.013 C 
ENDBRANCH  18  19
ENDBRANCH  14  18
ENDBRANCH   5   7
BRANCH   6  22
HETATM   22  C19 UNL     1      -7.316 -24.065   0.671  1.00  0.00     0.129 C 
BRANCH  22  23
HETATM   23  C20 UNL     1      -6.514 -22.849   1.017  1.00  0.00     0.020 C 
BRANCH  23  24
HETATM   24  C21 UNL     1      -7.065 -21.575   0.423  1.00  0.00     0.001 C 
BRANCH  24  25
HETATM   25  C22 UNL     1      -5.981 -20.806  -0.313  1.00  0.00    -0.004 C 
HETATM   26  C23 UNL     1      -6.130 -20.984  -1.817  1.00  0.00     0.005 C 
ENDBRANCH  24  25
ENDBRANCH  23  24
ENDBRANCH  22  23
ENDBRANCH   6  22
BRANCH   3  27
HETATM   27  C4  UNL     1      -7.293 -25.165  -4.054  1.00  0.00     0.035 C 
HETATM   28  C5  UNL     1      -7.945 -26.184  -4.823  1.00  0.00     0.086 A 
HETATM   29  C6  UNL     1      -9.306 -26.336  -5.125  1.00  0.00     0.171 A 
HETATM   30  C7  UNL     1      -7.327 -27.250  -5.492  1.00  0.00     0.274 A 
HETATM   31  N1  UNL     1      -9.421 -27.416  -5.909  1.00  0.00    -0.276 N 
HETATM   32  N2  UNL     1      -8.251 -27.974  -6.137  1.00  0.00    -0.264 N 
ATOM     33  H1  UNL     1     -10.304 -27.762  -6.282  1.00  0.00     0.189 HD
ATOM     34  H2  UNL     1      -8.080 -28.806  -6.702  1.00  0.00     0.190 HD
HETATM   35  O2  UNL     1      -6.076 -27.456  -5.459  1.00  0.00    -0.266 OA
BRANCH  29  36
HETATM   36  O1  UNL     1     -10.263 -25.463  -4.642  1.00  0.00    -0.344 OA
ATOM     37  H1  UNL     1     -10.254 -25.158  -3.742  1.00  0.00     0.219 HD
ENDBRANCH  29  36
ENDBRANCH   3  27
TORSDOF 9
ENDMDL
MODEL 2
REMARK VINA RESULT: -8.280213677      2.323      3.222
REMARK  9 active torsions:
REMARK  status: ('A' for Active; 'I' for Inactive)
REMARK    1  A    between atoms: C3_3  and  C4_4 
REMARK    2  A    between atoms: C6_6  and  O1_7 
REMARK    3  A    between atoms: C9_16  and  C10_17 
REMARK    4  A    between atoms: C13_23  and  C14_24 
REMARK    5  A    between atoms: C14_24  and  C15_25 
REMARK    6  A    between atoms: N5_32  and  C19_33 
REMARK    7  A    between atoms: C19_33  and  C20_34 
REMARK    8  A    between atoms: C20_34  and  C21_35 
REMARK    9  A    between atoms: C21_35  and  C22_36 
ROOT
HETATM    1  C1  UNL     1      -7.970 -23.067  -2.434  1.00  0.00     0.044 C 
HETATM    2  C2  UNL     1      -6.763 -23.556  -2.739  1.00  0.00     0.035 A 
HETATM    3  C3  UNL     1      -6.419 -24.311  -3.832  1.00  0.00    -0.007 A 
HETATM    4  C8  UNL     1      -5.039 -24.583  -3.694  1.00  0.00     0.043 A 
HETATM    5  C9  UNL     1      -4.604 -23.996  -2.551  1.00  0.00     0.038 A 
HETATM    6  N5  UNL     1      -5.643 -23.379  -1.981  1.00  0.00    -0.347 N 
ENDROOT
BRANCH   5   7
HETATM    7  C10 UNL     1      -3.251 -24.027  -2.026  1.00  0.00     0.065 C 
HETATM    8  C11 UNL     1      -2.652 -25.033  -1.450  1.00  0.00     0.106 A 
HETATM    9  N3  UNL     1      -1.381 -24.907  -1.009  1.00  0.00    -0.317 N 
HETATM   10  C18 UNL     1      -3.255 -26.246  -1.261  1.00  0.00     0.273 A 
HETATM   11  C12 UNL     1      -0.732 -25.923  -0.412  1.00  0.00     0.272 A 
ATOM     12  H3  UNL     1      -0.900 -24.016  -1.134  1.00  0.00     0.169 HD
HETATM   13  O3  UNL     1       0.447 -25.830   0.005  1.00  0.00    -0.266 OA
HETATM   14  C13 UNL     1      -1.359 -27.138  -0.231  1.00  0.00     0.100 A 
HETATM   15  N4  UNL     1      -2.617 -27.295  -0.656  1.00  0.00    -0.317 N 
ATOM     16  H4  UNL     1      -3.096 -28.187  -0.531  1.00  0.00     0.169 HD
HETATM   17  O4  UNL     1      -4.426 -26.415  -1.648  1.00  0.00    -0.266 OA
BRANCH  14  18
HETATM   18  C14 UNL     1      -0.764 -28.164   0.350  1.00  0.00     0.012 C 
BRANCH  18  19
HETATM   19  C15 UNL     1      -1.149 -29.566   0.139  1.00  0.00     0.002 C 
HETATM   20  C16 UNL     1      -1.111 -30.375   1.422  1.00  0.00     0.013 C 
HETATM   21  C17 UNL     1      -0.155 -30.210  -0.803  1.00  0.00     0.013 C 
ENDBRANCH  18  19
ENDBRANCH  14  18
ENDBRANCH   5   7
BRANCH   6  22
HETATM   22  C19 UNL     1      -5.646 -22.612  -0.745  1.00  0.00     0.129 C 
BRANCH  22  23
HETATM   23  C20 UNL     1      -5.526 -23.492   0.460  1.00  0.00     0.020 C 
BRANCH  23  24
HETATM   24  C21 UNL     1      -6.840 -24.089   0.904  1.00  0.00     0.001 C 
BRANCH  24  25
HETATM   25  C22 UNL     1      -6.799 -25.605   0.835  1.00  0.00    -0.004 C 
HETATM   26  C23 UNL     1      -7.688 -26.111  -0.293  1.00  0.00     0.005 C 
ENDBRANCH  24  25
ENDBRANCH  23  24
ENDBRANCH  22  23
ENDBRANCH   6  22
BRANCH   3  27
HETATM   27  C4  UNL     1      -7.141 -24.741  -4.839  1.00  0.00     0.035 C 
HETATM   28  C5  UNL     1      -7.930 -25.924  -5.027  1.00  0.00     0.086 A 
HETATM   29  C6  UNL     1      -9.289 -26.138  -4.757  1.00  0.00     0.171 A 
HETATM   30  C7  UNL     1      -7.499 -27.136  -5.583  1.00  0.00     0.274 A 
HETATM   31  N1  UNL     1      -9.579 -27.387  -5.141  1.00  0.00    -0.276 N 
HETATM   32  N2  UNL     1      -8.523 -27.998  -5.635  1.00  0.00    -0.264 N 
ATOM     33  H1  UNL     1     -10.502 -27.812  -5.060  1.00  0.00     0.189 HD
ATOM     34  H2  UNL     1      -8.491 -28.953  -5.992  1.00  0.00     0.190 HD
HETATM   35  O2  UNL     1      -6.306 -27.338  -5.965  1.00  0.00    -0.266 OA
BRANCH  29  36
HETATM   36  O1  UNL     1     -10.084 -25.157  -4.193  1.00  0.00    -0.344 OA
ATOM     37  H1  UNL     1     -10.684 -25.346  -3.481  1.00  0.00     0.219 HD
ENDBRANCH  29  36
ENDBRANCH   3  27
TORSDOF 9
ENDMDL
MODEL 3
REMARK VINA RESULT: -8.105605979      2.311      2.772
REMARK  9 active torsions:
REMARK  status: ('A' for Active; 'I' for Inactive)
REMARK    1  A    between atoms: C3_3  and  C4_4 
REMARK    2  A    between atoms: C6_6  and  O1_7 
REMARK    3  A    between atoms: C9_16  and  C10_17 
REMARK    4  A    between atoms: C13_23  and  C14_24 
REMARK    5  A    between atoms: C14_24  and  C15_25 
REMARK    6  A    between atoms: N5_32  and  C19_33 
REMARK    7  A    between atoms: C19_33  and  C20_34 
REMARK    8  A    between atoms: C20_34  and  C21_35 
REMARK    9  A    between atoms: C21_35  and  C22_36 
ROOT
HETATM    1  C1  UNL     1      -8.201 -24.385  -1.370  1.00  0.00     0.044 C 
HETATM    2  C2  UNL     1      -6.957 -24.430  -1.856  1.00  0.00     0.035 A 
HETATM    3  C3  UNL     1      -6.575 -24.623  -3.161  1.00  0.00    -0.007 A 
HETATM    4  C8  UNL     1      -5.162 -24.597  -3.157  1.00  0.00     0.043 A 
HETATM    5  C9  UNL     1      -4.745 -24.394  -1.883  1.00  0.00     0.038 A 
HETATM    6  N5  UNL     1      -5.826 -24.293  -1.105  1.00  0.00    -0.347 N 
ENDROOT
BRANCH   5   7
HETATM    7  C10 UNL     1      -3.369 -24.302  -1.429  1.00  0.00     0.065 C 
HETATM    8  C11 UNL     1      -2.606 -25.280  -1.022  1.00  0.00     0.106 A 
HETATM    9  N3  UNL     1      -1.338 -25.035  -0.628  1.00  0.00    -0.317 N 
HETATM   10  C18 UNL     1      -3.031 -26.579  -0.972  1.00  0.00     0.273 A 
HETATM   11  C12 UNL     1      -0.523 -26.018  -0.203  1.00  0.00     0.272 A 
ATOM     12  H3  UNL     1      -0.989 -24.077  -0.652  1.00  0.00     0.169 HD
HETATM   13  O3  UNL     1       0.657 -25.815   0.168  1.00  0.00    -0.266 OA
HETATM   14  C13 UNL     1      -0.971 -27.322  -0.160  1.00  0.00     0.100 A 
HETATM   15  N4  UNL     1      -2.222 -27.598  -0.545  1.00  0.00    -0.317 N 
ATOM     16  H4  UNL     1      -2.570 -28.556  -0.520  1.00  0.00     0.169 HD
HETATM   17  O4  UNL     1      -4.191 -26.859  -1.325  1.00  0.00    -0.266 OA
BRANCH  14  18
HETATM   18  C14 UNL     1      -0.209 -28.321   0.249  1.00  0.00     0.012 C 
BRANCH  18  19
HETATM   19  C15 UNL     1       0.293 -29.385  -0.630  1.00  0.00     0.002 C 
HETATM   20  C16 UNL     1      -0.375 -30.720  -0.362  1.00  0.00     0.013 C 
HETATM   21  C17 UNL     1       1.770 -29.583  -0.362  1.00  0.00     0.013 C 
ENDBRANCH  18  19
ENDBRANCH  14  18
ENDBRANCH   5   7
BRANCH   6  22
HETATM   22  C19 UNL     1      -5.864 -24.064   0.331  1.00  0.00     0.129 C 
BRANCH  22  23
HETATM   23  C20 UNL     1      -6.320 -22.677   0.666  1.00  0.00     0.020 C 
BRANCH  23  24
HETATM   24  C21 UNL     1      -5.471 -21.597   0.041  1.00  0.00     0.001 C 
BRANCH  24  25
HETATM   25  C22 UNL     1      -6.254 -20.833  -1.013  1.00  0.00    -0.004 C 
HETATM   26  C23 UNL     1      -5.541 -20.896  -2.357  1.00  0.00     0.005 C 
ENDBRANCH  24  25
ENDBRANCH  23  24
ENDBRANCH  22  23
ENDBRANCH   6  22
BRANCH   3  27
HETATM   27  C4  UNL     1      -7.290 -24.803  -4.246  1.00  0.00     0.035 C 
HETATM   28  C5  UNL     1      -7.872 -25.973  -4.837  1.00  0.00     0.086 A 
HETATM   29  C6  UNL     1      -9.146 -26.526  -4.644  1.00  0.00     0.171 A 
HETATM   30  C7  UNL     1      -7.282 -26.805  -5.798  1.00  0.00     0.274 A 
HETATM   31  N1  UNL     1      -9.242 -27.592  -5.448  1.00  0.00    -0.276 N 
HETATM   32  N2  UNL     1      -8.139 -27.775  -6.143  1.00  0.00    -0.264 N 
ATOM     33  H1  UNL     1     -10.067 -28.188  -5.514  1.00  0.00     0.189 HD
ATOM     34  H2  UNL     1      -7.969 -28.518  -6.820  1.00  0.00     0.190 HD
HETATM   35  O2  UNL     1      -6.106 -26.626  -6.241  1.00  0.00    -0.266 OA
BRANCH  29  36
HETATM   36  O1  UNL     1     -10.052 -25.979  -3.754  1.00  0.00    -0.344 OA
ATOM     37  H1  UNL     1     -10.251 -26.393  -2.923  1.00  0.00     0.219 HD
ENDBRANCH  29  36
ENDBRANCH   3  27
TORSDOF 9
ENDMDL
MODEL 4
REMARK VINA RESULT: -7.992984630      3.362      7.411
REMARK  9 active torsions:
REMARK  status: ('A' for Active; 'I' for Inactive)
REMARK    1  A    between atoms: C3_3  and  C4_4 
REMARK    2  A    between atoms: C6_6  and  O1_7 
REMARK    3  A    between atoms: C9_16  and  C10_17 
REMARK    4  A    between atoms: C13_23  and  C14_24 
REMARK    5  A    between atoms: C14_24  and  C15_25 
REMARK    6  A    between atoms: N5_32  and  C19_33 
REMARK    7  A    between atoms: C19_33  and  C20_34 
REMARK    8  A    between atoms: C20_34  and  C21_35 
REMARK    9  A    between atoms: C21_35  and  C22_36 
ROOT
HETATM    1  C1  UNL     1      -3.563 -22.760   0.473  1.00  0.00     0.044 C 
HETATM    2  C2  UNL     1      -4.194 -23.586  -0.368  1.00  0.00     0.035 A 
HETATM    3  C3  UNL     1      -4.315 -24.949  -0.267  1.00  0.00    -0.007 A 
HETATM    4  C8  UNL     1      -5.058 -25.355  -1.399  1.00  0.00     0.043 A 
HETATM    5  C9  UNL     1      -5.356 -24.251  -2.128  1.00  0.00     0.038 A 
HETATM    6  N5  UNL     1      -4.835 -23.191  -1.505  1.00  0.00    -0.347 N 
ENDROOT
BRANCH   5   7
HETATM    7  C10 UNL     1      -6.105 -24.214  -3.371  1.00  0.00     0.065 C 
HETATM    8  C11 UNL     1      -5.621 -24.205  -4.583  1.00  0.00     0.106 A 
HETATM    9  N3  UNL     1      -6.451 -24.168  -5.647  1.00  0.00    -0.317 N 
HETATM   10  C18 UNL     1      -4.279 -24.230  -4.846  1.00  0.00     0.273 A 
HETATM   11  C12 UNL     1      -5.988 -24.158  -6.911  1.00  0.00     0.272 A 
ATOM     12  H3  UNL     1      -7.459 -24.148  -5.488  1.00  0.00     0.169 HD
HETATM   13  O3  UNL     1      -6.740 -24.124  -7.914  1.00  0.00    -0.266 OA
HETATM   14  C13 UNL     1      -4.631 -24.184  -7.153  1.00  0.00     0.100 A 
HETATM   15  N4  UNL     1      -3.782 -24.221  -6.121  1.00  0.00    -0.317 N 
ATOM     16  H4  UNL     1      -2.775 -24.241  -6.282  1.00  0.00     0.169 HD
HETATM   17  O4  UNL     1      -3.470 -24.264  -3.900  1.00  0.00    -0.266 OA
BRANCH  14  18
HETATM   18  C14 UNL     1      -4.129 -24.175  -8.375  1.00  0.00     0.012 C 
BRANCH  18  19
HETATM   19  C15 UNL     1      -3.352 -23.062  -8.936  1.00  0.00     0.002 C 
HETATM   20  C16 UNL     1      -4.201 -21.828  -9.177  1.00  0.00     0.013 C 
HETATM   21  C17 UNL     1      -2.808 -23.478 -10.286  1.00  0.00     0.013 C 
ENDBRANCH  18  19
ENDBRANCH  14  18
ENDBRANCH   5   7
BRANCH   6  22
HETATM   22  C19 UNL     1      -4.912 -21.798  -1.917  1.00  0.00     0.129 C 
BRANCH  22  23
HETATM   23  C20 UNL     1      -6.294 -21.243  -1.763  1.00  0.00     0.020 C 
BRANCH  23  24
HETATM   24  C21 UNL     1      -6.658 -20.921  -0.334  1.00  0.00     0.001 C 
BRANCH  24  25
HETATM   25  C22 UNL     1      -7.849 -21.745   0.122  1.00  0.00    -0.004 C 
HETATM   26  C23 UNL     1      -8.450 -22.509  -1.050  1.00  0.00     0.005 C 
ENDBRANCH  24  25
ENDBRANCH  23  24
ENDBRANCH  22  23
ENDBRANCH   6  22
BRANCH   3  27
HETATM   27  C4  UNL     1      -3.872 -25.785   0.642  1.00  0.00     0.035 C 
HETATM   28  C5  UNL     1      -2.556 -26.256   0.963  1.00  0.00     0.086 A 
HETATM   29  C6  UNL     1      -1.620 -25.734   1.868  1.00  0.00     0.171 A 
HETATM   30  C7  UNL     1      -1.932 -27.403   0.452  1.00  0.00     0.274 A 
HETATM   31  N1  UNL     1      -0.555 -26.545   1.850  1.00  0.00    -0.276 N 
HETATM   32  N2  UNL     1      -0.723 -27.545   1.011  1.00  0.00    -0.264 N 
ATOM     33  H1  UNL     1       0.281 -26.405   2.416  1.00  0.00     0.189 HD
ATOM     34  H2  UNL     1      -0.054 -28.292   0.821  1.00  0.00     0.190 HD
HETATM   35  O2  UNL     1      -2.473 -28.160  -0.410  1.00  0.00    -0.266 OA
BRANCH  29  36
HETATM   36  O1  UNL     1      -1.869 -24.581   2.590  1.00  0.00    -0.344 OA
ATOM     37  H1  UNL     1      -1.295 -23.826   2.541  1.00  0.00     0.219 HD
ENDBRANCH  29  36
ENDBRANCH   3  27
TORSDOF 9
ENDMDL
MODEL 5
REMARK VINA RESULT: -7.989266136      3.943      8.040
REMARK  9 active torsions:
REMARK  status: ('A' for Active; 'I' for Inactive)
REMARK    1  A    between atoms: C3_3  and  C4_4 
REMARK    2  A    between atoms: C6_6  and  O1_7 
REMARK    3  A    between atoms: C9_16  and  C10_17 
REMARK    4  A    between atoms: C13_23  and  C14_24 
REMARK    5  A    between atoms: C14_24  and  C15_25 
REMARK    6  A    between atoms: N5_32  and  C19_33 
REMARK    7  A    between atoms: C19_33  and  C20_34 
REMARK    8  A    between atoms: C20_34  and  C21_35 
REMARK    9  A    between atoms: C21_35  and  C22_36 
ROOT
HETATM    1  C1  UNL     1      -3.321 -23.376  -0.149  1.00  0.00     0.044 C 
HETATM    2  C2  UNL     1      -3.566 -24.048  -1.279  1.00  0.00     0.035 A 
HETATM    3  C3  UNL     1      -2.882 -25.129  -1.774  1.00  0.00    -0.007 A 
HETATM    4  C8  UNL     1      -3.520 -25.466  -2.989  1.00  0.00     0.043 A 
HETATM    5  C9  UNL     1      -4.545 -24.600  -3.185  1.00  0.00     0.038 A 
HETATM    6  N5  UNL     1      -4.569 -23.750  -2.154  1.00  0.00    -0.347 N 
ENDROOT
BRANCH   5   7
HETATM    7  C10 UNL     1      -5.460 -24.584  -4.311  1.00  0.00     0.065 C 
HETATM    8  C11 UNL     1      -5.248 -24.071  -5.492  1.00  0.00     0.106 A 
HETATM    9  N3  UNL     1      -6.203 -24.135  -6.444  1.00  0.00    -0.317 N 
HETATM   10  C18 UNL     1      -4.076 -23.452  -5.832  1.00  0.00     0.273 A 
HETATM   11  C12 UNL     1      -6.019 -23.618  -7.672  1.00  0.00     0.272 A 
ATOM     12  H3  UNL     1      -7.090 -24.589  -6.225  1.00  0.00     0.169 HD
HETATM   13  O3  UNL     1      -6.892 -23.665  -8.572  1.00  0.00    -0.266 OA
HETATM   14  C13 UNL     1      -4.831 -22.998  -7.994  1.00  0.00     0.100 A 
HETATM   15  N4  UNL     1      -3.864 -22.918  -7.074  1.00  0.00    -0.317 N 
ATOM     16  H4  UNL     1      -2.977 -22.463  -7.295  1.00  0.00     0.169 HD
HETATM   17  O4  UNL     1      -3.162 -23.365  -4.991  1.00  0.00    -0.266 OA
BRANCH  14  18
HETATM   18  C14 UNL     1      -4.603 -22.474  -9.185  1.00  0.00     0.012 C 
BRANCH  18  19
HETATM   19  C15 UNL     1      -3.272 -22.373  -9.799  1.00  0.00     0.002 C 
HETATM   20  C16 UNL     1      -3.261 -21.457 -11.008  1.00  0.00     0.013 C 
HETATM   21  C17 UNL     1      -2.857 -23.741 -10.294  1.00  0.00     0.013 C 
ENDBRANCH  18  19
ENDBRANCH  14  18
ENDBRANCH   5   7
BRANCH   6  22
HETATM   22  C19 UNL     1      -5.503 -22.656  -1.933  1.00  0.00     0.129 C 
BRANCH  22  23
HETATM   23  C20 UNL     1      -6.772 -23.123  -1.290  1.00  0.00     0.020 C 
BRANCH  23  24
HETATM   24  C21 UNL     1      -7.982 -22.313  -1.686  1.00  0.00     0.001 C 
BRANCH  24  25
HETATM   25  C22 UNL     1      -9.136 -23.217  -2.084  1.00  0.00    -0.004 C 
HETATM   26  C23 UNL     1      -9.469 -23.038  -3.558  1.00  0.00     0.005 C 
ENDBRANCH  24  25
ENDBRANCH  23  24
ENDBRANCH  22  23
ENDBRANCH   6  22
BRANCH   3  27
HETATM   27  C4  UNL     1      -1.847 -25.781  -1.299  1.00  0.00     0.035 C 
HETATM   28  C5  UNL     1      -0.959 -25.518  -0.203  1.00  0.00     0.086 A 
HETATM   29  C6  UNL     1      -1.056 -25.921   1.136  1.00  0.00     0.171 A 
HETATM   30  C7  UNL     1       0.253 -24.817  -0.261  1.00  0.00     0.274 A 
HETATM   31  N1  UNL     1       0.035 -25.469   1.767  1.00  0.00    -0.276 N 
HETATM   32  N2  UNL     1       0.827 -24.807   0.950  1.00  0.00    -0.264 N 
ATOM     33  H1  UNL     1       0.228 -25.618   2.757  1.00  0.00     0.189 HD
ATOM     34  H2  UNL     1       1.714 -24.367   1.194  1.00  0.00     0.190 HD
HETATM   35  O2  UNL     1       0.698 -24.288  -1.325  1.00  0.00    -0.266 OA
BRANCH  29  36
HETATM   36  O1  UNL     1      -2.133 -26.652   1.602  1.00  0.00    -0.344 OA
ATOM     37  H1  UNL     1      -2.541 -26.466   2.439  1.00  0.00     0.219 HD
ENDBRANCH  29  36
ENDBRANCH   3  27
TORSDOF 9
ENDMDL
