MODEL 1
REMARK VINA RESULT: -7.611641531      0.000      0.000
REMARK  7 active torsions:
REMARK  status: ('A' for Active; 'I' for Inactive)
REMARK    1  A    between atoms: C2_2  and  C3_3 
REMARK    2  A    between atoms: C3_3  and  C4_4 
REMARK    3  A    between atoms: C4_4  and  C5_5 
REMARK    4  A    between atoms: C6_8  and  O1_9 
REMARK    5  A    between atoms: C7_11  and  C8_12 
REMARK    6  A    between atoms: C12_19  and  C13_20 
REMARK    7  A    between atoms: C13_20  and  C14_21 
ROOT
HETATM    1  C5  UNL     1      -3.282 -23.264  -2.957  1.00  0.00     0.175 C 
HETATM    2  N1  UNL     1      -3.764 -24.403  -2.256  1.00  0.00    -0.359 N 
ATOM      3  H1  UNL     1      -3.672 -25.264  -2.796  1.00  0.00     0.162 HD
HETATM    4  C6  UNL     1      -4.327 -24.614  -1.013  1.00  0.00     0.135 C 
HETATM    5  C7  UNL     1      -5.543 -24.145  -0.345  1.00  0.00     0.162 C 
HETATM    6  N2  UNL     1      -6.484 -25.280  -0.232  1.00  0.00    -0.347 N 
ATOM      7  H2  UNL     1      -6.556 -25.738   0.676  1.00  0.00     0.163 HD
HETATM    8  C11 UNL     1      -7.279 -25.777  -1.261  1.00  0.00     0.241 C 
HETATM    9  O2  UNL     1      -7.255 -27.046  -1.451  1.00  0.00    -0.271 OA
HETATM   10  C12 UNL     1      -8.156 -24.987  -2.166  1.00  0.00     0.176 C 
HETATM   11  N3  UNL     1      -9.006 -25.851  -2.969  1.00  0.00    -0.346 N 
ATOM     12  H3  UNL     1      -9.704 -26.404  -2.470  1.00  0.00     0.163 HD
HETATM   13  C16 UNL     1      -8.958 -25.999  -4.363  1.00  0.00     0.240 C 
HETATM   14  O3  UNL     1     -10.069 -25.888  -4.990  1.00  0.00    -0.271 OA
HETATM   15  C17 UNL     1      -7.740 -26.274  -5.168  1.00  0.00     0.172 C 
HETATM   16  C18 UNL     1      -8.022 -27.418  -6.128  1.00  0.00     0.042 C 
HETATM   17  N4  UNL     1      -7.316 -25.168  -5.989  1.00  0.00    -0.347 N 
ATOM     18  H4  UNL     1      -8.009 -24.609  -6.487  1.00  0.00     0.163 HD
HETATM   19  C19 UNL     1      -5.936 -24.853  -6.107  1.00  0.00     0.236 C 
HETATM   20  O4  UNL     1      -5.452 -24.292  -7.119  1.00  0.00    -0.272 OA
HETATM   21  C20 UNL     1      -5.057 -25.215  -4.969  1.00  0.00     0.225 C 
HETATM   22  N5  UNL     1      -3.713 -24.715  -5.068  1.00  0.00    -0.351 N 
ATOM     23  H5  UNL     1      -3.099 -25.240  -5.690  1.00  0.00     0.163 HD
HETATM   24  C21 UNL     1      -3.125 -23.621  -4.441  1.00  0.00     0.240 C 
HETATM   25  O5  UNL     1      -2.394 -22.815  -5.073  1.00  0.00    -0.271 OA
ENDROOT
BRANCH   1  26
HETATM   26  C4  UNL     1      -3.966 -21.967  -2.895  1.00  0.00     0.035 C 
BRANCH  26  27
HETATM   27  C3  UNL     1      -5.456 -21.952  -2.764  1.00  0.00     0.002 C 
BRANCH  27  28
HETATM   28  C2  UNL     1      -5.935 -20.621  -2.183  1.00  0.00    -0.004 C 
HETATM   29  C1  UNL     1      -6.825 -20.969  -1.001  1.00  0.00     0.005 C 
ENDBRANCH  27  28
ENDBRANCH  26  27
ENDBRANCH   1  26
BRANCH   4  30
HETATM   30  O1  UNL     1      -3.651 -25.409  -0.229  1.00  0.00    -0.348 OA
ATOM     31  H1  UNL     1      -3.998 -26.289  -0.153  1.00  0.00     0.219 HD
ENDBRANCH   4  30
BRANCH   5  32
HETATM   32  C8  UNL     1      -5.226 -23.619   1.048  1.00  0.00     0.008 C 
HETATM   33  C9  UNL     1      -6.390 -23.359   1.916  1.00  0.00     0.012 C 
HETATM   34  C10 UNL     1      -4.283 -22.438   0.931  1.00  0.00     0.012 C 
ENDBRANCH   5  32
BRANCH  10  35
HETATM   35  C13 UNL     1      -9.071 -24.073  -1.376  1.00  0.00     0.034 C 
BRANCH  35  36
HETATM   36  C14 UNL     1      -9.955 -23.232  -2.258  1.00  0.00    -0.002 C 
HETATM   37  C15 UNL     1      -9.031 -22.670  -3.352  1.00  0.00     0.005 C 
ENDBRANCH  35  36
ENDBRANCH  10  35
TORSDOF 7
ENDMDL
MODEL 2
REMARK VINA RESULT: -7.561960897      2.459      6.375
REMARK  7 active torsions:
REMARK  status: ('A' for Active; 'I' for Inactive)
REMARK    1  A    between atoms: C2_2  and  C3_3 
REMARK    2  A    between atoms: C3_3  and  C4_4 
REMARK    3  A    between atoms: C4_4  and  C5_5 
REMARK    4  A    between atoms: C6_8  and  O1_9 
REMARK    5  A    between atoms: C7_11  and  C8_12 
REMARK    6  A    between atoms: C12_19  and  C13_20 
REMARK    7  A    between atoms: C13_20  and  C14_21 
ROOT
HETATM    1  C5  UNL     1      -7.415 -22.564   1.344  1.00  0.00     0.175 C 
HETATM    2  N1  UNL     1      -7.224 -23.932   1.003  1.00  0.00    -0.359 N 
ATOM      3  H1  UNL     1      -6.649 -24.428   1.683  1.00  0.00     0.162 HD
HETATM    4  C6  UNL     1      -7.637 -24.742  -0.034  1.00  0.00     0.135 C 
HETATM    5  C7  UNL     1      -7.437 -24.733  -1.486  1.00  0.00     0.162 C 
HETATM    6  N2  UNL     1      -6.541 -25.854  -1.843  1.00  0.00    -0.347 N 
ATOM      7  H2  UNL     1      -6.973 -26.689  -2.239  1.00  0.00     0.163 HD
HETATM    8  C11 UNL     1      -5.158 -25.867  -1.684  1.00  0.00     0.241 C 
HETATM    9  O2  UNL     1      -4.651 -26.893  -1.102  1.00  0.00    -0.271 OA
HETATM   10  C12 UNL     1      -4.205 -24.811  -2.119  1.00  0.00     0.176 C 
HETATM   11  N3  UNL     1      -2.826 -25.258  -1.995  1.00  0.00    -0.346 N 
ATOM     12  H3  UNL     1      -2.536 -26.030  -2.595  1.00  0.00     0.163 HD
HETATM   13  C16 UNL     1      -1.859 -24.730  -1.128  1.00  0.00     0.240 C 
HETATM   14  O3  UNL     1      -0.730 -24.420  -1.648  1.00  0.00    -0.271 OA
HETATM   15  C17 UNL     1      -2.027 -24.504   0.331  1.00  0.00     0.172 C 
HETATM   16  C18 UNL     1      -0.830 -25.080   1.069  1.00  0.00     0.042 C 
HETATM   17  N4  UNL     1      -2.088 -23.114   0.708  1.00  0.00    -0.347 N 
ATOM     18  H4  UNL     1      -1.463 -22.440   0.266  1.00  0.00     0.163 HD
HETATM   19  C19 UNL     1      -3.016 -22.680   1.692  1.00  0.00     0.236 C 
HETATM   20  O4  UNL     1      -2.817 -21.675   2.415  1.00  0.00    -0.272 OA
HETATM   21  C20 UNL     1      -4.262 -23.467   1.843  1.00  0.00     0.225 C 
HETATM   22  N5  UNL     1      -5.237 -22.882   2.723  1.00  0.00    -0.351 N 
ATOM     23  H5  UNL     1      -5.054 -23.007   3.719  1.00  0.00     0.163 HD
HETATM   24  C21 UNL     1      -6.393 -22.170   2.419  1.00  0.00     0.240 C 
HETATM   25  O5  UNL     1      -6.693 -21.111   3.027  1.00  0.00    -0.271 OA
ENDROOT
BRANCH   1  26
HETATM   26  C4  UNL     1      -7.408 -21.503   0.331  1.00  0.00     0.035 C 
BRANCH  26  27
HETATM   27  C3  UNL     1      -6.127 -21.208  -0.384  1.00  0.00     0.002 C 
BRANCH  27  28
HETATM   28  C2  UNL     1      -6.310 -21.335  -1.897  1.00  0.00    -0.004 C 
HETATM   29  C1  UNL     1      -4.959 -21.015  -2.517  1.00  0.00     0.005 C 
ENDBRANCH  27  28
ENDBRANCH  26  27
ENDBRANCH   1  26
BRANCH   4  30
HETATM   30  O1  UNL     1      -8.374 -25.760   0.319  1.00  0.00    -0.348 OA
ATOM     31  H1  UNL     1      -9.139 -25.541   0.837  1.00  0.00     0.219 HD
ENDBRANCH   4  30
BRANCH   5  32
HETATM   32  C8  UNL     1      -8.762 -24.901  -2.216  1.00  0.00     0.008 C 
HETATM   33  C9  UNL     1      -8.691 -25.569  -3.530  1.00  0.00     0.012 C 
HETATM   34  C10 UNL     1      -9.481 -23.567  -2.253  1.00  0.00     0.012 C 
ENDBRANCH   5  32
BRANCH  10  35
HETATM   35  C13 UNL     1      -4.424 -24.446  -3.573  1.00  0.00     0.034 C 
BRANCH  35  36
HETATM   36  C14 UNL     1      -4.219 -25.612  -4.503  1.00  0.00    -0.002 C 
HETATM   37  C15 UNL     1      -5.399 -25.565  -5.489  1.00  0.00     0.005 C 
ENDBRANCH  35  36
ENDBRANCH  10  35
TORSDOF 7
ENDMDL
MODEL 3
REMARK VINA RESULT: -7.518333605      2.011      5.251
REMARK  7 active torsions:
REMARK  status: ('A' for Active; 'I' for Inactive)
REMARK    1  A    between atoms: C2_2  and  C3_3 
REMARK    2  A    between atoms: C3_3  and  C4_4 
REMARK    3  A    between atoms: C4_4  and  C5_5 
REMARK    4  A    between atoms: C6_8  and  O1_9 
REMARK    5  A    between atoms: C7_11  and  C8_12 
REMARK    6  A    between atoms: C12_19  and  C13_20 
REMARK    7  A    between atoms: C13_20  and  C14_21 
ROOT
HETATM    1  C5  UNL     1      -8.045 -24.428  -0.175  1.00  0.00     0.175 C 
HETATM    2  N1  UNL     1      -7.441 -23.231  -0.649  1.00  0.00    -0.359 N 
ATOM      3  H1  UNL     1      -7.898 -22.866  -1.485  1.00  0.00     0.162 HD
HETATM    4  C6  UNL     1      -6.381 -22.448  -0.239  1.00  0.00     0.135 C 
HETATM    5  C7  UNL     1      -4.943 -22.673  -0.074  1.00  0.00     0.162 C 
HETATM    6  N2  UNL     1      -4.227 -21.928  -1.131  1.00  0.00    -0.347 N 
ATOM      7  H2  UNL     1      -3.786 -21.048  -0.865  1.00  0.00     0.163 HD
HETATM    8  C11 UNL     1      -4.104 -22.325  -2.460  1.00  0.00     0.241 C 
HETATM    9  O2  UNL     1      -4.388 -21.450  -3.355  1.00  0.00    -0.271 OA
HETATM   10  C12 UNL     1      -3.679 -23.663  -2.951  1.00  0.00     0.176 C 
HETATM   11  N3  UNL     1      -3.449 -23.652  -4.387  1.00  0.00    -0.346 N 
ATOM     12  H3  UNL     1      -2.678 -23.077  -4.726  1.00  0.00     0.163 HD
HETATM   13  C16 UNL     1      -4.186 -24.358  -5.350  1.00  0.00     0.240 C 
HETATM   14  O3  UNL     1      -3.515 -25.054  -6.189  1.00  0.00    -0.271 OA
HETATM   15  C17 UNL     1      -5.666 -24.364  -5.481  1.00  0.00     0.172 C 
HETATM   16  C18 UNL     1      -6.040 -24.109  -6.932  1.00  0.00     0.042 C 
HETATM   17  N4  UNL     1      -6.282 -25.618  -5.131  1.00  0.00    -0.347 N 
ATOM     18  H4  UNL     1      -5.849 -26.496  -5.420  1.00  0.00     0.163 HD
HETATM   19  C19 UNL     1      -7.490 -25.638  -4.384  1.00  0.00     0.236 C 
HETATM   20  O4  UNL     1      -8.323 -26.572  -4.466  1.00  0.00    -0.272 OA
HETATM   21  C20 UNL     1      -7.747 -24.493  -3.478  1.00  0.00     0.225 C 
HETATM   22  N5  UNL     1      -8.889 -24.652  -2.621  1.00  0.00    -0.351 N 
ATOM     23  H5  UNL     1      -9.792 -24.484  -3.065  1.00  0.00     0.163 HD
HETATM   24  C21 UNL     1      -8.948 -25.001  -1.275  1.00  0.00     0.240 C 
HETATM   25  O5  UNL     1      -9.778 -25.845  -0.850  1.00  0.00    -0.271 OA
ENDROOT
BRANCH   1  26
HETATM   26  C4  UNL     1      -7.250 -25.542   0.355  1.00  0.00     0.035 C 
BRANCH  26  27
HETATM   27  C3  UNL     1      -7.524 -26.012   1.750  1.00  0.00     0.002 C 
BRANCH  27  28
HETATM   28  C2  UNL     1      -6.216 -26.287   2.495  1.00  0.00    -0.004 C 
HETATM   29  C1  UNL     1      -5.103 -26.127   1.472  1.00  0.00     0.005 C 
ENDBRANCH  27  28
ENDBRANCH  26  27
ENDBRANCH   1  26
BRANCH   4  30
HETATM   30  O1  UNL     1      -6.692 -21.221   0.081  1.00  0.00    -0.348 OA
ATOM     31  H1  UNL     1      -6.346 -20.923   0.913  1.00  0.00     0.219 HD
ENDBRANCH   4  30
BRANCH   5  32
HETATM   32  C8  UNL     1      -4.472 -22.184   1.288  1.00  0.00     0.008 C 
HETATM   33  C9  UNL     1      -3.050 -22.426   1.600  1.00  0.00     0.012 C 
HETATM   34  C10 UNL     1      -5.420 -22.693   2.355  1.00  0.00     0.012 C 
ENDBRANCH   5  32
BRANCH  10  35
HETATM   35  C13 UNL     1      -2.383 -24.096  -2.296  1.00  0.00     0.034 C 
BRANCH  35  36
HETATM   36  C14 UNL     1      -2.556 -25.293  -1.400  1.00  0.00    -0.002 C 
HETATM   37  C15 UNL     1      -3.814 -26.015  -1.915  1.00  0.00     0.005 C 
ENDBRANCH  35  36
ENDBRANCH  10  35
TORSDOF 7
ENDMDL
MODEL 4
REMARK VINA RESULT: -7.405332855      2.805      6.635
REMARK  7 active torsions:
REMARK  status: ('A' for Active; 'I' for Inactive)
REMARK    1  A    between atoms: C2_2  and  C3_3 
REMARK    2  A    between atoms: C3_3  and  C4_4 
REMARK    3  A    between atoms: C4_4  and  C5_5 
REMARK    4  A    between atoms: C6_8  and  O1_9 
REMARK    5  A    between atoms: C7_11  and  C8_12 
REMARK    6  A    between atoms: C12_19  and  C13_20 
REMARK    7  A    between atoms: C13_20  and  C14_21 
ROOT
HETATM    1  C5  UNL     1      -7.069 -23.125   1.596  1.00  0.00     0.175 C 
HETATM    2  N1  UNL     1      -6.688 -24.468   1.323  1.00  0.00    -0.359 N 
ATOM      3  H1  UNL     1      -6.056 -24.847   2.029  1.00  0.00     0.162 HD
HETATM    4  C6  UNL     1      -6.974 -25.377   0.325  1.00  0.00     0.135 C 
HETATM    5  C7  UNL     1      -6.763 -25.410  -1.124  1.00  0.00     0.162 C 
HETATM    6  N2  UNL     1      -5.717 -26.413  -1.422  1.00  0.00    -0.347 N 
ATOM      7  H2  UNL     1      -6.026 -27.317  -1.778  1.00  0.00     0.163 HD
HETATM    8  C11 UNL     1      -4.347 -26.226  -1.259  1.00  0.00     0.241 C 
HETATM    9  O2  UNL     1      -3.709 -27.143  -0.625  1.00  0.00    -0.271 OA
HETATM   10  C12 UNL     1      -3.544 -25.071  -1.742  1.00  0.00     0.176 C 
HETATM   11  N3  UNL     1      -2.119 -25.317  -1.591  1.00  0.00    -0.346 N 
ATOM     12  H3  UNL     1      -1.718 -26.069  -2.152  1.00  0.00     0.163 HD
HETATM   13  C16 UNL     1      -1.242 -24.618  -0.747  1.00  0.00     0.240 C 
HETATM   14  O3  UNL     1      -0.162 -24.181  -1.278  1.00  0.00    -0.271 OA
HETATM   15  C17 UNL     1      -1.455 -24.347   0.698  1.00  0.00     0.172 C 
HETATM   16  C18 UNL     1      -0.197 -24.717   1.467  1.00  0.00     0.042 C 
HETATM   17  N4  UNL     1      -1.711 -22.963   1.005  1.00  0.00    -0.347 N 
ATOM     18  H4  UNL     1      -1.180 -22.231   0.533  1.00  0.00     0.163 HD
HETATM   19  C19 UNL     1      -2.700 -22.614   1.963  1.00  0.00     0.236 C 
HETATM   20  O4  UNL     1      -2.648 -21.558   2.638  1.00  0.00    -0.272 OA
HETATM   21  C20 UNL     1      -3.827 -23.558   2.150  1.00  0.00     0.225 C 
HETATM   22  N5  UNL     1      -4.882 -23.072   2.996  1.00  0.00    -0.351 N 
ATOM     23  H5  UNL     1      -4.694 -23.122   3.997  1.00  0.00     0.163 HD
HETATM   24  C21 UNL     1      -6.122 -22.542   2.653  1.00  0.00     0.240 C 
HETATM   25  O5  UNL     1      -6.571 -21.506   3.208  1.00  0.00    -0.271 OA
ENDROOT
BRANCH   1  26
HETATM   26  C4  UNL     1      -7.198 -22.123   0.532  1.00  0.00     0.035 C 
BRANCH  26  27
HETATM   27  C3  UNL     1      -6.006 -21.836  -0.326  1.00  0.00     0.002 C 
BRANCH  27  28
HETATM   28  C2  UNL     1      -6.410 -21.739  -1.799  1.00  0.00    -0.004 C 
HETATM   29  C1  UNL     1      -5.379 -20.841  -2.463  1.00  0.00     0.005 C 
ENDBRANCH  27  28
ENDBRANCH  26  27
ENDBRANCH   1  26
BRANCH   4  30
HETATM   30  O1  UNL     1      -7.568 -26.469   0.726  1.00  0.00    -0.348 OA
ATOM     31  H1  UNL     1      -7.110 -27.274   0.518  1.00  0.00     0.219 HD
ENDBRANCH   4  30
BRANCH   5  32
HETATM   32  C8  UNL     1      -8.044 -25.795  -1.849  1.00  0.00     0.008 C 
HETATM   33  C9  UNL     1      -7.894 -26.150  -3.274  1.00  0.00     0.012 C 
HETATM   34  C10 UNL     1      -9.096 -24.732  -1.598  1.00  0.00     0.012 C 
ENDBRANCH   5  32
BRANCH  10  35
HETATM   35  C13 UNL     1      -3.797 -24.810  -3.213  1.00  0.00     0.034 C 
BRANCH  35  36
HETATM   36  C14 UNL     1      -3.218 -23.502  -3.679  1.00  0.00    -0.002 C 
HETATM   37  C15 UNL     1      -3.596 -23.390  -5.166  1.00  0.00     0.005 C 
ENDBRANCH  35  36
ENDBRANCH  10  35
TORSDOF 7
ENDMDL
MODEL 5
REMARK VINA RESULT: -7.349904852      2.774      6.041
REMARK  7 active torsions:
REMARK  status: ('A' for Active; 'I' for Inactive)
REMARK    1  A    between atoms: C2_2  and  C3_3 
REMARK    2  A    between atoms: C3_3  and  C4_4 
REMARK    3  A    between atoms: C4_4  and  C5_5 
REMARK    4  A    between atoms: C6_8  and  O1_9 
REMARK    5  A    between atoms: C7_11  and  C8_12 
REMARK    6  A    between atoms: C12_19  and  C13_20 
REMARK    7  A    between atoms: C13_20  and  C14_21 
ROOT
HETATM    1  C5  UNL     1      -2.145 -25.046  -1.550  1.00  0.00     0.175 C 
HETATM    2  N1  UNL     1      -2.698 -23.852  -2.091  1.00  0.00    -0.359 N 
ATOM      3  H1  UNL     1      -2.412 -23.019  -1.575  1.00  0.00     0.162 HD
HETATM    4  C6  UNL     1      -3.531 -23.559  -3.151  1.00  0.00     0.135 C 
HETATM    5  C7  UNL     1      -4.906 -23.920  -3.505  1.00  0.00     0.162 C 
HETATM    6  N2  UNL     1      -5.758 -22.720  -3.361  1.00  0.00    -0.347 N 
ATOM      7  H2  UNL     1      -6.017 -22.226  -4.216  1.00  0.00     0.163 HD
HETATM    8  C11 UNL     1      -6.236 -22.206  -2.159  1.00  0.00     0.241 C 
HETATM    9  O2  UNL     1      -6.071 -20.949  -1.959  1.00  0.00    -0.271 OA
HETATM   10  C12 UNL     1      -6.921 -22.966  -1.079  1.00  0.00     0.176 C 
HETATM   11  N3  UNL     1      -7.479 -22.074  -0.075  1.00  0.00    -0.346 N 
ATOM     12  H3  UNL     1      -8.235 -21.458  -0.376  1.00  0.00     0.163 HD
HETATM   13  C16 UNL     1      -7.079 -21.979   1.266  1.00  0.00     0.240 C 
HETATM   14  O3  UNL     1      -8.006 -22.036   2.147  1.00  0.00    -0.271 OA
HETATM   15  C17 UNL     1      -5.683 -21.817   1.748  1.00  0.00     0.172 C 
HETATM   16  C18 UNL     1      -5.634 -20.691   2.767  1.00  0.00     0.042 C 
HETATM   17  N4  UNL     1      -5.154 -22.977   2.419  1.00  0.00    -0.347 N 
ATOM     18  H4  UNL     1      -5.744 -23.505   3.063  1.00  0.00     0.163 HD
HETATM   19  C19 UNL     1      -3.815 -23.391   2.186  1.00  0.00     0.236 C 
HETATM   20  O4  UNL     1      -3.141 -24.019   3.036  1.00  0.00    -0.272 OA
HETATM   21  C20 UNL     1      -3.219 -23.049   0.872  1.00  0.00     0.225 C 
HETATM   22  N5  UNL     1      -1.934 -23.644   0.626  1.00  0.00    -0.351 N 
ATOM     23  H5  UNL     1      -1.147 -23.183   1.085  1.00  0.00     0.163 HD
HETATM   24  C21 UNL     1      -1.601 -24.752  -0.146  1.00  0.00     0.240 C 
HETATM   25  O5  UNL     1      -0.800 -25.628   0.271  1.00  0.00    -0.271 OA
ENDROOT
BRANCH   1  26
HETATM   26  C4  UNL     1      -2.918 -26.289  -1.464  1.00  0.00     0.035 C 
BRANCH  26  27
HETATM   27  C3  UNL     1      -3.825 -26.485  -0.290  1.00  0.00     0.002 C 
BRANCH  27  28
HETATM   28  C2  UNL     1      -5.266 -26.124  -0.653  1.00  0.00    -0.004 C 
HETATM   29  C1  UNL     1      -6.006 -25.950   0.664  1.00  0.00     0.005 C 
ENDBRANCH  27  28
ENDBRANCH  26  27
ENDBRANCH   1  26
BRANCH   4  30
HETATM   30  O1  UNL     1      -3.012 -22.785  -4.065  1.00  0.00    -0.348 OA
ATOM     31  H1  UNL     1      -3.294 -21.879  -4.032  1.00  0.00     0.219 HD
ENDBRANCH   4  30
BRANCH   5  32
HETATM   32  C8  UNL     1      -4.982 -24.417  -4.942  1.00  0.00     0.008 C 
HETATM   33  C9  UNL     1      -6.316 -24.364  -5.569  1.00  0.00     0.012 C 
HETATM   34  C10 UNL     1      -4.324 -25.779  -5.032  1.00  0.00     0.012 C 
ENDBRANCH   5  32
BRANCH  10  35
HETATM   35  C13 UNL     1      -8.067 -23.787  -1.633  1.00  0.00     0.034 C 
BRANCH  35  36
HETATM   36  C14 UNL     1      -9.259 -22.945  -2.002  1.00  0.00    -0.002 C 
HETATM   37  C15 UNL     1      -9.438 -23.126  -3.519  1.00  0.00     0.005 C 
ENDBRANCH  35  36
ENDBRANCH  10  35
TORSDOF 7
ENDMDL
