MODEL 1
REMARK VINA RESULT: -9.240213793      0.000      0.000
REMARK  6 active torsions:
REMARK  status: ('A' for Active; 'I' for Inactive)
REMARK    1  A    between atoms: C4_4  and  N1_5 
REMARK    2  A    between atoms: N1_5  and  C5_7 
REMARK    3  A    between atoms: C5_7  and  C6_8 
REMARK    4  A    between atoms: C6_8  and  N2_9 
REMARK    5  A    between atoms: C16_31  and  C17_32 
REMARK    6  A    between atoms: C17_32  and  C18_33 
ROOT
HETATM    1  C6  UNL     1      -7.319 -23.760  -0.174  1.00  0.00     0.158 C 
ENDROOT
BRANCH   1   2
HETATM    2  C5  UNL     1      -6.498 -22.570  -0.688  1.00  0.00     0.141 C 
BRANCH   2   3
HETATM    3  N1  UNL     1      -5.196 -23.047  -1.014  1.00  0.00    -0.375 N 
ATOM      4  H1  UNL     1      -4.659 -23.430  -0.236  1.00  0.00     0.161 HD
BRANCH   3   5
HETATM    5  C4  UNL     1      -4.618 -23.060  -2.139  1.00  0.00     0.101 A 
HETATM    6  C3  UNL     1      -4.540 -24.295  -2.793  1.00  0.00     0.055 A 
HETATM    7  C2  UNL     1      -3.931 -24.422  -4.024  1.00  0.00    -0.050 A 
HETATM    8  C1  UNL     1      -3.862 -25.731  -4.665  1.00  0.00     0.049 C 
HETATM    9  C16 UNL     1      -3.396 -23.320  -4.611  1.00  0.00    -0.031 A 
HETATM   10  C15 UNL     1      -3.496 -22.103  -3.920  1.00  0.00     0.097 A 
HETATM   11  N6  UNL     1      -4.089 -21.990  -2.725  1.00  0.00    -0.352 N 
ATOM     12  H6  UNL     1      -4.136 -21.082  -2.264  1.00  0.00     0.166 HD
BRANCH   9  13
HETATM   13  C17 UNL     1      -2.735 -23.284  -5.914  1.00  0.00     0.099 C 
BRANCH  13  14
HETATM   14  C18 UNL     1      -3.718 -23.277  -7.009  1.00  0.00     0.029 A 
HETATM   15  C19 UNL     1      -3.489 -23.343  -8.358  1.00  0.00     0.114 A 
HETATM   16  N7  UNL     1      -4.718 -23.311  -8.960  1.00  0.00    -0.360 N 
HETATM   17  C20 UNL     1      -5.661 -23.229  -8.023  1.00  0.00     0.180 A 
ATOM     18  H7  UNL     1      -4.885 -23.343  -9.965  1.00  0.00     0.166 HD
HETATM   19  N8  UNL     1      -5.043 -23.209  -6.837  1.00  0.00    -0.354 N 
ATOM     20  H8  UNL     1      -5.513 -23.150  -5.934  1.00  0.00     0.166 HD
ENDBRANCH  13  14
ENDBRANCH   9  13
ENDBRANCH   3   5
ENDBRANCH   2   3
ENDBRANCH   1   2
BRANCH   1  21
HETATM   21  N2  UNL     1      -7.841 -24.527  -1.285  1.00  0.00    -0.250 N 
HETATM   22  C7  UNL     1      -7.273 -25.759  -1.714  1.00  0.00     0.329 C 
HETATM   23  O1  UNL     1      -6.254 -26.240  -1.117  1.00  0.00    -0.247 OA
HETATM   24  N3  UNL     1      -7.798 -26.496  -2.803  1.00  0.00    -0.301 N 
HETATM   25  C8  UNL     1      -8.547 -25.746  -3.821  1.00  0.00     0.259 C 
ATOM     26  H3  UNL     1      -7.662 -27.504  -2.878  1.00  0.00     0.167 HD
HETATM   27  N4  UNL     1      -9.467 -24.880  -3.130  1.00  0.00    -0.301 N 
HETATM   28  C10 UNL     1      -7.612 -25.014  -4.685  1.00  0.00     0.276 C 
HETATM   29  C14 UNL     1      -9.230 -26.659  -4.753  1.00  0.00     0.212 C 
HETATM   30  C9  UNL     1      -8.990 -24.094  -2.048  1.00  0.00     0.329 C 
ATOM     31  H4  UNL     1     -10.445 -24.832  -3.415  1.00  0.00     0.167 HD
HETATM   32  O2  UNL     1      -9.568 -23.019  -1.751  1.00  0.00    -0.247 OA
HETATM   33  O3  UNL     1      -7.037 -23.946  -4.403  1.00  0.00    -0.268 OA
HETATM   34  N5  UNL     1      -7.465 -25.720  -5.904  1.00  0.00    -0.341 N 
HETATM   35  C11 UNL     1      -8.324 -26.898  -5.905  1.00  0.00     0.091 C 
ATOM     36  H5  UNL     1      -6.849 -25.445  -6.668  1.00  0.00     0.163 HD
HETATM   37  C12 UNL     1      -9.091 -26.968  -7.209  1.00  0.00     0.046 C 
HETATM   38  C13 UNL     1      -7.499 -28.160  -5.735  1.00  0.00     0.046 C 
HETATM   39  O4  UNL     1     -10.337 -27.130  -4.605  1.00  0.00    -0.290 OA
ENDBRANCH   1  21
TORSDOF 6
ENDMDL
MODEL 2
REMARK VINA RESULT: -9.180563001      4.011      6.730
REMARK  6 active torsions:
REMARK  status: ('A' for Active; 'I' for Inactive)
REMARK    1  A    between atoms: C4_4  and  N1_5 
REMARK    2  A    between atoms: N1_5  and  C5_7 
REMARK    3  A    between atoms: C5_7  and  C6_8 
REMARK    4  A    between atoms: C6_8  and  N2_9 
REMARK    5  A    between atoms: C16_31  and  C17_32 
REMARK    6  A    between atoms: C17_32  and  C18_33 
ROOT
HETATM    1  C6  UNL     1      -3.685 -24.016  -7.177  1.00  0.00     0.158 C 
ENDROOT
BRANCH   1   2
HETATM    2  C5  UNL     1      -3.498 -22.659  -7.868  1.00  0.00     0.141 C 
BRANCH   2   3
HETATM    3  N1  UNL     1      -3.822 -22.824  -9.244  1.00  0.00    -0.375 N 
ATOM      4  H1  UNL     1      -4.597 -23.458  -9.443  1.00  0.00     0.161 HD
BRANCH   3   5
HETATM    5  C4  UNL     1      -3.279 -22.289 -10.254  1.00  0.00     0.101 A 
HETATM    6  C3  UNL     1      -2.045 -22.813 -10.657  1.00  0.00     0.055 A 
HETATM    7  C2  UNL     1      -1.367 -22.304 -11.744  1.00  0.00    -0.050 A 
HETATM    8  C1  UNL     1      -0.078 -22.874 -12.122  1.00  0.00     0.049 C 
HETATM    9  C16 UNL     1      -1.913 -21.271 -12.437  1.00  0.00    -0.031 A 
HETATM   10  C15 UNL     1      -3.150 -20.777 -11.997  1.00  0.00     0.097 A 
HETATM   11  N6  UNL     1      -3.801 -21.277 -10.940  1.00  0.00    -0.352 N 
ATOM     12  H6  UNL     1      -4.698 -20.881 -10.661  1.00  0.00     0.166 HD
BRANCH   9  13
HETATM   13  C17 UNL     1      -1.330 -20.634 -13.616  1.00  0.00     0.099 C 
BRANCH  13  14
HETATM   14  C18 UNL     1      -0.571 -19.428 -13.250  1.00  0.00     0.029 A 
HETATM   15  C19 UNL     1       0.681 -19.345 -12.700  1.00  0.00     0.114 A 
HETATM   16  N7  UNL     1       0.950 -18.011 -12.553  1.00  0.00    -0.360 N 
HETATM   17  C20 UNL     1      -0.090 -17.305 -12.993  1.00  0.00     0.180 A 
ATOM     18  H7  UNL     1       1.809 -17.620 -12.168  1.00  0.00     0.166 HD
HETATM   19  N8  UNL     1      -1.013 -18.177 -13.415  1.00  0.00    -0.354 N 
ATOM     20  H8  UNL     1      -1.920 -17.923 -13.807  1.00  0.00     0.166 HD
ENDBRANCH  13  14
ENDBRANCH   9  13
ENDBRANCH   3   5
ENDBRANCH   2   3
ENDBRANCH   1   2
BRANCH   1  21
HETATM   21  N2  UNL     1      -4.732 -23.934  -6.182  1.00  0.00    -0.250 N 
HETATM   22  C7  UNL     1      -4.478 -23.688  -4.804  1.00  0.00     0.329 C 
HETATM   23  O1  UNL     1      -3.282 -23.530  -4.388  1.00  0.00    -0.247 OA
HETATM   24  N3  UNL     1      -5.517 -23.610  -3.844  1.00  0.00    -0.301 N 
HETATM   25  C8  UNL     1      -6.765 -24.321  -4.149  1.00  0.00     0.259 C 
ATOM     26  H3  UNL     1      -5.402 -23.082  -2.979  1.00  0.00     0.167 HD
HETATM   27  N4  UNL     1      -7.123 -24.005  -5.508  1.00  0.00    -0.301 N 
HETATM   28  C10 UNL     1      -6.582 -25.761  -3.926  1.00  0.00     0.276 C 
HETATM   29  C14 UNL     1      -7.826 -23.960  -3.193  1.00  0.00     0.212 C 
HETATM   30  C9  UNL     1      -6.129 -24.094  -6.518  1.00  0.00     0.329 C 
ATOM     31  H4  UNL     1      -8.075 -23.722  -5.740  1.00  0.00     0.167 HD
HETATM   32  O2  UNL     1      -6.464 -24.315  -7.709  1.00  0.00    -0.247 OA
HETATM   33  O3  UNL     1      -6.009 -26.555  -4.696  1.00  0.00    -0.268 OA
HETATM   34  N5  UNL     1      -7.167 -26.111  -2.685  1.00  0.00    -0.341 N 
HETATM   35  C11 UNL     1      -7.790 -24.941  -2.079  1.00  0.00     0.091 C 
ATOM     36  H5  UNL     1      -7.153 -27.045  -2.275  1.00  0.00     0.163 HD
HETATM   37  C12 UNL     1      -9.185 -25.294  -1.606  1.00  0.00     0.046 C 
HETATM   38  C13 UNL     1      -6.967 -24.447  -0.903  1.00  0.00     0.046 C 
HETATM   39  O4  UNL     1      -8.592 -23.027  -3.298  1.00  0.00    -0.290 OA
ENDBRANCH   1  21
TORSDOF 6
ENDMDL
MODEL 3
REMARK VINA RESULT: -9.150772924      3.872      6.642
REMARK  6 active torsions:
REMARK  status: ('A' for Active; 'I' for Inactive)
REMARK    1  A    between atoms: C4_4  and  N1_5 
REMARK    2  A    between atoms: N1_5  and  C5_7 
REMARK    3  A    between atoms: C5_7  and  C6_8 
REMARK    4  A    between atoms: C6_8  and  N2_9 
REMARK    5  A    between atoms: C16_31  and  C17_32 
REMARK    6  A    between atoms: C17_32  and  C18_33 
ROOT
HETATM    1  C6  UNL     1      -3.988 -24.831  -7.672  1.00  0.00     0.158 C 
ENDROOT
BRANCH   1   2
HETATM    2  C5  UNL     1      -3.302 -23.458  -7.646  1.00  0.00     0.141 C 
BRANCH   2   3
HETATM    3  N1  UNL     1      -3.905 -22.652  -8.653  1.00  0.00    -0.375 N 
ATOM      4  H1  UNL     1      -4.880 -22.399  -8.490  1.00  0.00     0.161 HD
BRANCH   3   5
HETATM    5  C4  UNL     1      -3.394 -22.206  -9.720  1.00  0.00     0.101 A 
HETATM    6  C3  UNL     1      -2.212 -22.816 -10.155  1.00  0.00     0.055 A 
HETATM    7  C2  UNL     1      -1.571 -22.409 -11.306  1.00  0.00    -0.050 A 
HETATM    8  C1  UNL     1      -0.335 -23.066 -11.716  1.00  0.00     0.049 C 
HETATM    9  C16 UNL     1      -2.104 -21.392 -12.032  1.00  0.00    -0.031 A 
HETATM   10  C15 UNL     1      -3.289 -20.808 -11.559  1.00  0.00     0.097 A 
HETATM   11  N6  UNL     1      -3.903 -21.210 -10.440  1.00  0.00    -0.352 N 
ATOM     12  H6  UNL     1      -4.763 -20.753 -10.139  1.00  0.00     0.166 HD
BRANCH   9  13
HETATM   13  C17 UNL     1      -1.558 -20.856 -13.277  1.00  0.00     0.099 C 
BRANCH  13  14
HETATM   14  C18 UNL     1      -0.863 -19.580 -13.049  1.00  0.00     0.029 A 
HETATM   15  C19 UNL     1       0.201 -19.326 -12.224  1.00  0.00     0.114 A 
HETATM   16  N7  UNL     1       0.489 -17.995 -12.365  1.00  0.00    -0.360 N 
HETATM   17  C20 UNL     1      -0.360 -17.454 -13.237  1.00  0.00     0.180 A 
ATOM     18  H7  UNL     1       1.234 -17.497 -11.878  1.00  0.00     0.166 HD
HETATM   19  N8  UNL     1      -1.180 -18.427 -13.649  1.00  0.00    -0.354 N 
ATOM     20  H8  UNL     1      -1.937 -18.307 -14.323  1.00  0.00     0.166 HD
ENDBRANCH  13  14
ENDBRANCH   9  13
ENDBRANCH   3   5
ENDBRANCH   2   3
ENDBRANCH   1   2
BRANCH   1  21
HETATM   21  N2  UNL     1      -4.970 -24.921  -6.613  1.00  0.00    -0.250 N 
HETATM   22  C7  UNL     1      -6.218 -24.240  -6.651  1.00  0.00     0.329 C 
HETATM   23  O1  UNL     1      -6.521 -23.505  -7.649  1.00  0.00    -0.247 OA
HETATM   24  N3  UNL     1      -7.168 -24.341  -5.605  1.00  0.00    -0.301 N 
HETATM   25  C8  UNL     1      -6.659 -24.673  -4.268  1.00  0.00     0.259 C 
ATOM     26  H3  UNL     1      -8.163 -24.191  -5.774  1.00  0.00     0.167 HD
HETATM   27  N4  UNL     1      -5.746 -25.777  -4.413  1.00  0.00    -0.301 N 
HETATM   28  C10 UNL     1      -6.031 -23.488  -3.669  1.00  0.00     0.276 C 
HETATM   29  C14 UNL     1      -7.763 -24.978  -3.342  1.00  0.00     0.212 C 
HETATM   30  C9  UNL     1      -4.753 -25.719  -5.427  1.00  0.00     0.329 C 
ATOM     31  H4  UNL     1      -5.812 -26.588  -3.798  1.00  0.00     0.167 HD
HETATM   32  O2  UNL     1      -3.682 -26.362  -5.293  1.00  0.00    -0.247 OA
HETATM   33  O3  UNL     1      -4.895 -23.049  -3.931  1.00  0.00    -0.268 OA
HETATM   34  N5  UNL     1      -6.929 -22.915  -2.736  1.00  0.00    -0.341 N 
HETATM   35  C11 UNL     1      -8.142 -23.719  -2.652  1.00  0.00     0.091 C 
ATOM     36  H5  UNL     1      -6.753 -22.064  -2.201  1.00  0.00     0.163 HD
HETATM   37  C12 UNL     1      -8.489 -23.967  -1.198  1.00  0.00     0.046 C 
HETATM   38  C13 UNL     1      -9.298 -23.013  -3.336  1.00  0.00     0.046 C 
HETATM   39  O4  UNL     1      -8.272 -26.065  -3.176  1.00  0.00    -0.290 OA
ENDBRANCH   1  21
TORSDOF 6
ENDMDL
MODEL 4
REMARK VINA RESULT: -8.908452007      4.748      7.740
REMARK  6 active torsions:
REMARK  status: ('A' for Active; 'I' for Inactive)
REMARK    1  A    between atoms: C4_4  and  N1_5 
REMARK    2  A    between atoms: N1_5  and  C5_7 
REMARK    3  A    between atoms: C5_7  and  C6_8 
REMARK    4  A    between atoms: C6_8  and  N2_9 
REMARK    5  A    between atoms: C16_31  and  C17_32 
REMARK    6  A    between atoms: C17_32  and  C18_33 
ROOT
HETATM    1  C6  UNL     1      -4.068 -23.740  -8.790  1.00  0.00     0.158 C 
ENDROOT
BRANCH   1   2
HETATM    2  C5  UNL     1      -3.994 -22.292  -9.293  1.00  0.00     0.141 C 
BRANCH   2   3
HETATM    3  N1  UNL     1      -3.774 -22.331 -10.699  1.00  0.00    -0.375 N 
ATOM      4  H1  UNL     1      -4.549 -22.691 -11.257  1.00  0.00     0.161 HD
BRANCH   3   5
HETATM    5  C4  UNL     1      -2.748 -21.979 -11.348  1.00  0.00     0.101 A 
HETATM    6  C3  UNL     1      -2.891 -20.884 -12.208  1.00  0.00     0.055 A 
HETATM    7  C2  UNL     1      -1.835 -20.417 -12.962  1.00  0.00    -0.050 A 
HETATM    8  C1  UNL     1      -2.033 -19.278 -13.854  1.00  0.00     0.049 C 
HETATM    9  C16 UNL     1      -0.631 -21.037 -12.865  1.00  0.00    -0.031 A 
HETATM   10  C15 UNL     1      -0.533 -22.131 -11.993  1.00  0.00     0.097 A 
HETATM   11  N6  UNL     1      -1.563 -22.578 -11.265  1.00  0.00    -0.352 N 
ATOM     12  H6  UNL     1      -1.440 -23.378 -10.645  1.00  0.00     0.166 HD
BRANCH   9  13
HETATM   13  C17 UNL     1       0.584 -20.655 -13.582  1.00  0.00     0.099 C 
BRANCH  13  14
HETATM   14  C18 UNL     1       0.729 -21.421 -14.831  1.00  0.00     0.029 A 
HETATM   15  C19 UNL     1       1.354 -22.625 -15.022  1.00  0.00     0.114 A 
HETATM   16  N7  UNL     1       1.213 -22.925 -16.350  1.00  0.00    -0.360 N 
HETATM   17  C20 UNL     1       0.531 -21.951 -16.948  1.00  0.00     0.180 A 
ATOM     18  H7  UNL     1       1.573 -23.762 -16.809  1.00  0.00     0.166 HD
HETATM   19  N8  UNL     1       0.240 -21.038 -16.015  1.00  0.00    -0.354 N 
ATOM     20  H8  UNL     1      -0.279 -20.175 -16.182  1.00  0.00     0.166 HD
ENDBRANCH  13  14
ENDBRANCH   9  13
ENDBRANCH   3   5
ENDBRANCH   2   3
ENDBRANCH   1   2
BRANCH   1  21
HETATM   21  N2  UNL     1      -4.593 -23.777  -7.441  1.00  0.00    -0.250 N 
HETATM   22  C7  UNL     1      -3.769 -23.702  -6.284  1.00  0.00     0.329 C 
HETATM   23  O1  UNL     1      -2.503 -23.598  -6.401  1.00  0.00    -0.247 OA
HETATM   24  N3  UNL     1      -4.301 -23.739  -4.972  1.00  0.00    -0.301 N 
HETATM   25  C8  UNL     1      -5.598 -24.405  -4.794  1.00  0.00     0.259 C 
ATOM     26  H3  UNL     1      -3.805 -23.320  -4.186  1.00  0.00     0.167 HD
HETATM   27  N4  UNL     1      -6.477 -23.926  -5.828  1.00  0.00    -0.301 N 
HETATM   28  C10 UNL     1      -5.415 -25.862  -4.829  1.00  0.00     0.276 C 
HETATM   29  C14 UNL     1      -6.135 -24.161  -3.444  1.00  0.00     0.212 C 
HETATM   30  C9  UNL     1      -6.008 -23.893  -7.168  1.00  0.00     0.329 C 
ATOM     31  H4  UNL     1      -7.422 -23.615  -5.602  1.00  0.00     0.167 HD
HETATM   32  O2  UNL     1      -6.825 -23.966  -8.120  1.00  0.00    -0.247 OA
HETATM   33  O3  UNL     1      -5.263 -26.557  -5.851  1.00  0.00    -0.268 OA
HETATM   34  N5  UNL     1      -5.440 -26.359  -3.503  1.00  0.00    -0.341 N 
HETATM   35  C11 UNL     1      -5.686 -25.271  -2.566  1.00  0.00     0.091 C 
ATOM     36  H5  UNL     1      -5.305 -27.336  -3.243  1.00  0.00     0.163 HD
HETATM   37  C12 UNL     1      -6.769 -25.676  -1.587  1.00  0.00     0.046 C 
HETATM   38  C13 UNL     1      -4.419 -24.925  -1.805  1.00  0.00     0.046 C 
HETATM   39  O4  UNL     1      -6.824 -23.221  -3.112  1.00  0.00    -0.290 OA
ENDBRANCH   1  21
TORSDOF 6
ENDMDL
MODEL 5
REMARK VINA RESULT: -8.894176078      3.223      6.031
REMARK  6 active torsions:
REMARK  status: ('A' for Active; 'I' for Inactive)
REMARK    1  A    between atoms: C4_4  and  N1_5 
REMARK    2  A    between atoms: N1_5  and  C5_7 
REMARK    3  A    between atoms: C5_7  and  C6_8 
REMARK    4  A    between atoms: C6_8  and  N2_9 
REMARK    5  A    between atoms: C16_31  and  C17_32 
REMARK    6  A    between atoms: C17_32  and  C18_33 
ROOT
HETATM    1  C6  UNL     1      -4.026 -24.749  -5.550  1.00  0.00     0.158 C 
ENDROOT
BRANCH   1   2
HETATM    2  C5  UNL     1      -4.679 -24.228  -6.838  1.00  0.00     0.141 C 
BRANCH   2   3
HETATM    3  N1  UNL     1      -3.721 -24.337  -7.886  1.00  0.00    -0.375 N 
ATOM      4  H1  UNL     1      -3.076 -25.124  -7.814  1.00  0.00     0.161 HD
BRANCH   3   5
HETATM    5  C4  UNL     1      -3.563 -23.589  -8.893  1.00  0.00     0.101 A 
HETATM    6  C3  UNL     1      -4.086 -22.294  -8.804  1.00  0.00     0.055 A 
HETATM    7  C2  UNL     1      -3.969 -21.396  -9.844  1.00  0.00    -0.050 A 
HETATM    8  C1  UNL     1      -4.538 -20.059  -9.712  1.00  0.00     0.049 C 
HETATM    9  C16 UNL     1      -3.332 -21.783 -10.980  1.00  0.00    -0.031 A 
HETATM   10  C15 UNL     1      -2.826 -23.090 -11.027  1.00  0.00     0.097 A 
HETATM   11  N6  UNL     1      -2.944 -23.955 -10.012  1.00  0.00    -0.352 N 
ATOM     12  H6  UNL     1      -2.558 -24.895 -10.096  1.00  0.00     0.166 HD
BRANCH   9  13
HETATM   13  C17 UNL     1      -3.112 -20.949 -12.159  1.00  0.00     0.099 C 
BRANCH  13  14
HETATM   14  C18 UNL     1      -1.691 -20.596 -12.304  1.00  0.00     0.029 A 
HETATM   15  C19 UNL     1      -0.719 -21.252 -13.014  1.00  0.00     0.114 A 
HETATM   16  N7  UNL     1       0.432 -20.532 -12.846  1.00  0.00    -0.360 N 
HETATM   17  C20 UNL     1       0.181 -19.479 -12.069  1.00  0.00     0.180 A 
ATOM     18  H7  UNL     1       1.339 -20.764 -13.251  1.00  0.00     0.166 HD
HETATM   19  N8  UNL     1      -1.116 -19.527 -11.744  1.00  0.00    -0.354 N 
ATOM     20  H8  UNL     1      -1.595 -18.846 -11.154  1.00  0.00     0.166 HD
ENDBRANCH  13  14
ENDBRANCH   9  13
ENDBRANCH   3   5
ENDBRANCH   2   3
ENDBRANCH   1   2
BRANCH   1  21
HETATM   21  N2  UNL     1      -5.026 -24.932  -4.520  1.00  0.00    -0.250 N 
HETATM   22  C7  UNL     1      -5.296 -23.960  -3.517  1.00  0.00     0.329 C 
HETATM   23  O1  UNL     1      -4.646 -22.862  -3.493  1.00  0.00    -0.247 OA
HETATM   24  N3  UNL     1      -6.279 -24.156  -2.517  1.00  0.00    -0.301 N 
HETATM   25  C8  UNL     1      -6.614 -25.544  -2.170  1.00  0.00     0.259 C 
ATOM     26  H3  UNL     1      -6.735 -23.368  -2.057  1.00  0.00     0.167 HD
HETATM   27  N4  UNL     1      -6.801 -26.265  -3.403  1.00  0.00    -0.301 N 
HETATM   28  C10 UNL     1      -5.553 -26.115  -1.330  1.00  0.00     0.276 C 
HETATM   29  C14 UNL     1      -7.803 -25.600  -1.303  1.00  0.00     0.212 C 
HETATM   30  C9  UNL     1      -5.832 -26.129  -4.432  1.00  0.00     0.329 C 
ATOM     31  H4  UNL     1      -7.617 -26.863  -3.534  1.00  0.00     0.167 HD
HETATM   32  O2  UNL     1      -5.674 -27.052  -5.270  1.00  0.00    -0.247 OA
HETATM   33  O3  UNL     1      -4.452 -26.540  -1.728  1.00  0.00    -0.268 OA
HETATM   34  N5  UNL     1      -5.983 -26.107   0.019  1.00  0.00    -0.341 N 
HETATM   35  C11 UNL     1      -7.341 -25.585   0.107  1.00  0.00     0.091 C 
ATOM     36  H5  UNL     1      -5.424 -26.420   0.813  1.00  0.00     0.163 HD
HETATM   37  C12 UNL     1      -8.182 -26.498   0.976  1.00  0.00     0.046 C 
HETATM   38  C13 UNL     1      -7.338 -24.187   0.697  1.00  0.00     0.046 C 
HETATM   39  O4  UNL     1      -8.955 -25.649  -1.678  1.00  0.00    -0.290 OA
ENDBRANCH   1  21
TORSDOF 6
ENDMDL
