MODEL 1
REMARK VINA RESULT: -7.867040644      0.000      0.000
REMARK  6 active torsions:
REMARK  status: ('A' for Active; 'I' for Inactive)
REMARK    1  A    between atoms: C10_15  and  C11_16 
REMARK    2  A    between atoms: C11_16  and  N3_17 
REMARK    3  A    between atoms: C16_25  and  C17_26 
REMARK    4  A    between atoms: C17_26  and  C18_27 
REMARK    5  A    between atoms: C18_27  and  C19_28 
REMARK    6  A    between atoms: C19_28  and  N5_29 
ROOT
HETATM    1  C1  UNL     1      -5.058 -21.531   2.472  1.00  0.00     0.050 C 
HETATM    2  C2  UNL     1      -4.944 -22.415   1.230  1.00  0.00     0.273 C 
HETATM    3  N1  UNL     1      -5.719 -23.589   1.501  1.00  0.00    -0.063 N 
ATOM      4  H11 UNL     1      -5.874 -24.170   0.678  1.00  0.00     0.278 HD
ATOM      5  H12 UNL     1      -6.699 -23.389   1.701  1.00  0.00     0.278 HD
HETATM    6  C3  UNL     1      -5.033 -24.297   2.594  1.00  0.00     0.233 C 
HETATM    7  C4  UNL     1      -4.800 -25.745   2.226  1.00  0.00     0.027 C 
HETATM    8  C5  UNL     1      -3.391 -25.938   1.696  1.00  0.00     0.002 C 
HETATM    9  C6  UNL     1      -3.450 -26.919   0.567  1.00  0.00     0.000 C 
HETATM   10  C7  UNL     1      -2.255 -26.676  -0.326  1.00  0.00     0.002 C 
HETATM   11  C8  UNL     1      -2.791 -26.161  -1.646  1.00  0.00     0.020 C 
HETATM   12  C9  UNL     1      -3.137 -24.702  -1.485  1.00  0.00     0.121 C 
HETATM   13  N2  UNL     1      -3.331 -24.009  -2.703  1.00  0.00    -0.378 N 
ATOM     14  H2  UNL     1      -2.515 -23.516  -3.066  1.00  0.00     0.160 HD
HETATM   15  C10 UNL     1      -4.409 -23.917  -3.418  1.00  0.00     0.106 C 
HETATM   16  N4  UNL     1      -5.647 -24.530  -3.098  1.00  0.00    -0.314 N 
ATOM     17  H4  UNL     1      -6.041 -25.136  -3.819  1.00  0.00     0.170 HD
HETATM   18  C15 UNL     1      -6.408 -24.411  -1.908  1.00  0.00     0.245 C 
HETATM   19  O1  UNL     1      -6.663 -25.522  -1.319  1.00  0.00    -0.271 OA
HETATM   20  C16 UNL     1      -6.912 -23.146  -1.320  1.00  0.00     0.177 C 
HETATM   21  N8  UNL     1      -5.881 -22.143  -1.159  1.00  0.00    -0.346 N 
ATOM     22  H8  UNL     1      -5.480 -21.762  -2.016  1.00  0.00     0.163 HD
HETATM   23  C21 UNL     1      -5.371 -21.634   0.053  1.00  0.00     0.248 C 
HETATM   24  O2  UNL     1      -5.266 -20.373   0.151  1.00  0.00    -0.271 OA
ENDROOT
BRANCH  20  25
HETATM   25  C17 UNL     1      -8.012 -22.555  -2.229  1.00  0.00     0.036 C 
BRANCH  25  26
HETATM   26  C18 UNL     1      -9.282 -23.305  -2.075  1.00  0.00     0.022 C 
BRANCH  26  27
HETATM   27  C19 UNL     1      -9.845 -23.791  -3.402  1.00  0.00     0.122 C 
BRANCH  27  28
HETATM   28  N5  UNL     1      -9.732 -25.253  -3.492  1.00  0.00    -0.367 N 
HETATM   29  C20 UNL     1      -8.838 -25.784  -4.262  1.00  0.00     0.196 C 
HETATM   30  N6  UNL     1      -7.942 -25.028  -5.042  1.00  0.00    -0.067 NA
HETATM   31  N7  UNL     1      -8.778 -27.203  -4.308  1.00  0.00    -0.067 NA
ATOM     32  H5  UNL     1     -10.357 -25.848  -2.949  1.00  0.00     0.161 HD
ENDBRANCH  27  28
ENDBRANCH  26  27
ENDBRANCH  25  26
ENDBRANCH  20  25
BRANCH  15  33
HETATM   33  C11 UNL     1      -4.289 -23.102  -4.667  1.00  0.00     0.311 C 
BRANCH  33  34
HETATM   34  N3  UNL     1      -4.025 -23.883  -5.853  1.00  0.00    -0.072 N 
HETATM   35  C12 UNL     1      -4.143 -25.309  -5.650  1.00  0.00     0.272 C 
HETATM   36  C13 UNL     1      -5.098 -23.514  -6.797  1.00  0.00     0.272 C 
HETATM   37  C14 UNL     1      -2.789 -23.525  -6.498  1.00  0.00     0.272 C 
ENDBRANCH  33  34
ENDBRANCH  15  33
TORSDOF 6
ENDMDL
MODEL 2
REMARK VINA RESULT: -7.380984345      1.430      1.958
REMARK  6 active torsions:
REMARK  status: ('A' for Active; 'I' for Inactive)
REMARK    1  A    between atoms: C10_15  and  C11_16 
REMARK    2  A    between atoms: C11_16  and  N3_17 
REMARK    3  A    between atoms: C16_25  and  C17_26 
REMARK    4  A    between atoms: C17_26  and  C18_27 
REMARK    5  A    between atoms: C18_27  and  C19_28 
REMARK    6  A    between atoms: C19_28  and  N5_29 
ROOT
HETATM    1  C1  UNL     1      -5.590 -20.725   0.133  1.00  0.00     0.050 C 
HETATM    2  C2  UNL     1      -5.371 -22.129  -0.430  1.00  0.00     0.273 C 
HETATM    3  N1  UNL     1      -6.112 -23.019   0.413  1.00  0.00    -0.063 N 
ATOM      4  H11 UNL     1      -6.197 -23.960   0.031  1.00  0.00     0.278 HD
ATOM      5  H12 UNL     1      -7.109 -22.807   0.447  1.00  0.00     0.278 HD
HETATM    6  C3  UNL     1      -5.461 -22.981   1.732  1.00  0.00     0.233 C 
HETATM    7  C4  UNL     1      -5.150 -24.381   2.212  1.00  0.00     0.027 C 
HETATM    8  C5  UNL     1      -3.706 -24.738   1.907  1.00  0.00     0.002 C 
HETATM    9  C6  UNL     1      -3.663 -26.174   1.487  1.00  0.00     0.000 C 
HETATM   10  C7  UNL     1      -2.430 -26.374   0.636  1.00  0.00     0.002 C 
HETATM   11  C8  UNL     1      -2.912 -26.687  -0.766  1.00  0.00     0.020 C 
HETATM   12  C9  UNL     1      -3.324 -25.397  -1.429  1.00  0.00     0.121 C 
HETATM   13  N2  UNL     1      -3.476 -25.483  -2.833  1.00  0.00    -0.378 N 
ATOM     14  H2  UNL     1      -2.662 -25.212  -3.384  1.00  0.00     0.160 HD
HETATM   15  C10 UNL     1      -4.516 -25.860  -3.511  1.00  0.00     0.106 C 
HETATM   16  N4  UNL     1      -5.744 -26.282  -2.943  1.00  0.00    -0.314 N 
ATOM     17  H4  UNL     1      -6.072 -27.204  -3.231  1.00  0.00     0.170 HD
HETATM   18  C15 UNL     1      -6.575 -25.590  -2.026  1.00  0.00     0.245 C 
HETATM   19  O1  UNL     1      -6.818 -26.222  -0.936  1.00  0.00    -0.271 OA
HETATM   20  C16 UNL     1      -7.161 -24.242  -2.229  1.00  0.00     0.177 C 
HETATM   21  N8  UNL     1      -6.182 -23.247  -2.609  1.00  0.00    -0.346 N 
ATOM     22  H8  UNL     1      -5.748 -23.363  -3.526  1.00  0.00     0.163 HD
HETATM   23  C21 UNL     1      -5.762 -22.134  -1.853  1.00  0.00     0.248 C 
HETATM   24  O2  UNL     1      -5.713 -21.015  -2.450  1.00  0.00    -0.271 OA
ENDROOT
BRANCH  20  25
HETATM   25  C17 UNL     1      -8.231 -24.306  -3.341  1.00  0.00     0.036 C 
BRANCH  25  26
HETATM   26  C18 UNL     1      -9.186 -25.413  -3.092  1.00  0.00     0.022 C 
BRANCH  26  27
HETATM   27  C19 UNL     1      -9.542 -26.181  -4.356  1.00  0.00     0.122 C 
BRANCH  27  28
HETATM   28  N5  UNL     1      -8.515 -27.190  -4.640  1.00  0.00    -0.367 N 
HETATM   29  C20 UNL     1      -8.148 -27.412  -5.861  1.00  0.00     0.196 C 
HETATM   30  N6  UNL     1      -8.689 -26.727  -6.966  1.00  0.00    -0.067 NA
HETATM   31  N7  UNL     1      -7.150 -28.401  -6.073  1.00  0.00    -0.067 NA
ATOM     32  H5  UNL     1      -8.090 -27.716  -3.876  1.00  0.00     0.161 HD
ENDBRANCH  27  28
ENDBRANCH  26  27
ENDBRANCH  25  26
ENDBRANCH  20  25
BRANCH  15  33
HETATM   33  C11 UNL     1      -4.358 -25.841  -4.999  1.00  0.00     0.311 C 
BRANCH  33  34
HETATM   34  N3  UNL     1      -4.565 -24.541  -5.593  1.00  0.00    -0.072 N 
HETATM   35  C12 UNL     1      -3.991 -23.454  -4.833  1.00  0.00     0.272 C 
HETATM   36  C13 UNL     1      -3.825 -24.584  -6.869  1.00  0.00     0.272 C 
HETATM   37  C14 UNL     1      -5.941 -24.295  -5.941  1.00  0.00     0.272 C 
ENDBRANCH  33  34
ENDBRANCH  15  33
TORSDOF 6
ENDMDL
MODEL 3
REMARK VINA RESULT: -7.340430684      1.275      1.360
REMARK  6 active torsions:
REMARK  status: ('A' for Active; 'I' for Inactive)
REMARK    1  A    between atoms: C10_15  and  C11_16 
REMARK    2  A    between atoms: C11_16  and  N3_17 
REMARK    3  A    between atoms: C16_25  and  C17_26 
REMARK    4  A    between atoms: C17_26  and  C18_27 
REMARK    5  A    between atoms: C18_27  and  C19_28 
REMARK    6  A    between atoms: C19_28  and  N5_29 
ROOT
HETATM    1  C1  UNL     1      -6.387 -21.608   2.536  1.00  0.00     0.050 C 
HETATM    2  C2  UNL     1      -5.900 -22.487   1.384  1.00  0.00     0.273 C 
HETATM    3  N1  UNL     1      -5.831 -23.822   1.900  1.00  0.00    -0.063 N 
ATOM      4  H11 UNL     1      -5.698 -24.527   1.176  1.00  0.00     0.278 HD
ATOM      5  H12 UNL     1      -6.724 -24.166   2.250  1.00  0.00     0.278 HD
HETATM    6  C3  UNL     1      -4.765 -23.820   2.916  1.00  0.00     0.233 C 
HETATM    7  C4  UNL     1      -3.778 -24.934   2.652  1.00  0.00     0.027 C 
HETATM    8  C5  UNL     1      -2.569 -24.405   1.901  1.00  0.00     0.002 C 
HETATM    9  C6  UNL     1      -2.157 -25.438   0.900  1.00  0.00     0.000 C 
HETATM   10  C7  UNL     1      -1.406 -24.739  -0.210  1.00  0.00     0.002 C 
HETATM   11  C8  UNL     1      -2.259 -24.856  -1.457  1.00  0.00     0.020 C 
HETATM   12  C9  UNL     1      -3.364 -23.833  -1.378  1.00  0.00     0.121 C 
HETATM   13  N2  UNL     1      -4.032 -23.596  -2.602  1.00  0.00    -0.378 N 
ATOM     14  H2  UNL     1      -3.685 -22.809  -3.150  1.00  0.00     0.160 HD
HETATM   15  C10 UNL     1      -5.027 -24.248  -3.120  1.00  0.00     0.106 C 
HETATM   16  N4  UNL     1      -5.652 -25.375  -2.528  1.00  0.00    -0.314 N 
ATOM     17  H4  UNL     1      -5.690 -26.215  -3.105  1.00  0.00     0.170 HD
HETATM   18  C15 UNL     1      -6.230 -25.485  -1.238  1.00  0.00     0.245 C 
HETATM   19  O1  UNL     1      -5.745 -26.423  -0.509  1.00  0.00    -0.271 OA
HETATM   20  C16 UNL     1      -7.313 -24.630  -0.694  1.00  0.00     0.177 C 
HETATM   21  N8  UNL     1      -7.037 -23.215  -0.815  1.00  0.00    -0.346 N 
ATOM     22  H8  UNL     1      -7.008 -22.838  -1.762  1.00  0.00     0.163 HD
HETATM   23  C21 UNL     1      -6.804 -22.301   0.233  1.00  0.00     0.248 C 
HETATM   24  O2  UNL     1      -7.434 -21.200   0.189  1.00  0.00    -0.271 OA
ENDROOT
BRANCH  20  25
HETATM   25  C17 UNL     1      -8.631 -24.923  -1.444  1.00  0.00     0.036 C 
BRANCH  25  26
HETATM   26  C18 UNL     1      -9.075 -23.738  -2.215  1.00  0.00     0.022 C 
BRANCH  26  27
HETATM   27  C19 UNL     1      -8.985 -23.941  -3.719  1.00  0.00     0.122 C 
BRANCH  27  28
HETATM   28  N5  UNL     1      -9.859 -25.046  -4.132  1.00  0.00    -0.367 N 
HETATM   29  C20 UNL     1      -9.342 -26.160  -4.541  1.00  0.00     0.196 C 
HETATM   30  N6  UNL     1      -7.955 -26.386  -4.618  1.00  0.00    -0.067 NA
HETATM   31  N7  UNL     1     -10.240 -27.192  -4.927  1.00  0.00    -0.067 NA
ATOM     32  H5  UNL     1     -10.873 -24.936  -4.097  1.00  0.00     0.161 HD
ENDBRANCH  27  28
ENDBRANCH  26  27
ENDBRANCH  25  26
ENDBRANCH  20  25
BRANCH  15  33
HETATM   33  C11 UNL     1      -5.512 -23.744  -4.442  1.00  0.00     0.311 C 
BRANCH  33  34
HETATM   34  N3  UNL     1      -4.775 -24.260  -5.571  1.00  0.00    -0.072 N 
HETATM   35  C12 UNL     1      -4.339 -25.628  -5.408  1.00  0.00     0.272 C 
HETATM   36  C13 UNL     1      -5.744 -24.270  -6.685  1.00  0.00     0.272 C 
HETATM   37  C14 UNL     1      -3.703 -23.393  -5.987  1.00  0.00     0.272 C 
ENDBRANCH  33  34
ENDBRANCH  15  33
TORSDOF 6
ENDMDL
MODEL 4
REMARK VINA RESULT: -7.178170087      1.520      1.651
REMARK  6 active torsions:
REMARK  status: ('A' for Active; 'I' for Inactive)
REMARK    1  A    between atoms: C10_15  and  C11_16 
REMARK    2  A    between atoms: C11_16  and  N3_17 
REMARK    3  A    between atoms: C16_25  and  C17_26 
REMARK    4  A    between atoms: C17_26  and  C18_27 
REMARK    5  A    between atoms: C18_27  and  C19_28 
REMARK    6  A    between atoms: C19_28  and  N5_29 
ROOT
HETATM    1  C1  UNL     1      -4.915 -20.474   2.069  1.00  0.00     0.050 C 
HETATM    2  C2  UNL     1      -4.691 -21.606   1.066  1.00  0.00     0.273 C 
HETATM    3  N1  UNL     1      -4.629 -22.815   1.832  1.00  0.00    -0.063 N 
ATOM      4  H11 UNL     1      -4.669 -23.658   1.261  1.00  0.00     0.278 HD
ATOM      5  H12 UNL     1      -5.472 -22.991   2.378  1.00  0.00     0.278 HD
HETATM    6  C3  UNL     1      -3.410 -22.724   2.653  1.00  0.00     0.233 C 
HETATM    7  C4  UNL     1      -2.561 -23.964   2.482  1.00  0.00     0.027 C 
HETATM    8  C5  UNL     1      -1.462 -23.717   1.464  1.00  0.00     0.002 C 
HETATM    9  C6  UNL     1      -1.297 -24.962   0.650  1.00  0.00     0.000 C 
HETATM   10  C7  UNL     1      -0.698 -24.574  -0.682  1.00  0.00     0.002 C 
HETATM   11  C8  UNL     1      -1.754 -24.843  -1.734  1.00  0.00     0.020 C 
HETATM   12  C9  UNL     1      -2.756 -23.716  -1.704  1.00  0.00     0.121 C 
HETATM   13  N2  UNL     1      -3.602 -23.655  -2.836  1.00  0.00    -0.378 N 
ATOM     14  H2  UNL     1      -3.299 -23.030  -3.582  1.00  0.00     0.160 HD
HETATM   15  C10 UNL     1      -4.714 -24.290  -3.050  1.00  0.00     0.106 C 
HETATM   16  N4  UNL     1      -5.306 -25.210  -2.149  1.00  0.00    -0.314 N 
ATOM     17  H4  UNL     1      -5.500 -26.138  -2.525  1.00  0.00     0.170 HD
HETATM   18  C15 UNL     1      -5.666 -25.007  -0.792  1.00  0.00     0.245 C 
HETATM   19  O1  UNL     1      -5.131 -25.830   0.035  1.00  0.00    -0.271 OA
HETATM   20  C16 UNL     1      -6.580 -23.956  -0.281  1.00  0.00     0.177 C 
HETATM   21  N8  UNL     1      -6.230 -22.628  -0.735  1.00  0.00    -0.346 N 
ATOM     22  H8  UNL     1      -6.334 -22.447  -1.734  1.00  0.00     0.163 HD
HETATM   23  C21 UNL     1      -5.760 -21.556   0.051  1.00  0.00     0.248 C 
HETATM   24  O2  UNL     1      -6.311 -20.426  -0.126  1.00  0.00    -0.271 OA
ENDROOT
BRANCH  20  25
HETATM   25  C17 UNL     1      -8.022 -24.254  -0.747  1.00  0.00     0.036 C 
BRANCH  25  26
HETATM   26  C18 UNL     1      -8.518 -23.185  -1.646  1.00  0.00     0.022 C 
BRANCH  26  27
HETATM   27  C19 UNL     1      -8.929 -23.706  -3.014  1.00  0.00     0.122 C 
BRANCH  27  28
HETATM   28  N5  UNL     1      -8.530 -25.112  -3.159  1.00  0.00    -0.367 N 
HETATM   29  C20 UNL     1      -9.111 -25.858  -4.043  1.00  0.00     0.196 C 
HETATM   30  N6  UNL     1     -10.129 -25.396  -4.897  1.00  0.00    -0.067 NA
HETATM   31  N7  UNL     1      -8.682 -27.210  -4.136  1.00  0.00    -0.067 NA
ATOM     32  H5  UNL     1      -7.797 -25.499  -2.565  1.00  0.00     0.161 HD
ENDBRANCH  27  28
ENDBRANCH  26  27
ENDBRANCH  25  26
ENDBRANCH  20  25
BRANCH  15  33
HETATM   33  C11 UNL     1      -5.378 -24.006  -4.360  1.00  0.00     0.311 C 
BRANCH  33  34
HETATM   34  N3  UNL     1      -5.103 -24.989  -5.381  1.00  0.00    -0.072 N 
HETATM   35  C12 UNL     1      -5.190 -26.355  -4.917  1.00  0.00     0.272 C 
HETATM   36  C13 UNL     1      -6.186 -24.823  -6.370  1.00  0.00     0.272 C 
HETATM   37  C14 UNL     1      -3.876 -24.733  -6.091  1.00  0.00     0.272 C 
ENDBRANCH  33  34
ENDBRANCH  15  33
TORSDOF 6
ENDMDL
MODEL 5
REMARK VINA RESULT: -7.177743331      2.139      4.581
REMARK  6 active torsions:
REMARK  status: ('A' for Active; 'I' for Inactive)
REMARK    1  A    between atoms: C10_15  and  C11_16 
REMARK    2  A    between atoms: C11_16  and  N3_17 
REMARK    3  A    between atoms: C16_25  and  C17_26 
REMARK    4  A    between atoms: C17_26  and  C18_27 
REMARK    5  A    between atoms: C18_27  and  C19_28 
REMARK    6  A    between atoms: C19_28  and  N5_29 
ROOT
HETATM    1  C1  UNL     1      -5.399 -20.727  -2.409  1.00  0.00     0.050 C 
HETATM    2  C2  UNL     1      -5.119 -22.080  -1.755  1.00  0.00     0.273 C 
HETATM    3  N1  UNL     1      -6.398 -22.664  -1.480  1.00  0.00    -0.063 N 
ATOM      4  H11 UNL     1      -6.344 -23.647  -1.215  1.00  0.00     0.278 HD
ATOM      5  H12 UNL     1      -6.973 -22.789  -2.313  1.00  0.00     0.278 HD
HETATM    6  C3  UNL     1      -7.030 -21.817  -0.455  1.00  0.00     0.233 C 
HETATM    7  C4  UNL     1      -7.507 -22.657   0.709  1.00  0.00     0.027 C 
HETATM    8  C5  UNL     1      -6.486 -22.633   1.832  1.00  0.00     0.002 C 
HETATM    9  C6  UNL     1      -6.428 -24.003   2.434  1.00  0.00     0.000 C 
HETATM   10  C7  UNL     1      -5.075 -24.169   3.086  1.00  0.00     0.002 C 
HETATM   11  C8  UNL     1      -4.334 -25.228   2.296  1.00  0.00     0.020 C 
HETATM   12  C9  UNL     1      -3.798 -24.597   1.036  1.00  0.00     0.121 C 
HETATM   13  N2  UNL     1      -2.814 -25.364   0.369  1.00  0.00    -0.378 N 
ATOM     14  H2  UNL     1      -1.846 -25.135   0.595  1.00  0.00     0.160 HD
HETATM   15  C10 UNL     1      -2.981 -26.320  -0.492  1.00  0.00     0.106 C 
HETATM   16  N4  UNL     1      -4.239 -26.798  -0.937  1.00  0.00    -0.314 N 
ATOM     17  H4  UNL     1      -4.399 -27.799  -0.822  1.00  0.00     0.170 HD
HETATM   18  C15 UNL     1      -5.303 -26.065  -1.522  1.00  0.00     0.245 C 
HETATM   19  O1  UNL     1      -6.425 -26.164  -0.907  1.00  0.00    -0.271 OA
HETATM   20  C16 UNL     1      -5.216 -25.230  -2.744  1.00  0.00     0.177 C 
HETATM   21  N8  UNL     1      -4.135 -24.270  -2.701  1.00  0.00    -0.346 N 
ATOM     22  H8  UNL     1      -3.188 -24.650  -2.711  1.00  0.00     0.163 HD
HETATM   23  C21 UNL     1      -4.246 -22.865  -2.648  1.00  0.00     0.248 C 
HETATM   24  O2  UNL     1      -3.522 -22.198  -3.450  1.00  0.00    -0.271 OA
ENDROOT
BRANCH  20  25
HETATM   25  C17 UNL     1      -5.000 -26.135  -3.976  1.00  0.00     0.036 C 
BRANCH  25  26
HETATM   26  C18 UNL     1      -5.762 -25.630  -5.143  1.00  0.00     0.022 C 
BRANCH  26  27
HETATM   27  C19 UNL     1      -7.080 -24.980  -4.753  1.00  0.00     0.122 C 
BRANCH  27  28
HETATM   28  N5  UNL     1      -8.205 -25.808  -5.207  1.00  0.00    -0.367 N 
HETATM   29  C20 UNL     1      -9.089 -26.217  -4.355  1.00  0.00     0.196 C 
HETATM   30  N6  UNL     1      -9.038 -25.913  -2.982  1.00  0.00    -0.067 NA
HETATM   31  N7  UNL     1     -10.154 -27.015  -4.854  1.00  0.00    -0.067 NA
ATOM     32  H5  UNL     1      -8.290 -26.059  -6.192  1.00  0.00     0.161 HD
ENDBRANCH  27  28
ENDBRANCH  26  27
ENDBRANCH  25  26
ENDBRANCH  20  25
BRANCH  15  33
HETATM   33  C11 UNL     1      -1.725 -26.940  -1.020  1.00  0.00     0.311 C 
BRANCH  33  34
HETATM   34  N3  UNL     1      -1.086 -27.846  -0.096  1.00  0.00    -0.072 N 
HETATM   35  C12 UNL     1      -1.957 -28.316   0.958  1.00  0.00     0.272 C 
HETATM   36  C13 UNL     1      -0.744 -29.033  -0.903  1.00  0.00     0.272 C 
HETATM   37  C14 UNL     1       0.162 -27.341   0.415  1.00  0.00     0.272 C 
ENDBRANCH  33  34
ENDBRANCH  15  33
TORSDOF 6
ENDMDL
