MODEL 1
REMARK VINA RESULT: -8.158306050      0.000      0.000
REMARK  6 active torsions:
REMARK  status: ('A' for Active; 'I' for Inactive)
REMARK    1  A    between atoms: C2_2  and  O1_4 
REMARK    2  A    between atoms: O1_4  and  C4_5 
REMARK    3  A    between atoms: C4_5  and  C5_7 
REMARK    4  A    between atoms: C5_7  and  C8_10 
REMARK    5  A    between atoms: C13_15  and  N1_16 
REMARK    6  A    between atoms: N1_16  and  N2_18 
ROOT
HETATM    1  C8  UNL     1      -6.187  60.391  62.385  1.00  0.00    -0.050 C 
HETATM    2  C9  UNL     1      -7.522  60.196  63.116  1.00  0.00     0.037 C 
HETATM    3  C10 UNL     1      -7.694  58.753  63.499  1.00  0.00     0.009 C 
HETATM    4  C11 UNL     1      -7.008  57.847  62.539  1.00  0.00     0.042 C 
HETATM    5  C12 UNL     1      -6.815  58.469  61.210  1.00  0.00    -0.015 A 
HETATM    6  C13 UNL     1      -7.042  57.672  60.114  1.00  0.00     0.093 A 
HETATM    7  C14 UNL     1      -6.886  58.186  58.849  1.00  0.00     0.145 A 
HETATM    8  F1  UNL     1      -7.092  57.439  57.735  1.00  0.00    -0.204 F 
HETATM    9  C15 UNL     1      -6.515  59.473  58.708  1.00  0.00     0.060 A 
HETATM   10  C16 UNL     1      -6.279  60.310  59.842  1.00  0.00     0.025 A 
HETATM   11  C17 UNL     1      -5.912  61.667  59.561  1.00  0.00     0.145 A 
HETATM   12  N3  UNL     1      -5.180  62.009  58.481  1.00  0.00    -0.271 N 
ATOM     13  H3  UNL     1      -4.762  61.338  57.837  1.00  0.00     0.190 HD
HETATM   14  N4  UNL     1      -5.072  63.315  58.363  1.00  0.00    -0.225 N 
ATOM     15  H4  UNL     1      -4.571  63.824  57.634  1.00  0.00     0.205 HD
HETATM   16  N5  UNL     1      -5.742  63.837  59.377  1.00  0.00    -0.005 NA
HETATM   17  N6  UNL     1      -6.233  62.816  60.075  1.00  0.00    -0.266 N 
ATOM     18  H6  UNL     1      -6.796  62.924  60.919  1.00  0.00     0.186 HD
HETATM   19  C18 UNL     1      -6.412  59.851  61.091  1.00  0.00    -0.010 A 
ENDROOT
BRANCH   1  20
HETATM   20  C5  UNL     1      -5.411  61.365  63.047  1.00  0.00     0.065 C 
HETATM   21  C6  UNL     1      -4.004  61.610  62.474  1.00  0.00     0.030 C 
HETATM   22  C7  UNL     1      -6.053  62.658  63.551  1.00  0.00     0.030 C 
BRANCH  20  23
HETATM   23  C4  UNL     1      -5.028  60.744  64.417  1.00  0.00     0.271 C 
HETATM   24  O2  UNL     1      -5.302  61.407  65.444  1.00  0.00    -0.264 OA
BRANCH  23  25
HETATM   25  O1  UNL     1      -4.429  59.557  64.588  1.00  0.00    -0.316 OA
BRANCH  25  26
HETATM   26  C2  UNL     1      -4.105  58.891  65.747  1.00  0.00     0.123 C 
HETATM   27  C1  UNL     1      -2.700  58.471  65.952  1.00  0.00     0.040 C 
HETATM   28  C3  UNL     1      -4.958  57.613  65.780  1.00  0.00     0.040 C 
ENDBRANCH  25  26
ENDBRANCH  23  25
ENDBRANCH  20  23
ENDBRANCH   1  20
BRANCH   6  29
HETATM   29  N1  UNL     1      -7.438  56.309  60.207  1.00  0.00    -0.304 N 
ATOM     30  H1  UNL     1      -6.753  55.569  60.354  1.00  0.00     0.186 HD
BRANCH  29  31
HETATM   31  N2  UNL     1      -8.694  56.044  60.100  1.00  0.00    -0.345 N 
ATOM     32  H22 UNL     1      -9.279  56.581  59.461  1.00  0.00     0.176 HD
ATOM     33  H21 UNL     1      -9.067  55.287  60.673  1.00  0.00     0.176 HD
ENDBRANCH  29  31
ENDBRANCH   6  29
TORSDOF 6
ENDMDL
MODEL 2
REMARK VINA RESULT: -7.898856049      1.074      1.490
REMARK  6 active torsions:
REMARK  status: ('A' for Active; 'I' for Inactive)
REMARK    1  A    between atoms: C2_2  and  O1_4 
REMARK    2  A    between atoms: O1_4  and  C4_5 
REMARK    3  A    between atoms: C4_5  and  C5_7 
REMARK    4  A    between atoms: C5_7  and  C8_10 
REMARK    5  A    between atoms: C13_15  and  N1_16 
REMARK    6  A    between atoms: N1_16  and  N2_18 
ROOT
HETATM    1  C8  UNL     1      -6.234  60.346  62.369  1.00  0.00    -0.050 C 
HETATM    2  C9  UNL     1      -7.577  60.156  63.087  1.00  0.00     0.037 C 
HETATM    3  C10 UNL     1      -7.757  58.713  63.469  1.00  0.00     0.009 C 
HETATM    4  C11 UNL     1      -7.066  57.805  62.516  1.00  0.00     0.042 C 
HETATM    5  C12 UNL     1      -6.858  58.426  61.188  1.00  0.00    -0.015 A 
HETATM    6  C13 UNL     1      -7.077  57.630  60.090  1.00  0.00     0.093 A 
HETATM    7  C14 UNL     1      -6.907  58.144  58.827  1.00  0.00     0.145 A 
HETATM    8  F1  UNL     1      -7.106  57.397  57.711  1.00  0.00    -0.204 F 
HETATM    9  C15 UNL     1      -6.531  59.430  58.689  1.00  0.00     0.060 A 
HETATM   10  C16 UNL     1      -6.303  60.265  59.826  1.00  0.00     0.025 A 
HETATM   11  C17 UNL     1      -5.928  61.621  59.548  1.00  0.00     0.145 A 
HETATM   12  N3  UNL     1      -5.185  61.960  58.476  1.00  0.00    -0.271 N 
ATOM     13  H3  UNL     1      -4.763  61.289  57.835  1.00  0.00     0.190 HD
HETATM   14  N4  UNL     1      -5.071  63.266  58.359  1.00  0.00    -0.225 N 
ATOM     15  H4  UNL     1      -4.562  63.774  57.635  1.00  0.00     0.205 HD
HETATM   16  N5  UNL     1      -5.748  63.790  59.366  1.00  0.00    -0.005 NA
HETATM   17  N6  UNL     1      -6.250  62.771  60.060  1.00  0.00    -0.266 N 
ATOM     18  H6  UNL     1      -6.820  62.881  60.898  1.00  0.00     0.186 HD
HETATM   19  C18 UNL     1      -6.449  59.807  61.073  1.00  0.00    -0.010 A 
ENDROOT
BRANCH   1  20
HETATM   20  C5  UNL     1      -5.460  61.317  63.038  1.00  0.00     0.065 C 
HETATM   21  C6  UNL     1      -4.025  61.511  62.521  1.00  0.00     0.030 C 
HETATM   22  C7  UNL     1      -6.089  62.638  63.482  1.00  0.00     0.030 C 
BRANCH  20  23
HETATM   23  C4  UNL     1      -5.153  60.723  64.439  1.00  0.00     0.271 C 
HETATM   24  O2  UNL     1      -4.450  59.686  64.481  1.00  0.00    -0.264 OA
BRANCH  23  25
HETATM   25  O1  UNL     1      -5.579  61.228  65.605  1.00  0.00    -0.316 OA
BRANCH  25  26
HETATM   26  C2  UNL     1      -5.283  60.848  66.893  1.00  0.00     0.123 C 
HETATM   27  C1  UNL     1      -6.374  60.324  67.744  1.00  0.00     0.040 C 
HETATM   28  C3  UNL     1      -4.721  62.089  67.606  1.00  0.00     0.040 C 
ENDBRANCH  25  26
ENDBRANCH  23  25
ENDBRANCH  20  23
ENDBRANCH   1  20
BRANCH   6  29
HETATM   29  N1  UNL     1      -7.480  56.269  60.179  1.00  0.00    -0.304 N 
ATOM     30  H1  UNL     1      -6.794  55.523  60.294  1.00  0.00     0.186 HD
BRANCH  29  31
HETATM   31  N2  UNL     1      -8.739  56.012  60.110  1.00  0.00    -0.345 N 
ATOM     32  H22 UNL     1      -9.063  55.050  60.017  1.00  0.00     0.176 HD
ATOM     33  H21 UNL     1      -9.385  56.801  60.153  1.00  0.00     0.176 HD
ENDBRANCH  29  31
ENDBRANCH   6  29
TORSDOF 6
ENDMDL
MODEL 3
REMARK VINA RESULT: -7.746754364      4.049      6.653
REMARK  6 active torsions:
REMARK  status: ('A' for Active; 'I' for Inactive)
REMARK    1  A    between atoms: C2_2  and  O1_4 
REMARK    2  A    between atoms: O1_4  and  C4_5 
REMARK    3  A    between atoms: C4_5  and  C5_7 
REMARK    4  A    between atoms: C5_7  and  C8_10 
REMARK    5  A    between atoms: C13_15  and  N1_16 
REMARK    6  A    between atoms: N1_16  and  N2_18 
ROOT
HETATM    1  C8  UNL     1      -6.181  58.848  61.942  1.00  0.00    -0.050 C 
HETATM    2  C9  UNL     1      -7.017  60.105  62.213  1.00  0.00     0.037 C 
HETATM    3  C10 UNL     1      -6.141  61.200  62.756  1.00  0.00     0.009 C 
HETATM    4  C11 UNL     1      -4.995  60.649  63.529  1.00  0.00     0.042 C 
HETATM    5  C12 UNL     1      -5.261  59.288  64.046  1.00  0.00    -0.015 A 
HETATM    6  C13 UNL     1      -4.841  59.018  65.326  1.00  0.00     0.093 A 
HETATM    7  C14 UNL     1      -5.059  57.775  65.871  1.00  0.00     0.145 A 
HETATM    8  F1  UNL     1      -4.658  57.458  67.129  1.00  0.00    -0.204 F 
HETATM    9  C15 UNL     1      -5.689  56.840  65.135  1.00  0.00     0.060 A 
HETATM   10  C16 UNL     1      -6.131  57.113  63.803  1.00  0.00     0.025 A 
HETATM   11  C17 UNL     1      -6.810  56.043  63.132  1.00  0.00     0.145 A 
HETATM   12  N3  UNL     1      -6.499  54.747  63.339  1.00  0.00    -0.271 N 
ATOM     13  H3  UNL     1      -5.717  54.429  63.911  1.00  0.00     0.190 HD
HETATM   14  N4  UNL     1      -7.332  53.944  62.711  1.00  0.00    -0.225 N 
ATOM     15  H4  UNL     1      -7.312  52.924  62.709  1.00  0.00     0.205 HD
HETATM   16  N5  UNL     1      -8.199  54.721  62.086  1.00  0.00    -0.005 NA
HETATM   17  N6  UNL     1      -7.853  55.977  62.361  1.00  0.00    -0.266 N 
ATOM     18  H6  UNL     1      -8.351  56.793  62.007  1.00  0.00     0.186 HD
HETATM   19  C18 UNL     1      -5.935  58.305  63.230  1.00  0.00    -0.010 A 
ENDROOT
BRANCH   1  20
HETATM   20  C5  UNL     1      -6.321  58.454  60.594  1.00  0.00     0.065 C 
HETATM   21  C6  UNL     1      -5.505  57.225  60.161  1.00  0.00     0.030 C 
HETATM   22  C7  UNL     1      -7.689  58.500  59.912  1.00  0.00     0.030 C 
BRANCH  20  23
HETATM   23  C4  UNL     1      -5.605  59.548  59.756  1.00  0.00     0.271 C 
HETATM   24  O2  UNL     1      -4.401  59.354  59.468  1.00  0.00    -0.264 OA
BRANCH  23  25
HETATM   25  O1  UNL     1      -6.172  60.681  59.318  1.00  0.00    -0.316 OA
BRANCH  25  26
HETATM   26  C2  UNL     1      -5.604  61.903  59.045  1.00  0.00     0.123 C 
HETATM   27  C1  UNL     1      -4.819  62.573  60.107  1.00  0.00     0.040 C 
HETATM   28  C3  UNL     1      -6.753  62.856  58.677  1.00  0.00     0.040 C 
ENDBRANCH  25  26
ENDBRANCH  23  25
ENDBRANCH  20  23
ENDBRANCH   1  20
BRANCH   6  29
HETATM   29  N1  UNL     1      -4.175  59.970  66.147  1.00  0.00    -0.304 N 
ATOM     30  H1  UNL     1      -4.698  60.609  66.744  1.00  0.00     0.186 HD
BRANCH  29  31
HETATM   31  N2  UNL     1      -2.888  59.995  66.108  1.00  0.00    -0.345 N 
ATOM     32  H22 UNL     1      -2.405  60.182  65.230  1.00  0.00     0.176 HD
ATOM     33  H21 UNL     1      -2.386  59.822  66.979  1.00  0.00     0.176 HD
ENDBRANCH  29  31
ENDBRANCH   6  29
TORSDOF 6
ENDMDL
MODEL 4
REMARK VINA RESULT: -7.746683394      3.001      4.642
REMARK  6 active torsions:
REMARK  status: ('A' for Active; 'I' for Inactive)
REMARK    1  A    between atoms: C2_2  and  O1_4 
REMARK    2  A    between atoms: O1_4  and  C4_5 
REMARK    3  A    between atoms: C4_5  and  C5_7 
REMARK    4  A    between atoms: C5_7  and  C8_10 
REMARK    5  A    between atoms: C13_15  and  N1_16 
REMARK    6  A    between atoms: N1_16  and  N2_18 
ROOT
HETATM    1  C8  UNL     1      -6.013  60.097  63.086  1.00  0.00    -0.050 C 
HETATM    2  C9  UNL     1      -7.477  59.915  62.665  1.00  0.00     0.037 C 
HETATM    3  C10 UNL     1      -7.546  59.286  61.301  1.00  0.00     0.009 C 
HETATM    4  C11 UNL     1      -6.369  59.652  60.470  1.00  0.00     0.042 C 
HETATM    5  C12 UNL     1      -5.730  60.912  60.913  1.00  0.00    -0.015 A 
HETATM    6  C13 UNL     1      -5.320  61.778  59.928  1.00  0.00     0.093 A 
HETATM    7  C14 UNL     1      -4.723  62.968  60.268  1.00  0.00     0.145 A 
HETATM    8  F1  UNL     1      -4.295  63.855  59.333  1.00  0.00    -0.204 F 
HETATM    9  C15 UNL     1      -4.555  63.267  61.570  1.00  0.00     0.060 A 
HETATM   10  C16 UNL     1      -4.981  62.373  62.601  1.00  0.00     0.025 A 
HETATM   11  C17 UNL     1      -4.768  62.815  63.948  1.00  0.00     0.145 A 
HETATM   12  N3  UNL     1      -3.712  63.575  64.301  1.00  0.00    -0.271 N 
ATOM     13  H3  UNL     1      -2.948  63.822  63.672  1.00  0.00     0.190 HD
HETATM   14  N4  UNL     1      -3.790  63.960  65.557  1.00  0.00    -0.225 N 
ATOM     15  H4  UNL     1      -3.119  64.539  66.062  1.00  0.00     0.205 HD
HETATM   16  N5  UNL     1      -4.911  63.446  66.034  1.00  0.00    -0.005 NA
HETATM   17  N6  UNL     1      -5.472  62.764  65.039  1.00  0.00    -0.266 N 
ATOM     18  H6  UNL     1      -6.353  62.258  65.123  1.00  0.00     0.186 HD
HETATM   19  C18 UNL     1      -5.560  61.201  62.317  1.00  0.00    -0.010 A 
ENDROOT
BRANCH   1  20
HETATM   20  C5  UNL     1      -5.779  59.448  64.317  1.00  0.00     0.065 C 
HETATM   21  C6  UNL     1      -4.306  59.317  64.742  1.00  0.00     0.030 C 
HETATM   22  C7  UNL     1      -6.697  59.700  65.513  1.00  0.00     0.030 C 
BRANCH  20  23
HETATM   23  C4  UNL     1      -6.113  57.951  64.077  1.00  0.00     0.271 C 
HETATM   24  O2  UNL     1      -6.738  57.350  64.982  1.00  0.00    -0.264 OA
BRANCH  23  25
HETATM   25  O1  UNL     1      -5.787  57.251  62.982  1.00  0.00    -0.316 OA
BRANCH  25  26
HETATM   26  C2  UNL     1      -6.466  56.239  62.346  1.00  0.00     0.123 C 
HETATM   27  C1  UNL     1      -6.390  54.872  62.910  1.00  0.00     0.040 C 
HETATM   28  C3  UNL     1      -5.910  56.158  60.915  1.00  0.00     0.040 C 
ENDBRANCH  25  26
ENDBRANCH  23  25
ENDBRANCH  20  23
ENDBRANCH   1  20
BRANCH   6  29
HETATM   29  N1  UNL     1      -5.477  61.513  58.539  1.00  0.00    -0.304 N 
ATOM     30  H1  UNL     1      -4.775  60.986  58.020  1.00  0.00     0.186 HD
BRANCH  29  31
HETATM   31  N2  UNL     1      -6.536  61.962  57.962  1.00  0.00    -0.345 N 
ATOM     32  H22 UNL     1      -7.388  61.402  57.945  1.00  0.00     0.176 HD
ATOM     33  H21 UNL     1      -6.484  62.885  57.530  1.00  0.00     0.176 HD
ENDBRANCH  29  31
ENDBRANCH   6  29
TORSDOF 6
ENDMDL
MODEL 5
REMARK VINA RESULT: -7.727433690      3.364      5.863
REMARK  6 active torsions:
REMARK  status: ('A' for Active; 'I' for Inactive)
REMARK    1  A    between atoms: C2_2  and  O1_4 
REMARK    2  A    between atoms: O1_4  and  C4_5 
REMARK    3  A    between atoms: C4_5  and  C5_7 
REMARK    4  A    between atoms: C5_7  and  C8_10 
REMARK    5  A    between atoms: C13_15  and  N1_16 
REMARK    6  A    between atoms: N1_16  and  N2_18 
ROOT
HETATM    1  C8  UNL     1      -5.747  60.301  60.256  1.00  0.00    -0.050 C 
HETATM    2  C9  UNL     1      -6.833  60.277  59.172  1.00  0.00     0.037 C 
HETATM    3  C10 UNL     1      -6.273  60.779  57.870  1.00  0.00     0.009 C 
HETATM    4  C11 UNL     1      -5.187  61.771  58.089  1.00  0.00     0.042 C 
HETATM    5  C12 UNL     1      -5.278  62.430  59.412  1.00  0.00    -0.015 A 
HETATM    6  C13 UNL     1      -5.028  63.781  59.449  1.00  0.00     0.093 A 
HETATM    7  C14 UNL     1      -5.099  64.457  60.643  1.00  0.00     0.145 A 
HETATM    8  F1  UNL     1      -4.856  65.790  60.734  1.00  0.00    -0.204 F 
HETATM    9  C15 UNL     1      -5.418  63.778  61.761  1.00  0.00     0.060 A 
HETATM   10  C16 UNL     1      -5.682  62.374  61.731  1.00  0.00     0.025 A 
HETATM   11  C17 UNL     1      -6.034  61.770  62.983  1.00  0.00     0.145 A 
HETATM   12  N3  UNL     1      -5.528  62.196  64.158  1.00  0.00    -0.271 N 
ATOM     13  H3  UNL     1      -4.804  62.908  64.246  1.00  0.00     0.190 HD
HETATM   14  N4  UNL     1      -6.085  61.577  65.177  1.00  0.00    -0.225 N 
ATOM     15  H4  UNL     1      -5.878  61.719  66.167  1.00  0.00     0.205 HD
HETATM   16  N5  UNL     1      -6.967  60.737  64.665  1.00  0.00    -0.005 NA
HETATM   17  N6  UNL     1      -6.908  60.880  63.344  1.00  0.00    -0.266 N 
ATOM     18  H6  UNL     1      -7.484  60.351  62.689  1.00  0.00     0.186 HD
HETATM   19  C18 UNL     1      -5.618  61.673  60.594  1.00  0.00    -0.010 A 
ENDROOT
BRANCH   1  20
HETATM   20  C5  UNL     1      -5.592  59.014  60.814  1.00  0.00     0.065 C 
HETATM   21  C6  UNL     1      -4.968  57.950  59.896  1.00  0.00     0.030 C 
HETATM   22  C7  UNL     1      -5.142  58.849  62.266  1.00  0.00     0.030 C 
BRANCH  20  23
HETATM   23  C4  UNL     1      -7.026  58.434  60.946  1.00  0.00     0.271 C 
HETATM   24  O2  UNL     1      -7.920  59.204  61.369  1.00  0.00    -0.264 OA
BRANCH  23  25
HETATM   25  O1  UNL     1      -7.383  57.178  60.645  1.00  0.00    -0.316 OA
BRANCH  25  26
HETATM   26  C2  UNL     1      -7.869  56.179  61.456  1.00  0.00     0.123 C 
HETATM   27  C1  UNL     1      -6.920  55.175  61.988  1.00  0.00     0.040 C 
HETATM   28  C3  UNL     1      -8.916  55.408  60.635  1.00  0.00     0.040 C 
ENDBRANCH  25  26
ENDBRANCH  23  25
ENDBRANCH  20  23
ENDBRANCH   1  20
BRANCH   6  29
HETATM   29  N1  UNL     1      -4.691  64.545  58.298  1.00  0.00    -0.304 N 
ATOM     30  H1  UNL     1      -5.390  64.773  57.592  1.00  0.00     0.186 HD
BRANCH  29  31
HETATM   31  N2  UNL     1      -3.471  64.939  58.180  1.00  0.00    -0.345 N 
ATOM     32  H22 UNL     1      -2.709  64.365  58.540  1.00  0.00     0.176 HD
ATOM     33  H21 UNL     1      -3.306  65.834  57.718  1.00  0.00     0.176 HD
ENDBRANCH  29  31
ENDBRANCH   6  29
TORSDOF 6
ENDMDL
