MODEL 1
REMARK VINA RESULT: -8.829066056      0.000      0.000
REMARK  8 active torsions:
REMARK  status: ('A' for Active; 'I' for Inactive)
REMARK    1  A    between atoms: C5_7  and  C6_8 
REMARK    2  A    between atoms: C7_9  and  O1_10 
REMARK    3  A    between atoms: C8_12  and  O2_13 
REMARK    4  A    between atoms: N2_15  and  C9_16 
REMARK    5  A    between atoms: C15_22  and  O3_23 
REMARK    6  A    between atoms: C16_27  and  C17_28 
REMARK    7  A    between atoms: C17_28  and  C18_29 
REMARK    8  A    between atoms: C18_29  and  C19_30 
ROOT
HETATM    1  C6  UNL     1      -5.879  61.432  61.241  1.00  0.00     0.081 A 
HETATM    2  C7  UNL     1      -6.555  61.537  62.436  1.00  0.00     0.134 A 
HETATM    3  C8  UNL     1      -7.158  60.331  62.733  1.00  0.00     0.179 A 
HETATM    4  N2  UNL     1      -6.852  59.502  61.728  1.00  0.00    -0.300 N 
HETATM    5  C15 UNL     1      -6.087  60.139  60.822  1.00  0.00     0.160 A 
ENDROOT
BRANCH   1   6
HETATM    6  C5  UNL     1      -5.133  62.513  60.627  1.00  0.00     0.072 A 
HETATM    7  C3  UNL     1      -5.351  62.765  59.269  1.00  0.00     0.033 A 
HETATM    8  N1  UNL     1      -4.661  63.758  58.720  1.00  0.00    -0.360 N 
HETATM    9  C4  UNL     1      -6.317  61.934  58.531  1.00  0.00     0.070 C 
HETATM   10  C2  UNL     1      -3.774  64.532  59.374  1.00  0.00     0.028 A 
ATOM     11  H1  UNL     1      -4.815  63.949  57.729  1.00  0.00     0.165 HD
HETATM   12  C1  UNL     1      -3.037  65.637  58.665  1.00  0.00     0.070 C 
HETATM   13  C16 UNL     1      -3.565  64.277  60.708  1.00  0.00     0.032 A 
HETATM   14  N3  UNL     1      -4.248  63.279  61.295  1.00  0.00    -0.356 N 
ATOM     15  H3  UNL     1      -4.091  63.094  62.286  1.00  0.00     0.166 HD
BRANCH  13  16
HETATM   16  C17 UNL     1      -2.595  65.110  61.460  1.00  0.00     0.060 C 
BRANCH  16  17
HETATM   17  C18 UNL     1      -2.694  64.895  62.945  1.00  0.00     0.021 C 
BRANCH  17  18
HETATM   18  C19 UNL     1      -3.146  66.168  63.629  1.00  0.00     0.115 C 
HETATM   19 CL1  UNL     1      -4.056  67.221  62.550  1.00  0.00    -0.130 Cl
ENDBRANCH  17  18
ENDBRANCH  16  17
ENDBRANCH  13  16
ENDBRANCH   1   6
BRANCH   2  20
HETATM   20  O1  UNL     1      -6.650  62.653  63.255  1.00  0.00    -0.356 OA
ATOM     21  H1  UNL     1      -7.107  62.721  64.085  1.00  0.00     0.218 HD
ENDBRANCH   2  20
BRANCH   5  22
HETATM   22  O3  UNL     1      -5.576  59.576  59.631  1.00  0.00    -0.345 OA
ATOM     23  H3  UNL     1      -5.838  58.740  59.264  1.00  0.00     0.219 HD
ENDBRANCH   5  22
BRANCH   3  24
HETATM   24  O2  UNL     1      -7.938  60.060  63.881  1.00  0.00    -0.344 OA
ATOM     25  H2  UNL     1      -7.632  60.095  64.780  1.00  0.00     0.219 HD
ENDBRANCH   3  24
BRANCH   4  26
HETATM   26  C9  UNL     1      -7.268  58.115  61.603  1.00  0.00     0.094 C 
HETATM   27  C10 UNL     1      -6.133  57.211  62.029  1.00  0.00     0.026 C 
HETATM   28  C11 UNL     1      -6.126  55.912  61.255  1.00  0.00     0.002 C 
HETATM   29  C12 UNL     1      -7.548  55.404  61.149  1.00  0.00     0.000 C 
HETATM   30  C13 UNL     1      -8.322  56.343  60.288  1.00  0.00     0.002 C 
HETATM   31  C14 UNL     1      -7.672  57.732  60.224  1.00  0.00     0.026 C 
ENDBRANCH   4  26
TORSDOF 8
ENDMDL
MODEL 2
REMARK VINA RESULT: -8.826511271      0.667      1.136
REMARK  8 active torsions:
REMARK  status: ('A' for Active; 'I' for Inactive)
REMARK    1  A    between atoms: C5_7  and  C6_8 
REMARK    2  A    between atoms: C7_9  and  O1_10 
REMARK    3  A    between atoms: C8_12  and  O2_13 
REMARK    4  A    between atoms: N2_15  and  C9_16 
REMARK    5  A    between atoms: C15_22  and  O3_23 
REMARK    6  A    between atoms: C16_27  and  C17_28 
REMARK    7  A    between atoms: C17_28  and  C18_29 
REMARK    8  A    between atoms: C18_29  and  C19_30 
ROOT
HETATM    1  C6  UNL     1      -5.618  61.227  61.288  1.00  0.00     0.081 A 
HETATM    2  C7  UNL     1      -6.458  61.318  62.375  1.00  0.00     0.134 A 
HETATM    3  C8  UNL     1      -6.853  60.053  62.761  1.00  0.00     0.179 A 
HETATM    4  N2  UNL     1      -6.258  59.201  61.916  1.00  0.00    -0.300 N 
HETATM    5  C15 UNL     1      -5.514  59.882  61.025  1.00  0.00     0.160 A 
ENDROOT
BRANCH   1   6
HETATM    6  C5  UNL     1      -5.016  62.367  60.623  1.00  0.00     0.072 A 
HETATM    7  C3  UNL     1      -5.320  62.568  59.274  1.00  0.00     0.033 A 
HETATM    8  N1  UNL     1      -4.763  63.615  58.677  1.00  0.00    -0.360 N 
HETATM    9  C4  UNL     1      -6.227  61.626  58.595  1.00  0.00     0.070 C 
HETATM   10  C2  UNL     1      -3.932  64.489  59.277  1.00  0.00     0.028 A 
ATOM     11  H1  UNL     1      -4.981  63.770  57.692  1.00  0.00     0.165 HD
HETATM   12  C1  UNL     1      -3.347  65.650  58.517  1.00  0.00     0.070 C 
HETATM   13  C16 UNL     1      -3.638  64.284  60.603  1.00  0.00     0.032 A 
HETATM   14  N3  UNL     1      -4.187  63.233  61.237  1.00  0.00    -0.356 N 
ATOM     15  H3  UNL     1      -3.966  63.085  62.222  1.00  0.00     0.166 HD
BRANCH  13  16
HETATM   16  C17 UNL     1      -2.727  65.228  61.295  1.00  0.00     0.060 C 
BRANCH  16  17
HETATM   17  C18 UNL     1      -2.651  64.961  62.774  1.00  0.00     0.021 C 
BRANCH  17  18
HETATM   18  C19 UNL     1      -3.126  66.173  63.549  1.00  0.00     0.115 C 
HETATM   19 CL1  UNL     1      -4.052  67.288  62.547  1.00  0.00    -0.130 Cl
ENDBRANCH  17  18
ENDBRANCH  16  17
ENDBRANCH  13  16
ENDBRANCH   1   6
BRANCH   2  20
HETATM   20  O1  UNL     1      -6.877  62.472  63.022  1.00  0.00    -0.356 OA
ATOM     21  H1  UNL     1      -7.567  62.551  63.670  1.00  0.00     0.218 HD
ENDBRANCH   2  20
BRANCH   5  22
HETATM   22  O3  UNL     1      -4.745  59.311  59.985  1.00  0.00    -0.345 OA
ATOM     23  H3  UNL     1      -4.053  58.671  60.103  1.00  0.00     0.219 HD
ENDBRANCH   5  22
BRANCH   3  24
HETATM   24  O2  UNL     1      -7.716  59.751  63.839  1.00  0.00    -0.344 OA
ATOM     25  H2  UNL     1      -8.591  60.100  63.964  1.00  0.00     0.219 HD
ENDBRANCH   3  24
BRANCH   4  26
HETATM   26  C9  UNL     1      -6.379  57.753  61.931  1.00  0.00     0.094 C 
HETATM   27  C10 UNL     1      -7.383  57.324  60.885  1.00  0.00     0.026 C 
HETATM   28  C11 UNL     1      -8.138  56.082  61.303  1.00  0.00     0.002 C 
HETATM   29  C12 UNL     1      -7.157  55.102  61.913  1.00  0.00     0.000 C 
HETATM   30  C13 UNL     1      -6.650  55.675  63.192  1.00  0.00     0.002 C 
HETATM   31  C14 UNL     1      -6.812  57.201  63.242  1.00  0.00     0.026 C 
ENDBRANCH   4  26
TORSDOF 8
ENDMDL
MODEL 3
REMARK VINA RESULT: -8.497498139      3.429      7.612
REMARK  8 active torsions:
REMARK  status: ('A' for Active; 'I' for Inactive)
REMARK    1  A    between atoms: C5_7  and  C6_8 
REMARK    2  A    between atoms: C7_9  and  O1_10 
REMARK    3  A    between atoms: C8_12  and  O2_13 
REMARK    4  A    between atoms: N2_15  and  C9_16 
REMARK    5  A    between atoms: C15_22  and  O3_23 
REMARK    6  A    between atoms: C16_27  and  C17_28 
REMARK    7  A    between atoms: C17_28  and  C18_29 
REMARK    8  A    between atoms: C18_29  and  C19_30 
ROOT
HETATM    1  C6  UNL     1      -6.242  59.425  62.215  1.00  0.00     0.081 A 
HETATM    2  C7  UNL     1      -6.684  60.408  63.072  1.00  0.00     0.134 A 
HETATM    3  C8  UNL     1      -6.230  61.638  62.640  1.00  0.00     0.179 A 
HETATM    4  N2  UNL     1      -5.518  61.404  61.530  1.00  0.00    -0.300 N 
HETATM    5  C15 UNL     1      -5.512  60.087  61.257  1.00  0.00     0.160 A 
ENDROOT
BRANCH   1   6
HETATM    6  C5  UNL     1      -6.534  58.014  62.370  1.00  0.00     0.072 A 
HETATM    7  C3  UNL     1      -7.280  57.389  61.365  1.00  0.00     0.033 A 
HETATM    8  N1  UNL     1      -7.540  56.096  61.518  1.00  0.00    -0.360 N 
HETATM    9  C4  UNL     1      -7.729  58.182  60.207  1.00  0.00     0.070 C 
HETATM   10  C2  UNL     1      -7.139  55.351  62.567  1.00  0.00     0.028 A 
ATOM     11  H1  UNL     1      -8.082  55.633  60.789  1.00  0.00     0.165 HD
HETATM   12  C1  UNL     1      -7.483  53.888  62.655  1.00  0.00     0.070 C 
HETATM   13  C16 UNL     1      -6.408  55.972  63.550  1.00  0.00     0.032 A 
HETATM   14  N3  UNL     1      -6.126  57.282  63.424  1.00  0.00    -0.356 N 
ATOM     15  H3  UNL     1      -5.582  57.738  64.156  1.00  0.00     0.166 HD
BRANCH  13  16
HETATM   16  C17 UNL     1      -5.950  55.181  64.718  1.00  0.00     0.060 C 
BRANCH  16  17
HETATM   17  C18 UNL     1      -5.300  56.043  65.767  1.00  0.00     0.021 C 
BRANCH  17  18
HETATM   18  C19 UNL     1      -4.619  55.178  66.807  1.00  0.00     0.115 C 
HETATM   19 CL1  UNL     1      -5.730  54.039  67.562  1.00  0.00    -0.130 Cl
ENDBRANCH  17  18
ENDBRANCH  16  17
ENDBRANCH  13  16
ENDBRANCH   1   6
BRANCH   2  20
HETATM   20  O1  UNL     1      -7.465  60.246  64.208  1.00  0.00    -0.356 OA
ATOM     21  H1  UNL     1      -8.208  60.774  64.477  1.00  0.00     0.218 HD
ENDBRANCH   2  20
BRANCH   5  22
HETATM   22  O3  UNL     1      -4.861  59.475  60.161  1.00  0.00    -0.345 OA
ATOM     23  H3  UNL     1      -4.506  59.934  59.409  1.00  0.00     0.219 HD
ENDBRANCH   5  22
BRANCH   3  24
HETATM   24  O2  UNL     1      -6.484  62.879  63.268  1.00  0.00    -0.344 OA
ATOM     25  H2  UNL     1      -6.375  63.734  62.870  1.00  0.00     0.219 HD
ENDBRANCH   3  24
BRANCH   4  26
HETATM   26  C9  UNL     1      -4.841  62.403  60.720  1.00  0.00     0.094 C 
HETATM   27  C10 UNL     1      -3.972  63.264  61.610  1.00  0.00     0.026 C 
HETATM   28  C11 UNL     1      -3.877  64.685  61.099  1.00  0.00     0.002 C 
HETATM   29  C12 UNL     1      -3.687  64.648  59.598  1.00  0.00     0.000 C 
HETATM   30  C13 UNL     1      -4.932  64.115  58.977  1.00  0.00     0.002 C 
HETATM   31  C14 UNL     1      -5.765  63.295  59.972  1.00  0.00     0.026 C 
ENDBRANCH   4  26
TORSDOF 8
ENDMDL
MODEL 4
REMARK VINA RESULT: -8.480783871      2.626      7.616
REMARK  8 active torsions:
REMARK  status: ('A' for Active; 'I' for Inactive)
REMARK    1  A    between atoms: C5_7  and  C6_8 
REMARK    2  A    between atoms: C7_9  and  O1_10 
REMARK    3  A    between atoms: C8_12  and  O2_13 
REMARK    4  A    between atoms: N2_15  and  C9_16 
REMARK    5  A    between atoms: C15_22  and  O3_23 
REMARK    6  A    between atoms: C16_27  and  C17_28 
REMARK    7  A    between atoms: C17_28  and  C18_29 
REMARK    8  A    between atoms: C18_29  and  C19_30 
ROOT
HETATM    1  C6  UNL     1      -6.141  59.680  62.752  1.00  0.00     0.081 A 
HETATM    2  C7  UNL     1      -6.480  60.581  63.736  1.00  0.00     0.134 A 
HETATM    3  C8  UNL     1      -6.009  61.834  63.397  1.00  0.00     0.179 A 
HETATM    4  N2  UNL     1      -5.391  61.695  62.218  1.00  0.00    -0.300 N 
HETATM    5  C15 UNL     1      -5.457  60.413  61.812  1.00  0.00     0.160 A 
ENDROOT
BRANCH   1   6
HETATM    6  C5  UNL     1      -6.478  58.269  62.785  1.00  0.00     0.072 A 
HETATM    7  C3  UNL     1      -6.014  57.515  63.868  1.00  0.00     0.033 A 
HETATM    8  N1  UNL     1      -6.330  56.226  63.887  1.00  0.00    -0.360 N 
HETATM    9  C4  UNL     1      -5.216  58.178  64.914  1.00  0.00     0.070 C 
HETATM   10  C2  UNL     1      -7.059  55.599  62.944  1.00  0.00     0.028 A 
ATOM     11  H1  UNL     1      -5.996  55.669  64.674  1.00  0.00     0.165 HD
HETATM   12  C1  UNL     1      -7.367  54.129  63.050  1.00  0.00     0.070 C 
HETATM   13  C16 UNL     1      -7.510  56.347  61.883  1.00  0.00     0.032 A 
HETATM   14  N3  UNL     1      -7.209  57.657  61.834  1.00  0.00    -0.356 N 
ATOM     15  H3  UNL     1      -7.547  58.208  61.046  1.00  0.00     0.166 HD
BRANCH  13  16
HETATM   16  C17 UNL     1      -8.317  55.689  60.826  1.00  0.00     0.060 C 
BRANCH  16  17
HETATM   17  C18 UNL     1      -8.504  56.573  59.623  1.00  0.00     0.021 C 
BRANCH  17  18
HETATM   18  C19 UNL     1      -7.158  56.967  59.050  1.00  0.00     0.115 C 
HETATM   19 CL1  UNL     1      -7.237  58.463  58.124  1.00  0.00    -0.130 Cl
ENDBRANCH  17  18
ENDBRANCH  16  17
ENDBRANCH  13  16
ENDBRANCH   1   6
BRANCH   2  20
HETATM   20  O1  UNL     1      -7.181  60.327  64.907  1.00  0.00    -0.356 OA
ATOM     21  H1  UNL     1      -7.792  59.618  65.070  1.00  0.00     0.218 HD
ENDBRANCH   2  20
BRANCH   5  22
HETATM   22  O3  UNL     1      -4.913  59.897  60.614  1.00  0.00    -0.345 OA
ATOM     23  H3  UNL     1      -4.242  59.227  60.560  1.00  0.00     0.219 HD
ENDBRANCH   5  22
BRANCH   3  24
HETATM   24  O2  UNL     1      -6.167  63.011  64.165  1.00  0.00    -0.344 OA
ATOM     25  H2  UNL     1      -5.505  63.679  64.297  1.00  0.00     0.219 HD
ENDBRANCH   3  24
BRANCH   4  26
HETATM   26  C9  UNL     1      -4.735  62.749  61.463  1.00  0.00     0.094 C 
HETATM   27  C10 UNL     1      -3.834  63.540  62.386  1.00  0.00     0.026 C 
HETATM   28  C11 UNL     1      -3.749  64.994  61.981  1.00  0.00     0.002 C 
HETATM   29  C12 UNL     1      -3.606  65.070  60.476  1.00  0.00     0.000 C 
HETATM   30  C13 UNL     1      -4.873  64.587  59.856  1.00  0.00     0.002 C 
HETATM   31  C14 UNL     1      -5.678  63.697  60.813  1.00  0.00     0.026 C 
ENDBRANCH   4  26
TORSDOF 8
ENDMDL
MODEL 5
REMARK VINA RESULT: -8.470493110      3.075      7.919
REMARK  8 active torsions:
REMARK  status: ('A' for Active; 'I' for Inactive)
REMARK    1  A    between atoms: C5_7  and  C6_8 
REMARK    2  A    between atoms: C7_9  and  O1_10 
REMARK    3  A    between atoms: C8_12  and  O2_13 
REMARK    4  A    between atoms: N2_15  and  C9_16 
REMARK    5  A    between atoms: C15_22  and  O3_23 
REMARK    6  A    between atoms: C16_27  and  C17_28 
REMARK    7  A    between atoms: C17_28  and  C18_29 
REMARK    8  A    between atoms: C18_29  and  C19_30 
ROOT
HETATM    1  C6  UNL     1      -5.231  61.917  60.880  1.00  0.00     0.081 A 
HETATM    2  C7  UNL     1      -5.641  62.436  59.673  1.00  0.00     0.134 A 
HETATM    3  C8  UNL     1      -5.038  63.661  59.467  1.00  0.00     0.179 A 
HETATM    4  N2  UNL     1      -4.269  63.884  60.540  1.00  0.00    -0.300 N 
HETATM    5  C15 UNL     1      -4.368  62.852  61.399  1.00  0.00     0.160 A 
ENDROOT
BRANCH   1   6
HETATM    6  C5  UNL     1      -5.670  60.641  61.412  1.00  0.00     0.072 A 
HETATM    7  C3  UNL     1      -6.307  60.641  62.657  1.00  0.00     0.033 A 
HETATM    8  N1  UNL     1      -6.705  59.467  63.133  1.00  0.00    -0.360 N 
HETATM    9  C4  UNL     1      -6.503  61.919  63.363  1.00  0.00     0.070 C 
HETATM   10  C2  UNL     1      -6.539  58.287  62.505  1.00  0.00     0.028 A 
ATOM     11  H1  UNL     1      -7.172  59.458  64.040  1.00  0.00     0.165 HD
HETATM   12  C1  UNL     1      -7.024  57.003  63.124  1.00  0.00     0.070 C 
HETATM   13  C16 UNL     1      -5.911  58.296  61.283  1.00  0.00     0.032 A 
HETATM   14  N3  UNL     1      -5.497  59.469  60.772  1.00  0.00    -0.356 N 
ATOM     15  H3  UNL     1      -5.033  59.471  59.864  1.00  0.00     0.166 HD
BRANCH  13  16
HETATM   16  C17 UNL     1      -5.712  57.014  60.563  1.00  0.00     0.060 C 
BRANCH  16  17
HETATM   17  C18 UNL     1      -6.419  56.994  59.235  1.00  0.00     0.021 C 
BRANCH  17  18
HETATM   18  C19 UNL     1      -7.909  57.182  59.433  1.00  0.00     0.115 C 
HETATM   19 CL1  UNL     1      -8.661  55.792  60.210  1.00  0.00    -0.130 Cl
ENDBRANCH  17  18
ENDBRANCH  16  17
ENDBRANCH  13  16
ENDBRANCH   1   6
BRANCH   2  20
HETATM   20  O1  UNL     1      -6.522  61.864  58.765  1.00  0.00    -0.356 OA
ATOM     21  H1  UNL     1      -6.882  60.986  58.787  1.00  0.00     0.218 HD
ENDBRANCH   2  20
BRANCH   5  22
HETATM   22  O3  UNL     1      -3.696  62.743  62.638  1.00  0.00    -0.345 OA
ATOM     23  H3  UNL     1      -3.588  61.939  63.133  1.00  0.00     0.219 HD
ENDBRANCH   5  22
BRANCH   3  24
HETATM   24  O2  UNL     1      -5.220  64.491  58.337  1.00  0.00    -0.344 OA
ATOM     25  H2  UNL     1      -5.230  64.200  57.432  1.00  0.00     0.219 HD
ENDBRANCH   3  24
BRANCH   4  26
HETATM   26  C9  UNL     1      -3.439  65.054  60.772  1.00  0.00     0.094 C 
HETATM   27  C10 UNL     1      -4.304  66.191  61.269  1.00  0.00     0.026 C 
HETATM   28  C11 UNL     1      -3.787  67.535  60.809  1.00  0.00     0.002 C 
HETATM   29  C12 UNL     1      -2.281  67.555  60.969  1.00  0.00     0.000 C 
HETATM   30  C13 UNL     1      -1.692  66.583  60.005  1.00  0.00     0.002 C 
HETATM   31  C14 UNL     1      -2.709  65.521  59.564  1.00  0.00     0.026 C 
ENDBRANCH   4  26
TORSDOF 8
ENDMDL
