MODEL 1
REMARK VINA RESULT: -8.050309355      0.000      0.000
REMARK  9 active torsions:
REMARK  status: ('A' for Active; 'I' for Inactive)
REMARK    1  A    between atoms: C1_4  and  O1_5 
REMARK    2  A    between atoms: C1_4  and  S1_18 
REMARK    3  A    between atoms: O1_5  and  C2_6 
REMARK    4  A    between atoms: C2_6  and  O2_7 
REMARK    5  A    between atoms: O2_7  and  C3_8 
REMARK    6  A    between atoms: C3_8  and  C4_10 
REMARK    7  A    between atoms: S1_18  and  C12_19 
REMARK    8  A    between atoms: C12_19  and  C13_20 
REMARK    9  A    between atoms: C15_22  and  O4_23 
ROOT
HETATM    1  N1  UNL     1      -7.832  59.918  63.941  1.00  0.00    -0.374 N 
ATOM      2  H11 UNL     1      -8.520  60.561  63.548  1.00  0.00     0.158 HD
ATOM      3  H12 UNL     1      -8.143  59.045  64.368  1.00  0.00     0.158 HD
HETATM    4  C1  UNL     1      -6.584  60.193  63.905  1.00  0.00     0.177 C 
ENDROOT
BRANCH   4   5
HETATM    5  O1  UNL     1      -5.656  59.328  64.435  1.00  0.00    -0.304 OA
BRANCH   5   6
HETATM    6  C2  UNL     1      -6.018  58.096  65.049  1.00  0.00     0.357 C 
BRANCH   6   7
HETATM    7  O2  UNL     1      -6.732  57.341  64.084  1.00  0.00    -0.295 OA
BRANCH   7   8
HETATM    8  C3  UNL     1      -6.343  56.096  63.652  1.00  0.00     0.265 C 
HETATM    9  O3  UNL     1      -6.390  55.146  64.457  1.00  0.00    -0.265 OA
BRANCH   8  10
HETATM   10  C4  UNL     1      -5.890  55.970  62.240  1.00  0.00     0.085 C 
HETATM   11  C5  UNL     1      -6.782  54.976  61.560  1.00  0.00     0.014 C 
HETATM   12  C6  UNL     1      -8.163  55.544  61.482  1.00  0.00     0.001 C 
HETATM   13  C7  UNL     1      -8.581  55.924  60.085  1.00  0.00     0.000 C 
HETATM   14  C8  UNL     1      -8.174  57.334  59.718  1.00  0.00     0.000 C 
HETATM   15  C9  UNL     1      -6.794  57.404  59.163  1.00  0.00     0.000 C 
HETATM   16  C10 UNL     1      -5.679  57.195  60.093  1.00  0.00     0.001 C 
HETATM   17  C11 UNL     1      -5.924  57.328  61.535  1.00  0.00     0.014 C 
ENDBRANCH   8  10
ENDBRANCH   7   8
ENDBRANCH   6   7
ENDBRANCH   5   6
ENDBRANCH   4   5
BRANCH   4  18
HETATM   18  S1  UNL     1      -6.042  61.712  63.161  1.00  0.00    -0.082 SA
BRANCH  18  19
HETATM   19  C12 UNL     1      -4.756  61.370  61.937  1.00  0.00     0.125 C 
BRANCH  19  20
HETATM   20  C13 UNL     1      -5.236  61.733  60.598  1.00  0.00     0.002 A 
HETATM   21  C14 UNL     1      -5.540  60.869  59.565  1.00  0.00     0.075 A 
HETATM   22  C15 UNL     1      -5.952  61.628  58.488  1.00  0.00     0.185 A 
HETATM   23  O5  UNL     1      -5.905  62.884  58.839  1.00  0.00    -0.275 OA
HETATM   24  C16 UNL     1      -5.482  62.998  60.090  1.00  0.00     0.154 A 
HETATM   25 CL1  UNL     1      -5.263  64.493  60.978  1.00  0.00    -0.056 Cl
BRANCH  22  26
HETATM   26  O4  UNL     1      -6.356  61.149  57.229  1.00  0.00    -0.341 OA
ATOM     27  H4  UNL     1      -6.808  61.641  56.552  1.00  0.00     0.220 HD
ENDBRANCH  22  26
ENDBRANCH  19  20
ENDBRANCH  18  19
ENDBRANCH   4  18
TORSDOF 9
ENDMDL
MODEL 2
REMARK VINA RESULT: -7.968947924      2.479      3.729
REMARK  9 active torsions:
REMARK  status: ('A' for Active; 'I' for Inactive)
REMARK    1  A    between atoms: C1_4  and  O1_5 
REMARK    2  A    between atoms: C1_4  and  S1_18 
REMARK    3  A    between atoms: O1_5  and  C2_6 
REMARK    4  A    between atoms: C2_6  and  O2_7 
REMARK    5  A    between atoms: O2_7  and  C3_8 
REMARK    6  A    between atoms: C3_8  and  C4_10 
REMARK    7  A    between atoms: S1_18  and  C12_19 
REMARK    8  A    between atoms: C12_19  and  C13_20 
REMARK    9  A    between atoms: C15_22  and  O4_23 
ROOT
HETATM    1  N1  UNL     1      -6.071  62.719  64.372  1.00  0.00    -0.374 N 
ATOM      2  H11 UNL     1      -5.547  63.362  64.966  1.00  0.00     0.158 HD
ATOM      3  H12 UNL     1      -6.903  62.257  64.740  1.00  0.00     0.158 HD
HETATM    4  C1  UNL     1      -5.697  62.484  63.172  1.00  0.00     0.177 C 
ENDROOT
BRANCH   4   5
HETATM    5  O1  UNL     1      -6.403  61.618  62.371  1.00  0.00    -0.304 OA
BRANCH   5   6
HETATM    6  C2  UNL     1      -5.935  60.311  62.054  1.00  0.00     0.357 C 
BRANCH   6   7
HETATM    7  O2  UNL     1      -6.592  59.907  60.865  1.00  0.00    -0.295 OA
BRANCH   7   8
HETATM    8  C3  UNL     1      -5.970  59.228  59.845  1.00  0.00     0.265 C 
HETATM    9  O3  UNL     1      -4.915  59.696  59.376  1.00  0.00    -0.265 OA
BRANCH   8  10
HETATM   10  C4  UNL     1      -6.607  57.970  59.369  1.00  0.00     0.085 C 
HETATM   11  C5  UNL     1      -5.663  56.841  59.658  1.00  0.00     0.014 C 
HETATM   12  C6  UNL     1      -5.539  56.686  61.140  1.00  0.00     0.001 C 
HETATM   13  C7  UNL     1      -6.193  55.437  61.672  1.00  0.00     0.000 C 
HETATM   14  C8  UNL     1      -7.657  55.637  61.995  1.00  0.00     0.000 C 
HETATM   15  C9  UNL     1      -8.538  55.417  60.816  1.00  0.00     0.000 C 
HETATM   16  C10 UNL     1      -8.511  56.426  59.752  1.00  0.00     0.001 C 
HETATM   17  C11 UNL     1      -7.961  57.756  60.049  1.00  0.00     0.014 C 
ENDBRANCH   8  10
ENDBRANCH   7   8
ENDBRANCH   6   7
ENDBRANCH   5   6
ENDBRANCH   4   5
BRANCH   4  18
HETATM   18  S1  UNL     1      -4.249  63.289  62.531  1.00  0.00    -0.082 SA
BRANCH  18  19
HETATM   19  C12 UNL     1      -4.724  64.794  61.649  1.00  0.00     0.125 C 
BRANCH  19  20
HETATM   20  C13 UNL     1      -4.190  64.756  60.282  1.00  0.00     0.002 A 
HETATM   21  C14 UNL     1      -3.080  65.427  59.808  1.00  0.00     0.075 A 
HETATM   22  C15 UNL     1      -2.936  65.112  58.471  1.00  0.00     0.185 A 
HETATM   23  O5  UNL     1      -3.900  64.296  58.143  1.00  0.00    -0.275 OA
HETATM   24  C16 UNL     1      -4.676  64.054  59.191  1.00  0.00     0.154 A 
HETATM   25 CL1  UNL     1      -6.088  63.019  59.217  1.00  0.00    -0.056 Cl
BRANCH  22  26
HETATM   26  O4  UNL     1      -1.933  65.579  57.602  1.00  0.00    -0.341 OA
ATOM     27  H4  UNL     1      -1.274  65.054  57.161  1.00  0.00     0.220 HD
ENDBRANCH  22  26
ENDBRANCH  19  20
ENDBRANCH  18  19
ENDBRANCH   4  18
TORSDOF 9
ENDMDL
MODEL 3
REMARK VINA RESULT: -7.949521106      1.316      1.715
REMARK  9 active torsions:
REMARK  status: ('A' for Active; 'I' for Inactive)
REMARK    1  A    between atoms: C1_4  and  O1_5 
REMARK    2  A    between atoms: C1_4  and  S1_18 
REMARK    3  A    between atoms: O1_5  and  C2_6 
REMARK    4  A    between atoms: C2_6  and  O2_7 
REMARK    5  A    between atoms: O2_7  and  C3_8 
REMARK    6  A    between atoms: C3_8  and  C4_10 
REMARK    7  A    between atoms: S1_18  and  C12_19 
REMARK    8  A    between atoms: C12_19  and  C13_20 
REMARK    9  A    between atoms: C15_22  and  O4_23 
ROOT
HETATM    1  N1  UNL     1      -7.173  60.535  63.277  1.00  0.00    -0.374 N 
ATOM      2  H11 UNL     1      -7.588  61.296  62.740  1.00  0.00     0.158 HD
ATOM      3  H12 UNL     1      -7.759  59.760  63.590  1.00  0.00     0.158 HD
HETATM    4  C1  UNL     1      -5.927  60.540  63.564  1.00  0.00     0.177 C 
ENDROOT
BRANCH   4   5
HETATM    5  O1  UNL     1      -5.366  59.514  64.288  1.00  0.00    -0.304 OA
BRANCH   5   6
HETATM    6  C2  UNL     1      -6.148  58.538  64.968  1.00  0.00     0.357 C 
BRANCH   6   7
HETATM    7  O2  UNL     1      -6.768  57.734  63.979  1.00  0.00    -0.295 OA
BRANCH   7   8
HETATM    8  C3  UNL     1      -6.392  56.440  63.704  1.00  0.00     0.265 C 
HETATM    9  O3  UNL     1      -6.462  55.595  64.616  1.00  0.00    -0.265 OA
BRANCH   8  10
HETATM   10  C4  UNL     1      -5.924  56.140  62.324  1.00  0.00     0.085 C 
HETATM   11  C5  UNL     1      -6.825  55.084  61.755  1.00  0.00     0.014 C 
HETATM   12  C6  UNL     1      -8.196  55.659  61.591  1.00  0.00     0.001 C 
HETATM   13  C7  UNL     1      -8.591  55.875  60.154  1.00  0.00     0.000 C 
HETATM   14  C8  UNL     1      -8.157  57.224  59.626  1.00  0.00     0.000 C 
HETATM   15  C9  UNL     1      -6.770  57.207  59.085  1.00  0.00     0.000 C 
HETATM   16  C10 UNL     1      -5.669  57.096  60.048  1.00  0.00     0.001 C 
HETATM   17  C11 UNL     1      -5.929  57.404  61.461  1.00  0.00     0.014 C 
ENDBRANCH   8  10
ENDBRANCH   7   8
ENDBRANCH   6   7
ENDBRANCH   5   6
ENDBRANCH   4   5
BRANCH   4  18
HETATM   18  S1  UNL     1      -4.907  61.888  63.019  1.00  0.00    -0.082 SA
BRANCH  18  19
HETATM   19  C12 UNL     1      -5.918  63.108  62.149  1.00  0.00     0.125 C 
BRANCH  19  20
HETATM   20  C13 UNL     1      -5.446  63.249  60.766  1.00  0.00     0.002 A 
HETATM   21  C14 UNL     1      -4.839  64.355  60.207  1.00  0.00     0.075 A 
HETATM   22  C15 UNL     1      -4.558  64.061  58.887  1.00  0.00     0.185 A 
HETATM   23  O5  UNL     1      -4.970  62.845  58.650  1.00  0.00    -0.275 OA
HETATM   24  C16 UNL     1      -5.508  62.319  59.741  1.00  0.00     0.154 A 
HETATM   25 CL1  UNL     1      -6.191  60.713  59.888  1.00  0.00    -0.056 Cl
BRANCH  22  26
HETATM   26  O4  UNL     1      -3.940  64.909  57.951  1.00  0.00    -0.341 OA
ATOM     27  H4  UNL     1      -4.365  65.383  57.245  1.00  0.00     0.220 HD
ENDBRANCH  22  26
ENDBRANCH  19  20
ENDBRANCH  18  19
ENDBRANCH   4  18
TORSDOF 9
ENDMDL
MODEL 4
REMARK VINA RESULT: -7.941943262      1.408      2.124
REMARK  9 active torsions:
REMARK  status: ('A' for Active; 'I' for Inactive)
REMARK    1  A    between atoms: C1_4  and  O1_5 
REMARK    2  A    between atoms: C1_4  and  S1_18 
REMARK    3  A    between atoms: O1_5  and  C2_6 
REMARK    4  A    between atoms: C2_6  and  O2_7 
REMARK    5  A    between atoms: O2_7  and  C3_8 
REMARK    6  A    between atoms: C3_8  and  C4_10 
REMARK    7  A    between atoms: S1_18  and  C12_19 
REMARK    8  A    between atoms: C12_19  and  C13_20 
REMARK    9  A    between atoms: C15_22  and  O4_23 
ROOT
HETATM    1  N1  UNL     1      -6.809  60.544  65.652  1.00  0.00    -0.374 N 
ATOM      2  H11 UNL     1      -7.352  61.399  65.776  1.00  0.00     0.158 HD
ATOM      3  H12 UNL     1      -7.110  59.685  66.113  1.00  0.00     0.158 HD
HETATM    4  C1  UNL     1      -5.755  60.536  64.928  1.00  0.00     0.177 C 
ENDROOT
BRANCH   4   5
HETATM    5  O1  UNL     1      -5.023  59.384  64.762  1.00  0.00    -0.304 OA
BRANCH   5   6
HETATM    6  C2  UNL     1      -5.410  58.140  65.333  1.00  0.00     0.357 C 
BRANCH   6   7
HETATM    7  O2  UNL     1      -6.653  57.781  64.754  1.00  0.00    -0.295 OA
BRANCH   7   8
HETATM    8  C3  UNL     1      -6.786  56.847  63.754  1.00  0.00     0.265 C 
HETATM    9  O3  UNL     1      -6.157  55.778  63.854  1.00  0.00    -0.265 OA
BRANCH   8  10
HETATM   10  C4  UNL     1      -7.682  57.185  62.615  1.00  0.00     0.085 C 
HETATM   11  C5  UNL     1      -7.303  58.550  62.124  1.00  0.00     0.014 C 
HETATM   12  C6  UNL     1      -5.928  58.487  61.540  1.00  0.00     0.001 C 
HETATM   13  C7  UNL     1      -5.902  58.634  60.041  1.00  0.00     0.000 C 
HETATM   14  C8  UNL     1      -6.073  57.314  59.323  1.00  0.00     0.000 C 
HETATM   15  C9  UNL     1      -7.504  56.959  59.113  1.00  0.00     0.000 C 
HETATM   16  C10 UNL     1      -8.281  56.556  60.290  1.00  0.00     0.001 C 
HETATM   17  C11 UNL     1      -7.566  56.139  61.504  1.00  0.00     0.014 C 
ENDBRANCH   8  10
ENDBRANCH   7   8
ENDBRANCH   6   7
ENDBRANCH   5   6
ENDBRANCH   4   5
BRANCH   4  18
HETATM   18  S1  UNL     1      -5.232  62.032  64.125  1.00  0.00    -0.082 SA
BRANCH  18  19
HETATM   19  C12 UNL     1      -4.414  61.635  62.563  1.00  0.00     0.125 C 
BRANCH  19  20
HETATM   20  C13 UNL     1      -4.842  62.580  61.524  1.00  0.00     0.002 A 
HETATM   21  C14 UNL     1      -5.797  62.365  60.551  1.00  0.00     0.075 A 
HETATM   22  C15 UNL     1      -5.886  63.511  59.786  1.00  0.00     0.185 A 
HETATM   23  O5  UNL     1      -5.035  64.379  60.261  1.00  0.00    -0.275 OA
HETATM   24  C16 UNL     1      -4.387  63.870  61.299  1.00  0.00     0.154 A 
HETATM   25 CL1  UNL     1      -3.155  64.675  62.249  1.00  0.00    -0.056 Cl
BRANCH  22  26
HETATM   26  O4  UNL     1      -6.737  63.722  58.686  1.00  0.00    -0.341 OA
ATOM     27  H4  UNL     1      -6.544  63.535  57.774  1.00  0.00     0.220 HD
ENDBRANCH  22  26
ENDBRANCH  19  20
ENDBRANCH  18  19
ENDBRANCH   4  18
TORSDOF 9
ENDMDL
MODEL 5
REMARK VINA RESULT: -7.895277513      1.596      1.980
REMARK  9 active torsions:
REMARK  status: ('A' for Active; 'I' for Inactive)
REMARK    1  A    between atoms: C1_4  and  O1_5 
REMARK    2  A    between atoms: C1_4  and  S1_18 
REMARK    3  A    between atoms: O1_5  and  C2_6 
REMARK    4  A    between atoms: C2_6  and  O2_7 
REMARK    5  A    between atoms: O2_7  and  C3_8 
REMARK    6  A    between atoms: C3_8  and  C4_10 
REMARK    7  A    between atoms: S1_18  and  C12_19 
REMARK    8  A    between atoms: C12_19  and  C13_20 
REMARK    9  A    between atoms: C15_22  and  O4_23 
ROOT
HETATM    1  N1  UNL     1      -5.973  62.920  64.803  1.00  0.00    -0.374 N 
ATOM      2  H11 UNL     1      -5.733  63.696  64.186  1.00  0.00     0.158 HD
ATOM      3  H12 UNL     1      -6.533  63.095  65.638  1.00  0.00     0.158 HD
HETATM    4  C1  UNL     1      -5.581  61.731  64.544  1.00  0.00     0.177 C 
ENDROOT
BRANCH   4   5
HETATM    5  O1  UNL     1      -5.905  60.685  65.376  1.00  0.00    -0.304 OA
BRANCH   5   6
HETATM    6  C2  UNL     1      -5.567  59.335  65.078  1.00  0.00     0.357 C 
BRANCH   6   7
HETATM    7  O2  UNL     1      -6.769  58.671  64.724  1.00  0.00    -0.295 OA
BRANCH   7   8
HETATM    8  C3  UNL     1      -7.375  58.797  63.497  1.00  0.00     0.265 C 
HETATM    9  O3  UNL     1      -8.539  59.237  63.452  1.00  0.00    -0.265 OA
BRANCH   8  10
HETATM   10  C4  UNL     1      -6.588  58.396  62.299  1.00  0.00     0.085 C 
HETATM   11  C5  UNL     1      -6.428  56.906  62.334  1.00  0.00     0.014 C 
HETATM   12  C6  UNL     1      -7.772  56.274  62.154  1.00  0.00     0.001 C 
HETATM   13  C7  UNL     1      -7.943  55.590  60.823  1.00  0.00     0.000 C 
HETATM   14  C8  UNL     1      -8.438  56.527  59.744  1.00  0.00     0.000 C 
HETATM   15  C9  UNL     1      -7.330  57.250  59.062  1.00  0.00     0.000 C 
HETATM   16  C10 UNL     1      -6.635  58.296  59.820  1.00  0.00     0.001 C 
HETATM   17  C11 UNL     1      -7.283  58.855  61.014  1.00  0.00     0.014 C 
ENDBRANCH   8  10
ENDBRANCH   7   8
ENDBRANCH   6   7
ENDBRANCH   5   6
ENDBRANCH   4   5
BRANCH   4  18
HETATM   18  S1  UNL     1      -4.606  61.427  63.091  1.00  0.00    -0.082 SA
BRANCH  18  19
HETATM   19  C12 UNL     1      -4.139  62.998  62.327  1.00  0.00     0.125 C 
BRANCH  19  20
HETATM   20  C13 UNL     1      -4.816  63.140  61.032  1.00  0.00     0.002 A 
HETATM   21  C14 UNL     1      -5.390  62.133  60.282  1.00  0.00     0.075 A 
HETATM   22  C15 UNL     1      -5.913  62.703  59.139  1.00  0.00     0.185 A 
HETATM   23  O5  UNL     1      -5.675  63.986  59.184  1.00  0.00    -0.275 OA
HETATM   24  C16 UNL     1      -5.021  64.295  60.295  1.00  0.00     0.154 A 
HETATM   25 CL1  UNL     1      -4.493  65.895  60.775  1.00  0.00    -0.056 Cl
BRANCH  22  26
HETATM   26  O4  UNL     1      -6.587  62.036  58.100  1.00  0.00    -0.341 OA
ATOM     27  H4  UNL     1      -7.495  62.153  57.845  1.00  0.00     0.220 HD
ENDBRANCH  22  26
ENDBRANCH  19  20
ENDBRANCH  18  19
ENDBRANCH   4  18
TORSDOF 9
ENDMDL
