MODEL 1
REMARK VINA RESULT: -7.344536865      0.000      0.000
REMARK  6 active torsions:
REMARK  status: ('A' for Active; 'I' for Inactive)
REMARK    1  A    between atoms: C2_2  and  O1_3 
REMARK    2  A    between atoms: O1_3  and  C3_4 
REMARK    3  A    between atoms: C5_6  and  C6_7 
REMARK    4  A    between atoms: N1_8  and  N2_10 
REMARK    5  A    between atoms: C7_11  and  S1_12 
REMARK    6  A    between atoms: C14_24  and  O2_25 
ROOT
HETATM    1  N2  UNL     1      -5.125  62.866  62.208  1.00  0.00    -0.221 N 
HETATM    2  C7  UNL     1      -4.817  63.927  61.447  1.00  0.00     0.133 A 
HETATM    3  C9  UNL     1      -4.085  64.811  62.206  1.00  0.00     0.152 A 
HETATM    4  C10 UNL     1      -3.548  66.086  61.785  1.00  0.00     0.120 C 
HETATM    5  N3  UNL     1      -3.115  67.096  61.436  1.00  0.00    -0.190 NA
HETATM    6  N4  UNL     1      -3.975  64.234  63.435  1.00  0.00    -0.321 N 
ATOM      7  H4  UNL     1      -3.486  64.639  64.233  1.00  0.00     0.169 HD
HETATM    8  C11 UNL     1      -4.607  63.050  63.435  1.00  0.00     0.199 A 
HETATM    9  S2  UNL     1      -4.708  62.042  64.721  1.00  0.00    -0.039 SA
ENDROOT
BRANCH   2  10
HETATM   10  S1  UNL     1      -5.305  64.103  59.744  1.00  0.00    -0.112 SA
HETATM   11  C8  UNL     1      -3.880  64.369  58.662  1.00  0.00     0.097 C 
ENDBRANCH   2  10
BRANCH   1  12
HETATM   12  N1  UNL     1      -5.855  61.735  61.840  1.00  0.00    -0.301 N 
HETATM   13  C6  UNL     1      -5.246  60.680  61.447  1.00  0.00     0.119 C 
ATOM     14  H1  UNL     1      -6.874  61.749  61.883  1.00  0.00     0.186 HD
BRANCH  13  15
HETATM   15  C5  UNL     1      -6.035  59.513  61.070  1.00  0.00    -0.015 A 
HETATM   16  C4  UNL     1      -6.520  58.639  62.019  1.00  0.00     0.052 A 
HETATM   17  C3  UNL     1      -7.272  57.526  61.681  1.00  0.00     0.104 A 
HETATM   18  C14 UNL     1      -7.553  57.272  60.359  1.00  0.00     0.121 A 
HETATM   19  C13 UNL     1      -7.078  58.136  59.380  1.00  0.00     0.070 A 
HETATM   20  C12 UNL     1      -6.335  59.231  59.747  1.00  0.00     0.039 A 
HETATM   21 CL1  UNL     1      -7.423  57.832  57.698  1.00  0.00    -0.081 Cl
BRANCH  17  22
HETATM   22  O1  UNL     1      -7.748  56.661  62.643  1.00  0.00    -0.349 OA
BRANCH  22  23
HETATM   23  C2  UNL     1      -6.838  55.784  63.290  1.00  0.00     0.171 C 
HETATM   24  C1  UNL     1      -7.199  54.369  62.944  1.00  0.00     0.034 C 
ENDBRANCH  22  23
ENDBRANCH  17  22
BRANCH  18  25
HETATM   25  O2  UNL     1      -8.307  56.151  60.053  1.00  0.00    -0.356 OA
ATOM     26  H2  UNL     1      -8.515  55.985  59.142  1.00  0.00     0.218 HD
ENDBRANCH  18  25
ENDBRANCH  13  15
ENDBRANCH   1  12
TORSDOF 6
ENDMDL
MODEL 2
REMARK VINA RESULT: -7.303190610      2.393      3.551
REMARK  6 active torsions:
REMARK  status: ('A' for Active; 'I' for Inactive)
REMARK    1  A    between atoms: C2_2  and  O1_3 
REMARK    2  A    between atoms: O1_3  and  C3_4 
REMARK    3  A    between atoms: C5_6  and  C6_7 
REMARK    4  A    between atoms: N1_8  and  N2_10 
REMARK    5  A    between atoms: C7_11  and  S1_12 
REMARK    6  A    between atoms: C14_24  and  O2_25 
ROOT
HETATM    1  N2  UNL     1      -5.231  61.636  60.214  1.00  0.00    -0.221 N 
HETATM    2  C7  UNL     1      -4.761  62.755  60.785  1.00  0.00     0.133 A 
HETATM    3  C9  UNL     1      -4.748  63.755  59.841  1.00  0.00     0.152 A 
HETATM    4  C10 UNL     1      -4.317  65.123  60.024  1.00  0.00     0.120 C 
HETATM    5  N3  UNL     1      -3.980  66.215  60.184  1.00  0.00    -0.190 NA
HETATM    6  N4  UNL     1      -5.225  63.186  58.698  1.00  0.00    -0.321 N 
ATOM      7  H4  UNL     1      -5.341  63.666  57.806  1.00  0.00     0.169 HD
HETATM    8  C11 UNL     1      -5.519  61.897  58.926  1.00  0.00     0.199 A 
HETATM    9  S2  UNL     1      -6.118  60.861  57.809  1.00  0.00    -0.039 SA
ENDROOT
BRANCH   2  10
HETATM   10  S1  UNL     1      -4.254  62.862  62.488  1.00  0.00    -0.112 SA
HETATM   11  C8  UNL     1      -5.631  62.549  63.619  1.00  0.00     0.097 C 
ENDBRANCH   2  10
BRANCH   1  12
HETATM   12  N1  UNL     1      -5.411  60.386  60.807  1.00  0.00    -0.301 N 
HETATM   13  C6  UNL     1      -6.557  60.060  61.277  1.00  0.00     0.119 C 
ATOM     14  H1  UNL     1      -4.631  59.731  60.866  1.00  0.00     0.186 HD
BRANCH  13  15
HETATM   15  C5  UNL     1      -6.716  58.747  61.890  1.00  0.00    -0.015 A 
HETATM   16  C4  UNL     1      -6.179  58.465  63.127  1.00  0.00     0.052 A 
HETATM   17  C3  UNL     1      -6.319  57.224  63.727  1.00  0.00     0.104 A 
HETATM   18  C14 UNL     1      -7.016  56.231  63.079  1.00  0.00     0.121 A 
HETATM   19  C13 UNL     1      -7.570  56.487  61.830  1.00  0.00     0.070 A 
HETATM   20  C12 UNL     1      -7.413  57.727  61.262  1.00  0.00     0.039 A 
HETATM   21 CL1  UNL     1      -8.457  55.242  60.992  1.00  0.00    -0.081 Cl
BRANCH  17  22
HETATM   22  O1  UNL     1      -5.774  56.957  64.965  1.00  0.00    -0.349 OA
BRANCH  22  23
HETATM   23  C2  UNL     1      -5.448  58.042  65.821  1.00  0.00     0.171 C 
HETATM   24  C1  UNL     1      -3.989  57.970  66.163  1.00  0.00     0.034 C 
ENDBRANCH  22  23
ENDBRANCH  17  22
BRANCH  18  25
HETATM   25  O2  UNL     1      -7.139  55.001  63.704  1.00  0.00    -0.356 OA
ATOM     26  H2  UNL     1      -7.853  54.879  64.319  1.00  0.00     0.218 HD
ENDBRANCH  18  25
ENDBRANCH  13  15
ENDBRANCH   1  12
TORSDOF 6
ENDMDL
MODEL 3
REMARK VINA RESULT: -7.210193393      2.662      3.685
REMARK  6 active torsions:
REMARK  status: ('A' for Active; 'I' for Inactive)
REMARK    1  A    between atoms: C2_2  and  O1_3 
REMARK    2  A    between atoms: O1_3  and  C3_4 
REMARK    3  A    between atoms: C5_6  and  C6_7 
REMARK    4  A    between atoms: N1_8  and  N2_10 
REMARK    5  A    between atoms: C7_11  and  S1_12 
REMARK    6  A    between atoms: C14_24  and  O2_25 
ROOT
HETATM    1  N2  UNL     1      -4.844  62.519  60.379  1.00  0.00    -0.221 N 
HETATM    2  C7  UNL     1      -4.402  63.708  60.818  1.00  0.00     0.133 A 
HETATM    3  C9  UNL     1      -4.436  64.600  59.771  1.00  0.00     0.152 A 
HETATM    4  C10 UNL     1      -4.048  65.993  59.799  1.00  0.00     0.120 C 
HETATM    5  N3  UNL     1      -3.745  67.105  59.834  1.00  0.00    -0.190 NA
HETATM    6  N4  UNL     1      -4.912  63.896  58.706  1.00  0.00    -0.321 N 
ATOM      7  H4  UNL     1      -5.058  64.274  57.770  1.00  0.00     0.169 HD
HETATM    8  C11 UNL     1      -5.160  62.631  59.077  1.00  0.00     0.199 A 
HETATM    9  S2  UNL     1      -5.741  61.463  58.089  1.00  0.00    -0.039 SA
ENDROOT
BRANCH   2  10
HETATM   10  S1  UNL     1      -3.872  64.014  62.490  1.00  0.00    -0.112 SA
HETATM   11  C8  UNL     1      -2.378  65.033  62.543  1.00  0.00     0.097 C 
ENDBRANCH   2  10
BRANCH   1  12
HETATM   12  N1  UNL     1      -4.973  61.336  61.107  1.00  0.00    -0.301 N 
HETATM   13  C6  UNL     1      -6.054  61.096  61.750  1.00  0.00     0.119 C 
ATOM     14  H1  UNL     1      -4.208  60.662  61.126  1.00  0.00     0.186 HD
BRANCH  13  15
HETATM   15  C5  UNL     1      -6.161  59.851  62.501  1.00  0.00    -0.015 A 
HETATM   16  C4  UNL     1      -7.011  58.843  62.098  1.00  0.00     0.052 A 
HETATM   17  C3  UNL     1      -7.127  57.652  62.796  1.00  0.00     0.104 A 
HETATM   18  C14 UNL     1      -6.375  57.455  63.931  1.00  0.00     0.121 A 
HETATM   19  C13 UNL     1      -5.510  58.453  64.362  1.00  0.00     0.070 A 
HETATM   20  C12 UNL     1      -5.417  59.622  63.647  1.00  0.00     0.039 A 
HETATM   21 CL1  UNL     1      -4.548  58.222  65.798  1.00  0.00    -0.081 Cl
BRANCH  17  22
HETATM   22  O1  UNL     1      -7.983  56.654  62.380  1.00  0.00    -0.349 OA
BRANCH  22  23
HETATM   23  C2  UNL     1      -7.588  55.814  61.306  1.00  0.00     0.171 C 
HETATM   24  C1  UNL     1      -8.387  56.175  60.089  1.00  0.00     0.034 C 
ENDBRANCH  22  23
ENDBRANCH  17  22
BRANCH  18  25
HETATM   25  O2  UNL     1      -6.514  56.254  64.608  1.00  0.00    -0.356 OA
ATOM     26  H2  UNL     1      -7.386  55.985  64.871  1.00  0.00     0.218 HD
ENDBRANCH  18  25
ENDBRANCH  13  15
ENDBRANCH   1  12
TORSDOF 6
ENDMDL
MODEL 4
REMARK VINA RESULT: -7.050365278      1.276      2.832
REMARK  6 active torsions:
REMARK  status: ('A' for Active; 'I' for Inactive)
REMARK    1  A    between atoms: C2_2  and  O1_3 
REMARK    2  A    between atoms: O1_3  and  C3_4 
REMARK    3  A    between atoms: C5_6  and  C6_7 
REMARK    4  A    between atoms: N1_8  and  N2_10 
REMARK    5  A    between atoms: C7_11  and  S1_12 
REMARK    6  A    between atoms: C14_24  and  O2_25 
ROOT
HETATM    1  N2  UNL     1      -5.016  62.520  62.825  1.00  0.00    -0.221 N 
HETATM    2  C7  UNL     1      -4.324  62.628  63.969  1.00  0.00     0.133 A 
HETATM    3  C9  UNL     1      -3.721  63.865  64.000  1.00  0.00     0.152 A 
HETATM    4  C10 UNL     1      -2.881  64.400  65.048  1.00  0.00     0.120 C 
HETATM    5  N3  UNL     1      -2.219  64.821  65.894  1.00  0.00    -0.190 NA
HETATM    6  N4  UNL     1      -4.083  64.477  62.838  1.00  0.00    -0.321 N 
ATOM      7  H4  UNL     1      -3.798  65.414  62.554  1.00  0.00     0.169 HD
HETATM    8  C11 UNL     1      -4.870  63.658  62.124  1.00  0.00     0.199 A 
HETATM    9  S2  UNL     1      -5.517  64.019  60.664  1.00  0.00    -0.039 SA
ENDROOT
BRANCH   2  10
HETATM   10  S1  UNL     1      -4.238  61.347  65.202  1.00  0.00    -0.112 SA
HETATM   11  C8  UNL     1      -5.820  61.128  66.052  1.00  0.00     0.097 C 
ENDBRANCH   2  10
BRANCH   1  12
HETATM   12  N1  UNL     1      -5.775  61.435  62.386  1.00  0.00    -0.301 N 
HETATM   13  C6  UNL     1      -5.259  60.573  61.592  1.00  0.00     0.119 C 
ATOM     14  H1  UNL     1      -6.741  61.328  62.697  1.00  0.00     0.186 HD
BRANCH  13  15
HETATM   15  C5  UNL     1      -6.076  59.449  61.151  1.00  0.00    -0.015 A 
HETATM   16  C4  UNL     1      -6.565  58.523  62.048  1.00  0.00     0.052 A 
HETATM   17  C3  UNL     1      -7.343  57.448  61.649  1.00  0.00     0.104 A 
HETATM   18  C14 UNL     1      -7.646  57.287  60.317  1.00  0.00     0.121 A 
HETATM   19  C13 UNL     1      -7.167  58.204  59.390  1.00  0.00     0.070 A 
HETATM   20  C12 UNL     1      -6.398  59.259  59.816  1.00  0.00     0.039 A 
HETATM   21 CL1  UNL     1      -7.540  58.017  57.697  1.00  0.00    -0.081 Cl
BRANCH  17  22
HETATM   22  O1  UNL     1      -7.823  56.531  62.559  1.00  0.00    -0.349 OA
BRANCH  22  23
HETATM   23  C2  UNL     1      -6.906  55.668  63.214  1.00  0.00     0.171 C 
HETATM   24  C1  UNL     1      -7.195  54.253  62.807  1.00  0.00     0.034 C 
ENDBRANCH  22  23
ENDBRANCH  17  22
BRANCH  18  25
HETATM   25  O2  UNL     1      -8.426  56.202  59.950  1.00  0.00    -0.356 OA
ATOM     26  H2  UNL     1      -8.816  55.676  60.637  1.00  0.00     0.218 HD
ENDBRANCH  18  25
ENDBRANCH  13  15
ENDBRANCH   1  12
TORSDOF 6
ENDMDL
MODEL 5
REMARK VINA RESULT: -7.040537442      1.901      2.331
REMARK  6 active torsions:
REMARK  status: ('A' for Active; 'I' for Inactive)
REMARK    1  A    between atoms: C2_2  and  O1_3 
REMARK    2  A    between atoms: O1_3  and  C3_4 
REMARK    3  A    between atoms: C5_6  and  C6_7 
REMARK    4  A    between atoms: N1_8  and  N2_10 
REMARK    5  A    between atoms: C7_11  and  S1_12 
REMARK    6  A    between atoms: C14_24  and  O2_25 
ROOT
HETATM    1  N2  UNL     1      -5.143  61.691  62.653  1.00  0.00    -0.221 N 
HETATM    2  C7  UNL     1      -5.092  62.547  61.621  1.00  0.00     0.133 A 
HETATM    3  C9  UNL     1      -4.829  63.806  62.110  1.00  0.00     0.152 A 
HETATM    4  C10 UNL     1      -4.690  65.027  61.347  1.00  0.00     0.120 C 
HETATM    5  N3  UNL     1      -4.572  65.993  60.729  1.00  0.00    -0.190 NA
HETATM    6  N4  UNL     1      -4.729  63.660  63.461  1.00  0.00    -0.321 N 
ATOM      7  H4  UNL     1      -4.538  64.413  64.121  1.00  0.00     0.169 HD
HETATM    8  C11 UNL     1      -4.920  62.373  63.790  1.00  0.00     0.199 A 
HETATM    9  S2  UNL     1      -4.880  61.781  65.315  1.00  0.00    -0.039 SA
ENDROOT
BRANCH   2  10
HETATM   10  S1  UNL     1      -5.334  62.070  59.923  1.00  0.00    -0.112 SA
HETATM   11  C8  UNL     1      -6.446  63.207  59.059  1.00  0.00     0.097 C 
ENDBRANCH   2  10
BRANCH   1  12
HETATM   12  N1  UNL     1      -5.385  60.317  62.611  1.00  0.00    -0.301 N 
HETATM   13  C6  UNL     1      -6.586  59.878  62.655  1.00  0.00     0.119 C 
ATOM     14  H1  UNL     1      -4.605  59.664  62.545  1.00  0.00     0.186 HD
BRANCH  13  15
HETATM   15  C5  UNL     1      -6.808  58.437  62.608  1.00  0.00    -0.015 A 
HETATM   16  C4  UNL     1      -6.331  57.607  63.599  1.00  0.00     0.052 A 
HETATM   17  C3  UNL     1      -6.531  56.236  63.573  1.00  0.00     0.104 A 
HETATM   18  C14 UNL     1      -7.229  55.671  62.531  1.00  0.00     0.121 A 
HETATM   19  C13 UNL     1      -7.722  56.484  61.517  1.00  0.00     0.070 A 
HETATM   20  C12 UNL     1      -7.506  57.839  61.571  1.00  0.00     0.039 A 
HETATM   21 CL1  UNL     1      -8.608  55.788  60.187  1.00  0.00    -0.081 Cl
BRANCH  17  22
HETATM   22  O1  UNL     1      -6.046  55.419  64.573  1.00  0.00    -0.349 OA
BRANCH  22  23
HETATM   23  C2  UNL     1      -5.323  56.002  65.646  1.00  0.00     0.171 C 
HETATM   24  C1  UNL     1      -5.264  55.021  66.780  1.00  0.00     0.034 C 
ENDBRANCH  22  23
ENDBRANCH  17  22
BRANCH  18  25
HETATM   25  O2  UNL     1      -7.412  54.298  62.533  1.00  0.00    -0.356 OA
ATOM     26  H2  UNL     1      -6.716  53.752  62.190  1.00  0.00     0.218 HD
ENDBRANCH  18  25
ENDBRANCH  13  15
ENDBRANCH   1  12
TORSDOF 6
ENDMDL
