MODEL 1
REMARK VINA RESULT: -7.724671326      0.000      0.000
REMARK  7 active torsions:
REMARK  status: ('A' for Active; 'I' for Inactive)
REMARK    1  A    between atoms: N1_4  and  C4_6 
REMARK    2  A    between atoms: C4_6  and  C7_9 
REMARK    3  A    between atoms: C8_12  and  S1_13 
REMARK    4  A    between atoms: S1_13  and  C9_14 
REMARK    5  A    between atoms: C9_14  and  C10_15 
REMARK    6  A    between atoms: C11_18  and  O1_19 
REMARK    7  A    between atoms: C13_24  and  C14_25 
ROOT
HETATM    1  C7  UNL     1      -6.297  58.694  61.392  1.00  0.00     0.060 A 
HETATM    2  N2  UNL     1      -6.203  59.305  60.231  1.00  0.00    -0.345 N 
ATOM      3  H2  UNL     1      -6.292  58.762  59.372  1.00  0.00     0.167 HD
HETATM    4  C8  UNL     1      -6.000  60.591  60.155  1.00  0.00     0.113 A 
HETATM    5  S3  UNL     1      -5.925  61.044  61.783  1.00  0.00    -0.059 SA
HETATM    6  C13 UNL     1      -6.171  59.465  62.509  1.00  0.00     0.088 A 
ENDROOT
BRANCH   4   7
HETATM    7  S1  UNL     1      -5.856  61.533  58.632  1.00  0.00    -0.098 SA
BRANCH   7   8
HETATM    8  C9  UNL     1      -6.396  63.227  59.006  1.00  0.00     0.146 C 
BRANCH   8   9
HETATM    9  C10 UNL     1      -5.149  64.031  59.225  1.00  0.00     0.062 A 
HETATM   10  N3  UNL     1      -4.411  64.588  58.276  1.00  0.00    -0.334 N 
HETATM   11  C11 UNL     1      -3.353  65.260  58.593  1.00  0.00     0.147 A 
ATOM     12  H3  UNL     1      -4.677  64.486  57.296  1.00  0.00     0.168 HD
HETATM   13  C12 UNL     1      -3.036  65.369  59.922  1.00  0.00     0.107 A 
HETATM   14  S2  UNL     1      -4.314  64.475  60.646  1.00  0.00    -0.084 SA
BRANCH  11  15
HETATM   15  O1  UNL     1      -2.525  65.877  57.621  1.00  0.00    -0.346 OA
ATOM     16  H1  UNL     1      -1.617  65.628  57.495  1.00  0.00     0.219 HD
ENDBRANCH  11  15
ENDBRANCH   8   9
ENDBRANCH   7   8
ENDBRANCH   4   7
BRANCH   1  17
HETATM   17  C4  UNL     1      -6.532  57.181  61.414  1.00  0.00     0.066 C 
HETATM   18  C5  UNL     1      -7.991  56.870  61.121  1.00  0.00     0.045 C 
HETATM   19  C6  UNL     1      -5.687  56.443  60.432  1.00  0.00     0.045 C 
BRANCH  17  20
HETATM   20  N1  UNL     1      -6.265  56.659  62.698  1.00  0.00    -0.383 N 
HETATM   21  C2  UNL     1      -6.472  55.574  63.242  1.00  0.00    -0.025 C 
HETATM   22  C1  UNL     1      -6.004  55.447  64.680  1.00  0.00     0.062 C 
HETATM   23  C3  UNL     1      -7.118  54.379  62.680  1.00  0.00     0.062 C 
ATOM     24  H1  UNL     1      -5.797  57.327  63.311  1.00  0.00     0.160 HD
ENDBRANCH  17  20
ENDBRANCH   1  17
BRANCH   6  25
HETATM   25  C14 UNL     1      -6.191  59.221  63.939  1.00  0.00     0.201 C 
HETATM   26  N4  UNL     1      -7.288  59.480  64.576  1.00  0.00    -0.375 N 
ATOM     27  H42 UNL     1      -8.073  59.834  64.028  1.00  0.00     0.158 HD
ATOM     28  H41 UNL     1      -7.302  59.308  65.581  1.00  0.00     0.158 HD
HETATM   29  F1  UNL     1      -5.178  58.763  64.647  1.00  0.00    -0.185 F 
ENDBRANCH   6  25
TORSDOF 7
ENDMDL
MODEL 2
REMARK VINA RESULT: -7.639154414      3.917      7.094
REMARK  7 active torsions:
REMARK  status: ('A' for Active; 'I' for Inactive)
REMARK    1  A    between atoms: N1_4  and  C4_6 
REMARK    2  A    between atoms: C4_6  and  C7_9 
REMARK    3  A    between atoms: C8_12  and  S1_13 
REMARK    4  A    between atoms: S1_13  and  C9_14 
REMARK    5  A    between atoms: C9_14  and  C10_15 
REMARK    6  A    between atoms: C11_18  and  O1_19 
REMARK    7  A    between atoms: C13_24  and  C14_25 
ROOT
HETATM    1  C7  UNL     1      -5.886  60.841  60.649  1.00  0.00     0.060 A 
HETATM    2  N2  UNL     1      -6.308  59.625  60.376  1.00  0.00    -0.345 N 
ATOM      3  H2  UNL     1      -6.496  58.978  61.142  1.00  0.00     0.167 HD
HETATM    4  C8  UNL     1      -6.490  59.231  59.147  1.00  0.00     0.113 A 
HETATM    5  S3  UNL     1      -6.063  60.604  58.257  1.00  0.00    -0.059 SA
HETATM    6  C13 UNL     1      -5.649  61.667  59.591  1.00  0.00     0.088 A 
ENDROOT
BRANCH   4   7
HETATM    7  S1  UNL     1      -7.061  57.601  58.652  1.00  0.00    -0.098 SA
BRANCH   7   8
HETATM    8  C9  UNL     1      -8.267  57.063  59.900  1.00  0.00     0.146 C 
BRANCH   8   9
HETATM    9  C10 UNL     1      -7.517  56.199  60.870  1.00  0.00     0.062 A 
HETATM   10  N3  UNL     1      -8.059  55.334  61.715  1.00  0.00    -0.334 N 
HETATM   11  C11 UNL     1      -7.303  54.644  62.505  1.00  0.00     0.147 A 
ATOM     12  H3  UNL     1      -9.072  55.213  61.742  1.00  0.00     0.168 HD
HETATM   13  C12 UNL     1      -5.948  54.842  62.432  1.00  0.00     0.107 A 
HETATM   14  S2  UNL     1      -5.851  56.038  61.200  1.00  0.00    -0.084 SA
BRANCH  11  15
HETATM   15  O1  UNL     1      -7.826  53.705  63.430  1.00  0.00    -0.346 OA
ATOM     16  H1  UNL     1      -7.531  52.803  63.461  1.00  0.00     0.219 HD
ENDBRANCH  11  15
ENDBRANCH   8   9
ENDBRANCH   7   8
ENDBRANCH   4   7
BRANCH   1  17
HETATM   17  C4  UNL     1      -5.688  61.243  62.113  1.00  0.00     0.066 C 
HETATM   18  C5  UNL     1      -4.212  61.461  62.405  1.00  0.00     0.045 C 
HETATM   19  C6  UNL     1      -6.429  62.482  62.487  1.00  0.00     0.045 C 
BRANCH  17  20
HETATM   20  N1  UNL     1      -6.113  60.206  62.972  1.00  0.00    -0.383 N 
HETATM   21  C2  UNL     1      -6.125  60.055  64.193  1.00  0.00    -0.025 C 
HETATM   22  C1  UNL     1      -6.691  58.741  64.699  1.00  0.00     0.062 C 
HETATM   23  C3  UNL     1      -5.660  60.984  65.233  1.00  0.00     0.062 C 
ATOM     24  H1  UNL     1      -6.496  59.405  62.469  1.00  0.00     0.160 HD
ENDBRANCH  17  20
ENDBRANCH   1  17
BRANCH   6  25
HETATM   25  C14 UNL     1      -5.180  63.030  59.431  1.00  0.00     0.201 C 
HETATM   26  N4  UNL     1      -5.946  63.857  58.793  1.00  0.00    -0.375 N 
ATOM     27  H42 UNL     1      -6.837  63.496  58.449  1.00  0.00     0.158 HD
ATOM     28  H41 UNL     1      -5.616  64.815  58.681  1.00  0.00     0.158 HD
HETATM   29  F1  UNL     1      -4.030  63.497  59.876  1.00  0.00    -0.185 F 
ENDBRANCH   6  25
TORSDOF 7
ENDMDL
MODEL 3
REMARK VINA RESULT: -7.570275098      2.206      2.992
REMARK  7 active torsions:
REMARK  status: ('A' for Active; 'I' for Inactive)
REMARK    1  A    between atoms: N1_4  and  C4_6 
REMARK    2  A    between atoms: C4_6  and  C7_9 
REMARK    3  A    between atoms: C8_12  and  S1_13 
REMARK    4  A    between atoms: S1_13  and  C9_14 
REMARK    5  A    between atoms: C9_14  and  C10_15 
REMARK    6  A    between atoms: C11_18  and  O1_19 
REMARK    7  A    between atoms: C13_24  and  C14_25 
ROOT
HETATM    1  C7  UNL     1      -6.220  58.550  60.619  1.00  0.00     0.060 A 
HETATM    2  N2  UNL     1      -5.696  59.346  61.526  1.00  0.00    -0.345 N 
ATOM      3  H2  UNL     1      -5.477  58.974  62.450  1.00  0.00     0.167 HD
HETATM    4  C8  UNL     1      -5.450  60.600  61.267  1.00  0.00     0.113 A 
HETATM    5  S3  UNL     1      -5.961  60.747  59.662  1.00  0.00    -0.059 SA
HETATM    6  C13 UNL     1      -6.494  59.096  59.400  1.00  0.00     0.088 A 
ENDROOT
BRANCH   4   7
HETATM    7  S1  UNL     1      -4.737  61.779  62.421  1.00  0.00    -0.098 SA
BRANCH   7   8
HETATM    8  C9  UNL     1      -5.748  63.286  62.327  1.00  0.00     0.146 C 
BRANCH   8   9
HETATM    9  C10 UNL     1      -5.048  64.208  61.373  1.00  0.00     0.062 A 
HETATM   10  N3  UNL     1      -4.959  64.042  60.061  1.00  0.00    -0.334 N 
HETATM   11  C11 UNL     1      -4.325  64.911  59.344  1.00  0.00     0.147 A 
ATOM     12  H3  UNL     1      -5.389  63.230  59.619  1.00  0.00     0.168 HD
HETATM   13  C12 UNL     1      -3.763  65.985  59.984  1.00  0.00     0.107 A 
HETATM   14  S2  UNL     1      -4.196  65.666  61.617  1.00  0.00    -0.084 SA
BRANCH  11  15
HETATM   15  O1  UNL     1      -4.196  64.786  57.937  1.00  0.00    -0.346 OA
ATOM     16  H1  UNL     1      -4.887  65.042  57.338  1.00  0.00     0.219 HD
ENDBRANCH  11  15
ENDBRANCH   8   9
ENDBRANCH   7   8
ENDBRANCH   4   7
BRANCH   1  17
HETATM   17  C4  UNL     1      -6.490  57.088  60.986  1.00  0.00     0.066 C 
HETATM   18  C5  UNL     1      -7.946  56.738  60.722  1.00  0.00     0.045 C 
HETATM   19  C6  UNL     1      -5.632  56.128  60.234  1.00  0.00     0.045 C 
BRANCH  17  20
HETATM   20  N1  UNL     1      -6.275  56.877  62.365  1.00  0.00    -0.383 N 
HETATM   21  C2  UNL     1      -6.456  55.927  63.125  1.00  0.00    -0.025 C 
HETATM   22  C1  UNL     1      -6.071  56.148  64.576  1.00  0.00     0.062 C 
HETATM   23  C3  UNL     1      -7.001  54.598  62.812  1.00  0.00     0.062 C 
ATOM     24  H1  UNL     1      -5.882  57.693  62.836  1.00  0.00     0.160 HD
ENDBRANCH  17  20
ENDBRANCH   1  17
BRANCH   6  25
HETATM   25  C14 UNL     1      -7.066  58.612  58.158  1.00  0.00     0.201 C 
HETATM   26  N4  UNL     1      -7.196  59.459  57.188  1.00  0.00    -0.375 N 
ATOM     27  H42 UNL     1      -6.881  60.415  57.358  1.00  0.00     0.158 HD
ATOM     28  H41 UNL     1      -7.598  59.119  56.314  1.00  0.00     0.158 HD
HETATM   29  F1  UNL     1      -7.473  57.378  57.937  1.00  0.00    -0.185 F 
ENDBRANCH   6  25
TORSDOF 7
ENDMDL
MODEL 4
REMARK VINA RESULT: -7.492669760      3.928      5.367
REMARK  7 active torsions:
REMARK  status: ('A' for Active; 'I' for Inactive)
REMARK    1  A    between atoms: N1_4  and  C4_6 
REMARK    2  A    between atoms: C4_6  and  C7_9 
REMARK    3  A    between atoms: C8_12  and  S1_13 
REMARK    4  A    between atoms: S1_13  and  C9_14 
REMARK    5  A    between atoms: C9_14  and  C10_15 
REMARK    6  A    between atoms: C11_18  and  O1_19 
REMARK    7  A    between atoms: C13_24  and  C14_25 
ROOT
HETATM    1  C7  UNL     1      -6.150  58.732  60.545  1.00  0.00     0.060 A 
HETATM    2  N2  UNL     1      -5.604  59.570  61.399  1.00  0.00    -0.345 N 
ATOM      3  H2  UNL     1      -5.392  59.251  62.345  1.00  0.00     0.167 HD
HETATM    4  C8  UNL     1      -5.327  60.798  61.062  1.00  0.00     0.113 A 
HETATM    5  S3  UNL     1      -5.839  60.857  59.451  1.00  0.00    -0.059 SA
HETATM    6  C13 UNL     1      -6.414  59.206  59.295  1.00  0.00     0.088 A 
ENDROOT
BRANCH   4   7
HETATM    7  S1  UNL     1      -4.582  62.029  62.138  1.00  0.00    -0.098 SA
BRANCH   7   8
HETATM    8  C9  UNL     1      -5.775  62.357  63.469  1.00  0.00     0.146 C 
BRANCH   8   9
HETATM    9  C10 UNL     1      -5.490  61.356  64.550  1.00  0.00     0.062 A 
HETATM   10  N3  UNL     1      -6.390  60.812  65.357  1.00  0.00    -0.334 N 
HETATM   11  C11 UNL     1      -6.017  59.958  66.253  1.00  0.00     0.147 A 
ATOM     12  H3  UNL     1      -7.373  61.066  65.271  1.00  0.00     0.168 HD
HETATM   13  C12 UNL     1      -4.684  59.649  66.332  1.00  0.00     0.107 A 
HETATM   14  S2  UNL     1      -4.038  60.631  65.077  1.00  0.00    -0.084 SA
BRANCH  11  15
HETATM   15  O1  UNL     1      -6.934  59.343  67.144  1.00  0.00    -0.346 OA
ATOM     16  H1  UNL     1      -6.746  58.520  67.579  1.00  0.00     0.219 HD
ENDBRANCH  11  15
ENDBRANCH   8   9
ENDBRANCH   7   8
ENDBRANCH   4   7
BRANCH   1  17
HETATM   17  C4  UNL     1      -6.455  57.303  61.003  1.00  0.00     0.066 C 
HETATM   18  C5  UNL     1      -7.909  56.958  60.723  1.00  0.00     0.045 C 
HETATM   19  C6  UNL     1      -5.594  56.280  60.344  1.00  0.00     0.045 C 
BRANCH  17  20
HETATM   20  N1  UNL     1      -6.281  57.184  62.399  1.00  0.00    -0.383 N 
HETATM   21  C2  UNL     1      -6.442  56.272  63.208  1.00  0.00    -0.025 C 
HETATM   22  C1  UNL     1      -6.123  56.597  64.656  1.00  0.00     0.062 C 
HETATM   23  C3  UNL     1      -6.907  54.899  62.958  1.00  0.00     0.062 C 
ATOM     24  H1  UNL     1      -5.948  58.046  62.833  1.00  0.00     0.160 HD
ENDBRANCH  17  20
ENDBRANCH   1  17
BRANCH   6  25
HETATM   25  C14 UNL     1      -7.000  58.660  58.086  1.00  0.00     0.201 C 
HETATM   26  N4  UNL     1      -7.241  59.479  57.112  1.00  0.00    -0.375 N 
ATOM     27  H42 UNL     1      -6.995  60.459  57.257  1.00  0.00     0.158 HD
ATOM     28  H41 UNL     1      -7.654  59.094  56.263  1.00  0.00     0.158 HD
HETATM   29  F1  UNL     1      -7.318  57.394  57.899  1.00  0.00    -0.185 F 
ENDBRANCH   6  25
TORSDOF 7
ENDMDL
MODEL 5
REMARK VINA RESULT: -7.481913115      1.321      1.390
REMARK  7 active torsions:
REMARK  status: ('A' for Active; 'I' for Inactive)
REMARK    1  A    between atoms: N1_4  and  C4_6 
REMARK    2  A    between atoms: C4_6  and  C7_9 
REMARK    3  A    between atoms: C8_12  and  S1_13 
REMARK    4  A    between atoms: S1_13  and  C9_14 
REMARK    5  A    between atoms: C9_14  and  C10_15 
REMARK    6  A    between atoms: C11_18  and  O1_19 
REMARK    7  A    between atoms: C13_24  and  C14_25 
ROOT
HETATM    1  C7  UNL     1      -6.333  58.713  61.395  1.00  0.00     0.060 A 
HETATM    2  N2  UNL     1      -6.186  59.328  60.241  1.00  0.00    -0.345 N 
ATOM      3  H2  UNL     1      -6.233  58.787  59.377  1.00  0.00     0.167 HD
HETATM    4  C8  UNL     1      -5.981  60.614  60.179  1.00  0.00     0.113 A 
HETATM    5  S3  UNL     1      -5.983  61.061  61.810  1.00  0.00    -0.059 SA
HETATM    6  C13 UNL     1      -6.260  59.479  62.519  1.00  0.00     0.088 A 
ENDROOT
BRANCH   4   7
HETATM    7  S1  UNL     1      -5.767  61.561  58.668  1.00  0.00    -0.098 SA
BRANCH   7   8
HETATM    8  C9  UNL     1      -6.475  63.207  58.972  1.00  0.00     0.146 C 
BRANCH   8   9
HETATM    9  C10 UNL     1      -5.370  64.044  59.546  1.00  0.00     0.062 A 
HETATM   10  N3  UNL     1      -5.349  64.568  60.763  1.00  0.00    -0.334 N 
HETATM   11  C11 UNL     1      -4.335  65.275  61.142  1.00  0.00     0.147 A 
ATOM     12  H3  UNL     1      -6.130  64.413  61.399  1.00  0.00     0.168 HD
HETATM   13  C12 UNL     1      -3.308  65.455  60.252  1.00  0.00     0.107 A 
HETATM   14  S2  UNL     1      -3.884  64.572  58.894  1.00  0.00    -0.084 SA
BRANCH  11  15
HETATM   15  O1  UNL     1      -4.256  65.860  62.431  1.00  0.00    -0.346 OA
ATOM     16  H1  UNL     1      -3.501  65.746  62.997  1.00  0.00     0.219 HD
ENDBRANCH  11  15
ENDBRANCH   8   9
ENDBRANCH   7   8
ENDBRANCH   4   7
BRANCH   1  17
HETATM   17  C4  UNL     1      -6.566  57.199  61.401  1.00  0.00     0.066 C 
HETATM   18  C5  UNL     1      -8.025  56.890  61.106  1.00  0.00     0.045 C 
HETATM   19  C6  UNL     1      -5.722  56.472  60.409  1.00  0.00     0.045 C 
BRANCH  17  20
HETATM   20  N1  UNL     1      -6.297  56.663  62.678  1.00  0.00    -0.383 N 
HETATM   21  C2  UNL     1      -6.498  55.571  63.209  1.00  0.00    -0.025 C 
HETATM   22  C1  UNL     1      -6.030  55.429  64.646  1.00  0.00     0.062 C 
HETATM   23  C3  UNL     1      -7.137  54.379  62.633  1.00  0.00     0.062 C 
ATOM     24  H1  UNL     1      -5.833  57.327  63.299  1.00  0.00     0.160 HD
ENDBRANCH  17  20
ENDBRANCH   1  17
BRANCH   6  25
HETATM   25  C14 UNL     1      -6.348  59.230  63.945  1.00  0.00     0.201 C 
HETATM   26  N4  UNL     1      -7.474  59.485  64.531  1.00  0.00    -0.375 N 
ATOM     27  H42 UNL     1      -8.232  59.840  63.948  1.00  0.00     0.158 HD
ATOM     28  H41 UNL     1      -7.535  59.310  65.534  1.00  0.00     0.158 HD
HETATM   29  F1  UNL     1      -5.368  58.772  64.699  1.00  0.00    -0.185 F 
ENDBRANCH   6  25
TORSDOF 7
ENDMDL
