MODEL 1
REMARK VINA RESULT: -9.086941335      0.000      0.000
REMARK  6 active torsions:
REMARK  status: ('A' for Active; 'I' for Inactive)
REMARK    1  A    between atoms: C2_2  and  S1_3 
REMARK    2  A    between atoms: S1_3  and  C3_4 
REMARK    3  A    between atoms: C8_13  and  O1_14 
REMARK    4  A    between atoms: C10_17  and  O2_18 
REMARK    5  A    between atoms: N3_20  and  C11_21 
REMARK    6  A    between atoms: C15_26  and  C17_28 
ROOT
HETATM    1  C3  UNL     1      -6.480  59.941  63.655  1.00  0.00     0.165 A 
HETATM    2  N1  UNL     1      -6.283  61.050  64.376  1.00  0.00    -0.278 N 
ATOM      3  H1  UNL     1      -6.403  61.126  65.386  1.00  0.00     0.189 HD
HETATM    4  N2  UNL     1      -5.911  62.024  63.583  1.00  0.00    -0.282 N 
ATOM      5  H2  UNL     1      -5.697  62.977  63.880  1.00  0.00     0.188 HD
HETATM    6  C4  UNL     1      -5.855  61.563  62.281  1.00  0.00     0.139 A 
HETATM    7  C5  UNL     1      -5.437  62.420  61.194  1.00  0.00     0.043 A 
HETATM    8  C6  UNL     1      -5.927  62.239  59.926  1.00  0.00     0.021 A 
HETATM    9  C7  UNL     1      -5.482  63.039  58.862  1.00  0.00     0.037 A 
HETATM   10  C8  UNL     1      -4.547  64.026  59.055  1.00  0.00     0.068 A 
HETATM   11  C9  UNL     1      -4.068  64.201  60.316  1.00  0.00     0.074 A 
HETATM   12  C10 UNL     1      -4.495  63.410  61.413  1.00  0.00     0.082 A 
HETATM   13  N3  UNL     1      -6.212  60.272  62.371  1.00  0.00    -0.283 N 
ENDROOT
BRANCH  13  14
HETATM   14  C11 UNL     1      -6.259  59.329  61.304  1.00  0.00     0.233 C 
HETATM   15  C12 UNL     1      -4.916  59.140  60.595  1.00  0.00     0.057 C 
HETATM   16  C13 UNL     1      -5.314  58.554  59.220  1.00  0.00     0.044 C 
HETATM   17  C14 UNL     1      -5.805  57.155  59.586  1.00  0.00     0.204 C 
HETATM   18  F1  UNL     1      -4.689  56.385  59.932  1.00  0.00    -0.246 F 
HETATM   19  C15 UNL     1      -6.765  57.120  60.721  1.00  0.00     0.090 C 
HETATM   20  C16 UNL     1      -6.499  55.798  61.478  1.00  0.00     0.049 C 
HETATM   21  O3  UNL     1      -6.674  58.091  61.667  1.00  0.00    -0.353 OA
BRANCH  19  22
HETATM   22  C17 UNL     1      -8.199  56.949  60.201  1.00  0.00     0.036 C 
HETATM   23  C18 UNL     1      -8.725  55.608  60.603  1.00  0.00     0.008 C 
ENDBRANCH  19  22
ENDBRANCH  13  14
BRANCH  12  24
HETATM   24  O2  UNL     1      -3.931  63.686  62.627  1.00  0.00    -0.360 OA
ATOM     25  H2  UNL     1      -4.059  64.495  63.108  1.00  0.00     0.217 HD
ENDBRANCH  12  24
BRANCH   1  26
HETATM   26  S1  UNL     1      -7.001  58.390  64.297  1.00  0.00    -0.093 SA
BRANCH  26  27
HETATM   27  C2  UNL     1      -5.659  57.643  65.249  1.00  0.00     0.078 C 
HETATM   28  C1  UNL     1      -5.699  56.139  65.054  1.00  0.00     0.016 C 
ENDBRANCH  26  27
ENDBRANCH   1  26
BRANCH  10  29
HETATM   29  O1  UNL     1      -4.103  64.829  57.979  1.00  0.00    -0.361 OA
ATOM     30  H1  UNL     1      -4.661  65.504  57.610  1.00  0.00     0.217 HD
ENDBRANCH  10  29
TORSDOF 6
ENDMDL
MODEL 2
REMARK VINA RESULT: -8.338170050      2.301      4.276
REMARK  6 active torsions:
REMARK  status: ('A' for Active; 'I' for Inactive)
REMARK    1  A    between atoms: C2_2  and  S1_3 
REMARK    2  A    between atoms: S1_3  and  C3_4 
REMARK    3  A    between atoms: C8_13  and  O1_14 
REMARK    4  A    between atoms: C10_17  and  O2_18 
REMARK    5  A    between atoms: N3_20  and  C11_21 
REMARK    6  A    between atoms: C15_26  and  C17_28 
ROOT
HETATM    1  C3  UNL     1      -6.227  59.654  59.442  1.00  0.00     0.165 A 
HETATM    2  N1  UNL     1      -5.710  60.238  58.356  1.00  0.00    -0.278 N 
ATOM      3  H1  UNL     1      -5.690  59.831  57.420  1.00  0.00     0.189 HD
HETATM    4  N2  UNL     1      -5.232  61.414  58.679  1.00  0.00    -0.282 N 
ATOM      5  H2  UNL     1      -4.783  62.065  58.035  1.00  0.00     0.188 HD
HETATM    6  C4  UNL     1      -5.431  61.637  60.029  1.00  0.00     0.139 A 
HETATM    7  C5  UNL     1      -5.032  62.877  60.656  1.00  0.00     0.043 A 
HETATM    8  C6  UNL     1      -4.647  62.909  61.972  1.00  0.00     0.021 A 
HETATM    9  C7  UNL     1      -4.308  64.122  62.593  1.00  0.00     0.037 A 
HETATM   10  C8  UNL     1      -4.350  65.310  61.907  1.00  0.00     0.068 A 
HETATM   11  C9  UNL     1      -4.730  65.269  60.601  1.00  0.00     0.074 A 
HETATM   12  C10 UNL     1      -5.079  64.062  59.944  1.00  0.00     0.082 A 
HETATM   13  N3  UNL     1      -6.050  60.526  60.461  1.00  0.00    -0.283 N 
ENDROOT
BRANCH  13  14
HETATM   14  C11 UNL     1      -6.524  60.279  61.781  1.00  0.00     0.233 C 
HETATM   15  C12 UNL     1      -7.640  59.235  61.845  1.00  0.00     0.057 C 
HETATM   16  C13 UNL     1      -8.334  59.531  63.195  1.00  0.00     0.044 C 
HETATM   17  C14 UNL     1      -7.282  59.095  64.212  1.00  0.00     0.204 C 
HETATM   18  F1  UNL     1      -7.227  57.696  64.199  1.00  0.00    -0.246 F 
HETATM   19  C15 UNL     1      -5.916  59.616  63.941  1.00  0.00     0.090 C 
HETATM   20  C16 UNL     1      -4.929  58.522  64.414  1.00  0.00     0.049 C 
HETATM   21  O3  UNL     1      -5.570  59.869  62.652  1.00  0.00    -0.353 OA
BRANCH  19  22
HETATM   22  C17 UNL     1      -5.604  60.799  64.868  1.00  0.00     0.036 C 
HETATM   23  C18 UNL     1      -6.181  60.545  66.224  1.00  0.00     0.008 C 
ENDBRANCH  19  22
ENDBRANCH  13  14
BRANCH  12  24
HETATM   24  O2  UNL     1      -5.448  64.161  58.631  1.00  0.00    -0.360 OA
ATOM     25  H2  UNL     1      -5.136  64.831  58.034  1.00  0.00     0.217 HD
ENDBRANCH  12  24
BRANCH   1  26
HETATM   26  S1  UNL     1      -6.966  58.060  59.485  1.00  0.00    -0.093 SA
BRANCH  26  27
HETATM   27  C2  UNL     1      -5.703  56.810  59.808  1.00  0.00     0.078 C 
HETATM   28  C1  UNL     1      -6.073  56.054  61.070  1.00  0.00     0.016 C 
ENDBRANCH  26  27
ENDBRANCH   1  26
BRANCH  10  29
HETATM   29  O1  UNL     1      -4.007  66.528  62.538  1.00  0.00    -0.361 OA
ATOM     30  H1  UNL     1      -3.706  67.273  62.032  1.00  0.00     0.217 HD
ENDBRANCH  10  29
TORSDOF 6
ENDMDL
MODEL 3
REMARK VINA RESULT: -8.225200479      2.351      4.470
REMARK  6 active torsions:
REMARK  status: ('A' for Active; 'I' for Inactive)
REMARK    1  A    between atoms: C2_2  and  S1_3 
REMARK    2  A    between atoms: S1_3  and  C3_4 
REMARK    3  A    between atoms: C8_13  and  O1_14 
REMARK    4  A    between atoms: C10_17  and  O2_18 
REMARK    5  A    between atoms: N3_20  and  C11_21 
REMARK    6  A    between atoms: C15_26  and  C17_28 
ROOT
HETATM    1  C3  UNL     1      -5.887  58.592  60.246  1.00  0.00     0.165 A 
HETATM    2  N1  UNL     1      -5.553  58.963  59.005  1.00  0.00    -0.278 N 
ATOM      3  H1  UNL     1      -5.518  58.344  58.194  1.00  0.00     0.189 HD
HETATM    4  N2  UNL     1      -5.277  60.243  58.993  1.00  0.00    -0.282 N 
ATOM      5  H2  UNL     1      -4.994  60.777  58.171  1.00  0.00     0.188 HD
HETATM    6  C4  UNL     1      -5.428  60.759  60.266  1.00  0.00     0.139 A 
HETATM    7  C5  UNL     1      -5.220  62.163  60.541  1.00  0.00     0.043 A 
HETATM    8  C6  UNL     1      -4.766  62.583  61.765  1.00  0.00     0.021 A 
HETATM    9  C7  UNL     1      -4.614  63.950  62.047  1.00  0.00     0.037 A 
HETATM   10  C8  UNL     1      -4.912  64.908  61.110  1.00  0.00     0.068 A 
HETATM   11  C9  UNL     1      -5.360  64.483  59.897  1.00  0.00     0.074 A 
HETATM   12  C10 UNL     1      -5.526  63.111  59.580  1.00  0.00     0.082 A 
HETATM   13  N3  UNL     1      -5.807  59.706  61.008  1.00  0.00    -0.283 N 
ENDROOT
BRANCH  13  14
HETATM   14  C11 UNL     1      -6.146  59.723  62.392  1.00  0.00     0.233 C 
HETATM   15  C12 UNL     1      -7.075  58.580  62.808  1.00  0.00     0.057 C 
HETATM   16  C13 UNL     1      -7.714  59.095  64.119  1.00  0.00     0.044 C 
HETATM   17  C14 UNL     1      -6.539  59.067  65.094  1.00  0.00     0.204 C 
HETATM   18  F1  UNL     1      -6.265  57.728  65.396  1.00  0.00    -0.246 F 
HETATM   19  C15 UNL     1      -5.295  59.691  64.571  1.00  0.00     0.090 C 
HETATM   20  C16 UNL     1      -4.118  58.891  65.177  1.00  0.00     0.049 C 
HETATM   21  O3  UNL     1      -5.082  59.670  63.231  1.00  0.00    -0.353 OA
BRANCH  19  22
HETATM   22  C17 UNL     1      -5.112  61.094  65.166  1.00  0.00     0.036 C 
HETATM   23  C18 UNL     1      -5.665  61.131  66.555  1.00  0.00     0.008 C 
ENDBRANCH  19  22
ENDBRANCH  13  14
BRANCH  12  24
HETATM   24  O2  UNL     1      -5.988  62.821  58.326  1.00  0.00    -0.360 OA
ATOM     25  H2  UNL     1      -6.868  63.007  58.022  1.00  0.00     0.217 HD
ENDBRANCH  12  24
BRANCH   1  26
HETATM   26  S1  UNL     1      -6.323  56.961  60.738  1.00  0.00    -0.093 SA
BRANCH  26  27
HETATM   27  C2  UNL     1      -7.835  56.452  59.891  1.00  0.00     0.078 C 
HETATM   28  C1  UNL     1      -8.616  55.522  60.800  1.00  0.00     0.016 C 
ENDBRANCH  26  27
ENDBRANCH   1  26
BRANCH  10  29
HETATM   29  O1  UNL     1      -4.756  66.282  61.399  1.00  0.00    -0.361 OA
ATOM     30  H1  UNL     1      -5.044  66.948  60.785  1.00  0.00     0.217 HD
ENDBRANCH  10  29
TORSDOF 6
ENDMDL
MODEL 4
REMARK VINA RESULT: -8.142288031      2.459      4.558
REMARK  6 active torsions:
REMARK  status: ('A' for Active; 'I' for Inactive)
REMARK    1  A    between atoms: C2_2  and  S1_3 
REMARK    2  A    between atoms: S1_3  and  C3_4 
REMARK    3  A    between atoms: C8_13  and  O1_14 
REMARK    4  A    between atoms: C10_17  and  O2_18 
REMARK    5  A    between atoms: N3_20  and  C11_21 
REMARK    6  A    between atoms: C15_26  and  C17_28 
ROOT
HETATM    1  C3  UNL     1      -6.159  58.899  61.091  1.00  0.00     0.165 A 
HETATM    2  N1  UNL     1      -6.354  58.987  59.771  1.00  0.00    -0.278 N 
ATOM      3  H1  UNL     1      -6.720  58.241  59.178  1.00  0.00     0.189 HD
HETATM    4  N2  UNL     1      -6.002  60.178  59.357  1.00  0.00    -0.282 N 
ATOM      5  H2  UNL     1      -6.051  60.505  58.392  1.00  0.00     0.188 HD
HETATM    6  C4  UNL     1      -5.552  60.924  60.431  1.00  0.00     0.139 A 
HETATM    7  C5  UNL     1      -5.129  62.298  60.270  1.00  0.00     0.043 A 
HETATM    8  C6  UNL     1      -4.163  62.837  61.081  1.00  0.00     0.021 A 
HETATM    9  C7  UNL     1      -3.790  64.185  60.958  1.00  0.00     0.037 A 
HETATM   10  C8  UNL     1      -4.376  65.004  60.025  1.00  0.00     0.068 A 
HETATM   11  C9  UNL     1      -5.332  64.461  59.223  1.00  0.00     0.074 A 
HETATM   12  C10 UNL     1      -5.732  63.104  59.321  1.00  0.00     0.082 A 
HETATM   13  N3  UNL     1      -5.668  60.097  61.482  1.00  0.00    -0.283 N 
ENDROOT
BRANCH  13  14
HETATM   14  C11 UNL     1      -5.382  60.410  62.842  1.00  0.00     0.233 C 
HETATM   15  C12 UNL     1      -6.422  61.327  63.489  1.00  0.00     0.057 C 
HETATM   16  C13 UNL     1      -5.663  61.944  64.687  1.00  0.00     0.044 C 
HETATM   17  C14 UNL     1      -5.500  60.752  65.626  1.00  0.00     0.204 C 
HETATM   18  F1  UNL     1      -6.754  60.466  66.178  1.00  0.00    -0.246 F 
HETATM   19  C15 UNL     1      -4.988  59.520  64.969  1.00  0.00     0.090 C 
HETATM   20  C16 UNL     1      -5.655  58.328  65.697  1.00  0.00     0.049 C 
HETATM   21  O3  UNL     1      -5.270  59.331  63.654  1.00  0.00    -0.353 OA
BRANCH  19  22
HETATM   22  C17 UNL     1      -3.497  59.332  65.276  1.00  0.00     0.036 C 
HETATM   23  C18 UNL     1      -3.169  59.956  66.595  1.00  0.00     0.008 C 
ENDBRANCH  19  22
ENDBRANCH  13  14
BRANCH  12  24
HETATM   24  O2  UNL     1      -6.707  62.686  58.458  1.00  0.00    -0.360 OA
ATOM     25  H2  UNL     1      -7.450  63.214  58.190  1.00  0.00     0.217 HD
ENDBRANCH  12  24
BRANCH   1  26
HETATM   26  S1  UNL     1      -6.480  57.477  62.075  1.00  0.00    -0.093 SA
BRANCH  26  27
HETATM   27  C2  UNL     1      -6.800  56.056  61.006  1.00  0.00     0.078 C 
HETATM   28  C1  UNL     1      -8.271  56.043  60.636  1.00  0.00     0.016 C 
ENDBRANCH  26  27
ENDBRANCH   1  26
BRANCH  10  29
HETATM   29  O1  UNL     1      -3.995  66.360  59.905  1.00  0.00    -0.361 OA
ATOM     30  H1  UNL     1      -3.959  66.927  60.667  1.00  0.00     0.217 HD
ENDBRANCH  10  29
TORSDOF 6
ENDMDL
MODEL 5
REMARK VINA RESULT: -8.072734178      3.060      6.821
REMARK  6 active torsions:
REMARK  status: ('A' for Active; 'I' for Inactive)
REMARK    1  A    between atoms: C2_2  and  S1_3 
REMARK    2  A    between atoms: S1_3  and  C3_4 
REMARK    3  A    between atoms: C8_13  and  O1_14 
REMARK    4  A    between atoms: C10_17  and  O2_18 
REMARK    5  A    between atoms: N3_20  and  C11_21 
REMARK    6  A    between atoms: C15_26  and  C17_28 
ROOT
HETATM    1  C3  UNL     1      -5.102  61.214  61.368  1.00  0.00     0.165 A 
HETATM    2  N1  UNL     1      -5.337  60.772  60.128  1.00  0.00    -0.278 N 
ATOM      3  H1  UNL     1      -5.214  61.318  59.274  1.00  0.00     0.189 HD
HETATM    4  N2  UNL     1      -5.750  59.530  60.179  1.00  0.00    -0.282 N 
ATOM      5  H2  UNL     1      -5.999  58.958  59.372  1.00  0.00     0.188 HD
HETATM    6  C4  UNL     1      -5.797  59.115  61.497  1.00  0.00     0.139 A 
HETATM    7  C5  UNL     1      -6.187  57.768  61.849  1.00  0.00     0.043 A 
HETATM    8  C6  UNL     1      -6.816  57.505  63.040  1.00  0.00     0.021 A 
HETATM    9  C7  UNL     1      -7.148  56.190  63.403  1.00  0.00     0.037 A 
HETATM   10  C8  UNL     1      -6.857  55.129  62.582  1.00  0.00     0.068 A 
HETATM   11  C9  UNL     1      -6.235  55.398  61.402  1.00  0.00     0.074 A 
HETATM   12  C10 UNL     1      -5.885  56.714  61.005  1.00  0.00     0.082 A 
HETATM   13  N3  UNL     1      -5.387  60.184  62.197  1.00  0.00    -0.283 N 
ENDROOT
BRANCH  13  14
HETATM   14  C11 UNL     1      -5.206  60.254  63.608  1.00  0.00     0.233 C 
HETATM   15  C12 UNL     1      -6.510  60.456  64.383  1.00  0.00     0.057 C 
HETATM   16  C13 UNL     1      -6.039  61.033  65.738  1.00  0.00     0.044 C 
HETATM   17  C14 UNL     1      -5.339  59.838  66.382  1.00  0.00     0.204 C 
HETATM   18  F1  UNL     1      -6.325  58.921  66.768  1.00  0.00    -0.246 F 
HETATM   19  C15 UNL     1      -4.377  59.138  65.490  1.00  0.00     0.090 C 
HETATM   20  C16 UNL     1      -4.435  57.640  65.874  1.00  0.00     0.049 C 
HETATM   21  O3  UNL     1      -4.606  59.167  64.152  1.00  0.00    -0.353 OA
BRANCH  19  22
HETATM   22  C17 UNL     1      -2.938  59.538  65.841  1.00  0.00     0.036 C 
HETATM   23  C18 UNL     1      -2.066  58.323  65.862  1.00  0.00     0.008 C 
ENDBRANCH  19  22
ENDBRANCH  13  14
BRANCH  12  24
HETATM   24  O2  UNL     1      -5.259  56.845  59.797  1.00  0.00    -0.360 OA
ATOM     25  H2  UNL     1      -4.356  57.119  59.686  1.00  0.00     0.217 HD
ENDBRANCH  12  24
BRANCH   1  26
HETATM   26  S1  UNL     1      -4.545  62.829  61.784  1.00  0.00    -0.093 SA
BRANCH  26  27
HETATM   27  C2  UNL     1      -5.551  64.060  60.926  1.00  0.00     0.078 C 
HETATM   28  C1  UNL     1      -4.913  64.366  59.584  1.00  0.00     0.016 C 
ENDBRANCH  26  27
ENDBRANCH   1  26
BRANCH  10  29
HETATM   29  O1  UNL     1      -7.194  53.807  62.954  1.00  0.00    -0.361 OA
ATOM     30  H1  UNL     1      -7.928  53.634  63.532  1.00  0.00     0.217 HD
ENDBRANCH  10  29
TORSDOF 6
ENDMDL
