MODEL 1
REMARK VINA RESULT: -8.736621373      0.000      0.000
REMARK  7 active torsions:
REMARK  status: ('A' for Active; 'I' for Inactive)
REMARK    1  A    between atoms: O1_2  and  C2_3 
REMARK    2  A    between atoms: C4_5  and  C5_6 
REMARK    3  A    between atoms: C11_13  and  O3_14 
REMARK    4  A    between atoms: C13_16  and  O4_17 
REMARK    5  A    between atoms: C15_19  and  O5_20 
REMARK    6  A    between atoms: C18_24  and  N1_25 
REMARK    7  A    between atoms: C21_31  and  N2_32 
ROOT
HETATM    1  C5  UNL     1      50.099  46.252  64.787  1.00  0.00     0.025 C 
HETATM    2  C6  UNL     1      48.900  46.654  64.518  1.00  0.00     0.032 C 
HETATM    3  C7  UNL     1      48.166  46.415  63.282  1.00  0.00     0.194 C 
HETATM    4  O2  UNL     1      48.774  46.169  62.222  1.00  0.00    -0.287 OA
HETATM    5  C8  UNL     1      46.704  46.458  63.242  1.00  0.00     0.065 A 
HETATM    6  C9  UNL     1      45.981  46.733  64.400  1.00  0.00     0.032 A 
HETATM    7  C10 UNL     1      44.588  46.772  64.386  1.00  0.00     0.056 A 
HETATM    8  C11 UNL     1      43.884  46.540  63.223  1.00  0.00     0.105 A 
HETATM    9  C13 UNL     1      44.591  46.266  62.065  1.00  0.00     0.136 A 
HETATM   10  C15 UNL     1      45.988  46.229  62.093  1.00  0.00     0.119 A 
HETATM   11  C17 UNL     1      46.733  46.970  65.612  1.00  0.00     0.195 C 
HETATM   12  O6  UNL     1      46.191  46.786  66.720  1.00  0.00    -0.290 OA
HETATM   13  C18 UNL     1      48.123  47.427  65.548  1.00  0.00     0.294 C 
ENDROOT
BRANCH   1  14
HETATM   14  C4  UNL     1      51.018  45.476  63.974  1.00  0.00    -0.033 A 
HETATM   15  C3  UNL     1      50.921  44.117  63.781  1.00  0.00     0.050 A 
HETATM   16  C2  UNL     1      51.817  43.437  62.978  1.00  0.00     0.102 A 
HETATM   17  C21 UNL     1      52.845  44.104  62.340  1.00  0.00     0.136 A 
HETATM   18  C20 UNL     1      52.971  45.463  62.512  1.00  0.00     0.040 A 
HETATM   19  C19 UNL     1      52.070  46.121  63.315  1.00  0.00     0.014 A 
BRANCH  16  20
HETATM   20  O1  UNL     1      51.720  42.062  62.782  1.00  0.00    -0.353 OA
HETATM   21  C1  UNL     1      51.769  41.182  63.888  1.00  0.00     0.210 C 
ENDBRANCH  16  20
BRANCH  17  22
HETATM   22  N2  UNL     1      53.747  43.354  61.516  1.00  0.00    -0.113 N 
HETATM   23  O7  UNL     1      53.466  43.184  60.311  1.00  0.00    -0.532 OA
HETATM   24  O8  UNL     1      54.900  42.811  61.979  1.00  0.00    -0.532 OA
ENDBRANCH  17  22
ENDBRANCH   1  14
BRANCH  13  25
HETATM   25  N1  UNL     1      48.790  47.434  66.798  1.00  0.00    -0.064 N 
ATOM     26  H13 UNL     1      48.242  47.914  67.512  1.00  0.00     0.275 HD
ATOM     27  H12 UNL     1      48.812  46.505  67.215  1.00  0.00     0.275 HD
ATOM     28  H11 UNL     1      49.726  47.831  66.716  1.00  0.00     0.275 HD
ENDBRANCH  13  25
BRANCH  10  29
HETATM   29  O5  UNL     1      46.608  45.951  60.887  1.00  0.00    -0.352 OA
HETATM   30  C16 UNL     1      46.613  44.577  60.466  1.00  0.00     0.210 C 
ENDBRANCH  10  29
BRANCH   9  31
HETATM   31  O4  UNL     1      43.864  46.036  60.906  1.00  0.00    -0.351 OA
HETATM   32  C14 UNL     1      43.474  47.057  60.023  1.00  0.00     0.210 C 
ENDBRANCH   9  31
BRANCH   8  33
HETATM   33  O3  UNL     1      42.494  46.581  63.215  1.00  0.00    -0.353 OA
HETATM   34  C12 UNL     1      41.742  45.545  63.809  1.00  0.00     0.210 C 
ENDBRANCH   8  33
TORSDOF 7
ENDMDL
MODEL 2
REMARK VINA RESULT: -8.516047251      0.774      1.590
REMARK  7 active torsions:
REMARK  status: ('A' for Active; 'I' for Inactive)
REMARK    1  A    between atoms: O1_2  and  C2_3 
REMARK    2  A    between atoms: C4_5  and  C5_6 
REMARK    3  A    between atoms: C11_13  and  O3_14 
REMARK    4  A    between atoms: C13_16  and  O4_17 
REMARK    5  A    between atoms: C15_19  and  O5_20 
REMARK    6  A    between atoms: C18_24  and  N1_25 
REMARK    7  A    between atoms: C21_31  and  N2_32 
ROOT
HETATM    1  C5  UNL     1      50.335  46.217  64.773  1.00  0.00     0.025 C 
HETATM    2  C6  UNL     1      49.140  46.634  64.512  1.00  0.00     0.032 C 
HETATM    3  C7  UNL     1      48.368  46.346  63.311  1.00  0.00     0.194 C 
HETATM    4  O2  UNL     1      48.940  46.025  62.251  1.00  0.00    -0.287 OA
HETATM    5  C8  UNL     1      46.907  46.425  63.306  1.00  0.00     0.065 A 
HETATM    6  C9  UNL     1      46.222  46.783  64.464  1.00  0.00     0.032 A 
HETATM    7  C10 UNL     1      44.831  46.859  64.483  1.00  0.00     0.056 A 
HETATM    8  C11 UNL     1      44.090  46.581  63.353  1.00  0.00     0.105 A 
HETATM    9  C13 UNL     1      44.759  46.224  62.194  1.00  0.00     0.136 A 
HETATM   10  C15 UNL     1      46.155  46.152  62.189  1.00  0.00     0.119 A 
HETATM   11  C17 UNL     1      47.012  47.068  65.641  1.00  0.00     0.195 C 
HETATM   12  O6  UNL     1      46.495  46.960  66.771  1.00  0.00    -0.290 OA
HETATM   13  C18 UNL     1      48.411  47.484  65.517  1.00  0.00     0.294 C 
ENDROOT
BRANCH   1  14
HETATM   14  C4  UNL     1      51.213  45.372  63.983  1.00  0.00    -0.033 A 
HETATM   15  C3  UNL     1      51.942  45.811  62.902  1.00  0.00     0.050 A 
HETATM   16  C2  UNL     1      52.778  44.962  62.202  1.00  0.00     0.102 A 
HETATM   17  C21 UNL     1      52.908  43.636  62.567  1.00  0.00     0.136 A 
HETATM   18  C20 UNL     1      52.192  43.163  63.643  1.00  0.00     0.040 A 
HETATM   19  C19 UNL     1      51.367  44.024  64.326  1.00  0.00     0.014 A 
BRANCH  16  20
HETATM   20  O1  UNL     1      53.516  45.405  61.108  1.00  0.00    -0.353 OA
HETATM   21  C1  UNL     1      52.948  45.384  59.813  1.00  0.00     0.210 C 
ENDBRANCH  16  20
BRANCH  17  22
HETATM   22  N2  UNL     1      53.788  42.795  61.810  1.00  0.00    -0.113 N 
HETATM   23  O7  UNL     1      53.301  42.029  60.952  1.00  0.00    -0.532 OA
HETATM   24  O8  UNL     1      55.133  42.786  61.976  1.00  0.00    -0.532 OA
ENDBRANCH  17  22
ENDBRANCH   1  14
BRANCH  13  25
HETATM   25  N1  UNL     1      49.110  47.543  66.747  1.00  0.00    -0.064 N 
ATOM     26  H13 UNL     1      49.158  48.497  67.105  1.00  0.00     0.275 HD
ATOM     27  H12 UNL     1      48.574  47.119  67.503  1.00  0.00     0.275 HD
ATOM     28  H11 UNL     1      50.038  47.127  66.666  1.00  0.00     0.275 HD
ENDBRANCH  13  25
BRANCH  10  29
HETATM   29  O5  UNL     1      46.735  45.791  60.986  1.00  0.00    -0.352 OA
HETATM   30  C16 UNL     1      46.737  44.390  60.665  1.00  0.00     0.210 C 
ENDBRANCH  10  29
BRANCH   9  31
HETATM   31  O4  UNL     1      43.996  45.949  61.070  1.00  0.00    -0.351 OA
HETATM   32  C14 UNL     1      43.580  46.935  60.157  1.00  0.00     0.210 C 
ENDBRANCH   9  31
BRANCH   8  33
HETATM   33  O3  UNL     1      42.702  46.658  63.377  1.00  0.00    -0.353 OA
HETATM   34  C12 UNL     1      41.928  45.550  63.782  1.00  0.00     0.210 C 
ENDBRANCH   8  33
TORSDOF 7
ENDMDL
MODEL 3
REMARK VINA RESULT: -7.864712167      1.684      2.515
REMARK  7 active torsions:
REMARK  status: ('A' for Active; 'I' for Inactive)
REMARK    1  A    between atoms: O1_2  and  C2_3 
REMARK    2  A    between atoms: C4_5  and  C5_6 
REMARK    3  A    between atoms: C11_13  and  O3_14 
REMARK    4  A    between atoms: C13_16  and  O4_17 
REMARK    5  A    between atoms: C15_19  and  O5_20 
REMARK    6  A    between atoms: C18_24  and  N1_25 
REMARK    7  A    between atoms: C21_31  and  N2_32 
ROOT
HETATM    1  C5  UNL     1      49.258  47.032  65.920  1.00  0.00     0.025 C 
HETATM    2  C6  UNL     1      48.075  47.205  65.429  1.00  0.00     0.032 C 
HETATM    3  C7  UNL     1      47.670  46.968  64.050  1.00  0.00     0.194 C 
HETATM    4  O2  UNL     1      48.512  46.984  63.130  1.00  0.00    -0.287 OA
HETATM    5  C8  UNL     1      46.273  46.710  63.698  1.00  0.00     0.065 A 
HETATM    6  C9  UNL     1      45.296  46.686  64.690  1.00  0.00     0.032 A 
HETATM    7  C10 UNL     1      43.961  46.435  64.378  1.00  0.00     0.056 A 
HETATM    8  C11 UNL     1      43.568  46.204  63.076  1.00  0.00     0.105 A 
HETATM    9  C13 UNL     1      44.531  46.225  62.081  1.00  0.00     0.136 A 
HETATM   10  C15 UNL     1      45.866  46.477  62.407  1.00  0.00     0.119 A 
HETATM   11  C17 UNL     1      45.723  46.928  66.049  1.00  0.00     0.195 C 
HETATM   12  O6  UNL     1      45.033  46.502  66.997  1.00  0.00    -0.290 OA
HETATM   13  C18 UNL     1      46.957  47.669  66.322  1.00  0.00     0.294 C 
ENDROOT
BRANCH   1  14
HETATM   14  C4  UNL     1      50.471  46.568  65.270  1.00  0.00    -0.033 A 
HETATM   15  C3  UNL     1      51.530  47.381  64.938  1.00  0.00     0.050 A 
HETATM   16  C2  UNL     1      52.668  46.875  64.339  1.00  0.00     0.102 A 
HETATM   17  C21 UNL     1      52.778  45.528  64.051  1.00  0.00     0.136 A 
HETATM   18  C20 UNL     1      51.737  44.687  64.369  1.00  0.00     0.040 A 
HETATM   19  C19 UNL     1      50.614  45.210  64.965  1.00  0.00     0.014 A 
BRANCH  16  20
HETATM   20  O1  UNL     1      53.741  47.696  64.003  1.00  0.00    -0.353 OA
HETATM   21  C1  UNL     1      54.235  48.635  64.938  1.00  0.00     0.210 C 
ENDBRANCH  16  20
BRANCH  17  22
HETATM   22  N2  UNL     1      53.979  45.052  63.430  1.00  0.00    -0.113 N 
HETATM   23  O7  UNL     1      54.934  44.696  64.153  1.00  0.00    -0.532 OA
HETATM   24  O8  UNL     1      54.138  44.966  62.087  1.00  0.00    -0.532 OA
ENDBRANCH  17  22
ENDBRANCH   1  14
BRANCH  13  25
HETATM   25  N1  UNL     1      47.349  47.665  67.683  1.00  0.00    -0.064 N 
ATOM     26  H13 UNL     1      46.767  47.036  68.238  1.00  0.00     0.275 HD
ATOM     27  H12 UNL     1      48.248  47.202  67.812  1.00  0.00     0.275 HD
ATOM     28  H11 UNL     1      47.354  48.608  68.070  1.00  0.00     0.275 HD
ENDBRANCH  13  25
BRANCH  10  29
HETATM   29  O5  UNL     1      46.755  46.481  61.347  1.00  0.00    -0.352 OA
HETATM   30  C16 UNL     1      47.136  45.200  60.818  1.00  0.00     0.210 C 
ENDBRANCH  10  29
BRANCH   9  31
HETATM   31  O4  UNL     1      44.115  45.989  60.779  1.00  0.00    -0.351 OA
HETATM   32  C14 UNL     1      43.590  46.989  59.942  1.00  0.00     0.210 C 
ENDBRANCH   9  31
BRANCH   8  33
HETATM   33  O3  UNL     1      42.235  45.955  62.771  1.00  0.00    -0.353 OA
HETATM   34  C12 UNL     1      41.336  45.531  63.772  1.00  0.00     0.210 C 
ENDBRANCH   8  33
TORSDOF 7
ENDMDL
MODEL 4
REMARK VINA RESULT: -7.855379200      2.779      8.017
REMARK  7 active torsions:
REMARK  status: ('A' for Active; 'I' for Inactive)
REMARK    1  A    between atoms: O1_2  and  C2_3 
REMARK    2  A    between atoms: C4_5  and  C5_6 
REMARK    3  A    between atoms: C11_13  and  O3_14 
REMARK    4  A    between atoms: C13_16  and  O4_17 
REMARK    5  A    between atoms: C15_19  and  O5_20 
REMARK    6  A    between atoms: C18_24  and  N1_25 
REMARK    7  A    between atoms: C21_31  and  N2_32 
ROOT
HETATM    1  C5  UNL     1      46.163  46.150  61.704  1.00  0.00     0.025 C 
HETATM    2  C6  UNL     1      47.262  45.957  61.053  1.00  0.00     0.032 C 
HETATM    3  C7  UNL     1      48.610  45.984  61.607  1.00  0.00     0.194 C 
HETATM    4  O2  UNL     1      48.849  46.607  62.660  1.00  0.00    -0.287 OA
HETATM    5  C8  UNL     1      49.719  45.291  60.951  1.00  0.00     0.065 A 
HETATM    6  C9  UNL     1      49.502  44.585  59.771  1.00  0.00     0.032 A 
HETATM    7  C10 UNL     1      50.541  43.912  59.133  1.00  0.00     0.056 A 
HETATM    8  C11 UNL     1      51.819  43.926  59.653  1.00  0.00     0.105 A 
HETATM    9  C13 UNL     1      52.049  44.625  60.826  1.00  0.00     0.136 A 
HETATM   10  C15 UNL     1      50.996  45.295  61.455  1.00  0.00     0.119 A 
HETATM   11  C17 UNL     1      48.157  44.577  59.240  1.00  0.00     0.195 C 
HETATM   12  O6  UNL     1      47.799  43.653  58.482  1.00  0.00    -0.290 OA
HETATM   13  C18 UNL     1      47.214  45.644  59.582  1.00  0.00     0.294 C 
ENDROOT
BRANCH   1  14
HETATM   14  C4  UNL     1      45.959  46.431  63.114  1.00  0.00    -0.033 A 
HETATM   15  C3  UNL     1      46.975  46.690  64.005  1.00  0.00     0.050 A 
HETATM   16  C2  UNL     1      46.716  46.972  65.333  1.00  0.00     0.102 A 
HETATM   17  C21 UNL     1      45.420  47.003  65.811  1.00  0.00     0.136 A 
HETATM   18  C20 UNL     1      44.380  46.748  64.947  1.00  0.00     0.040 A 
HETATM   19  C19 UNL     1      44.660  46.470  63.630  1.00  0.00     0.014 A 
BRANCH  16  20
HETATM   20  O1  UNL     1      47.743  47.233  66.236  1.00  0.00    -0.353 OA
HETATM   21  C1  UNL     1      48.845  48.029  65.846  1.00  0.00     0.210 C 
ENDBRANCH  16  20
BRANCH  17  22
HETATM   22  N2  UNL     1      45.203  47.301  67.196  1.00  0.00    -0.113 N 
HETATM   23  O7  UNL     1      44.741  46.411  67.941  1.00  0.00    -0.532 OA
HETATM   24  O8  UNL     1      45.473  48.509  67.748  1.00  0.00    -0.532 OA
ENDBRANCH  17  22
ENDBRANCH   1  14
BRANCH  13  25
HETATM   25  N1  UNL     1      45.886  45.408  59.149  1.00  0.00    -0.064 N 
ATOM     26  H13 UNL     1      45.671  45.930  58.299  1.00  0.00     0.275 HD
ATOM     27  H12 UNL     1      45.775  44.462  58.785  1.00  0.00     0.275 HD
ATOM     28  H11 UNL     1      45.214  45.605  59.890  1.00  0.00     0.275 HD
ENDBRANCH  13  25
BRANCH  10  29
HETATM   29  O5  UNL     1      51.321  45.968  62.620  1.00  0.00    -0.352 OA
HETATM   30  C16 UNL     1      51.502  45.168  63.799  1.00  0.00     0.210 C 
ENDBRANCH  10  29
BRANCH   9  31
HETATM   31  O4  UNL     1      53.340  44.626  61.332  1.00  0.00    -0.351 OA
HETATM   32  C14 UNL     1      54.347  45.496  60.878  1.00  0.00     0.210 C 
ENDBRANCH   9  31
BRANCH   8  33
HETATM   33  O3  UNL     1      52.854  43.254  59.012  1.00  0.00    -0.353 OA
HETATM   34  C12 UNL     1      53.370  42.054  59.547  1.00  0.00     0.210 C 
ENDBRANCH   8  33
TORSDOF 7
ENDMDL
MODEL 5
REMARK VINA RESULT: -7.699923185      2.521      8.339
REMARK  7 active torsions:
REMARK  status: ('A' for Active; 'I' for Inactive)
REMARK    1  A    between atoms: O1_2  and  C2_3 
REMARK    2  A    between atoms: C4_5  and  C5_6 
REMARK    3  A    between atoms: C11_13  and  O3_14 
REMARK    4  A    between atoms: C13_16  and  O4_17 
REMARK    5  A    between atoms: C15_19  and  O5_20 
REMARK    6  A    between atoms: C18_24  and  N1_25 
REMARK    7  A    between atoms: C21_31  and  N2_32 
ROOT
HETATM    1  C5  UNL     1      46.565  46.117  61.255  1.00  0.00     0.025 C 
HETATM    2  C6  UNL     1      47.776  45.934  60.843  1.00  0.00     0.032 C 
HETATM    3  C7  UNL     1      48.976  45.918  61.670  1.00  0.00     0.194 C 
HETATM    4  O2  UNL     1      48.991  46.493  62.775  1.00  0.00    -0.287 OA
HETATM    5  C8  UNL     1      50.194  45.235  61.234  1.00  0.00     0.065 A 
HETATM    6  C9  UNL     1      50.227  44.581  60.005  1.00  0.00     0.032 A 
HETATM    7  C10 UNL     1      51.374  43.919  59.573  1.00  0.00     0.056 A 
HETATM    8  C11 UNL     1      52.513  43.892  60.351  1.00  0.00     0.105 A 
HETATM    9  C13 UNL     1      52.493  44.539  61.575  1.00  0.00     0.136 A 
HETATM   10  C15 UNL     1      51.336  45.199  61.996  1.00  0.00     0.119 A 
HETATM   11  C17 UNL     1      49.025  44.615  59.202  1.00  0.00     0.195 C 
HETATM   12  O6  UNL     1      48.830  43.728  58.346  1.00  0.00    -0.290 OA
HETATM   13  C18 UNL     1      48.038  45.682  59.383  1.00  0.00     0.294 C 
ENDROOT
BRANCH   1  14
HETATM   14  C4  UNL     1      46.069  46.343  62.601  1.00  0.00    -0.033 A 
HETATM   15  C3  UNL     1      44.741  46.298  62.954  1.00  0.00     0.050 A 
HETATM   16  C2  UNL     1      44.333  46.502  64.259  1.00  0.00     0.102 A 
HETATM   17  C21 UNL     1      45.253  46.760  65.256  1.00  0.00     0.136 A 
HETATM   18  C20 UNL     1      46.591  46.814  64.938  1.00  0.00     0.040 A 
HETATM   19  C19 UNL     1      46.975  46.608  63.634  1.00  0.00     0.014 A 
BRANCH  16  20
HETATM   20  O1  UNL     1      42.988  46.456  64.617  1.00  0.00    -0.353 OA
HETATM   21  C1  UNL     1      42.076  45.694  63.851  1.00  0.00     0.210 C 
ENDBRANCH  16  20
BRANCH  17  22
HETATM   22  N2  UNL     1      44.780  46.964  66.594  1.00  0.00    -0.113 N 
HETATM   23  O7  UNL     1      44.680  45.979  67.356  1.00  0.00    -0.532 OA
HETATM   24  O8  UNL     1      44.431  48.179  67.082  1.00  0.00    -0.532 OA
ENDBRANCH  17  22
ENDBRANCH   1  14
BRANCH  13  25
HETATM   25  N1  UNL     1      46.831  45.484  58.669  1.00  0.00    -0.064 N 
ATOM     26  H13 UNL     1      46.306  46.353  58.573  1.00  0.00     0.275 HD
ATOM     27  H12 UNL     1      47.006  45.297  57.683  1.00  0.00     0.275 HD
ATOM     28  H11 UNL     1      46.265  44.750  59.095  1.00  0.00     0.275 HD
ENDBRANCH  13  25
BRANCH  10  29
HETATM   29  O5  UNL     1      51.411  45.819  63.231  1.00  0.00    -0.352 OA
HETATM   30  C16 UNL     1      51.355  44.966  64.386  1.00  0.00     0.210 C 
ENDBRANCH  10  29
BRANCH   9  31
HETATM   31  O4  UNL     1      53.648  44.499  62.342  1.00  0.00    -0.351 OA
HETATM   32  C14 UNL     1      54.649  45.485  62.283  1.00  0.00     0.210 C 
ENDBRANCH   9  31
BRANCH   8  33
HETATM   33  O3  UNL     1      53.655  43.230  59.915  1.00  0.00    -0.353 OA
HETATM   34  C12 UNL     1      53.554  42.020  59.195  1.00  0.00     0.210 C 
ENDBRANCH   8  33
TORSDOF 7
ENDMDL
