MODEL 1
REMARK VINA RESULT: -8.180017249      0.000      0.000
REMARK  7 active torsions:
REMARK  status: ('A' for Active; 'I' for Inactive)
REMARK    1  A    between atoms: O1_2  and  C2_3 
REMARK    2  A    between atoms: C2_3  and  C3_5 
REMARK    3  A    between atoms: C8_10  and  C9_11 
REMARK       I    between atoms: C9_11  and  N1_13 
REMARK    4  A    between atoms: N1_13  and  N2_15 
REMARK    5  A    between atoms: C10_17  and  C11_18 
REMARK    6  A    between atoms: C14_21  and  N3_22 
REMARK    7  A    between atoms: C15_25  and  N4_26 
ROOT
HETATM    1  C9  UNL     1      49.947  47.096  64.591  1.00  0.00     0.270 C 
HETATM    2  O3  UNL     1      50.442  48.005  63.899  1.00  0.00    -0.266 OA
HETATM    3  N1  UNL     1      50.774  46.093  65.114  1.00  0.00    -0.266 N 
ATOM      4  H1  UNL     1      50.371  45.347  65.681  1.00  0.00     0.190 HD
ENDROOT
BRANCH   3   5
HETATM    5  N2  UNL     1      52.151  46.108  64.861  1.00  0.00    -0.308 N 
HETATM    6  C10 UNL     1      53.016  46.089  65.821  1.00  0.00     0.118 C 
ATOM      7  H2  UNL     1      52.479  46.136  63.895  1.00  0.00     0.186 HD
BRANCH   6   8
HETATM    8  C11 UNL     1      54.450  46.104  65.584  1.00  0.00    -0.017 A 
HETATM    9  C12 UNL     1      55.352  45.971  66.613  1.00  0.00     0.015 A 
HETATM   10  C13 UNL     1      56.686  45.989  66.349  1.00  0.00     0.039 A 
HETATM   11  C14 UNL     1      57.185  46.141  65.044  1.00  0.00     0.135 A 
HETATM   12  C15 UNL     1      56.319  46.275  64.017  1.00  0.00     0.136 A 
HETATM   13  C16 UNL     1      54.937  46.251  64.329  1.00  0.00     0.051 A 
BRANCH  11  14
HETATM   14  N3  UNL     1      58.586  46.134  64.849  1.00  0.00    -0.113 N 
HETATM   15  O4  UNL     1      59.267  45.208  64.422  1.00  0.00    -0.532 OA
HETATM   16  O5  UNL     1      59.261  47.286  65.225  1.00  0.00    -0.532 OA
ENDBRANCH  11  14
BRANCH  12  17
HETATM   17  N4  UNL     1      56.654  46.453  62.657  1.00  0.00    -0.113 N 
HETATM   18  O6  UNL     1      56.672  47.638  62.185  1.00  0.00    -0.532 OA
HETATM   19  O7  UNL     1      56.973  45.492  61.743  1.00  0.00    -0.532 OA
ENDBRANCH  12  17
ENDBRANCH   6   8
ENDBRANCH   3   5
BRANCH   1  20
HETATM   20  C8  UNL     1      48.522  47.087  64.847  1.00  0.00     0.035 A 
HETATM   21  C7  UNL     1      48.038  47.395  66.129  1.00  0.00     0.018 A 
HETATM   22  C6  UNL     1      46.692  47.400  66.413  1.00  0.00     0.015 A 
HETATM   23  C5  UNL     1      45.753  47.103  65.450  1.00  0.00    -0.007 A 
HETATM   24  C4  UNL     1      44.372  47.025  65.422  1.00  0.00     0.049 A 
HETATM   25  C18 UNL     1      46.196  46.796  64.183  1.00  0.00     0.046 A 
HETATM   26  C3  UNL     1      43.974  46.675  64.150  1.00  0.00     0.111 A 
HETATM   27  N5  UNL     1      45.103  46.548  63.438  1.00  0.00    -0.346 N 
HETATM   28  C19 UNL     1      45.133  46.189  62.047  1.00  0.00     0.156 C 
HETATM   29  C17 UNL     1      47.567  46.793  63.903  1.00  0.00     0.047 A 
BRANCH  26  30
HETATM   30  C2  UNL     1      42.588  46.490  63.702  1.00  0.00     0.309 C 
HETATM   31  O2  UNL     1      42.008  47.386  63.040  1.00  0.00    -0.258 OA
BRANCH  30  32
HETATM   32  O1  UNL     1      41.893  45.342  63.994  1.00  0.00    -0.321 OA
HETATM   33  C1  UNL     1      41.664  44.294  63.042  1.00  0.00     0.213 C 
ENDBRANCH  30  32
ENDBRANCH  26  30
ENDBRANCH   1  20
TORSDOF 7
ENDMDL
MODEL 2
REMARK VINA RESULT: -8.177365073      1.310      1.734
REMARK  7 active torsions:
REMARK  status: ('A' for Active; 'I' for Inactive)
REMARK    1  A    between atoms: O1_2  and  C2_3 
REMARK    2  A    between atoms: C2_3  and  C3_5 
REMARK    3  A    between atoms: C8_10  and  C9_11 
REMARK       I    between atoms: C9_11  and  N1_13 
REMARK    4  A    between atoms: N1_13  and  N2_15 
REMARK    5  A    between atoms: C10_17  and  C11_18 
REMARK    6  A    between atoms: C14_21  and  N3_22 
REMARK    7  A    between atoms: C15_25  and  N4_26 
ROOT
HETATM    1  C9  UNL     1      49.936  47.194  65.097  1.00  0.00     0.270 C 
HETATM    2  O3  UNL     1      50.549  48.277  65.149  1.00  0.00    -0.266 OA
HETATM    3  N1  UNL     1      50.646  46.004  64.888  1.00  0.00    -0.266 N 
ATOM      4  H1  UNL     1      50.146  45.116  64.845  1.00  0.00     0.190 HD
ENDROOT
BRANCH   3   5
HETATM    5  N2  UNL     1      52.038  46.027  64.738  1.00  0.00    -0.308 N 
HETATM    6  C10 UNL     1      52.603  45.708  63.621  1.00  0.00     0.118 C 
ATOM      7  H2  UNL     1      52.619  46.303  65.529  1.00  0.00     0.186 HD
BRANCH   6   8
HETATM    8  C11 UNL     1      54.045  45.725  63.439  1.00  0.00    -0.017 A 
HETATM    9  C12 UNL     1      54.722  44.641  62.933  1.00  0.00     0.015 A 
HETATM   10  C13 UNL     1      56.071  44.698  62.777  1.00  0.00     0.039 A 
HETATM   11  C14 UNL     1      56.813  45.842  63.120  1.00  0.00     0.135 A 
HETATM   12  C15 UNL     1      56.172  46.920  63.621  1.00  0.00     0.136 A 
HETATM   13  C16 UNL     1      54.766  46.825  63.768  1.00  0.00     0.051 A 
BRANCH  11  14
HETATM   14  N3  UNL     1      58.213  45.830  62.914  1.00  0.00    -0.113 N 
HETATM   15  O4  UNL     1      58.808  46.103  61.878  1.00  0.00    -0.532 OA
HETATM   16  O5  UNL     1      58.985  45.420  63.991  1.00  0.00    -0.532 OA
ENDBRANCH  11  14
BRANCH  12  17
HETATM   17  N4  UNL     1      56.766  48.134  64.028  1.00  0.00    -0.113 N 
HETATM   18  O6  UNL     1      56.455  49.202  63.403  1.00  0.00    -0.532 OA
HETATM   19  O7  UNL     1      57.664  48.327  65.035  1.00  0.00    -0.532 OA
ENDBRANCH  12  17
ENDBRANCH   6   8
ENDBRANCH   3   5
BRANCH   1  20
HETATM   20  C8  UNL     1      48.497  47.178  65.252  1.00  0.00     0.035 A 
HETATM   21  C7  UNL     1      47.921  47.511  66.488  1.00  0.00     0.018 A 
HETATM   22  C6  UNL     1      46.559  47.511  66.677  1.00  0.00     0.015 A 
HETATM   23  C5  UNL     1      45.692  47.184  65.656  1.00  0.00    -0.007 A 
HETATM   24  C4  UNL     1      44.317  47.095  65.533  1.00  0.00     0.049 A 
HETATM   25  C18 UNL     1      46.226  46.853  64.432  1.00  0.00     0.046 A 
HETATM   26  C3  UNL     1      44.012  46.713  64.244  1.00  0.00     0.111 A 
HETATM   27  N5  UNL     1      45.189  46.580  63.617  1.00  0.00    -0.346 N 
HETATM   28  C19 UNL     1      45.321  46.190  62.240  1.00  0.00     0.156 C 
HETATM   29  C17 UNL     1      47.613  46.856  64.249  1.00  0.00     0.047 A 
BRANCH  26  30
HETATM   30  C2  UNL     1      42.663  46.507  63.704  1.00  0.00     0.309 C 
HETATM   31  O2  UNL     1      42.137  47.369  62.958  1.00  0.00    -0.258 OA
BRANCH  30  32
HETATM   32  O1  UNL     1      41.945  45.373  63.998  1.00  0.00    -0.321 OA
HETATM   33  C1  UNL     1      41.649  44.353  63.034  1.00  0.00     0.213 C 
ENDBRANCH  30  32
ENDBRANCH  26  30
ENDBRANCH   1  20
TORSDOF 7
ENDMDL
MODEL 3
REMARK VINA RESULT: -8.149520003      3.735      4.348
REMARK  7 active torsions:
REMARK  status: ('A' for Active; 'I' for Inactive)
REMARK    1  A    between atoms: O1_2  and  C2_3 
REMARK    2  A    between atoms: C2_3  and  C3_5 
REMARK    3  A    between atoms: C8_10  and  C9_11 
REMARK       I    between atoms: C9_11  and  N1_13 
REMARK    4  A    between atoms: N1_13  and  N2_15 
REMARK    5  A    between atoms: C10_17  and  C11_18 
REMARK    6  A    between atoms: C14_21  and  N3_22 
REMARK    7  A    between atoms: C15_25  and  N4_26 
ROOT
HETATM    1  C9  UNL     1      49.030  47.415  66.915  1.00  0.00     0.270 C 
HETATM    2  O3  UNL     1      49.861  48.143  66.341  1.00  0.00    -0.266 OA
HETATM    3  N1  UNL     1      49.395  46.731  68.083  1.00  0.00    -0.266 N 
ATOM      4  H1  UNL     1      48.715  46.135  68.555  1.00  0.00     0.190 HD
ENDROOT
BRANCH   3   5
HETATM    5  N2  UNL     1      50.687  46.864  68.605  1.00  0.00    -0.308 N 
HETATM    6  C10 UNL     1      51.362  45.838  69.008  1.00  0.00     0.118 C 
ATOM      7  H2  UNL     1      51.105  47.792  68.670  1.00  0.00     0.186 HD
BRANCH   6   8
HETATM    8  C11 UNL     1      52.705  45.948  69.553  1.00  0.00    -0.017 A 
HETATM    9  C12 UNL     1      53.057  46.969  70.403  1.00  0.00     0.015 A 
HETATM   10  C13 UNL     1      54.324  47.036  70.892  1.00  0.00     0.039 A 
HETATM   11  C14 UNL     1      55.303  46.084  70.556  1.00  0.00     0.135 A 
HETATM   12  C15 UNL     1      54.983  45.073  69.721  1.00  0.00     0.136 A 
HETATM   13  C16 UNL     1      53.653  45.035  69.232  1.00  0.00     0.051 A 
BRANCH  11  14
HETATM   14  N3  UNL     1      56.595  46.213  71.119  1.00  0.00    -0.113 N 
HETATM   15  O4  UNL     1      56.953  45.851  72.234  1.00  0.00    -0.532 OA
HETATM   16  O5  UNL     1      57.541  46.860  70.336  1.00  0.00    -0.532 OA
ENDBRANCH  11  14
BRANCH  12  17
HETATM   17  N4  UNL     1      55.847  44.051  69.274  1.00  0.00    -0.113 N 
HETATM   18  O6  UNL     1      56.304  44.119  68.084  1.00  0.00    -0.532 OA
HETATM   19  O7  UNL     1      56.277  42.958  69.966  1.00  0.00    -0.532 OA
ENDBRANCH  12  17
ENDBRANCH   6   8
ENDBRANCH   3   5
BRANCH   1  20
HETATM   20  C8  UNL     1      47.696  47.283  66.368  1.00  0.00     0.035 A 
HETATM   21  C7  UNL     1      46.577  47.518  67.183  1.00  0.00     0.018 A 
HETATM   22  C6  UNL     1      45.294  47.406  66.702  1.00  0.00     0.015 A 
HETATM   23  C5  UNL     1      45.045  47.057  65.392  1.00  0.00    -0.007 A 
HETATM   24  C4  UNL     1      43.906  46.868  64.630  1.00  0.00     0.049 A 
HETATM   25  C18 UNL     1      46.122  46.820  64.568  1.00  0.00     0.046 A 
HETATM   26  C3  UNL     1      44.282  46.519  63.351  1.00  0.00     0.111 A 
HETATM   27  N5  UNL     1      45.622  46.502  63.358  1.00  0.00    -0.346 N 
HETATM   28  C19 UNL     1      46.423  46.182  62.209  1.00  0.00     0.156 C 
HETATM   29  C17 UNL     1      47.424  46.936  65.066  1.00  0.00     0.047 A 
BRANCH  26  30
HETATM   30  C2  UNL     1      43.372  46.233  62.235  1.00  0.00     0.309 C 
HETATM   31  O2  UNL     1      42.948  45.067  62.042  1.00  0.00    -0.258 OA
BRANCH  30  32
HETATM   32  O1  UNL     1      42.964  47.226  61.378  1.00  0.00    -0.321 OA
HETATM   33  C1  UNL     1      43.501  47.402  60.059  1.00  0.00     0.213 C 
ENDBRANCH  30  32
ENDBRANCH  26  30
ENDBRANCH   1  20
TORSDOF 7
ENDMDL
MODEL 4
REMARK VINA RESULT: -8.109690081      2.236     11.657
REMARK  7 active torsions:
REMARK  status: ('A' for Active; 'I' for Inactive)
REMARK    1  A    between atoms: O1_2  and  C2_3 
REMARK    2  A    between atoms: C2_3  and  C3_5 
REMARK    3  A    between atoms: C8_10  and  C9_11 
REMARK       I    between atoms: C9_11  and  N1_13 
REMARK    4  A    between atoms: N1_13  and  N2_15 
REMARK    5  A    between atoms: C10_17  and  C11_18 
REMARK    6  A    between atoms: C14_21  and  N3_22 
REMARK    7  A    between atoms: C15_25  and  N4_26 
ROOT
HETATM    1  C9  UNL     1      50.972  45.394  62.025  1.00  0.00     0.270 C 
HETATM    2  O3  UNL     1      50.401  44.710  61.156  1.00  0.00    -0.266 OA
HETATM    3  N1  UNL     1      50.210  46.105  62.962  1.00  0.00    -0.266 N 
ATOM      4  H1  UNL     1      50.677  46.665  63.675  1.00  0.00     0.190 HD
ENDROOT
BRANCH   3   5
HETATM    5  N2  UNL     1      48.812  46.049  62.924  1.00  0.00    -0.308 N 
HETATM    6  C10 UNL     1      48.086  46.676  63.791  1.00  0.00     0.118 C 
ATOM      7  H2  UNL     1      48.355  45.501  62.196  1.00  0.00     0.186 HD
BRANCH   6   8
HETATM    8  C11 UNL     1      46.634  46.634  63.773  1.00  0.00    -0.017 A 
HETATM    9  C12 UNL     1      45.897  46.641  64.934  1.00  0.00     0.015 A 
HETATM   10  C13 UNL     1      44.539  46.603  64.873  1.00  0.00     0.039 A 
HETATM   11  C14 UNL     1      43.849  46.556  63.649  1.00  0.00     0.135 A 
HETATM   12  C15 UNL     1      44.550  46.547  62.495  1.00  0.00     0.136 A 
HETATM   13  C16 UNL     1      45.963  46.589  62.597  1.00  0.00     0.051 A 
BRANCH  11  14
HETATM   14  N3  UNL     1      42.434  46.534  63.669  1.00  0.00    -0.113 N 
HETATM   15  O4  UNL     1      41.677  47.388  63.221  1.00  0.00    -0.532 OA
HETATM   16  O5  UNL     1      41.849  45.449  64.306  1.00  0.00    -0.532 OA
ENDBRANCH  11  14
BRANCH  12  17
HETATM   17  N4  UNL     1      44.014  46.486  61.191  1.00  0.00    -0.113 N 
HETATM   18  O6  UNL     1      44.379  45.530  60.428  1.00  0.00    -0.532 OA
HETATM   19  O7  UNL     1      43.126  47.343  60.612  1.00  0.00    -0.532 OA
ENDBRANCH  12  17
ENDBRANCH   6   8
ENDBRANCH   3   5
BRANCH   1  20
HETATM   20  C8  UNL     1      52.419  45.447  62.057  1.00  0.00     0.035 A 
HETATM   21  C7  UNL     1      53.157  45.160  60.897  1.00  0.00     0.018 A 
HETATM   22  C6  UNL     1      54.531  45.201  60.883  1.00  0.00     0.015 A 
HETATM   23  C5  UNL     1      55.251  45.529  62.011  1.00  0.00    -0.007 A 
HETATM   24  C4  UNL     1      56.597  45.654  62.310  1.00  0.00     0.049 A 
HETATM   25  C18 UNL     1      54.557  45.816  63.165  1.00  0.00     0.046 A 
HETATM   26  C3  UNL     1      56.724  46.015  63.634  1.00  0.00     0.111 A 
HETATM   27  N5  UNL     1      55.473  46.101  64.109  1.00  0.00    -0.346 N 
HETATM   28  C19 UNL     1      55.157  46.456  65.465  1.00  0.00     0.156 C 
HETATM   29  C17 UNL     1      53.159  45.771  63.169  1.00  0.00     0.047 A 
BRANCH  26  30
HETATM   30  C2  UNL     1      57.987  46.250  64.344  1.00  0.00     0.309 C 
HETATM   31  O2  UNL     1      58.777  45.300  64.570  1.00  0.00    -0.258 OA
BRANCH  30  32
HETATM   32  O1  UNL     1      58.337  47.506  64.777  1.00  0.00    -0.321 OA
HETATM   33  C1  UNL     1      57.890  48.713  64.144  1.00  0.00     0.213 C 
ENDBRANCH  30  32
ENDBRANCH  26  30
ENDBRANCH   1  20
TORSDOF 7
ENDMDL
MODEL 5
REMARK VINA RESULT: -8.034918615      1.945     11.594
REMARK  7 active torsions:
REMARK  status: ('A' for Active; 'I' for Inactive)
REMARK    1  A    between atoms: O1_2  and  C2_3 
REMARK    2  A    between atoms: C2_3  and  C3_5 
REMARK    3  A    between atoms: C8_10  and  C9_11 
REMARK       I    between atoms: C9_11  and  N1_13 
REMARK    4  A    between atoms: N1_13  and  N2_15 
REMARK    5  A    between atoms: C10_17  and  C11_18 
REMARK    6  A    between atoms: C14_21  and  N3_22 
REMARK    7  A    between atoms: C15_25  and  N4_26 
ROOT
HETATM    1  C9  UNL     1      51.076  46.643  63.713  1.00  0.00     0.270 C 
HETATM    2  O3  UNL     1      50.751  45.698  62.970  1.00  0.00    -0.266 OA
HETATM    3  N1  UNL     1      50.097  47.537  64.168  1.00  0.00    -0.266 N 
ATOM      4  H1  UNL     1      50.361  48.311  64.777  1.00  0.00     0.190 HD
ENDROOT
BRANCH   3   5
HETATM    5  N2  UNL     1      48.759  47.373  63.791  1.00  0.00    -0.308 N 
HETATM    6  C10 UNL     1      47.875  46.914  64.614  1.00  0.00     0.118 C 
ATOM      7  H2  UNL     1      48.475  47.620  62.843  1.00  0.00     0.186 HD
BRANCH   6   8
HETATM    8  C11 UNL     1      46.481  46.735  64.247  1.00  0.00    -0.017 A 
HETATM    9  C12 UNL     1      45.470  46.849  65.173  1.00  0.00     0.015 A 
HETATM   10  C13 UNL     1      44.178  46.675  64.788  1.00  0.00     0.039 A 
HETATM   11  C14 UNL     1      43.830  46.378  63.459  1.00  0.00     0.135 A 
HETATM   12  C15 UNL     1      44.804  46.258  62.532  1.00  0.00     0.136 A 
HETATM   13  C16 UNL     1      46.139  46.447  62.968  1.00  0.00     0.051 A 
BRANCH  11  14
HETATM   14  N3  UNL     1      42.461  46.226  63.134  1.00  0.00    -0.113 N 
HETATM   15  O4  UNL     1      41.654  47.120  62.905  1.00  0.00    -0.532 OA
HETATM   16  O5  UNL     1      41.977  44.926  63.119  1.00  0.00    -0.532 OA
ENDBRANCH  11  14
BRANCH  12  17
HETATM   17  N4  UNL     1      44.627  45.948  61.166  1.00  0.00    -0.113 N 
HETATM   18  O6  UNL     1      45.413  45.099  60.628  1.00  0.00    -0.532 OA
HETATM   19  O7  UNL     1      43.694  46.453  60.310  1.00  0.00    -0.532 OA
ENDBRANCH  12  17
ENDBRANCH   6   8
ENDBRANCH   3   5
BRANCH   1  20
HETATM   20  C8  UNL     1      52.462  46.806  64.098  1.00  0.00     0.035 A 
HETATM   21  C7  UNL     1      52.791  47.574  65.227  1.00  0.00     0.018 A 
HETATM   22  C6  UNL     1      54.094  47.752  65.628  1.00  0.00     0.015 A 
HETATM   23  C5  UNL     1      55.142  47.183  64.938  1.00  0.00    -0.007 A 
HETATM   24  C4  UNL     1      56.518  47.175  65.083  1.00  0.00     0.049 A 
HETATM   25  C18 UNL     1      54.853  46.425  63.826  1.00  0.00     0.046 A 
HETATM   26  C3  UNL     1      57.066  46.418  64.069  1.00  0.00     0.111 A 
HETATM   27  N5  UNL     1      56.029  45.987  63.338  1.00  0.00    -0.346 N 
HETATM   28  C19 UNL     1      56.164  45.156  62.173  1.00  0.00     0.156 C 
HETATM   29  C17 UNL     1      53.524  46.249  63.426  1.00  0.00     0.047 A 
BRANCH  26  30
HETATM   30  C2  UNL     1      58.496  46.159  63.866  1.00  0.00     0.309 C 
HETATM   31  O2  UNL     1      59.081  45.266  64.526  1.00  0.00    -0.258 OA
BRANCH  30  32
HETATM   32  O1  UNL     1      59.227  46.880  62.954  1.00  0.00    -0.321 OA
HETATM   33  C1  UNL     1      59.653  46.355  61.689  1.00  0.00     0.213 C 
ENDBRANCH  30  32
ENDBRANCH  26  30
ENDBRANCH   1  20
TORSDOF 7
ENDMDL
