MODEL 1
REMARK VINA RESULT: -9.617550781      0.000      0.000
REMARK  8 active torsions:
REMARK  status: ('A' for Active; 'I' for Inactive)
REMARK    1  A    between atoms: O1_2  and  C2_3 
REMARK    2  A    between atoms: C5_6  and  O2_7 
REMARK    3  A    between atoms: O2_7  and  C6_8 
REMARK    4  A    between atoms: C9_12  and  C10_13 
REMARK    5  A    between atoms: C10_13  and  C11_14 
REMARK    6  A    between atoms: C14_17  and  O3_18 
REMARK    7  A    between atoms: C15_20  and  O4_21 
REMARK    8  A    between atoms: C18_24  and  O5_25 
ROOT
HETATM    1  C6  UNL     1      47.354  45.830  59.664  1.00  0.00     0.154 A 
HETATM    2  C7  UNL     1      48.113  45.950  60.810  1.00  0.00     0.094 A 
HETATM    3  C8  UNL     1      49.282  45.191  60.967  1.00  0.00     0.092 A 
HETATM    4  S1  UNL     1      50.442  45.079  62.212  1.00  0.00    -0.067 SA
HETATM    5  C9  UNL     1      51.466  43.917  61.501  1.00  0.00     0.059 A 
HETATM    6  C18 UNL     1      50.839  43.674  60.307  1.00  0.00     0.169 A 
HETATM    7  N1  UNL     1      49.728  44.335  60.056  1.00  0.00    -0.236 N 
HETATM    8  C19 UNL     1      48.955  44.233  58.923  1.00  0.00     0.335 A 
HETATM    9  O6  UNL     1      49.262  43.458  57.982  1.00  0.00    -0.246 OA
HETATM   10  N2  UNL     1      47.855  44.944  58.772  1.00  0.00    -0.288 N 
ATOM     11  H2  UNL     1      47.334  44.814  57.904  1.00  0.00     0.172 HD
ENDROOT
BRANCH   5  12
HETATM   12  C10 UNL     1      52.601  43.366  61.969  1.00  0.00     0.034 C 
BRANCH  12  13
HETATM   13  C11 UNL     1      53.861  44.047  61.992  1.00  0.00    -0.032 A 
HETATM   14  C12 UNL     1      54.141  44.887  60.920  1.00  0.00     0.014 A 
HETATM   15  C13 UNL     1      55.332  45.575  60.871  1.00  0.00     0.040 A 
HETATM   16  C14 UNL     1      56.290  45.474  61.855  1.00  0.00     0.099 A 
HETATM   17  C15 UNL     1      55.977  44.627  62.906  1.00  0.00     0.102 A 
HETATM   18  C17 UNL     1      54.797  43.930  62.980  1.00  0.00     0.051 A 
BRANCH  16  19
HETATM   19  O3  UNL     1      57.493  46.176  61.793  1.00  0.00    -0.358 OA
ATOM     20  H3  UNL     1      57.523  47.118  61.679  1.00  0.00     0.217 HD
ENDBRANCH  16  19
BRANCH  17  21
HETATM   21  O4  UNL     1      56.917  44.499  63.914  1.00  0.00    -0.353 OA
HETATM   22  C16 UNL     1      56.691  45.020  65.211  1.00  0.00     0.210 C 
ENDBRANCH  17  21
ENDBRANCH  12  13
ENDBRANCH   5  12
BRANCH   6  23
HETATM   23  O5  UNL     1      51.396  42.803  59.511  1.00  0.00    -0.345 OA
ATOM     24  H5  UNL     1      50.922  41.994  59.357  1.00  0.00     0.219 HD
ENDBRANCH   6  23
BRANCH   1  25
HETATM   25  O2  UNL     1      46.196  46.524  59.412  1.00  0.00    -0.294 OA
BRANCH  25  26
HETATM   26  C5  UNL     1      45.126  46.475  60.292  1.00  0.00     0.078 A 
HETATM   27  C4  UNL     1      45.126  45.546  61.324  1.00  0.00     0.040 A 
HETATM   28  C3  UNL     1      44.050  45.502  62.202  1.00  0.00     0.039 A 
HETATM   29  C2  UNL     1      43.006  46.371  62.043  1.00  0.00     0.068 A 
HETATM   30  C21 UNL     1      42.998  47.293  61.026  1.00  0.00     0.039 A 
HETATM   31  C20 UNL     1      44.076  47.339  60.143  1.00  0.00     0.040 A 
BRANCH  29  32
HETATM   32  O1  UNL     1      41.946  46.301  62.939  1.00  0.00    -0.356 OA
HETATM   33  C1  UNL     1      41.367  45.094  63.346  1.00  0.00     0.210 C 
ENDBRANCH  29  32
ENDBRANCH  25  26
ENDBRANCH   1  25
TORSDOF 8
ENDMDL
MODEL 2
REMARK VINA RESULT: -9.553188026      2.797      3.789
REMARK  8 active torsions:
REMARK  status: ('A' for Active; 'I' for Inactive)
REMARK    1  A    between atoms: O1_2  and  C2_3 
REMARK    2  A    between atoms: C5_6  and  O2_7 
REMARK    3  A    between atoms: O2_7  and  C6_8 
REMARK    4  A    between atoms: C9_12  and  C10_13 
REMARK    5  A    between atoms: C10_13  and  C11_14 
REMARK    6  A    between atoms: C14_17  and  O3_18 
REMARK    7  A    between atoms: C15_20  and  O4_21 
REMARK    8  A    between atoms: C18_24  and  O5_25 
ROOT
HETATM    1  C6  UNL     1      47.139  45.847  59.881  1.00  0.00     0.154 A 
HETATM    2  C7  UNL     1      47.657  45.773  61.157  1.00  0.00     0.094 A 
HETATM    3  C8  UNL     1      48.815  45.022  61.409  1.00  0.00     0.092 A 
HETATM    4  S1  UNL     1      49.719  44.710  62.821  1.00  0.00    -0.067 SA
HETATM    5  C9  UNL     1      50.923  43.717  62.136  1.00  0.00     0.059 A 
HETATM    6  C18 UNL     1      50.550  43.680  60.818  1.00  0.00     0.169 A 
HETATM    7  N1  UNL     1      49.472  44.353  60.471  1.00  0.00    -0.236 N 
HETATM    8  C19 UNL     1      48.938  44.442  59.207  1.00  0.00     0.335 A 
HETATM    9  O6  UNL     1      49.461  43.855  58.226  1.00  0.00    -0.246 OA
HETATM   10  N2  UNL     1      47.849  45.146  58.966  1.00  0.00    -0.288 N 
ATOM     11  H2  UNL     1      47.512  45.165  58.003  1.00  0.00     0.172 HD
ENDROOT
BRANCH   5  12
HETATM   12  C10 UNL     1      51.976  43.113  62.717  1.00  0.00     0.034 C 
BRANCH  12  13
HETATM   13  C11 UNL     1      51.853  42.127  63.749  1.00  0.00    -0.032 A 
HETATM   14  C12 UNL     1      51.491  40.844  63.354  1.00  0.00     0.014 A 
HETATM   15  C13 UNL     1      51.352  39.844  64.288  1.00  0.00     0.040 A 
HETATM   16  C14 UNL     1      51.558  40.050  65.635  1.00  0.00     0.099 A 
HETATM   17  C15 UNL     1      51.916  41.340  65.991  1.00  0.00     0.102 A 
HETATM   18  C17 UNL     1      52.062  42.356  65.080  1.00  0.00     0.051 A 
BRANCH  16  19
HETATM   19  O3  UNL     1      51.413  39.028  66.572  1.00  0.00    -0.358 OA
ATOM     20  H3  UNL     1      52.143  38.712  67.092  1.00  0.00     0.217 HD
ENDBRANCH  16  19
BRANCH  17  21
HETATM   21  O4  UNL     1      52.131  41.586  67.337  1.00  0.00    -0.353 OA
HETATM   22  C16 UNL     1      52.437  42.882  67.815  1.00  0.00     0.210 C 
ENDBRANCH  17  21
ENDBRANCH  12  13
ENDBRANCH   5  12
BRANCH   6  23
HETATM   23  O5  UNL     1      51.296  42.978  60.010  1.00  0.00    -0.345 OA
ATOM     24  H5  UNL     1      51.632  42.153  60.340  1.00  0.00     0.219 HD
ENDBRANCH   6  23
BRANCH   1  25
HETATM   25  O2  UNL     1      46.014  46.552  59.529  1.00  0.00    -0.294 OA
BRANCH  25  26
HETATM   26  C5  UNL     1      44.908  46.599  60.364  1.00  0.00     0.078 A 
HETATM   27  C4  UNL     1      43.909  47.533  60.130  1.00  0.00     0.040 A 
HETATM   28  C3  UNL     1      42.803  47.575  60.971  1.00  0.00     0.039 A 
HETATM   29  C2  UNL     1      42.711  46.698  62.017  1.00  0.00     0.068 A 
HETATM   30  C21 UNL     1      43.694  45.771  62.255  1.00  0.00     0.039 A 
HETATM   31  C20 UNL     1      44.804  45.727  61.412  1.00  0.00     0.040 A 
BRANCH  29  32
HETATM   32  O1  UNL     1      41.592  46.767  62.838  1.00  0.00    -0.356 OA
HETATM   33  C1  UNL     1      40.913  45.635  63.301  1.00  0.00     0.210 C 
ENDBRANCH  29  32
ENDBRANCH  25  26
ENDBRANCH   1  25
TORSDOF 8
ENDMDL
MODEL 3
REMARK VINA RESULT: -9.462802547      1.646      9.570
REMARK  8 active torsions:
REMARK  status: ('A' for Active; 'I' for Inactive)
REMARK    1  A    between atoms: O1_2  and  C2_3 
REMARK    2  A    between atoms: C5_6  and  O2_7 
REMARK    3  A    between atoms: O2_7  and  C6_8 
REMARK    4  A    between atoms: C9_12  and  C10_13 
REMARK    5  A    between atoms: C10_13  and  C11_14 
REMARK    6  A    between atoms: C14_17  and  O3_18 
REMARK    7  A    between atoms: C15_20  and  O4_21 
REMARK    8  A    between atoms: C18_24  and  O5_25 
ROOT
HETATM    1  C6  UNL     1      52.135  45.137  59.341  1.00  0.00     0.154 A 
HETATM    2  C7  UNL     1      51.344  45.947  60.128  1.00  0.00     0.094 A 
HETATM    3  C8  UNL     1      49.946  45.825  60.089  1.00  0.00     0.092 A 
HETATM    4  S1  UNL     1      48.682  46.631  60.900  1.00  0.00    -0.067 SA
HETATM    5  C9  UNL     1      47.365  45.802  60.205  1.00  0.00     0.059 A 
HETATM    6  C18 UNL     1      47.993  44.922  59.362  1.00  0.00     0.169 A 
HETATM    7  N1  UNL     1      49.309  44.952  59.320  1.00  0.00    -0.236 N 
HETATM    8  C19 UNL     1      50.118  44.156  58.544  1.00  0.00     0.335 A 
HETATM    9  O6  UNL     1      49.644  43.288  57.768  1.00  0.00    -0.246 OA
HETATM   10  N2  UNL     1      51.432  44.268  58.577  1.00  0.00    -0.288 N 
ATOM     11  H2  UNL     1      51.967  43.643  57.973  1.00  0.00     0.172 HD
ENDROOT
BRANCH   5  12
HETATM   12  C10 UNL     1      46.044  45.952  60.413  1.00  0.00     0.034 C 
BRANCH  12  13
HETATM   13  C11 UNL     1      45.465  46.158  61.707  1.00  0.00    -0.032 A 
HETATM   14  C12 UNL     1      46.343  46.407  62.756  1.00  0.00     0.014 A 
HETATM   15  C13 UNL     1      45.861  46.615  64.028  1.00  0.00     0.040 A 
HETATM   16  C14 UNL     1      44.517  46.588  64.328  1.00  0.00     0.099 A 
HETATM   17  C15 UNL     1      43.673  46.336  63.258  1.00  0.00     0.102 A 
HETATM   18  C17 UNL     1      44.126  46.126  61.979  1.00  0.00     0.051 A 
BRANCH  16  19
HETATM   19  O3  UNL     1      44.041  46.798  65.622  1.00  0.00    -0.358 OA
ATOM     20  H3  UNL     1      44.130  46.146  66.305  1.00  0.00     0.217 HD
ENDBRANCH  16  19
BRANCH  17  21
HETATM   21  O4  UNL     1      42.314  46.301  63.521  1.00  0.00    -0.353 OA
HETATM   22  C16 UNL     1      41.560  45.112  63.376  1.00  0.00     0.210 C 
ENDBRANCH  17  21
ENDBRANCH  12  13
ENDBRANCH   5  12
BRANCH   6  23
HETATM   23  O5  UNL     1      47.232  44.123  58.665  1.00  0.00    -0.345 OA
ATOM     24  H5  UNL     1      47.501  43.213  58.606  1.00  0.00     0.219 HD
ENDBRANCH   6  23
BRANCH   1  25
HETATM   25  O2  UNL     1      53.508  45.176  59.304  1.00  0.00    -0.294 OA
BRANCH  25  26
HETATM   26  C5  UNL     1      54.262  44.936  60.443  1.00  0.00     0.078 A 
HETATM   27  C4  UNL     1      54.084  43.755  61.150  1.00  0.00     0.040 A 
HETATM   28  C3  UNL     1      54.842  43.522  62.291  1.00  0.00     0.039 A 
HETATM   29  C2  UNL     1      55.753  44.454  62.704  1.00  0.00     0.068 A 
HETATM   30  C21 UNL     1      55.936  45.625  62.011  1.00  0.00     0.039 A 
HETATM   31  C20 UNL     1      55.176  45.861  60.866  1.00  0.00     0.040 A 
BRANCH  29  32
HETATM   32  O1  UNL     1      56.496  44.190  63.849  1.00  0.00    -0.356 OA
HETATM   33  C1  UNL     1      57.153  45.184  64.581  1.00  0.00     0.210 C 
ENDBRANCH  29  32
ENDBRANCH  25  26
ENDBRANCH   1  25
TORSDOF 8
ENDMDL
MODEL 4
REMARK VINA RESULT: -9.377265569      1.582      9.641
REMARK  8 active torsions:
REMARK  status: ('A' for Active; 'I' for Inactive)
REMARK    1  A    between atoms: O1_2  and  C2_3 
REMARK    2  A    between atoms: C5_6  and  O2_7 
REMARK    3  A    between atoms: O2_7  and  C6_8 
REMARK    4  A    between atoms: C9_12  and  C10_13 
REMARK    5  A    between atoms: C10_13  and  C11_14 
REMARK    6  A    between atoms: C14_17  and  O3_18 
REMARK    7  A    between atoms: C15_20  and  O4_21 
REMARK    8  A    between atoms: C18_24  and  O5_25 
ROOT
HETATM    1  C6  UNL     1      51.428  43.574  60.776  1.00  0.00     0.154 A 
HETATM    2  C7  UNL     1      50.695  44.290  61.699  1.00  0.00     0.094 A 
HETATM    3  C8  UNL     1      49.446  44.826  61.350  1.00  0.00     0.092 A 
HETATM    4  S1  UNL     1      48.289  45.742  62.203  1.00  0.00    -0.067 SA
HETATM    5  C9  UNL     1      47.133  45.911  60.962  1.00  0.00     0.059 A 
HETATM    6  C18 UNL     1      47.721  45.231  59.927  1.00  0.00     0.169 A 
HETATM    7  N1  UNL     1      48.900  44.686  60.148  1.00  0.00    -0.236 N 
HETATM    8  C19 UNL     1      49.649  43.969  59.246  1.00  0.00     0.335 A 
HETATM    9  O6  UNL     1      49.250  43.763  58.072  1.00  0.00    -0.246 OA
HETATM   10  N2  UNL     1      50.823  43.463  59.570  1.00  0.00    -0.288 N 
ATOM     11  H2  UNL     1      51.321  42.943  58.848  1.00  0.00     0.172 HD
ENDROOT
BRANCH   5  12
HETATM   12  C10 UNL     1      45.945  46.543  60.970  1.00  0.00     0.034 C 
BRANCH  12  13
HETATM   13  C11 UNL     1      44.934  46.316  61.959  1.00  0.00    -0.032 A 
HETATM   14  C12 UNL     1      43.737  45.763  61.519  1.00  0.00     0.014 A 
HETATM   15  C13 UNL     1      42.718  45.516  62.411  1.00  0.00     0.040 A 
HETATM   16  C14 UNL     1      42.823  45.795  63.755  1.00  0.00     0.099 A 
HETATM   17  C15 UNL     1      44.029  46.345  64.157  1.00  0.00     0.102 A 
HETATM   18  C17 UNL     1      45.062  46.601  63.289  1.00  0.00     0.051 A 
BRANCH  16  19
HETATM   19  O3  UNL     1      41.783  45.540  64.649  1.00  0.00    -0.358 OA
ATOM     20  H3  UNL     1      41.546  46.152  65.336  1.00  0.00     0.217 HD
ENDBRANCH  16  19
BRANCH  17  21
HETATM   21  O4  UNL     1      44.172  46.639  65.502  1.00  0.00    -0.353 OA
HETATM   22  C16 UNL     1      45.328  47.282  66.004  1.00  0.00     0.210 C 
ENDBRANCH  17  21
ENDBRANCH  12  13
ENDBRANCH   5  12
BRANCH   6  23
HETATM   23  O5  UNL     1      47.063  45.179  58.802  1.00  0.00    -0.345 OA
ATOM     24  H5  UNL     1      47.575  45.100  58.005  1.00  0.00     0.219 HD
ENDBRANCH   6  23
BRANCH   1  25
HETATM   25  O2  UNL     1      52.657  43.009  61.016  1.00  0.00    -0.294 OA
BRANCH  25  26
HETATM   26  C5  UNL     1      53.756  43.794  61.332  1.00  0.00     0.078 A 
HETATM   27  C4  UNL     1      54.425  43.591  62.531  1.00  0.00     0.040 A 
HETATM   28  C3  UNL     1      55.525  44.381  62.841  1.00  0.00     0.039 A 
HETATM   29  C2  UNL     1      55.936  45.347  61.965  1.00  0.00     0.068 A 
HETATM   30  C21 UNL     1      55.281  45.555  60.778  1.00  0.00     0.039 A 
HETATM   31  C20 UNL     1      54.177  44.764  60.464  1.00  0.00     0.040 A 
BRANCH  29  32
HETATM   32  O1  UNL     1      57.041  46.120  62.306  1.00  0.00    -0.356 OA
HETATM   33  C1  UNL     1      56.950  47.287  63.073  1.00  0.00     0.210 C 
ENDBRANCH  29  32
ENDBRANCH  25  26
ENDBRANCH   1  25
TORSDOF 8
ENDMDL
MODEL 5
REMARK VINA RESULT: -9.126441447      0.836      1.208
REMARK  8 active torsions:
REMARK  status: ('A' for Active; 'I' for Inactive)
REMARK    1  A    between atoms: O1_2  and  C2_3 
REMARK    2  A    between atoms: C5_6  and  O2_7 
REMARK    3  A    between atoms: O2_7  and  C6_8 
REMARK    4  A    between atoms: C9_12  and  C10_13 
REMARK    5  A    between atoms: C10_13  and  C11_14 
REMARK    6  A    between atoms: C14_17  and  O3_18 
REMARK    7  A    between atoms: C15_20  and  O4_21 
REMARK    8  A    between atoms: C18_24  and  O5_25 
ROOT
HETATM    1  C6  UNL     1      47.034  45.805  59.626  1.00  0.00     0.154 A 
HETATM    2  C7  UNL     1      47.806  46.047  60.744  1.00  0.00     0.094 A 
HETATM    3  C8  UNL     1      49.030  45.383  60.916  1.00  0.00     0.092 A 
HETATM    4  S1  UNL     1      50.220  45.428  62.136  1.00  0.00    -0.067 SA
HETATM    5  C9  UNL     1      51.310  44.301  61.468  1.00  0.00     0.059 A 
HETATM    6  C18 UNL     1      50.677  43.942  60.306  1.00  0.00     0.169 A 
HETATM    7  N1  UNL     1      49.516  44.507  60.046  1.00  0.00    -0.236 N 
HETATM    8  C19 UNL     1      48.729  44.282  58.941  1.00  0.00     0.335 A 
HETATM    9  O6  UNL     1      49.071  43.475  58.040  1.00  0.00    -0.246 OA
HETATM   10  N2  UNL     1      47.578  44.904  58.776  1.00  0.00    -0.288 N 
ATOM     11  H2  UNL     1      47.049  44.685  57.931  1.00  0.00     0.172 HD
ENDROOT
BRANCH   5  12
HETATM   12  C10 UNL     1      52.491  43.860  61.939  1.00  0.00     0.034 C 
BRANCH  12  13
HETATM   13  C11 UNL     1      53.674  44.666  61.988  1.00  0.00    -0.032 A 
HETATM   14  C12 UNL     1      54.370  44.834  60.796  1.00  0.00     0.014 A 
HETATM   15  C13 UNL     1      55.517  45.595  60.764  1.00  0.00     0.040 A 
HETATM   16  C14 UNL     1      56.028  46.217  61.882  1.00  0.00     0.099 A 
HETATM   17  C15 UNL     1      55.308  46.026  63.050  1.00  0.00     0.102 A 
HETATM   18  C17 UNL     1      54.162  45.273  63.111  1.00  0.00     0.051 A 
BRANCH  16  19
HETATM   19  O3  UNL     1      57.191  46.984  61.837  1.00  0.00    -0.358 OA
ATOM     20  H3  UNL     1      57.843  46.954  62.526  1.00  0.00     0.217 HD
ENDBRANCH  16  19
BRANCH  17  21
HETATM   21  O4  UNL     1      55.791  46.636  64.195  1.00  0.00    -0.353 OA
HETATM   22  C16 UNL     1      55.015  46.722  65.376  1.00  0.00     0.210 C 
ENDBRANCH  17  21
ENDBRANCH  12  13
ENDBRANCH   5  12
BRANCH   6  23
HETATM   23  O5  UNL     1      51.278  43.066  59.550  1.00  0.00    -0.345 OA
ATOM     24  H5  UNL     1      52.199  43.212  59.367  1.00  0.00     0.219 HD
ENDBRANCH   6  23
BRANCH   1  25
HETATM   25  O2  UNL     1      45.824  46.399  59.364  1.00  0.00    -0.294 OA
BRANCH  25  26
HETATM   26  C5  UNL     1      44.827  46.450  60.327  1.00  0.00     0.078 A 
HETATM   27  C4  UNL     1      43.798  47.374  60.204  1.00  0.00     0.040 A 
HETATM   28  C3  UNL     1      42.803  47.420  61.172  1.00  0.00     0.039 A 
HETATM   29  C2  UNL     1      42.846  46.558  62.233  1.00  0.00     0.068 A 
HETATM   30  C21 UNL     1      43.860  45.642  62.363  1.00  0.00     0.039 A 
HETATM   31  C20 UNL     1      44.860  45.594  61.392  1.00  0.00     0.040 A 
BRANCH  29  32
HETATM   32  O1  UNL     1      41.835  46.631  63.184  1.00  0.00    -0.356 OA
HETATM   33  C1  UNL     1      40.844  45.653  63.323  1.00  0.00     0.210 C 
ENDBRANCH  29  32
ENDBRANCH  25  26
ENDBRANCH   1  25
TORSDOF 8
ENDMDL
