MODEL 1
REMARK VINA RESULT: -8.187180102      0.000      0.000
REMARK  3 active torsions:
REMARK  status: ('A' for Active; 'I' for Inactive)
REMARK    1  A    between atoms: C4_4  and  C5_5 
REMARK    2  A    between atoms: C9_11  and  C10_12 
REMARK    3  A    between atoms: C16_27  and  N7_28 
ROOT
HETATM    1  C5  UNL     1      55.549 -20.282  87.777  1.00  0.00     0.045 A 
HETATM    2  C6  UNL     1      56.806 -20.264  88.327  1.00  0.00     0.060 A 
HETATM    3  C7  UNL     1      57.898 -20.888  87.712  1.00  0.00     0.046 A 
HETATM    4  N1  UNL     1      59.193 -21.015  88.031  1.00  0.00    -0.364 N 
ATOM      5  H1  UNL     1      59.623 -20.628  88.871  1.00  0.00     0.165 HD
HETATM    6  C8  UNL     1      59.853 -21.723  87.092  1.00  0.00     0.103 A 
HETATM    7  C9  UNL     1      58.940 -22.068  86.127  1.00  0.00     0.023 A 
HETATM    8  C13 UNL     1      57.727 -21.543  86.520  1.00  0.00     0.020 A 
HETATM    9  C14 UNL     1      56.455 -21.547  85.989  1.00  0.00     0.103 A 
HETATM   10  N5  UNL     1      55.416 -20.942  86.592  1.00  0.00    -0.364 N 
ATOM     11  H5  UNL     1      54.498 -20.979  86.148  1.00  0.00     0.165 HD
ENDROOT
BRANCH   1  12
HETATM   12  C4  UNL     1      54.379 -19.650  88.373  1.00  0.00     0.007 A 
HETATM   13  C3  UNL     1      54.370 -19.290  89.700  1.00  0.00     0.025 A 
HETATM   14  C2  UNL     1      53.247 -18.687  90.257  1.00  0.00    -0.018 A 
HETATM   15  C1  UNL     1      53.191 -18.280  91.686  1.00  0.00     0.052 C 
HETATM   16  C16 UNL     1      52.168 -18.473  89.437  1.00  0.00     0.104 A 
HETATM   17  N6  UNL     1      52.154 -18.816  88.141  1.00  0.00    -0.351 N 
HETATM   18  C15 UNL     1      53.248 -19.395  87.625  1.00  0.00     0.103 A 
ATOM     19  H6  UNL     1      51.333 -18.640  87.562  1.00  0.00     0.166 HD
BRANCH  16  20
HETATM   20  N7  UNL     1      51.088 -17.908  89.918  1.00  0.00    -0.385 N 
ATOM     21  H72 UNL     1      51.102 -16.894  90.026  1.00  0.00     0.157 HD
ATOM     22  H71 UNL     1      50.285 -18.484  90.165  1.00  0.00     0.157 HD
ENDBRANCH  16  20
ENDBRANCH   1  12
BRANCH   7  23
HETATM   23  C10 UNL     1      59.209 -22.839  84.919  1.00  0.00     0.079 A 
HETATM   24  C11 UNL     1      60.154 -22.532  83.963  1.00  0.00     0.140 A 
HETATM   25  N2  UNL     1      60.071 -23.494  83.026  1.00  0.00    -0.293 N 
HETATM   26  N3  UNL     1      59.134 -24.370  83.352  1.00  0.00    -0.239 N 
ATOM     27  H2  UNL     1      60.648 -23.542  82.186  1.00  0.00     0.187 HD
HETATM   28  C12 UNL     1      58.802 -25.534  82.536  1.00  0.00     0.200 C 
HETATM   29  N4  UNL     1      58.623 -23.966  84.488  1.00  0.00    -0.282 N 
ATOM     30  H4  UNL     1      57.874 -24.449  84.984  1.00  0.00     0.189 HD
ENDBRANCH   7  23
TORSDOF 3
ENDMDL
MODEL 2
REMARK VINA RESULT: -7.886732236      3.650      8.112
REMARK  3 active torsions:
REMARK  status: ('A' for Active; 'I' for Inactive)
REMARK    1  A    between atoms: C4_4  and  C5_5 
REMARK    2  A    between atoms: C9_11  and  C10_12 
REMARK    3  A    between atoms: C16_27  and  N7_28 
ROOT
HETATM    1  C5  UNL     1      54.431 -19.206  88.296  1.00  0.00     0.045 A 
HETATM    2  C6  UNL     1      53.409 -19.156  89.212  1.00  0.00     0.060 A 
HETATM    3  C7  UNL     1      52.066 -19.082  88.826  1.00  0.00     0.046 A 
HETATM    4  N1  UNL     1      50.909 -19.023  89.501  1.00  0.00    -0.364 N 
ATOM      5  H1  UNL     1      50.833 -19.025  90.518  1.00  0.00     0.165 HD
HETATM    6  C8  UNL     1      49.861 -18.962  88.655  1.00  0.00     0.103 A 
HETATM    7  C9  UNL     1      50.366 -18.982  87.379  1.00  0.00     0.023 A 
HETATM    8  C13 UNL     1      51.739 -19.057  87.495  1.00  0.00     0.020 A 
HETATM    9  C14 UNL     1      52.783 -19.108  86.596  1.00  0.00     0.103 A 
HETATM   10  N5  UNL     1      54.069 -19.179  86.983  1.00  0.00    -0.364 N 
ATOM     11  H5  UNL     1      54.797 -19.215  86.269  1.00  0.00     0.165 HD
ENDROOT
BRANCH   1  12
HETATM   12  C4  UNL     1      55.844 -19.284  88.642  1.00  0.00     0.007 A 
HETATM   13  C3  UNL     1      56.592 -20.391  88.314  1.00  0.00     0.025 A 
HETATM   14  C2  UNL     1      57.940 -20.453  88.650  1.00  0.00    -0.018 A 
HETATM   15  C1  UNL     1      58.788 -21.628  88.316  1.00  0.00     0.052 C 
HETATM   16  C16 UNL     1      58.481 -19.379  89.311  1.00  0.00     0.104 A 
HETATM   17  N6  UNL     1      57.771 -18.290  89.640  1.00  0.00    -0.351 N 
HETATM   18  C15 UNL     1      56.473 -18.252  89.307  1.00  0.00     0.103 A 
ATOM     19  H6  UNL     1      58.208 -17.510  90.132  1.00  0.00     0.166 HD
BRANCH  16  20
HETATM   20  N7  UNL     1      59.746 -19.393  89.647  1.00  0.00    -0.385 N 
ATOM     21  H72 UNL     1      60.095 -20.229  90.117  1.00  0.00     0.157 HD
ATOM     22  H71 UNL     1      60.334 -18.587  89.435  1.00  0.00     0.157 HD
ENDBRANCH  16  20
ENDBRANCH   1  12
BRANCH   7  23
HETATM   23  C10 UNL     1      49.595 -18.933  86.143  1.00  0.00     0.079 A 
HETATM   24  C11 UNL     1      49.519 -19.939  85.202  1.00  0.00     0.140 A 
HETATM   25  N2  UNL     1      48.709 -19.487  84.229  1.00  0.00    -0.293 N 
HETATM   26  N3  UNL     1      48.285 -18.267  84.517  1.00  0.00    -0.239 N 
ATOM     27  H2  UNL     1      48.457 -20.009  83.389  1.00  0.00     0.187 HD
HETATM   28  C12 UNL     1      47.388 -17.503  83.655  1.00  0.00     0.200 C 
HETATM   29  N4  UNL     1      48.823 -17.946  85.667  1.00  0.00    -0.282 N 
ATOM     30  H4  UNL     1      48.674 -17.055  86.141  1.00  0.00     0.189 HD
ENDBRANCH   7  23
TORSDOF 3
ENDMDL
MODEL 3
REMARK VINA RESULT: -7.864964749      3.511      6.465
REMARK  3 active torsions:
REMARK  status: ('A' for Active; 'I' for Inactive)
REMARK    1  A    between atoms: C4_4  and  C5_5 
REMARK    2  A    between atoms: C9_11  and  C10_12 
REMARK    3  A    between atoms: C16_27  and  N7_28 
ROOT
HETATM    1  C5  UNL     1      50.602 -18.868  88.364  1.00  0.00     0.045 A 
HETATM    2  C6  UNL     1      50.909 -18.489  89.647  1.00  0.00     0.060 A 
HETATM    3  C7  UNL     1      52.218 -18.530  90.144  1.00  0.00     0.046 A 
HETATM    4  N1  UNL     1      52.771 -18.225  91.326  1.00  0.00    -0.364 N 
ATOM      5  H1  UNL     1      52.254 -17.874  92.132  1.00  0.00     0.165 HD
HETATM    6  C8  UNL     1      54.101 -18.443  91.306  1.00  0.00     0.103 A 
HETATM    7  C9  UNL     1      54.417 -18.911  90.055  1.00  0.00     0.023 A 
HETATM    8  C13 UNL     1      53.240 -18.962  89.339  1.00  0.00     0.020 A 
HETATM    9  C14 UNL     1      52.905 -19.337  88.055  1.00  0.00     0.103 A 
HETATM   10  N5  UNL     1      51.643 -19.291  87.593  1.00  0.00    -0.364 N 
ATOM     11  H5  UNL     1      51.459 -19.581  86.632  1.00  0.00     0.165 HD
ENDROOT
BRANCH   1  12
HETATM   12  C4  UNL     1      49.261 -18.844  87.797  1.00  0.00     0.007 A 
HETATM   13  C3  UNL     1      48.172 -19.240  88.538  1.00  0.00     0.025 A 
HETATM   14  C2  UNL     1      46.897 -19.212  87.985  1.00  0.00    -0.018 A 
HETATM   15  C1  UNL     1      45.691 -19.630  88.748  1.00  0.00     0.052 C 
HETATM   16  C16 UNL     1      46.776 -18.779  86.688  1.00  0.00     0.104 A 
HETATM   17  N6  UNL     1      47.823 -18.388  85.946  1.00  0.00    -0.351 N 
HETATM   18  C15 UNL     1      49.043 -18.423  86.501  1.00  0.00     0.103 A 
ATOM     19  H6  UNL     1      47.693 -18.072  84.985  1.00  0.00     0.166 HD
BRANCH  16  20
HETATM   20  N7  UNL     1      45.594 -18.736  86.125  1.00  0.00    -0.385 N 
ATOM     21  H72 UNL     1      44.934 -19.474  86.370  1.00  0.00     0.157 HD
ATOM     22  H71 UNL     1      45.373 -17.985  85.473  1.00  0.00     0.157 HD
ENDBRANCH  16  20
ENDBRANCH   1  12
BRANCH   7  23
HETATM   23  C10 UNL     1      55.745 -19.280  89.581  1.00  0.00     0.079 A 
HETATM   24  C11 UNL     1      56.772 -18.403  89.301  1.00  0.00     0.140 A 
HETATM   25  N2  UNL     1      57.812 -19.154  88.895  1.00  0.00    -0.293 N 
HETATM   26  N3  UNL     1      57.483 -20.435  88.909  1.00  0.00    -0.239 N 
ATOM     27  H2  UNL     1      58.722 -18.788  88.616  1.00  0.00     0.187 HD
HETATM   28  C12 UNL     1      58.398 -21.504  88.522  1.00  0.00     0.200 C 
HETATM   29  N4  UNL     1      56.242 -20.499  89.321  1.00  0.00    -0.282 N 
ATOM     30  H4  UNL     1      55.717 -21.367  89.432  1.00  0.00     0.189 HD
ENDBRANCH   7  23
TORSDOF 3
ENDMDL
MODEL 4
REMARK VINA RESULT: -7.863646388      1.872      8.297
REMARK  3 active torsions:
REMARK  status: ('A' for Active; 'I' for Inactive)
REMARK    1  A    between atoms: C4_4  and  C5_5 
REMARK    2  A    between atoms: C9_11  and  C10_12 
REMARK    3  A    between atoms: C16_27  and  N7_28 
ROOT
HETATM    1  C5  UNL     1      56.261 -20.926  87.520  1.00  0.00     0.045 A 
HETATM    2  C6  UNL     1      55.713 -21.394  88.688  1.00  0.00     0.060 A 
HETATM    3  C7  UNL     1      54.454 -20.979  89.139  1.00  0.00     0.046 A 
HETATM    4  N1  UNL     1      53.711 -21.274  90.214  1.00  0.00    -0.364 N 
ATOM      5  H1  UNL     1      53.990 -21.923  90.949  1.00  0.00     0.165 HD
HETATM    6  C8  UNL     1      52.545 -20.597  90.194  1.00  0.00     0.103 A 
HETATM    7  C9  UNL     1      52.539 -19.831  89.055  1.00  0.00     0.023 A 
HETATM    8  C13 UNL     1      53.730 -20.076  88.404  1.00  0.00     0.020 A 
HETATM    9  C14 UNL     1      54.303 -19.621  87.236  1.00  0.00     0.103 A 
HETATM   10  N5  UNL     1      55.514 -20.030  86.816  1.00  0.00    -0.364 N 
ATOM     11  H5  UNL     1      55.884 -19.658  85.941  1.00  0.00     0.165 HD
ENDROOT
BRANCH   1  12
HETATM   12  C4  UNL     1      57.564 -21.324  87.004  1.00  0.00     0.007 A 
HETATM   13  C3  UNL     1      57.686 -21.912  85.767  1.00  0.00     0.025 A 
HETATM   14  C2  UNL     1      58.936 -22.287  85.286  1.00  0.00    -0.018 A 
HETATM   15  C1  UNL     1      59.116 -22.924  83.955  1.00  0.00     0.052 C 
HETATM   16  C16 UNL     1      60.023 -22.048  86.089  1.00  0.00     0.104 A 
HETATM   17  N6  UNL     1      59.929 -21.477  87.298  1.00  0.00    -0.351 N 
HETATM   18  C15 UNL     1      58.713 -21.123  87.741  1.00  0.00     0.103 A 
ATOM     19  H6  UNL     1      60.760 -21.315  87.866  1.00  0.00     0.166 HD
BRANCH  16  20
HETATM   20  N7  UNL     1      61.220 -22.384  85.677  1.00  0.00    -0.385 N 
ATOM     21  H72 UNL     1      61.867 -21.627  85.456  1.00  0.00     0.157 HD
ATOM     22  H71 UNL     1      61.466 -23.370  85.592  1.00  0.00     0.157 HD
ENDBRANCH  16  20
ENDBRANCH   1  12
BRANCH   7  23
HETATM   23  C10 UNL     1      51.474 -18.935  88.622  1.00  0.00     0.079 A 
HETATM   24  C11 UNL     1      51.511 -17.557  88.674  1.00  0.00     0.140 A 
HETATM   25  N2  UNL     1      50.335 -17.128  88.181  1.00  0.00    -0.293 N 
HETATM   26  N3  UNL     1      49.582 -18.158  87.832  1.00  0.00    -0.239 N 
ATOM     27  H2  UNL     1      50.063 -16.149  88.091  1.00  0.00     0.187 HD
HETATM   28  C12 UNL     1      48.245 -18.020  87.263  1.00  0.00     0.200 C 
HETATM   29  N4  UNL     1      50.275 -19.236  88.102  1.00  0.00    -0.282 N 
ATOM     30  H4  UNL     1      49.944 -20.187  87.936  1.00  0.00     0.189 HD
ENDBRANCH   7  23
TORSDOF 3
ENDMDL
MODEL 5
REMARK VINA RESULT: -7.856874795      3.252      8.207
REMARK  3 active torsions:
REMARK  status: ('A' for Active; 'I' for Inactive)
REMARK    1  A    between atoms: C4_4  and  C5_5 
REMARK    2  A    between atoms: C9_11  and  C10_12 
REMARK    3  A    between atoms: C16_27  and  N7_28 
ROOT
HETATM    1  C5  UNL     1      54.210 -19.558  87.962  1.00  0.00     0.045 A 
HETATM    2  C6  UNL     1      53.299 -19.368  88.971  1.00  0.00     0.060 A 
HETATM    3  C7  UNL     1      51.931 -19.205  88.720  1.00  0.00     0.046 A 
HETATM    4  N1  UNL     1      50.862 -19.009  89.503  1.00  0.00    -0.364 N 
ATOM      5  H1  UNL     1      50.895 -18.943  90.520  1.00  0.00     0.165 HD
HETATM    6  C8  UNL     1      49.737 -18.911  88.767  1.00  0.00     0.103 A 
HETATM    7  C9  UNL     1      50.100 -19.049  87.450  1.00  0.00     0.023 A 
HETATM    8  C13 UNL     1      51.467 -19.232  87.430  1.00  0.00     0.020 A 
HETATM    9  C14 UNL     1      52.402 -19.424  86.436  1.00  0.00     0.103 A 
HETATM   10  N5  UNL     1      53.712 -19.579  86.693  1.00  0.00    -0.364 N 
ATOM     11  H5  UNL     1      54.355 -19.719  85.913  1.00  0.00     0.165 HD
ENDROOT
BRANCH   1  12
HETATM   12  C4  UNL     1      55.642 -19.733  88.166  1.00  0.00     0.007 A 
HETATM   13  C3  UNL     1      56.346 -18.889  88.993  1.00  0.00     0.025 A 
HETATM   14  C2  UNL     1      57.712 -19.067  89.180  1.00  0.00    -0.018 A 
HETATM   15  C1  UNL     1      58.515 -18.181  90.064  1.00  0.00     0.052 C 
HETATM   16  C16 UNL     1      58.315 -20.105  88.513  1.00  0.00     0.104 A 
HETATM   17  N6  UNL     1      57.649 -20.939  87.703  1.00  0.00    -0.351 N 
HETATM   18  C15 UNL     1      56.332 -20.749  87.537  1.00  0.00     0.103 A 
ATOM     19  H6  UNL     1      58.132 -21.700  87.224  1.00  0.00     0.166 HD
BRANCH  16  20
HETATM   20  N7  UNL     1      59.601 -20.311  88.659  1.00  0.00    -0.385 N 
ATOM     21  H72 UNL     1      59.896 -20.855  89.469  1.00  0.00     0.157 HD
ATOM     22  H71 UNL     1      60.254 -19.930  87.975  1.00  0.00     0.157 HD
ENDBRANCH  16  20
ENDBRANCH   1  12
BRANCH   7  23
HETATM   23  C10 UNL     1      49.206 -19.011  86.299  1.00  0.00     0.079 A 
HETATM   24  C11 UNL     1      48.569 -20.098  85.738  1.00  0.00     0.140 A 
HETATM   25  N2  UNL     1      47.849 -19.624  84.706  1.00  0.00    -0.293 N 
HETATM   26  N3  UNL     1      48.007 -18.315  84.601  1.00  0.00    -0.239 N 
ATOM     27  H2  UNL     1      47.265 -20.193  84.091  1.00  0.00     0.187 HD
HETATM   28  C12 UNL     1      47.354 -17.505  83.577  1.00  0.00     0.200 C 
HETATM   29  N4  UNL     1      48.823 -17.958  85.561  1.00  0.00    -0.282 N 
ATOM     30  H4  UNL     1      49.130 -17.000  85.727  1.00  0.00     0.189 HD
ENDBRANCH   7  23
TORSDOF 3
ENDMDL
