MODEL 1
REMARK VINA RESULT: -6.538889815      0.000      0.000
REMARK  5 active torsions:
REMARK  status: ('A' for Active; 'I' for Inactive)
REMARK    1  A    between atoms: N1_2  and  C2_4 
REMARK    2  A    between atoms: C2_4  and  C3_6 
REMARK    3  A    between atoms: C3_6  and  S2_7 
REMARK    4  A    between atoms: S2_7  and  C4_8 
REMARK    5  A    between atoms: C5_11  and  N3_12 
ROOT
HETATM    1  C4  UNL     1      56.843 -21.474  86.786  1.00  0.00     0.147 A 
HETATM    2  N2  UNL     1      55.677 -22.108  86.942  1.00  0.00    -0.323 N 
ATOM      3  H2  UNL     1      55.513 -22.927  86.358  1.00  0.00     0.169 HD
HETATM    4  C5  UNL     1      54.705 -21.763  87.796  1.00  0.00     0.114 A 
HETATM    5  C6  UNL     1      54.877 -20.639  88.630  1.00  0.00     0.048 A 
HETATM    6  C7  UNL     1      54.026 -20.139  89.543  1.00  0.00    -0.033 A 
HETATM    7  C8  UNL     1      52.658 -20.725  89.858  1.00  0.00     0.050 C 
HETATM    8  C9  UNL     1      54.428 -19.027  90.231  1.00  0.00    -0.012 A 
HETATM    9  C10 UNL     1      53.733 -18.242  91.289  1.00  0.00     0.057 C 
HETATM   10  S3  UNL     1      55.971 -18.707  89.593  1.00  0.00    -0.076 SA
HETATM   11  C11 UNL     1      56.070 -19.999  88.462  1.00  0.00     0.091 A 
HETATM   12  N4  UNL     1      57.025 -20.402  87.569  1.00  0.00    -0.330 N 
ATOM     13  H4  UNL     1      57.895 -19.874  87.498  1.00  0.00     0.168 HD
ENDROOT
BRANCH   1  14
HETATM   14  S2  UNL     1      58.079 -22.024  85.616  1.00  0.00    -0.087 SA
BRANCH  14  15
HETATM   15  C3  UNL     1      59.728 -21.983  86.290  1.00  0.00     0.151 C 
BRANCH  15  16
HETATM   16  C2  UNL     1      60.711 -21.925  85.189  1.00  0.00     0.082 C 
HETATM   17  S1  UNL     1      60.278 -21.319  83.746  1.00  0.00    -0.065 SA
BRANCH  16  18
HETATM   18  N1  UNL     1      62.023 -22.388  85.408  1.00  0.00    -0.388 N 
HETATM   19  C1  UNL     1      63.059 -21.443  85.752  1.00  0.00     0.147 C 
ATOM     20  H1  UNL     1      62.239 -23.382  85.324  1.00  0.00     0.159 HD
ENDBRANCH  16  18
ENDBRANCH  15  16
ENDBRANCH  14  15
ENDBRANCH   1  14
BRANCH   4  21
HETATM   21  N3  UNL     1      53.624 -22.478  87.837  1.00  0.00    -0.385 N 
ATOM     22  H32 UNL     1      53.457 -23.231  87.169  1.00  0.00     0.157 HD
ATOM     23  H31 UNL     1      52.927 -22.278  88.555  1.00  0.00     0.157 HD
ENDBRANCH   4  21
TORSDOF 5
ENDMDL
MODEL 2
REMARK VINA RESULT: -6.427991129      1.355      1.390
REMARK  5 active torsions:
REMARK  status: ('A' for Active; 'I' for Inactive)
REMARK    1  A    between atoms: N1_2  and  C2_4 
REMARK    2  A    between atoms: C2_4  and  C3_6 
REMARK    3  A    between atoms: C3_6  and  S2_7 
REMARK    4  A    between atoms: S2_7  and  C4_8 
REMARK    5  A    between atoms: C5_11  and  N3_12 
ROOT
HETATM    1  C4  UNL     1      56.621 -21.222  86.598  1.00  0.00     0.147 A 
HETATM    2  N2  UNL     1      55.574 -20.588  86.059  1.00  0.00    -0.323 N 
ATOM      3  H2  UNL     1      55.494 -20.606  85.043  1.00  0.00     0.169 HD
HETATM    4  C5  UNL     1      54.622 -19.932  86.735  1.00  0.00     0.114 A 
HETATM    5  C6  UNL     1      54.681 -19.874  88.142  1.00  0.00     0.048 A 
HETATM    6  C7  UNL     1      53.830 -19.271  88.990  1.00  0.00    -0.033 A 
HETATM    7  C8  UNL     1      52.588 -18.503  88.562  1.00  0.00     0.050 C 
HETATM    8  C9  UNL     1      54.109 -19.358  90.326  1.00  0.00    -0.012 A 
HETATM    9  C10 UNL     1      53.379 -18.809  91.503  1.00  0.00     0.057 C 
HETATM   10  S3  UNL     1      55.542 -20.272  90.370  1.00  0.00    -0.076 SA
HETATM   11  C11 UNL     1      55.754 -20.524  88.681  1.00  0.00     0.091 A 
HETATM   12  N4  UNL     1      56.694 -21.178  87.934  1.00  0.00    -0.330 N 
ATOM     13  H4  UNL     1      57.470 -21.643  88.406  1.00  0.00     0.168 HD
ENDROOT
BRANCH   1  14
HETATM   14  S2  UNL     1      57.834 -22.077  85.600  1.00  0.00    -0.087 SA
BRANCH  14  15
HETATM   15  C3  UNL     1      59.483 -21.943  86.262  1.00  0.00     0.151 C 
BRANCH  15  16
HETATM   16  C2  UNL     1      60.460 -21.922  85.155  1.00  0.00     0.082 C 
HETATM   17  S1  UNL     1      60.060 -21.248  83.732  1.00  0.00    -0.065 SA
BRANCH  16  18
HETATM   18  N1  UNL     1      61.739 -22.481  85.349  1.00  0.00    -0.388 N 
HETATM   19  C1  UNL     1      62.847 -21.616  85.679  1.00  0.00     0.147 C 
ATOM     20  H1  UNL     1      61.880 -23.488  85.257  1.00  0.00     0.159 HD
ENDBRANCH  16  18
ENDBRANCH  15  16
ENDBRANCH  14  15
ENDBRANCH   1  14
BRANCH   4  21
HETATM   21  N3  UNL     1      53.663 -19.363  86.073  1.00  0.00    -0.385 N 
ATOM     22  H32 UNL     1      53.646 -19.362  85.053  1.00  0.00     0.157 HD
ATOM     23  H31 UNL     1      52.912 -18.905  86.590  1.00  0.00     0.157 HD
ENDBRANCH   4  21
TORSDOF 5
ENDMDL
MODEL 3
REMARK VINA RESULT: -6.318321432      3.569      6.580
REMARK  5 active torsions:
REMARK  status: ('A' for Active; 'I' for Inactive)
REMARK    1  A    between atoms: N1_2  and  C2_4 
REMARK    2  A    between atoms: C2_4  and  C3_6 
REMARK    3  A    between atoms: C3_6  and  S2_7 
REMARK    4  A    between atoms: S2_7  and  C4_8 
REMARK    5  A    between atoms: C5_11  and  N3_12 
ROOT
HETATM    1  C4  UNL     1      53.273 -19.027  89.663  1.00  0.00     0.147 A 
HETATM    2  N2  UNL     1      53.294 -20.309  89.283  1.00  0.00    -0.323 N 
ATOM      3  H2  UNL     1      52.397 -20.790  89.222  1.00  0.00     0.169 HD
HETATM    4  C5  UNL     1      54.388 -21.018  88.976  1.00  0.00     0.114 A 
HETATM    5  C6  UNL     1      55.657 -20.406  89.043  1.00  0.00     0.048 A 
HETATM    6  C7  UNL     1      56.859 -20.944  88.776  1.00  0.00    -0.033 A 
HETATM    7  C8  UNL     1      57.079 -22.383  88.333  1.00  0.00     0.050 C 
HETATM    8  C9  UNL     1      57.953 -20.135  88.917  1.00  0.00    -0.012 A 
HETATM    9  C10 UNL     1      59.400 -20.421  88.703  1.00  0.00     0.057 C 
HETATM   10  S3  UNL     1      57.285 -18.653  89.414  1.00  0.00    -0.076 SA
HETATM   11  C11 UNL     1      55.623 -19.098  89.432  1.00  0.00     0.091 A 
HETATM   12  N4  UNL     1      54.469 -18.428  89.733  1.00  0.00    -0.330 N 
ATOM     13  H4  UNL     1      54.520 -17.450  90.017  1.00  0.00     0.168 HD
ENDROOT
BRANCH   1  14
HETATM   14  S2  UNL     1      51.750 -18.171  90.044  1.00  0.00    -0.087 SA
BRANCH  14  15
HETATM   15  C3  UNL     1      51.101 -17.272  88.649  1.00  0.00     0.151 C 
BRANCH  15  16
HETATM   16  C2  UNL     1      51.287 -18.067  87.419  1.00  0.00     0.082 C 
HETATM   17  S1  UNL     1      50.241 -19.256  87.054  1.00  0.00    -0.065 SA
BRANCH  16  18
HETATM   18  N1  UNL     1      52.369 -17.778  86.565  1.00  0.00    -0.388 N 
HETATM   19  C1  UNL     1      53.134 -18.864  85.998  1.00  0.00     0.147 C 
ATOM     20  H1  UNL     1      52.611 -16.811  86.348  1.00  0.00     0.159 HD
ENDBRANCH  16  18
ENDBRANCH  15  16
ENDBRANCH  14  15
ENDBRANCH   1  14
BRANCH   4  21
HETATM   21  N3  UNL     1      54.253 -22.258  88.622  1.00  0.00    -0.385 N 
ATOM     22  H32 UNL     1      53.689 -22.910  89.169  1.00  0.00     0.157 HD
ATOM     23  H31 UNL     1      54.724 -22.584  87.778  1.00  0.00     0.157 HD
ENDBRANCH   4  21
TORSDOF 5
ENDMDL
MODEL 4
REMARK VINA RESULT: -6.305552998      1.965      2.340
REMARK  5 active torsions:
REMARK  status: ('A' for Active; 'I' for Inactive)
REMARK    1  A    between atoms: N1_2  and  C2_4 
REMARK    2  A    between atoms: C2_4  and  C3_6 
REMARK    3  A    between atoms: C3_6  and  S2_7 
REMARK    4  A    between atoms: S2_7  and  C4_8 
REMARK    5  A    between atoms: C5_11  and  N3_12 
ROOT
HETATM    1  C4  UNL     1      58.284 -21.453  87.676  1.00  0.00     0.147 A 
HETATM    2  N2  UNL     1      57.358 -22.353  88.021  1.00  0.00    -0.323 N 
ATOM      3  H2  UNL     1      57.507 -23.313  87.711  1.00  0.00     0.169 HD
HETATM    4  C5  UNL     1      56.254 -22.108  88.737  1.00  0.00     0.114 A 
HETATM    5  C6  UNL     1      55.996 -20.799  89.193  1.00  0.00     0.048 A 
HETATM    6  C7  UNL     1      54.954 -20.357  89.917  1.00  0.00    -0.033 A 
HETATM    7  C8  UNL     1      53.806 -21.233  90.399  1.00  0.00     0.050 C 
HETATM    8  C9  UNL     1      54.932 -19.027  90.238  1.00  0.00    -0.012 A 
HETATM    9  C10 UNL     1      53.935 -18.237  91.014  1.00  0.00     0.057 C 
HETATM   10  S3  UNL     1      56.354 -18.428  89.526  1.00  0.00    -0.076 SA
HETATM   11  C11 UNL     1      56.947 -19.888  88.835  1.00  0.00     0.091 A 
HETATM   12  N4  UNL     1      58.057 -20.203  88.100  1.00  0.00    -0.330 N 
ATOM     13  H4  UNL     1      58.727 -19.469  87.870  1.00  0.00     0.168 HD
ENDROOT
BRANCH   1  14
HETATM   14  S2  UNL     1      59.731 -21.891  86.720  1.00  0.00    -0.087 SA
BRANCH  14  15
HETATM   15  C3  UNL     1      59.321 -22.706  85.190  1.00  0.00     0.151 C 
BRANCH  15  16
HETATM   16  C2  UNL     1      59.041 -21.695  84.151  1.00  0.00     0.082 C 
HETATM   17  S1  UNL     1      60.265 -20.879  83.461  1.00  0.00    -0.065 SA
BRANCH  16  18
HETATM   18  N1  UNL     1      57.709 -21.455  83.759  1.00  0.00    -0.388 N 
HETATM   19  C1  UNL     1      56.639 -22.169  84.416  1.00  0.00     0.147 C 
ATOM     20  H1  UNL     1      57.502 -20.784  83.019  1.00  0.00     0.159 HD
ENDBRANCH  16  18
ENDBRANCH  15  16
ENDBRANCH  14  15
ENDBRANCH   1  14
BRANCH   4  21
HETATM   21  N3  UNL     1      55.443 -23.087  88.995  1.00  0.00    -0.385 N 
ATOM     22  H32 UNL     1      55.138 -23.732  88.266  1.00  0.00     0.157 HD
ATOM     23  H31 UNL     1      55.106 -23.209  89.950  1.00  0.00     0.157 HD
ENDBRANCH   4  21
TORSDOF 5
ENDMDL
MODEL 5
REMARK VINA RESULT: -6.227623717      3.606      6.840
REMARK  5 active torsions:
REMARK  status: ('A' for Active; 'I' for Inactive)
REMARK    1  A    between atoms: N1_2  and  C2_4 
REMARK    2  A    between atoms: C2_4  and  C3_6 
REMARK    3  A    between atoms: C3_6  and  S2_7 
REMARK    4  A    between atoms: S2_7  and  C4_8 
REMARK    5  A    between atoms: C5_11  and  N3_12 
ROOT
HETATM    1  C4  UNL     1      53.179 -19.518  89.385  1.00  0.00     0.147 A 
HETATM    2  N2  UNL     1      53.995 -18.494  89.651  1.00  0.00    -0.323 N 
ATOM      3  H2  UNL     1      53.560 -17.612  89.920  1.00  0.00     0.169 HD
HETATM    4  C5  UNL     1      55.333 -18.522  89.597  1.00  0.00     0.114 A 
HETATM    5  C6  UNL     1      55.990 -19.715  89.231  1.00  0.00     0.048 A 
HETATM    6  C7  UNL     1      57.310 -19.941  89.121  1.00  0.00    -0.033 A 
HETATM    7  C8  UNL     1      58.388 -18.899  89.384  1.00  0.00     0.050 C 
HETATM    8  C9  UNL     1      57.702 -21.197  88.746  1.00  0.00    -0.012 A 
HETATM    9  C10 UNL     1      59.065 -21.761  88.536  1.00  0.00     0.057 C 
HETATM   10  S3  UNL     1      56.231 -22.027  88.557  1.00  0.00    -0.076 SA
HETATM   11  C11 UNL     1      55.147 -20.754  88.961  1.00  0.00     0.091 A 
HETATM   12  N4  UNL     1      53.785 -20.660  89.035  1.00  0.00    -0.330 N 
ATOM     13  H4  UNL     1      53.217 -21.479  88.818  1.00  0.00     0.168 HD
ENDROOT
BRANCH   1  14
HETATM   14  S2  UNL     1      51.400 -19.374  89.495  1.00  0.00    -0.087 SA
BRANCH  14  15
HETATM   15  C3  UNL     1      50.741 -18.145  88.384  1.00  0.00     0.151 C 
BRANCH  15  16
HETATM   16  C2  UNL     1      51.113 -18.484  86.996  1.00  0.00     0.082 C 
HETATM   17  S1  UNL     1      50.152 -19.449  86.111  1.00  0.00    -0.065 SA
BRANCH  16  18
HETATM   18  N1  UNL     1      52.299 -17.956  86.448  1.00  0.00    -0.388 N 
HETATM   19  C1  UNL     1      53.271 -18.852  85.868  1.00  0.00     0.147 C 
ATOM     20  H1  UNL     1      52.468 -16.950  86.461  1.00  0.00     0.159 HD
ENDBRANCH  16  18
ENDBRANCH  15  16
ENDBRANCH  14  15
ENDBRANCH   1  14
BRANCH   4  21
HETATM   21  N3  UNL     1      55.995 -17.445  89.885  1.00  0.00    -0.385 N 
ATOM     22  H32 UNL     1      56.440 -16.883  89.159  1.00  0.00     0.157 HD
ATOM     23  H31 UNL     1      56.071 -17.159  90.861  1.00  0.00     0.157 HD
ENDBRANCH   4  21
TORSDOF 5
ENDMDL
