MODEL 1
REMARK VINA RESULT: -6.788421214      0.000      0.000
REMARK  6 active torsions:
REMARK  status: ('A' for Active; 'I' for Inactive)
REMARK    1  A    between atoms: C4_5  and  C5_6 
REMARK    2  A    between atoms: C5_6  and  N1_7 
REMARK    3  A    between atoms: N1_7  and  C6_10 
REMARK    4  A    between atoms: C10_16  and  N3_17 
REMARK    5  A    between atoms: N3_17  and  C11_19 
REMARK    6  A    between atoms: C11_19  and  N4_21 
REMARK       I    between atoms: N4_21  and  C12_23 
ROOT
HETATM    1  C1  UNL     1      57.278 -24.318  83.867  1.00  0.00     0.018 C 
HETATM    2  C2  UNL     1      57.447 -23.523  84.754  1.00  0.00    -0.066 C 
HETATM    3  C3  UNL     1      57.628 -22.564  85.835  1.00  0.00     0.103 A 
HETATM    4  S1  UNL     1      56.474 -21.861  86.881  1.00  0.00    -0.062 SA
HETATM    5  C4  UNL     1      57.511 -20.888  87.817  1.00  0.00     0.079 A 
HETATM    6  N2  UNL     1      58.680 -21.153  87.280  1.00  0.00    -0.337 N 
ATOM      7  H2  UNL     1      59.512 -20.696  87.651  1.00  0.00     0.168 HD
HETATM    8  C10 UNL     1      58.802 -21.978  86.292  1.00  0.00     0.134 A 
ENDROOT
BRANCH   8   9
HETATM    9  N3  UNL     1      60.081 -22.283  85.690  1.00  0.00    -0.317 N 
ATOM     10  H3  UNL     1      60.452 -23.218  85.866  1.00  0.00     0.170 HD
BRANCH   9  11
HETATM   11  C11 UNL     1      60.860 -21.454  84.903  1.00  0.00     0.179 C 
HETATM   12  S2  UNL     1      60.180 -20.968  83.464  1.00  0.00    -0.040 SA
BRANCH  11  13
HETATM   13  N4  UNL     1      62.143 -20.983  85.176  1.00  0.00    -0.304 N 
HETATM   14  C12 UNL     1      62.454 -20.243  86.377  1.00  0.00     0.219 C 
HETATM   15  C13 UNL     1      63.866 -19.785  86.564  1.00  0.00     0.117 C 
HETATM   16  O1  UNL     1      61.571 -19.992  87.232  1.00  0.00    -0.274 OA
ATOM     17  H4  UNL     1      62.889 -21.168  84.505  1.00  0.00     0.171 HD
ENDBRANCH  11  13
ENDBRANCH   9  11
ENDBRANCH   8   9
BRANCH   5  18
HETATM   18  C5  UNL     1      57.116 -19.992  88.935  1.00  0.00     0.297 C 
BRANCH  18  19
HETATM   19  N1  UNL     1      55.844 -19.346  88.685  1.00  0.00    -0.062 N 
ATOM     20  H12 UNL     1      55.952 -18.335  88.598  1.00  0.00     0.278 HD
ATOM     21  H11 UNL     1      55.502 -19.552  87.747  1.00  0.00     0.278 HD
BRANCH  19  22
HETATM   22  C6  UNL     1      54.861 -19.687  89.692  1.00  0.00     0.115 C 
HETATM   23  C7  UNL     1      54.375 -18.500  90.469  1.00  0.00     0.045 C 
HETATM   24  C8  UNL     1      53.653 -20.361  89.059  1.00  0.00     0.045 C 
HETATM   25  C9  UNL     1      55.427 -20.687  90.696  1.00  0.00     0.045 C 
ENDBRANCH  19  22
ENDBRANCH  18  19
ENDBRANCH   5  18
TORSDOF 6
ENDMDL
MODEL 2
REMARK VINA RESULT: -6.535545119      2.036      3.681
REMARK  6 active torsions:
REMARK  status: ('A' for Active; 'I' for Inactive)
REMARK    1  A    between atoms: C4_5  and  C5_6 
REMARK    2  A    between atoms: C5_6  and  N1_7 
REMARK    3  A    between atoms: N1_7  and  C6_10 
REMARK    4  A    between atoms: C10_16  and  N3_17 
REMARK    5  A    between atoms: N3_17  and  C11_19 
REMARK    6  A    between atoms: C11_19  and  N4_21 
REMARK       I    between atoms: N4_21  and  C12_23 
ROOT
HETATM    1  C1  UNL     1      60.033 -19.591  89.545  1.00  0.00     0.018 C 
HETATM    2  C2  UNL     1      58.895 -19.735  89.184  1.00  0.00    -0.066 C 
HETATM    3  C3  UNL     1      57.511 -19.886  88.755  1.00  0.00     0.103 A 
HETATM    4  S1  UNL     1      56.140 -18.933  89.120  1.00  0.00    -0.062 SA
HETATM    5  C4  UNL     1      54.968 -19.789  88.230  1.00  0.00     0.079 A 
HETATM    6  N2  UNL     1      55.687 -20.754  87.704  1.00  0.00    -0.337 N 
ATOM      7  H2  UNL     1      55.232 -21.442  87.103  1.00  0.00     0.168 HD
HETATM    8  C10 UNL     1      56.956 -20.855  87.927  1.00  0.00     0.134 A 
ENDROOT
BRANCH   8   9
HETATM    9  N3  UNL     1      57.764 -21.910  87.355  1.00  0.00    -0.317 N 
ATOM     10  H3  UNL     1      58.130 -22.603  88.008  1.00  0.00     0.170 HD
BRANCH   9  11
HETATM   11  C11 UNL     1      58.096 -22.086  86.024  1.00  0.00     0.179 C 
HETATM   12  S2  UNL     1      57.064 -23.045  85.138  1.00  0.00    -0.040 SA
BRANCH  11  13
HETATM   13  N4  UNL     1      59.192 -21.557  85.345  1.00  0.00    -0.304 N 
HETATM   14  C12 UNL     1      60.510 -21.500  85.933  1.00  0.00     0.219 C 
HETATM   15  C13 UNL     1      61.612 -20.910  85.111  1.00  0.00     0.117 C 
HETATM   16  O1  UNL     1      60.724 -21.930  87.093  1.00  0.00    -0.274 OA
ATOM     17  H4  UNL     1      59.059 -21.199  84.399  1.00  0.00     0.171 HD
ENDBRANCH  11  13
ENDBRANCH   9  11
ENDBRANCH   8   9
BRANCH   5  18
HETATM   18  C5  UNL     1      53.521 -19.465  88.129  1.00  0.00     0.297 C 
BRANCH  18  19
HETATM   19  N1  UNL     1      53.167 -18.318  88.938  1.00  0.00    -0.062 N 
ATOM     20  H12 UNL     1      53.996 -17.794  89.221  1.00  0.00     0.278 HD
ATOM     21  H11 UNL     1      52.705 -17.599  88.382  1.00  0.00     0.278 HD
BRANCH  19  22
HETATM   22  C6  UNL     1      52.366 -18.694  90.083  1.00  0.00     0.115 C 
HETATM   23  C7  UNL     1      52.977 -18.291  91.392  1.00  0.00     0.045 C 
HETATM   24  C8  UNL     1      50.980 -18.070  90.001  1.00  0.00     0.045 C 
HETATM   25  C9  UNL     1      52.148 -20.203  90.129  1.00  0.00     0.045 C 
ENDBRANCH  19  22
ENDBRANCH  18  19
ENDBRANCH   5  18
TORSDOF 6
ENDMDL
MODEL 3
REMARK VINA RESULT: -6.530622047      3.028      7.241
REMARK  6 active torsions:
REMARK  status: ('A' for Active; 'I' for Inactive)
REMARK    1  A    between atoms: C4_5  and  C5_6 
REMARK    2  A    between atoms: C5_6  and  N1_7 
REMARK    3  A    between atoms: N1_7  and  C6_10 
REMARK    4  A    between atoms: C10_16  and  N3_17 
REMARK    5  A    between atoms: N3_17  and  C11_19 
REMARK    6  A    between atoms: C11_19  and  N4_21 
REMARK       I    between atoms: N4_21  and  C12_23 
ROOT
HETATM    1  C1  UNL     1      55.183 -21.786  90.696  1.00  0.00     0.018 C 
HETATM    2  C2  UNL     1      55.449 -21.701  89.526  1.00  0.00    -0.066 C 
HETATM    3  C3  UNL     1      55.777 -21.623  88.109  1.00  0.00     0.103 A 
HETATM    4  S1  UNL     1      56.580 -22.750  87.106  1.00  0.00    -0.062 SA
HETATM    5  C4  UNL     1      56.539 -21.888  85.639  1.00  0.00     0.079 A 
HETATM    6  N2  UNL     1      55.916 -20.787  85.995  1.00  0.00    -0.337 N 
ATOM      7  H2  UNL     1      55.746 -20.064  85.296  1.00  0.00     0.168 HD
HETATM    8  C10 UNL     1      55.513 -20.598  87.208  1.00  0.00     0.134 A 
ENDROOT
BRANCH   8   9
HETATM    9  N3  UNL     1      54.823 -19.394  87.618  1.00  0.00    -0.317 N 
ATOM     10  H3  UNL     1      55.394 -18.552  87.697  1.00  0.00     0.170 HD
BRANCH   9  11
HETATM   11  C11 UNL     1      53.480 -19.253  87.916  1.00  0.00     0.179 C 
HETATM   12  S2  UNL     1      52.432 -19.405  86.632  1.00  0.00    -0.040 SA
BRANCH  11  13
HETATM   13  N4  UNL     1      52.908 -18.999  89.161  1.00  0.00    -0.304 N 
HETATM   14  C12 UNL     1      53.674 -18.486  90.272  1.00  0.00     0.219 C 
HETATM   15  C13 UNL     1      52.954 -18.252  91.562  1.00  0.00     0.117 C 
HETATM   16  O1  UNL     1      54.900 -18.244  90.159  1.00  0.00    -0.274 OA
ATOM     17  H4  UNL     1      51.913 -19.182  89.291  1.00  0.00     0.171 HD
ENDBRANCH  11  13
ENDBRANCH   9  11
ENDBRANCH   8   9
BRANCH   5  18
HETATM   18  C5  UNL     1      57.094 -22.332  84.333  1.00  0.00     0.297 C 
BRANCH  18  19
HETATM   19  N1  UNL     1      58.072 -21.398  83.817  1.00  0.00    -0.062 N 
ATOM     20  H12 UNL     1      57.905 -21.193  82.831  1.00  0.00     0.278 HD
ATOM     21  H11 UNL     1      57.931 -20.464  84.200  1.00  0.00     0.278 HD
BRANCH  19  22
HETATM   22  C6  UNL     1      59.425 -21.860  84.037  1.00  0.00     0.115 C 
HETATM   23  C7  UNL     1      59.849 -21.789  85.473  1.00  0.00     0.045 C 
HETATM   24  C8  UNL     1      59.586 -23.300  83.572  1.00  0.00     0.045 C 
HETATM   25  C9  UNL     1      60.425 -21.040  83.227  1.00  0.00     0.045 C 
ENDBRANCH  19  22
ENDBRANCH  18  19
ENDBRANCH   5  18
TORSDOF 6
ENDMDL
MODEL 4
REMARK VINA RESULT: -6.444394266      1.976      3.729
REMARK  6 active torsions:
REMARK  status: ('A' for Active; 'I' for Inactive)
REMARK    1  A    between atoms: C4_5  and  C5_6 
REMARK    2  A    between atoms: C5_6  and  N1_7 
REMARK    3  A    between atoms: N1_7  and  C6_10 
REMARK    4  A    between atoms: C10_16  and  N3_17 
REMARK    5  A    between atoms: N3_17  and  C11_19 
REMARK    6  A    between atoms: C11_19  and  N4_21 
REMARK       I    between atoms: N4_21  and  C12_23 
ROOT
HETATM    1  C1  UNL     1      60.689 -18.843  90.217  1.00  0.00     0.018 C 
HETATM    2  C2  UNL     1      59.611 -19.155  89.783  1.00  0.00    -0.066 C 
HETATM    3  C3  UNL     1      58.297 -19.509  89.265  1.00  0.00     0.103 A 
HETATM    4  S1  UNL     1      56.789 -18.735  89.481  1.00  0.00    -0.062 SA
HETATM    5  C4  UNL     1      55.812 -19.779  88.556  1.00  0.00     0.079 A 
HETATM    6  N2  UNL     1      56.690 -20.660  88.135  1.00  0.00    -0.337 N 
ATOM      7  H2  UNL     1      56.377 -21.428  87.541  1.00  0.00     0.168 HD
HETATM    8  C10 UNL     1      57.940 -20.579  88.454  1.00  0.00     0.134 A 
ENDROOT
BRANCH   8   9
HETATM    9  N3  UNL     1      58.921 -21.539  87.997  1.00  0.00    -0.317 N 
ATOM     10  H3  UNL     1      59.453 -22.021  88.723  1.00  0.00     0.170 HD
BRANCH   9  11
HETATM   11  C11 UNL     1      59.221 -21.880  86.691  1.00  0.00     0.179 C 
HETATM   12  S2  UNL     1      57.923 -22.012  85.658  1.00  0.00    -0.040 SA
BRANCH  11  13
HETATM   13  N4  UNL     1      60.480 -22.124  86.144  1.00  0.00    -0.304 N 
HETATM   14  C12 UNL     1      61.587 -21.213  86.319  1.00  0.00     0.219 C 
HETATM   15  C13 UNL     1      62.892 -21.578  85.685  1.00  0.00     0.117 C 
HETATM   16  O1  UNL     1      61.458 -20.154  86.979  1.00  0.00    -0.274 OA
ATOM     17  H4  UNL     1      60.624 -22.977  85.603  1.00  0.00     0.171 HD
ENDBRANCH  11  13
ENDBRANCH   9  11
ENDBRANCH   8   9
BRANCH   5  18
HETATM   18  C5  UNL     1      54.347 -19.658  88.335  1.00  0.00     0.297 C 
BRANCH  18  19
HETATM   19  N1  UNL     1      53.786 -18.527  89.044  1.00  0.00    -0.062 N 
ATOM     20  H12 UNL     1      54.519 -17.934  89.437  1.00  0.00     0.278 HD
ATOM     21  H11 UNL     1      53.366 -17.856  88.401  1.00  0.00     0.278 HD
BRANCH  19  22
HETATM   22  C6  UNL     1      52.845 -18.943  90.061  1.00  0.00     0.115 C 
HETATM   23  C7  UNL     1      52.458 -20.388  89.954  1.00  0.00     0.045 C 
HETATM   24  C8  UNL     1      53.416 -18.713  91.453  1.00  0.00     0.045 C 
HETATM   25  C9  UNL     1      51.560 -18.122  89.990  1.00  0.00     0.045 C 
ENDBRANCH  19  22
ENDBRANCH  18  19
ENDBRANCH   5  18
TORSDOF 6
ENDMDL
MODEL 5
REMARK VINA RESULT: -6.402516051      2.887      3.981
REMARK  6 active torsions:
REMARK  status: ('A' for Active; 'I' for Inactive)
REMARK    1  A    between atoms: C4_5  and  C5_6 
REMARK    2  A    between atoms: C5_6  and  N1_7 
REMARK    3  A    between atoms: N1_7  and  C6_10 
REMARK    4  A    between atoms: C10_16  and  N3_17 
REMARK    5  A    between atoms: N3_17  and  C11_19 
REMARK    6  A    between atoms: C11_19  and  N4_21 
REMARK       I    between atoms: N4_21  and  C12_23 
ROOT
HETATM    1  C1  UNL     1      59.553 -21.062  88.412  1.00  0.00     0.018 C 
HETATM    2  C2  UNL     1      58.388 -20.877  88.177  1.00  0.00    -0.066 C 
HETATM    3  C3  UNL     1      56.978 -20.631  87.906  1.00  0.00     0.103 A 
HETATM    4  S1  UNL     1      55.898 -19.525  88.637  1.00  0.00    -0.062 SA
HETATM    5  C4  UNL     1      54.494 -19.884  87.743  1.00  0.00     0.079 A 
HETATM    6  N2  UNL     1      54.927 -20.828  86.938  1.00  0.00    -0.337 N 
ATOM      7  H2  UNL     1      54.279 -21.245  86.269  1.00  0.00     0.168 HD
HETATM    8  C10 UNL     1      56.151 -21.240  86.971  1.00  0.00     0.134 A 
ENDROOT
BRANCH   8   9
HETATM    9  N3  UNL     1      56.645 -22.276  86.090  1.00  0.00    -0.317 N 
ATOM     10  H3  UNL     1      56.925 -23.151  86.534  1.00  0.00     0.170 HD
BRANCH   9  11
HETATM   11  C11 UNL     1      56.781 -22.217  84.715  1.00  0.00     0.179 C 
HETATM   12  S2  UNL     1      55.636 -23.044  83.835  1.00  0.00    -0.040 SA
BRANCH  11  13
HETATM   13  N4  UNL     1      57.764 -21.549  83.987  1.00  0.00    -0.304 N 
HETATM   14  C12 UNL     1      59.173 -21.731  84.245  1.00  0.00     0.219 C 
HETATM   15  C13 UNL     1      60.138 -20.960  83.401  1.00  0.00     0.117 C 
HETATM   16  O1  UNL     1      59.574 -22.508  85.145  1.00  0.00    -0.274 OA
ATOM     17  H4  UNL     1      57.478 -20.910  83.245  1.00  0.00     0.171 HD
ENDBRANCH  11  13
ENDBRANCH   9  11
ENDBRANCH   8   9
BRANCH   5  18
HETATM   18  C5  UNL     1      53.158 -19.252  87.899  1.00  0.00     0.297 C 
BRANCH  18  19
HETATM   19  N1  UNL     1      53.148 -18.268  88.961  1.00  0.00    -0.062 N 
ATOM     20  H12 UNL     1      54.096 -18.021  89.248  1.00  0.00     0.278 HD
ATOM     21  H11 UNL     1      52.842 -17.357  88.621  1.00  0.00     0.278 HD
BRANCH  19  22
HETATM   22  C6  UNL     1      52.353 -18.703  90.090  1.00  0.00     0.115 C 
HETATM   23  C7  UNL     1      52.151 -20.188  90.133  1.00  0.00     0.045 C 
HETATM   24  C8  UNL     1      52.999 -18.280  91.401  1.00  0.00     0.045 C 
HETATM   25  C9  UNL     1      50.971 -18.057  90.070  1.00  0.00     0.045 C 
ENDBRANCH  19  22
ENDBRANCH  18  19
ENDBRANCH   5  18
TORSDOF 6
ENDMDL
