MODEL 1
REMARK VINA RESULT: -7.028880226      0.000      0.000
REMARK  13 active torsions:
REMARK  status: ('A' for Active; 'I' for Inactive)
REMARK    1  A    between atoms: C2_2  and  C3_3 
REMARK    2  A    between atoms: C3_3  and  C4_4 
REMARK    3  A    between atoms: C4_4  and  C5_5 
REMARK    4  A    between atoms: C5_5  and  O1_6 
REMARK    5  A    between atoms: O1_6  and  C6_7 
REMARK       I    between atoms: C6_7  and  N1_9 
REMARK    6  A    between atoms: C11_15  and  C12_16 
REMARK    7  A    between atoms: C12_16  and  O3_18 
REMARK    8  A    between atoms: C17_22  and  C18_23 
REMARK    9  A    between atoms: C19_24  and  O4_25 
REMARK   10  A    between atoms: C19_24  and  N2_27 
REMARK   11  A    between atoms: N2_27  and  O5_28 
REMARK   12  A    between atoms: C20_30  and  O6_31 
REMARK   13  A    between atoms: O6_31  and  C21_32 
ROOT
HETATM    1  C5  UNL     1      29.765   5.099  -4.303  1.00  0.00     0.103 C 
HETATM    2  C8  UNL     1      28.857   4.302  -3.420  1.00  0.00    -0.012 A 
HETATM    3  C9  UNL     1      27.578   4.843  -3.513  1.00  0.00     0.012 A 
HETATM    4  C10 UNL     1      26.491   4.344  -2.804  1.00  0.00     0.010 A 
HETATM    5  C11 UNL     1      26.654   3.268  -1.968  1.00  0.00    -0.029 A 
HETATM    6  C15 UNL     1      27.902   2.707  -1.854  1.00  0.00     0.022 A 
HETATM    7  C16 UNL     1      29.000   3.227  -2.582  1.00  0.00    -0.017 A 
HETATM    8  C17 UNL     1      30.058   2.322  -2.138  1.00  0.00    -0.013 C 
HETATM    9  C20 UNL     1      31.415   2.685  -1.580  1.00  0.00     0.156 C 
HETATM   10  C29 UNL     1      32.305   2.948  -2.784  1.00  0.00     0.037 C 
HETATM   11  C30 UNL     1      31.996   4.433  -3.121  1.00  0.00     0.010 C 
HETATM   12  C31 UNL     1      31.186   4.554  -4.263  1.00  0.00     0.022 C 
HETATM   13  C32 UNL     1      31.930   5.295  -5.382  1.00  0.00     0.013 C 
ENDROOT
BRANCH   1  14
HETATM   14  C4  UNL     1      29.652   6.538  -4.023  1.00  0.00     0.044 C 
BRANCH  14  15
HETATM   15  C3  UNL     1      30.194   7.168  -2.803  1.00  0.00     0.003 C 
BRANCH  15  16
HETATM   16  C2  UNL     1      29.050   7.600  -1.847  1.00  0.00    -0.004 C 
HETATM   17  C1  UNL     1      28.965   6.760  -0.627  1.00  0.00     0.005 C 
ENDBRANCH  15  16
ENDBRANCH  14  15
ENDBRANCH   1  14
BRANCH   1  18
HETATM   18  O1  UNL     1      29.471   4.791  -5.552  1.00  0.00    -0.287 OA
BRANCH  18  19
HETATM   19  C6  UNL     1      29.150   4.505  -6.743  1.00  0.00     0.361 C 
HETATM   20  O2  UNL     1      28.916   3.241  -6.756  1.00  0.00    -0.238 OA
HETATM   21  N1  UNL     1      28.998   5.175  -7.965  1.00  0.00    -0.341 N 
HETATM   22  C7  UNL     1      28.606   4.524  -9.180  1.00  0.00     0.151 C 
ATOM     23  H1  UNL     1      29.176   6.179  -7.990  1.00  0.00     0.164 HD
ENDBRANCH  18  19
ENDBRANCH   1  18
BRANCH   8  24
HETATM   24  C18 UNL     1      29.842   1.060  -2.345  1.00  0.00     0.085 C 
HETATM   25  C19 UNL     1      29.222   0.151  -3.220  1.00  0.00     0.247 C 
BRANCH  25  26
HETATM   26  O4  UNL     1      29.288  -1.258  -2.684  1.00  0.00    -0.334 OA
ATOM     27  H4  UNL     1      28.876  -1.324  -1.831  1.00  0.00     0.220 HD
ENDBRANCH  25  26
BRANCH  25  28
HETATM   28  N2  UNL     1      28.665   0.122  -4.279  1.00  0.00    -0.258 NA
BRANCH  28  29
HETATM   29  O5  UNL     1      28.300  -0.276  -5.424  1.00  0.00    -0.216 OA
ATOM     30  H5  UNL     1      28.344  -0.544  -6.334  1.00  0.00     0.261 HD
ENDBRANCH  28  29
ENDBRANCH  25  28
ENDBRANCH   8  24
BRANCH   5  31
HETATM   31  C12 UNL     1      25.511   2.703  -1.215  1.00  0.00     0.149 C 
HETATM   32  C13 UNL     1      25.297   3.377   0.132  1.00  0.00     0.045 C 
BRANCH  31  33
HETATM   33  O3  UNL     1      25.593   1.333  -1.037  1.00  0.00    -0.386 OA
HETATM   34  C14 UNL     1      25.358   0.994   0.280  1.00  0.00     0.202 C 
ENDBRANCH  31  33
ENDBRANCH   5  31
BRANCH   9  35
HETATM   35  O6  UNL     1      31.912   1.589  -0.901  1.00  0.00    -0.376 OA
BRANCH  35  36
HETATM   36  C21 UNL     1      32.942   1.976  -0.088  1.00  0.00     0.127 C 
HETATM   37  C22 UNL     1      32.828   3.424   0.356  1.00  0.00     0.037 C 
HETATM   38  C23 UNL     1      32.813   3.224   1.855  1.00  0.00    -0.003 C 
HETATM   39  C24 UNL     1      33.969   2.219   1.976  1.00  0.00     0.013 C 
HETATM   40  C26 UNL     1      31.934   2.026   2.109  1.00  0.00    -0.038 C 
HETATM   41  C25 UNL     1      32.958   1.303   1.265  1.00  0.00     0.023 C 
HETATM   42  C27 UNL     1      30.546   2.062   1.565  1.00  0.00     0.015 C 
HETATM   43  C28 UNL     1      32.000   1.576   3.552  1.00  0.00     0.015 C 
ENDBRANCH  35  36
ENDBRANCH   9  35
TORSDOF 13
ENDMDL
MODEL 2
REMARK VINA RESULT: -6.924475274      0.974      1.629
REMARK  13 active torsions:
REMARK  status: ('A' for Active; 'I' for Inactive)
REMARK    1  A    between atoms: C2_2  and  C3_3 
REMARK    2  A    between atoms: C3_3  and  C4_4 
REMARK    3  A    between atoms: C4_4  and  C5_5 
REMARK    4  A    between atoms: C5_5  and  O1_6 
REMARK    5  A    between atoms: O1_6  and  C6_7 
REMARK       I    between atoms: C6_7  and  N1_9 
REMARK    6  A    between atoms: C11_15  and  C12_16 
REMARK    7  A    between atoms: C12_16  and  O3_18 
REMARK    8  A    between atoms: C17_22  and  C18_23 
REMARK    9  A    between atoms: C19_24  and  O4_25 
REMARK   10  A    between atoms: C19_24  and  N2_27 
REMARK   11  A    between atoms: N2_27  and  O5_28 
REMARK   12  A    between atoms: C20_30  and  O6_31 
REMARK   13  A    between atoms: O6_31  and  C21_32 
ROOT
HETATM    1  C5  UNL     1      29.719   4.998  -4.446  1.00  0.00     0.103 C 
HETATM    2  C8  UNL     1      28.822   4.170  -3.580  1.00  0.00    -0.012 A 
HETATM    3  C9  UNL     1      27.615   4.847  -3.433  1.00  0.00     0.012 A 
HETATM    4  C10 UNL     1      26.559   4.358  -2.673  1.00  0.00     0.010 A 
HETATM    5  C11 UNL     1      26.681   3.153  -2.027  1.00  0.00    -0.029 A 
HETATM    6  C15 UNL     1      27.857   2.457  -2.152  1.00  0.00     0.022 A 
HETATM    7  C16 UNL     1      28.924   2.968  -2.929  1.00  0.00    -0.017 A 
HETATM    8  C17 UNL     1      29.907   1.901  -2.755  1.00  0.00    -0.013 C 
HETATM    9  C20 UNL     1      31.351   2.031  -2.325  1.00  0.00     0.156 C 
HETATM   10  C29 UNL     1      32.130   2.387  -3.580  1.00  0.00     0.037 C 
HETATM   11  C30 UNL     1      31.968   3.930  -3.659  1.00  0.00     0.010 C 
HETATM   12  C31 UNL     1      31.060   4.310  -4.662  1.00  0.00     0.022 C 
HETATM   13  C32 UNL     1      31.762   5.138  -5.747  1.00  0.00     0.013 C 
ENDROOT
BRANCH   1  14
HETATM   14  C4  UNL     1      29.811   6.380  -3.950  1.00  0.00     0.044 C 
BRANCH  14  15
HETATM   15  C3  UNL     1      30.429   6.734  -2.658  1.00  0.00     0.003 C 
BRANCH  15  16
HETATM   16  C2  UNL     1      29.386   7.370  -1.699  1.00  0.00    -0.004 C 
HETATM   17  C1  UNL     1      29.053   6.500  -0.543  1.00  0.00     0.005 C 
ENDBRANCH  15  16
ENDBRANCH  14  15
ENDBRANCH   1  14
BRANCH   1  18
HETATM   18  O1  UNL     1      29.257   4.922  -5.679  1.00  0.00    -0.287 OA
BRANCH  18  19
HETATM   19  C6  UNL     1      28.836   4.816  -6.869  1.00  0.00     0.361 C 
HETATM   20  O2  UNL     1      27.968   3.867  -6.858  1.00  0.00    -0.238 OA
HETATM   21  N1  UNL     1      29.064   5.431  -8.107  1.00  0.00    -0.341 N 
HETATM   22  C7  UNL     1      28.389   5.052  -9.314  1.00  0.00     0.151 C 
ATOM     23  H1  UNL     1      29.746   6.187  -8.152  1.00  0.00     0.164 HD
ENDBRANCH  18  19
ENDBRANCH   1  18
BRANCH   8  24
HETATM   24  C18 UNL     1      29.520   0.716  -3.113  1.00  0.00     0.085 C 
HETATM   25  C19 UNL     1      28.545   0.023  -3.851  1.00  0.00     0.247 C 
BRANCH  25  26
HETATM   26  O4  UNL     1      28.678  -1.468  -3.673  1.00  0.00    -0.334 OA
ATOM     27  H4  UNL     1      27.910  -1.837  -3.252  1.00  0.00     0.220 HD
ENDBRANCH  25  26
BRANCH  25  28
HETATM   28  N2  UNL     1      27.637   0.230  -4.604  1.00  0.00    -0.258 NA
BRANCH  28  29
HETATM   29  O5  UNL     1      26.671   0.817  -5.173  1.00  0.00    -0.216 OA
ATOM     30  H5  UNL     1      25.878   0.951  -5.680  1.00  0.00     0.261 HD
ENDBRANCH  28  29
ENDBRANCH  25  28
ENDBRANCH   8  24
BRANCH   5  31
HETATM   31  C12 UNL     1      25.566   2.597  -1.226  1.00  0.00     0.149 C 
HETATM   32  C13 UNL     1      25.310   3.377   0.054  1.00  0.00     0.045 C 
BRANCH  31  33
HETATM   33  O3  UNL     1      25.721   1.255  -0.925  1.00  0.00    -0.386 OA
HETATM   34  C14 UNL     1      25.314   0.992   0.368  1.00  0.00     0.202 C 
ENDBRANCH  31  33
ENDBRANCH   5  31
BRANCH   9  35
HETATM   35  O6  UNL     1      31.782   0.797  -1.878  1.00  0.00    -0.376 OA
BRANCH  35  36
HETATM   36  C21 UNL     1      31.837   0.794  -0.511  1.00  0.00     0.127 C 
HETATM   37  C22 UNL     1      32.437  -0.485   0.050  1.00  0.00     0.037 C 
HETATM   38  C23 UNL     1      33.592   0.103   0.828  1.00  0.00    -0.003 C 
HETATM   39  C24 UNL     1      32.855   1.260   1.519  1.00  0.00     0.013 C 
HETATM   40  C26 UNL     1      34.176   1.186  -0.043  1.00  0.00    -0.038 C 
HETATM   41  C25 UNL     1      32.801   1.798   0.079  1.00  0.00     0.023 C 
HETATM   42  C27 UNL     1      34.604   0.806  -1.421  1.00  0.00     0.015 C 
HETATM   43  C28 UNL     1      35.209   2.007   0.698  1.00  0.00     0.015 C 
ENDBRANCH  35  36
ENDBRANCH   9  35
TORSDOF 13
ENDMDL
MODEL 3
REMARK VINA RESULT: -6.581098292      1.293      1.981
REMARK  13 active torsions:
REMARK  status: ('A' for Active; 'I' for Inactive)
REMARK    1  A    between atoms: C2_2  and  C3_3 
REMARK    2  A    between atoms: C3_3  and  C4_4 
REMARK    3  A    between atoms: C4_4  and  C5_5 
REMARK    4  A    between atoms: C5_5  and  O1_6 
REMARK    5  A    between atoms: O1_6  and  C6_7 
REMARK       I    between atoms: C6_7  and  N1_9 
REMARK    6  A    between atoms: C11_15  and  C12_16 
REMARK    7  A    between atoms: C12_16  and  O3_18 
REMARK    8  A    between atoms: C17_22  and  C18_23 
REMARK    9  A    between atoms: C19_24  and  O4_25 
REMARK   10  A    between atoms: C19_24  and  N2_27 
REMARK   11  A    between atoms: N2_27  and  O5_28 
REMARK   12  A    between atoms: C20_30  and  O6_31 
REMARK   13  A    between atoms: O6_31  and  C21_32 
ROOT
HETATM    1  C5  UNL     1      30.152   4.896  -4.529  1.00  0.00     0.103 C 
HETATM    2  C8  UNL     1      29.353   4.202  -3.472  1.00  0.00    -0.012 A 
HETATM    3  C9  UNL     1      28.186   4.931  -3.262  1.00  0.00     0.012 A 
HETATM    4  C10 UNL     1      27.222   4.567  -2.329  1.00  0.00     0.010 A 
HETATM    5  C11 UNL     1      27.398   3.439  -1.567  1.00  0.00    -0.029 A 
HETATM    6  C15 UNL     1      28.537   2.695  -1.749  1.00  0.00     0.022 A 
HETATM    7  C16 UNL     1      29.511   3.079  -2.702  1.00  0.00    -0.017 A 
HETATM    8  C17 UNL     1      30.487   2.006  -2.524  1.00  0.00    -0.013 C 
HETATM    9  C20 UNL     1      31.974   2.136  -2.287  1.00  0.00     0.156 C 
HETATM   10  C29 UNL     1      32.601   2.321  -3.660  1.00  0.00     0.037 C 
HETATM   11  C30 UNL     1      32.460   3.850  -3.898  1.00  0.00     0.010 C 
HETATM   12  C31 UNL     1      31.444   4.144  -4.823  1.00  0.00     0.022 C 
HETATM   13  C32 UNL     1      32.023   4.819  -6.073  1.00  0.00     0.013 C 
ENDROOT
BRANCH   1  14
HETATM   14  C4  UNL     1      30.332   6.321  -4.213  1.00  0.00     0.044 C 
BRANCH  14  15
HETATM   15  C3  UNL     1      31.352   6.816  -3.268  1.00  0.00     0.003 C 
BRANCH  15  16
HETATM   16  C2  UNL     1      30.729   7.093  -1.873  1.00  0.00    -0.004 C 
HETATM   17  C1  UNL     1      31.019   6.023  -0.886  1.00  0.00     0.005 C 
ENDBRANCH  15  16
ENDBRANCH  14  15
ENDBRANCH   1  14
BRANCH   1  18
HETATM   18  O1  UNL     1      29.541   4.696  -5.682  1.00  0.00    -0.287 OA
BRANCH  18  19
HETATM   19  C6  UNL     1      28.952   4.544  -6.792  1.00  0.00     0.361 C 
HETATM   20  O2  UNL     1      28.121   3.578  -6.626  1.00  0.00    -0.238 OA
HETATM   21  N1  UNL     1      28.979   5.125  -8.067  1.00  0.00    -0.341 N 
HETATM   22  C7  UNL     1      28.144   4.694  -9.149  1.00  0.00     0.151 C 
ATOM     23  H1  UNL     1      29.628   5.894  -8.234  1.00  0.00     0.164 HD
ENDBRANCH  18  19
ENDBRANCH   1  18
BRANCH   8  24
HETATM   24  C18 UNL     1      30.035   0.802  -2.692  1.00  0.00     0.085 C 
HETATM   25  C19 UNL     1      29.083   0.042  -3.392  1.00  0.00     0.247 C 
BRANCH  25  26
HETATM   26  O4  UNL     1      29.068  -1.390  -2.920  1.00  0.00    -0.334 OA
ATOM     27  H4  UNL     1      29.424  -1.470  -2.043  1.00  0.00     0.220 HD
ENDBRANCH  25  26
BRANCH  25  28
HETATM   28  N2  UNL     1      28.275   0.155  -4.269  1.00  0.00    -0.258 NA
BRANCH  28  29
HETATM   29  O5  UNL     1      27.163   0.143  -4.874  1.00  0.00    -0.216 OA
ATOM     30  H5  UNL     1      26.375  -0.185  -5.291  1.00  0.00     0.261 HD
ENDBRANCH  28  29
ENDBRANCH  25  28
ENDBRANCH   8  24
BRANCH   5  31
HETATM   31  C12 UNL     1      26.379   3.016  -0.579  1.00  0.00     0.149 C 
HETATM   32  C13 UNL     1      25.782   1.653  -0.891  1.00  0.00     0.045 C 
BRANCH  31  33
HETATM   33  O3  UNL     1      25.361   3.938  -0.409  1.00  0.00    -0.386 OA
HETATM   34  C14 UNL     1      25.028   4.062   0.924  1.00  0.00     0.202 C 
ENDBRANCH  31  33
ENDBRANCH   5  31
BRANCH   9  35
HETATM   35  O6  UNL     1      32.433   0.947  -1.754  1.00  0.00    -0.376 OA
BRANCH  35  36
HETATM   36  C21 UNL     1      32.695   1.108  -0.421  1.00  0.00     0.127 C 
HETATM   37  C22 UNL     1      33.337  -0.119   0.204  1.00  0.00     0.037 C 
HETATM   38  C23 UNL     1      34.613   0.505   0.722  1.00  0.00    -0.003 C 
HETATM   39  C24 UNL     1      34.022   1.771   1.361  1.00  0.00     0.013 C 
HETATM   40  C26 UNL     1      35.088   1.445  -0.356  1.00  0.00    -0.038 C 
HETATM   41  C25 UNL     1      33.765   2.131  -0.112  1.00  0.00     0.023 C 
HETATM   42  C27 UNL     1      35.291   0.880  -1.722  1.00  0.00     0.015 C 
HETATM   43  C28 UNL     1      36.244   2.302   0.114  1.00  0.00     0.015 C 
ENDBRANCH  35  36
ENDBRANCH   9  35
TORSDOF 13
ENDMDL
MODEL 4
REMARK VINA RESULT: -6.444045104      0.853      1.356
REMARK  13 active torsions:
REMARK  status: ('A' for Active; 'I' for Inactive)
REMARK    1  A    between atoms: C2_2  and  C3_3 
REMARK    2  A    between atoms: C3_3  and  C4_4 
REMARK    3  A    between atoms: C4_4  and  C5_5 
REMARK    4  A    between atoms: C5_5  and  O1_6 
REMARK    5  A    between atoms: O1_6  and  C6_7 
REMARK       I    between atoms: C6_7  and  N1_9 
REMARK    6  A    between atoms: C11_15  and  C12_16 
REMARK    7  A    between atoms: C12_16  and  O3_18 
REMARK    8  A    between atoms: C17_22  and  C18_23 
REMARK    9  A    between atoms: C19_24  and  O4_25 
REMARK   10  A    between atoms: C19_24  and  N2_27 
REMARK   11  A    between atoms: N2_27  and  O5_28 
REMARK   12  A    between atoms: C20_30  and  O6_31 
REMARK   13  A    between atoms: O6_31  and  C21_32 
ROOT
HETATM    1  C5  UNL     1      29.594   5.402  -4.308  1.00  0.00     0.103 C 
HETATM    2  C8  UNL     1      28.736   4.559  -3.416  1.00  0.00    -0.012 A 
HETATM    3  C9  UNL     1      27.428   5.026  -3.506  1.00  0.00     0.012 A 
HETATM    4  C10 UNL     1      26.374   4.470  -2.790  1.00  0.00     0.010 A 
HETATM    5  C11 UNL     1      26.602   3.409  -1.949  1.00  0.00    -0.029 A 
HETATM    6  C15 UNL     1      27.880   2.921  -1.838  1.00  0.00     0.022 A 
HETATM    7  C16 UNL     1      28.943   3.498  -2.573  1.00  0.00    -0.017 A 
HETATM    8  C17 UNL     1      30.053   2.657  -2.130  1.00  0.00    -0.013 C 
HETATM    9  C20 UNL     1      31.390   3.099  -1.580  1.00  0.00     0.156 C 
HETATM   10  C29 UNL     1      32.258   3.406  -2.789  1.00  0.00     0.037 C 
HETATM   11  C30 UNL     1      31.864   4.870  -3.132  1.00  0.00     0.010 C 
HETATM   12  C31 UNL     1      31.044   4.938  -4.271  1.00  0.00     0.022 C 
HETATM   13  C32 UNL     1      31.739   5.715  -5.397  1.00  0.00     0.013 C 
ENDROOT
BRANCH   1  14
HETATM   14  C4  UNL     1      29.401   6.834  -4.034  1.00  0.00     0.044 C 
BRANCH  14  15
HETATM   15  C3  UNL     1      29.958   7.511  -2.847  1.00  0.00     0.003 C 
BRANCH  15  16
HETATM   16  C2  UNL     1      28.855   7.760  -1.782  1.00  0.00    -0.004 C 
HETATM   17  C1  UNL     1      28.983   6.877  -0.596  1.00  0.00     0.005 C 
ENDBRANCH  15  16
ENDBRANCH  14  15
ENDBRANCH   1  14
BRANCH   1  18
HETATM   18  O1  UNL     1      29.312   5.071  -5.554  1.00  0.00    -0.287 OA
BRANCH  18  19
HETATM   19  C6  UNL     1      29.052   4.716  -6.741  1.00  0.00     0.361 C 
HETATM   20  O2  UNL     1      28.764   3.464  -6.684  1.00  0.00    -0.238 OA
HETATM   21  N1  UNL     1      29.002   5.305  -8.011  1.00  0.00    -0.341 N 
HETATM   22  C7  UNL     1      28.655   4.587  -9.202  1.00  0.00     0.151 C 
ATOM     23  H1  UNL     1      29.225   6.297  -8.092  1.00  0.00     0.164 HD
ENDBRANCH  18  19
ENDBRANCH   1  18
BRANCH   8  24
HETATM   24  C18 UNL     1      29.908   1.383  -2.330  1.00  0.00     0.085 C 
HETATM   25  C19 UNL     1      29.407   0.434  -3.237  1.00  0.00     0.247 C 
BRANCH  25  26
HETATM   26  O4  UNL     1      29.482  -0.961  -2.670  1.00  0.00    -0.334 OA
ATOM     27  H4  UNL     1      30.381  -1.223  -2.511  1.00  0.00     0.220 HD
ENDBRANCH  25  26
BRANCH  25  28
HETATM   28  N2  UNL     1      28.949   0.365  -4.342  1.00  0.00    -0.258 NA
BRANCH  28  29
HETATM   29  O5  UNL     1      28.536   0.717  -5.485  1.00  0.00    -0.216 OA
ATOM     30  H5  UNL     1      28.024   0.735  -6.285  1.00  0.00     0.261 HD
ENDBRANCH  28  29
ENDBRANCH  25  28
ENDBRANCH   8  24
BRANCH   5  31
HETATM   31  C12 UNL     1      25.495   2.784  -1.188  1.00  0.00     0.149 C 
HETATM   32  C13 UNL     1      25.313   3.388   0.196  1.00  0.00     0.045 C 
BRANCH  31  33
HETATM   33  O3  UNL     1      25.611   1.409  -1.079  1.00  0.00    -0.386 OA
HETATM   34  C14 UNL     1      25.379   0.997   0.217  1.00  0.00     0.202 C 
ENDBRANCH  31  33
ENDBRANCH   5  31
BRANCH   9  35
HETATM   35  O6  UNL     1      31.950   2.037  -0.898  1.00  0.00    -0.376 OA
BRANCH  35  36
HETATM   36  C21 UNL     1      32.997   2.477  -0.135  1.00  0.00     0.127 C 
HETATM   37  C22 UNL     1      32.845   2.121   1.334  1.00  0.00     0.037 C 
HETATM   38  C23 UNL     1      34.114   1.322   1.529  1.00  0.00    -0.003 C 
HETATM   39  C24 UNL     1      35.100   2.259   0.815  1.00  0.00     0.013 C 
HETATM   40  C26 UNL     1      34.262   0.463   0.299  1.00  0.00    -0.038 C 
HETATM   41  C25 UNL     1      34.313   1.790  -0.421  1.00  0.00     0.023 C 
HETATM   42  C27 UNL     1      33.123  -0.431  -0.058  1.00  0.00     0.015 C 
HETATM   43  C28 UNL     1      35.604  -0.233   0.258  1.00  0.00     0.015 C 
ENDBRANCH  35  36
ENDBRANCH   9  35
TORSDOF 13
ENDMDL
MODEL 5
REMARK VINA RESULT: -6.409652825      2.506      5.461
REMARK  13 active torsions:
REMARK  status: ('A' for Active; 'I' for Inactive)
REMARK    1  A    between atoms: C2_2  and  C3_3 
REMARK    2  A    between atoms: C3_3  and  C4_4 
REMARK    3  A    between atoms: C4_4  and  C5_5 
REMARK    4  A    between atoms: C5_5  and  O1_6 
REMARK    5  A    between atoms: O1_6  and  C6_7 
REMARK       I    between atoms: C6_7  and  N1_9 
REMARK    6  A    between atoms: C11_15  and  C12_16 
REMARK    7  A    between atoms: C12_16  and  O3_18 
REMARK    8  A    between atoms: C17_22  and  C18_23 
REMARK    9  A    between atoms: C19_24  and  O4_25 
REMARK   10  A    between atoms: C19_24  and  N2_27 
REMARK   11  A    between atoms: N2_27  and  O5_28 
REMARK   12  A    between atoms: C20_30  and  O6_31 
REMARK   13  A    between atoms: O6_31  and  C21_32 
ROOT
HETATM    1  C5  UNL     1      32.141   4.610  -3.699  1.00  0.00     0.103 C 
HETATM    2  C8  UNL     1      31.007   4.470  -4.665  1.00  0.00    -0.012 A 
HETATM    3  C9  UNL     1      31.284   5.261  -5.776  1.00  0.00     0.012 A 
HETATM    4  C10 UNL     1      30.423   5.370  -6.862  1.00  0.00     0.010 A 
HETATM    5  C11 UNL     1      29.239   4.676  -6.870  1.00  0.00    -0.029 A 
HETATM    6  C15 UNL     1      28.935   3.884  -5.792  1.00  0.00     0.022 A 
HETATM    7  C16 UNL     1      29.821   3.783  -4.692  1.00  0.00    -0.017 A 
HETATM    8  C17 UNL     1      29.077   2.856  -3.841  1.00  0.00    -0.013 C 
HETATM    9  C20 UNL     1      28.721   3.019  -2.382  1.00  0.00     0.156 C 
HETATM   10  C29 UNL     1      29.945   2.571  -1.600  1.00  0.00     0.037 C 
HETATM   11  C30 UNL     1      30.824   3.852  -1.575  1.00  0.00     0.010 C 
HETATM   12  C31 UNL     1      31.913   3.757  -2.458  1.00  0.00     0.022 C 
HETATM   13  C32 UNL     1      33.241   3.805  -1.691  1.00  0.00     0.013 C 
ENDROOT
BRANCH   1  14
HETATM   14  C4  UNL     1      32.436   6.024  -3.425  1.00  0.00     0.044 C 
BRANCH  14  15
HETATM   15  C3  UNL     1      31.666   6.838  -2.464  1.00  0.00     0.003 C 
BRANCH  15  16
HETATM   16  C2  UNL     1      30.492   7.567  -3.172  1.00  0.00    -0.004 C 
HETATM   17  C1  UNL     1      29.163   7.007  -2.819  1.00  0.00     0.005 C 
ENDBRANCH  15  16
ENDBRANCH  14  15
ENDBRANCH   1  14
BRANCH   1  18
HETATM   18  O1  UNL     1      33.171   3.955  -4.201  1.00  0.00    -0.287 OA
BRANCH  18  19
HETATM   19  C6  UNL     1      34.153   3.345  -4.719  1.00  0.00     0.361 C 
HETATM   20  O2  UNL     1      33.697   2.213  -5.123  1.00  0.00    -0.238 OA
HETATM   21  N1  UNL     1      35.516   3.580  -4.944  1.00  0.00    -0.341 N 
HETATM   22  C7  UNL     1      36.384   2.637  -5.586  1.00  0.00     0.151 C 
ATOM     23  H1  UNL     1      35.910   4.469  -4.636  1.00  0.00     0.164 HD
ENDBRANCH  18  19
ENDBRANCH   1  18
BRANCH   8  24
HETATM   24  C18 UNL     1      28.779   1.714  -4.381  1.00  0.00     0.085 C 
HETATM   25  C19 UNL     1      28.746   0.330  -4.144  1.00  0.00     0.247 C 
BRANCH  25  26
HETATM   26  O4  UNL     1      28.383  -0.433  -5.394  1.00  0.00    -0.334 OA
ATOM     27  H4  UNL     1      28.294   0.148  -6.141  1.00  0.00     0.220 HD
ENDBRANCH  25  26
BRANCH  25  28
HETATM   28  N2  UNL     1      28.896  -0.459  -3.255  1.00  0.00    -0.258 NA
BRANCH  28  29
HETATM   29  O5  UNL     1      29.416  -1.365  -2.542  1.00  0.00    -0.216 OA
ATOM     30  H5  UNL     1      29.515  -2.024  -1.864  1.00  0.00     0.261 HD
ENDBRANCH  28  29
ENDBRANCH  25  28
ENDBRANCH   8  24
BRANCH   5  31
HETATM   31  C12 UNL     1      28.311   4.758  -8.021  1.00  0.00     0.149 C 
HETATM   32  C13 UNL     1      27.063   3.909  -7.837  1.00  0.00     0.045 C 
BRANCH  31  33
HETATM   33  O3  UNL     1      28.907   4.445  -9.231  1.00  0.00    -0.386 OA
HETATM   34  C14 UNL     1      28.995   5.562 -10.038  1.00  0.00     0.202 C 
ENDBRANCH  31  33
ENDBRANCH   5  31
BRANCH   9  35
HETATM   35  O6  UNL     1      27.679   2.160  -2.092  1.00  0.00    -0.376 OA
BRANCH  35  36
HETATM   36  C21 UNL     1      26.521   2.872  -1.938  1.00  0.00     0.127 C 
HETATM   37  C22 UNL     1      25.388   2.038  -1.364  1.00  0.00     0.037 C 
HETATM   38  C23 UNL     1      25.081   2.852  -0.128  1.00  0.00    -0.003 C 
HETATM   39  C24 UNL     1      25.083   4.254  -0.756  1.00  0.00     0.013 C 
HETATM   40  C26 UNL     1      26.414   3.264   0.445  1.00  0.00    -0.038 C 
HETATM   41  C25 UNL     1      26.586   3.956  -0.886  1.00  0.00     0.023 C 
HETATM   42  C27 UNL     1      27.395   2.183   0.753  1.00  0.00     0.015 C 
HETATM   43  C28 UNL     1      26.257   4.267   1.567  1.00  0.00     0.015 C 
ENDBRANCH  35  36
ENDBRANCH   9  35
TORSDOF 13
ENDMDL
