MODEL 1
REMARK VINA RESULT: -6.227824923      0.000      0.000
REMARK  6 active torsions:
REMARK  status: ('A' for Active; 'I' for Inactive)
REMARK    1  A    between atoms: N5_15  and  C6_16 
REMARK    2  A    between atoms: C6_16  and  C7_17 
REMARK    3  A    between atoms: C7_17  and  C8_25 
REMARK    4  A    between atoms: N6_18  and  N7_20 
REMARK    5  A    between atoms: N7_20  and  N8_22 
REMARK       I    between atoms: C8_25  and  N9_27 
REMARK    6  A    between atoms: N9_27  and  N10_29 
ROOT
HETATM    1  C6  UNL     1      -0.537   3.622   4.661  1.00  0.00     0.195 C 
ENDROOT
BRANCH   1   2
HETATM    2  N5  UNL     1      -1.226   4.569   5.454  1.00  0.00    -0.321 N 
HETATM    3  C3  UNL     1      -2.348   4.222   6.161  1.00  0.00     0.140 A 
HETATM    4  N3  UNL     1      -3.044   3.089   6.318  1.00  0.00    -0.336 N 
HETATM    5  C4  UNL     1      -2.782   5.343   6.823  1.00  0.00     0.122 A 
HETATM    6  C2  UNL     1      -4.131   3.057   7.097  1.00  0.00     0.183 A 
ATOM      7  H3  UNL     1      -2.743   2.241   5.838  1.00  0.00     0.168 HD
HETATM    8  N2  UNL     1      -4.556   4.166   7.749  1.00  0.00    -0.337 N 
HETATM    9  C1  UNL     1      -3.896   5.329   7.629  1.00  0.00     0.131 A 
ATOM     10  H2  UNL     1      -5.387   4.116   8.339  1.00  0.00     0.168 HD
HETATM   11  N1  UNL     1      -4.312   6.372   8.253  1.00  0.00    -0.383 N 
ATOM     12  H12 UNL     1      -5.139   6.362   8.851  1.00  0.00     0.157 HD
ATOM     13  H11 UNL     1      -3.811   7.256   8.162  1.00  0.00     0.157 HD
HETATM   14  N4  UNL     1      -1.920   6.325   6.500  1.00  0.00    -0.346 N 
HETATM   15  C5  UNL     1      -0.977   5.873   5.675  1.00  0.00     0.185 A 
ATOM     16  H4  UNL     1      -1.981   7.284   6.840  1.00  0.00     0.167 HD
ENDBRANCH   1   2
BRANCH   1  17
HETATM   17  C7  UNL     1      -1.013   3.573   3.229  1.00  0.00     0.114 C 
HETATM   18  N6  UNL     1      -1.253   2.503   2.655  1.00  0.00    -0.284 N 
ATOM     19  H6  UNL     1      -1.081   1.719   3.284  1.00  0.00     0.188 HD
BRANCH  18  20
HETATM   20  N7  UNL     1      -1.671   2.055   1.455  1.00  0.00    -0.249 N 
ATOM     21  H7  UNL     1      -2.133   2.733   0.849  1.00  0.00     0.207 HD
BRANCH  20  22
HETATM   22  N8  UNL     1      -1.539   0.757   0.952  1.00  0.00    -0.331 N 
ATOM     23  H82 UNL     1      -0.885   0.157   1.455  1.00  0.00     0.178 HD
ATOM     24  H81 UNL     1      -2.024   0.361   0.147  1.00  0.00     0.178 HD
ENDBRANCH  20  22
ENDBRANCH  18  20
BRANCH  17  25
HETATM   25  C8  UNL     1      -1.159   4.854   2.606  1.00  0.00     0.285 C 
HETATM   26  O1  UNL     1      -0.133   5.394   2.056  1.00  0.00    -0.265 OA
HETATM   27  N9  UNL     1      -2.331   5.585   2.540  1.00  0.00    -0.271 N 
ATOM     28  H9  UNL     1      -3.183   5.212   2.958  1.00  0.00     0.189 HD
BRANCH  27  29
HETATM   29  N10 UNL     1      -2.360   6.850   1.894  1.00  0.00    -0.342 N 
ATOM     30 2H10 UNL     1      -3.221   7.396   1.924  1.00  0.00     0.176 HD
ATOM     31 1H10 UNL     1      -1.536   7.206   1.409  1.00  0.00     0.176 HD
ENDBRANCH  27  29
ENDBRANCH  17  25
ENDBRANCH   1  17
TORSDOF 6
ENDMDL
MODEL 2
REMARK VINA RESULT: -6.178364463      6.637     10.368
REMARK  6 active torsions:
REMARK  status: ('A' for Active; 'I' for Inactive)
REMARK    1  A    between atoms: N5_15  and  C6_16 
REMARK    2  A    between atoms: C6_16  and  C7_17 
REMARK    3  A    between atoms: C7_17  and  C8_25 
REMARK    4  A    between atoms: N6_18  and  N7_20 
REMARK    5  A    between atoms: N7_20  and  N8_22 
REMARK       I    between atoms: C8_25  and  N9_27 
REMARK    6  A    between atoms: N9_27  and  N10_29 
ROOT
HETATM    1  C6  UNL     1       2.636   1.940  -1.233  1.00  0.00     0.195 C 
ENDROOT
BRANCH   1   2
HETATM    2  N5  UNL     1       3.545   0.919  -0.869  1.00  0.00    -0.321 N 
HETATM    3  C3  UNL     1       4.327   0.297  -1.807  1.00  0.00     0.140 A 
HETATM    4  N3  UNL     1       4.475   0.415  -3.133  1.00  0.00    -0.336 N 
HETATM    5  C4  UNL     1       5.094  -0.635  -1.154  1.00  0.00     0.122 A 
HETATM    6  C2  UNL     1       5.344  -0.356  -3.796  1.00  0.00     0.183 A 
ATOM      7  H3  UNL     1       3.918   1.101  -3.643  1.00  0.00     0.168 HD
HETATM    8  N2  UNL     1       6.099  -1.274  -3.147  1.00  0.00    -0.337 N 
HETATM    9  C1  UNL     1       5.993  -1.436  -1.818  1.00  0.00     0.131 A 
ATOM     10  H2  UNL     1       6.756  -1.849  -3.673  1.00  0.00     0.168 HD
HETATM   11  N1  UNL     1       6.716  -2.312  -1.216  1.00  0.00    -0.383 N 
ATOM     12  H12 UNL     1       7.383  -2.905  -1.709  1.00  0.00     0.157 HD
ATOM     13  H11 UNL     1       6.635  -2.434  -0.207  1.00  0.00     0.157 HD
HETATM   14  N4  UNL     1       4.757  -0.550   0.146  1.00  0.00    -0.346 N 
HETATM   15  C5  UNL     1       3.824   0.383   0.333  1.00  0.00     0.185 A 
ATOM     16  H4  UNL     1       5.160  -1.122   0.888  1.00  0.00     0.167 HD
ENDBRANCH   1   2
BRANCH   1  17
HETATM   17  C7  UNL     1       1.266   1.774  -0.623  1.00  0.00     0.114 C 
HETATM   18  N6  UNL     1       0.714   2.686   0.006  1.00  0.00    -0.284 N 
ATOM     19  H6  UNL     1       1.315   3.510   0.033  1.00  0.00     0.188 HD
BRANCH  18  20
HETATM   20  N7  UNL     1      -0.436   2.926   0.667  1.00  0.00    -0.249 N 
ATOM     21  H7  UNL     1      -1.035   3.660   0.288  1.00  0.00     0.207 HD
BRANCH  20  22
HETATM   22  N8  UNL     1      -0.894   2.277   1.816  1.00  0.00    -0.331 N 
ATOM     23  H82 UNL     1      -0.331   2.419   2.654  1.00  0.00     0.178 HD
ATOM     24  H81 UNL     1      -1.722   1.685   1.895  1.00  0.00     0.178 HD
ENDBRANCH  20  22
ENDBRANCH  18  20
BRANCH  17  25
HETATM   25  C8  UNL     1       0.672   0.488  -0.834  1.00  0.00     0.285 C 
HETATM   26  O1  UNL     1      -0.055  -0.017   0.096  1.00  0.00    -0.265 OA
HETATM   27  N9  UNL     1       0.811  -0.282  -1.973  1.00  0.00    -0.271 N 
ATOM     28  H9  UNL     1       1.376   0.062  -2.749  1.00  0.00     0.189 HD
BRANCH  27  29
HETATM   29  N10 UNL     1       0.174  -1.548  -2.074  1.00  0.00    -0.342 N 
ATOM     30 2H10 UNL     1       0.473  -2.298  -1.451  1.00  0.00     0.176 HD
ATOM     31 1H10 UNL     1      -0.569  -1.704  -2.756  1.00  0.00     0.176 HD
ENDBRANCH  27  29
ENDBRANCH  17  25
ENDBRANCH   1  17
TORSDOF 6
ENDMDL
MODEL 3
REMARK VINA RESULT: -6.109354785      7.129     10.513
REMARK  6 active torsions:
REMARK  status: ('A' for Active; 'I' for Inactive)
REMARK    1  A    between atoms: N5_15  and  C6_16 
REMARK    2  A    between atoms: C6_16  and  C7_17 
REMARK    3  A    between atoms: C7_17  and  C8_25 
REMARK    4  A    between atoms: N6_18  and  N7_20 
REMARK    5  A    between atoms: N7_20  and  N8_22 
REMARK       I    between atoms: C8_25  and  N9_27 
REMARK    6  A    between atoms: N9_27  and  N10_29 
ROOT
HETATM    1  C6  UNL     1       3.422   0.856  -0.454  1.00  0.00     0.195 C 
ENDROOT
BRANCH   1   2
HETATM    2  N5  UNL     1       4.010   1.730  -1.398  1.00  0.00    -0.321 N 
HETATM    3  C3  UNL     1       4.945   1.282  -2.295  1.00  0.00     0.140 A 
HETATM    4  N3  UNL     1       5.513   0.095  -2.543  1.00  0.00    -0.336 N 
HETATM    5  C4  UNL     1       5.323   2.351  -3.067  1.00  0.00     0.122 A 
HETATM    6  C2  UNL     1       6.422  -0.039  -3.515  1.00  0.00     0.183 A 
ATOM      7  H3  UNL     1       5.250  -0.717  -1.984  1.00  0.00     0.168 HD
HETATM    8  N2  UNL     1       6.792   1.020  -4.275  1.00  0.00    -0.337 N 
HETATM    9  C1  UNL     1       6.255   2.233  -4.071  1.00  0.00     0.131 A 
ATOM     10  H2  UNL     1       7.487   0.893  -5.011  1.00  0.00     0.168 HD
HETATM   11  N1  UNL     1       6.617   3.228  -4.800  1.00  0.00    -0.383 N 
ATOM     12  H12 UNL     1       7.309   3.140  -5.545  1.00  0.00     0.157 HD
ATOM     13  H11 UNL     1       6.209   4.150  -4.645  1.00  0.00     0.157 HD
HETATM   14  N4  UNL     1       4.614   3.404  -2.619  1.00  0.00    -0.346 N 
HETATM   15  C5  UNL     1       3.818   3.044  -1.613  1.00  0.00     0.185 A 
ATOM     16  H4  UNL     1       4.677   4.348  -2.998  1.00  0.00     0.167 HD
ENDBRANCH   1   2
BRANCH   1  17
HETATM   17  C7  UNL     1       2.020   0.429  -0.819  1.00  0.00     0.114 C 
HETATM   18  N6  UNL     1       1.796  -0.370  -1.737  1.00  0.00    -0.284 N 
ATOM     19  H6  UNL     1       2.672  -0.663  -2.170  1.00  0.00     0.188 HD
BRANCH  18  20
HETATM   20  N7  UNL     1       0.753  -0.971  -2.341  1.00  0.00    -0.249 N 
ATOM     21  H7  UNL     1       0.755  -0.972  -3.362  1.00  0.00     0.207 HD
BRANCH  20  22
HETATM   22  N8  UNL     1      -0.332  -1.594  -1.718  1.00  0.00    -0.331 N 
ATOM     23  H82 UNL     1      -0.361  -1.511  -0.702  1.00  0.00     0.178 HD
ATOM     24  H81 UNL     1      -1.082  -2.115  -2.173  1.00  0.00     0.178 HD
ENDBRANCH  20  22
ENDBRANCH  18  20
BRANCH  17  25
HETATM   25  C8  UNL     1       0.991   1.022  -0.019  1.00  0.00     0.285 C 
HETATM   26  O1  UNL     1       0.363   0.286   0.825  1.00  0.00    -0.265 OA
HETATM   27  N9  UNL     1       0.599   2.347  -0.069  1.00  0.00    -0.271 N 
ATOM     28  H9  UNL     1       1.058   2.985  -0.719  1.00  0.00     0.189 HD
BRANCH  27  29
HETATM   29  N10 UNL     1      -0.438   2.828   0.775  1.00  0.00    -0.342 N 
ATOM     30 2H10 UNL     1      -1.299   2.286   0.851  1.00  0.00     0.176 HD
ATOM     31 1H10 UNL     1      -0.324   3.698   1.295  1.00  0.00     0.176 HD
ENDBRANCH  27  29
ENDBRANCH  17  25
ENDBRANCH   1  17
TORSDOF 6
ENDMDL
MODEL 4
REMARK VINA RESULT: -5.999890727      2.378      6.064
REMARK  6 active torsions:
REMARK  status: ('A' for Active; 'I' for Inactive)
REMARK    1  A    between atoms: N5_15  and  C6_16 
REMARK    2  A    between atoms: C6_16  and  C7_17 
REMARK    3  A    between atoms: C7_17  and  C8_25 
REMARK    4  A    between atoms: N6_18  and  N7_20 
REMARK    5  A    between atoms: N7_20  and  N8_22 
REMARK       I    between atoms: C8_25  and  N9_27 
REMARK    6  A    between atoms: N9_27  and  N10_29 
ROOT
HETATM    1  C6  UNL     1      -2.104   4.561   3.265  1.00  0.00     0.195 C 
ENDROOT
BRANCH   1   2
HETATM    2  N5  UNL     1      -1.144   4.239   2.278  1.00  0.00    -0.321 N 
HETATM    3  C3  UNL     1      -1.137   3.013   1.666  1.00  0.00     0.140 A 
HETATM    4  N3  UNL     1      -1.890   1.910   1.767  1.00  0.00    -0.336 N 
HETATM    5  C4  UNL     1      -0.100   3.005   0.767  1.00  0.00     0.122 A 
HETATM    6  C2  UNL     1      -1.633   0.835   1.015  1.00  0.00     0.183 A 
ATOM      7  H3  UNL     1      -2.668   1.890   2.427  1.00  0.00     0.168 HD
HETATM    8  N2  UNL     1      -0.608   0.831   0.129  1.00  0.00    -0.337 N 
HETATM    9  C1  UNL     1       0.179   1.909  -0.015  1.00  0.00     0.131 A 
ATOM     10  H2  UNL     1      -0.433  -0.000  -0.435  1.00  0.00     0.168 HD
HETATM   11  N1  UNL     1       1.148   1.890  -0.860  1.00  0.00    -0.383 N 
ATOM     12  H12 UNL     1       1.354   1.077  -1.440  1.00  0.00     0.157 HD
ATOM     13  H11 UNL     1       1.746   2.709  -0.969  1.00  0.00     0.157 HD
HETATM   14  N4  UNL     1       0.485   4.213   0.862  1.00  0.00    -0.346 N 
HETATM   15  C5  UNL     1      -0.134   4.968   1.768  1.00  0.00     0.185 A 
ATOM     16  H4  UNL     1       1.292   4.510   0.314  1.00  0.00     0.167 HD
ENDBRANCH   1   2
BRANCH   1  17
HETATM   17  C7  UNL     1      -1.590   4.420   4.677  1.00  0.00     0.114 C 
HETATM   18  N6  UNL     1      -0.584   3.752   4.944  1.00  0.00    -0.284 N 
ATOM     19  H6  UNL     1      -0.196   3.343   4.094  1.00  0.00     0.188 HD
BRANCH  18  20
HETATM   20  N7  UNL     1       0.158   3.397   6.012  1.00  0.00    -0.249 N 
ATOM     21  H7  UNL     1      -0.109   2.534   6.487  1.00  0.00     0.207 HD
BRANCH  20  22
HETATM   22  N8  UNL     1       1.255   4.085   6.537  1.00  0.00    -0.331 N 
ATOM     23  H82 UNL     1       1.277   4.163   7.554  1.00  0.00     0.178 HD
ATOM     24  H81 UNL     1       2.019   4.510   6.012  1.00  0.00     0.178 HD
ENDBRANCH  20  22
ENDBRANCH  18  20
BRANCH  17  25
HETATM   25  C8  UNL     1      -2.359   5.120   5.662  1.00  0.00     0.285 C 
HETATM   26  O1  UNL     1      -3.486   5.629   5.319  1.00  0.00    -0.265 OA
HETATM   27  N9  UNL     1      -1.993   5.304   6.983  1.00  0.00    -0.271 N 
ATOM     28  H9  UNL     1      -1.109   4.924   7.320  1.00  0.00     0.189 HD
BRANCH  27  29
HETATM   29  N10 UNL     1      -2.838   6.016   7.876  1.00  0.00    -0.342 N 
ATOM     30 2H10 UNL     1      -2.653   5.957   8.877  1.00  0.00     0.176 HD
ATOM     31 1H10 UNL     1      -3.614   6.576   7.523  1.00  0.00     0.176 HD
ENDBRANCH  27  29
ENDBRANCH  17  25
ENDBRANCH   1  17
TORSDOF 6
ENDMDL
MODEL 5
REMARK VINA RESULT: -5.987075503      7.265     11.014
REMARK  6 active torsions:
REMARK  status: ('A' for Active; 'I' for Inactive)
REMARK    1  A    between atoms: N5_15  and  C6_16 
REMARK    2  A    between atoms: C6_16  and  C7_17 
REMARK    3  A    between atoms: C7_17  and  C8_25 
REMARK    4  A    between atoms: N6_18  and  N7_20 
REMARK    5  A    between atoms: N7_20  and  N8_22 
REMARK       I    between atoms: C8_25  and  N9_27 
REMARK    6  A    between atoms: N9_27  and  N10_29 
ROOT
HETATM    1  C6  UNL     1       3.262  -0.087  -0.291  1.00  0.00     0.195 C 
ENDROOT
BRANCH   1   2
HETATM    2  N5  UNL     1       3.707  -0.490  -1.571  1.00  0.00    -0.321 N 
HETATM    3  C3  UNL     1       4.726   0.169  -2.209  1.00  0.00     0.140 A 
HETATM    4  N3  UNL     1       5.502   1.216  -1.903  1.00  0.00    -0.336 N 
HETATM    5  C4  UNL     1       4.925  -0.450  -3.418  1.00  0.00     0.122 A 
HETATM    6  C2  UNL     1       6.442   1.643  -2.754  1.00  0.00     0.183 A 
ATOM      7  H3  UNL     1       5.376   1.694  -1.011  1.00  0.00     0.168 HD
HETATM    8  N2  UNL     1       6.635   1.029  -3.946  1.00  0.00    -0.337 N 
HETATM    9  C1  UNL     1       5.886  -0.026  -4.305  1.00  0.00     0.131 A 
ATOM     10  H2  UNL     1       7.359   1.372  -4.578  1.00  0.00     0.168 HD
HETATM   11  N1  UNL     1       6.082  -0.597  -5.440  1.00  0.00    -0.383 N 
ATOM     12  H12 UNL     1       6.795  -0.282  -6.098  1.00  0.00     0.157 HD
ATOM     13  H11 UNL     1       5.513  -1.399  -5.712  1.00  0.00     0.157 HD
HETATM   14  N4  UNL     1       4.031  -1.454  -3.475  1.00  0.00    -0.346 N 
HETATM   15  C5  UNL     1       3.289  -1.490  -2.369  1.00  0.00     0.185 A 
ATOM     16  H4  UNL     1       3.933  -2.099  -4.259  1.00  0.00     0.167 HD
ENDBRANCH   1   2
BRANCH   1  17
HETATM   17  C7  UNL     1       2.281   1.060  -0.326  1.00  0.00     0.114 C 
HETATM   18  N6  UNL     1       2.650   2.236  -0.436  1.00  0.00    -0.284 N 
ATOM     19  H6  UNL     1       3.668   2.281  -0.495  1.00  0.00     0.188 HD
BRANCH  18  20
HETATM   20  N7  UNL     1       2.124   3.474  -0.504  1.00  0.00    -0.249 N 
ATOM     21  H7  UNL     1       1.453   3.646  -1.253  1.00  0.00     0.207 HD
BRANCH  20  22
HETATM   22  N8  UNL     1       2.401   4.550   0.345  1.00  0.00    -0.331 N 
ATOM     23  H82 UNL     1       1.602   4.916   0.864  1.00  0.00     0.178 HD
ATOM     24  H81 UNL     1       3.306   4.995   0.493  1.00  0.00     0.178 HD
ENDBRANCH  20  22
ENDBRANCH  18  20
BRANCH  17  25
HETATM   25  C8  UNL     1       0.907   0.670  -0.220  1.00  0.00     0.285 C 
HETATM   26  O1  UNL     1       0.356   0.075  -1.215  1.00  0.00    -0.265 OA
HETATM   27  N9  UNL     1       0.095   0.880   0.879  1.00  0.00    -0.271 N 
ATOM     28  H9  UNL     1       0.472   1.349   1.703  1.00  0.00     0.189 HD
BRANCH  27  29
HETATM   29  N10 UNL     1      -1.259   0.449   0.873  1.00  0.00    -0.342 N 
ATOM     30 2H10 UNL     1      -1.607  -0.059   0.060  1.00  0.00     0.176 HD
ATOM     31 1H10 UNL     1      -1.870   0.644   1.666  1.00  0.00     0.176 HD
ENDBRANCH  27  29
ENDBRANCH  17  25
ENDBRANCH   1  17
TORSDOF 6
ENDMDL
