MODEL 1
REMARK VINA RESULT: -7.759958568      0.000      0.000
REMARK  7 active torsions:
REMARK  status: ('A' for Active; 'I' for Inactive)
REMARK    1  A    between atoms: N1_1  and  C1_4 
REMARK    2  A    between atoms: N5_15  and  N6_16 
REMARK    3  A    between atoms: N6_16  and  C5_18 
REMARK    4  A    between atoms: C5_18  and  C6_19 
REMARK    5  A    between atoms: C6_19  and  O1_20 
REMARK    6  A    between atoms: C6_19  and  C7_22 
REMARK       I    between atoms: C7_22  and  N7_24 
REMARK    7  A    between atoms: N7_24  and  N8_26 
ROOT
HETATM    1  C1  UNL     1      -3.895   3.253   7.204  1.00  0.00     0.679 A 
HETATM    2  N2  UNL     1      -3.839   4.419   7.870  1.00  0.00    -0.175 N 
ATOM      3  H2  UNL     1      -4.337   4.508   8.756  1.00  0.00     0.186 HD
HETATM    4  C2  UNL     1      -3.141   5.479   7.401  1.00  0.00     0.145 A 
HETATM    5  N3  UNL     1      -3.087   6.590   8.036  1.00  0.00    -0.383 N 
ATOM      6  H31 UNL     1      -2.561   7.389   7.682  1.00  0.00     0.157 HD
ATOM      7  H32 UNL     1      -3.586   6.677   8.921  1.00  0.00     0.157 HD
HETATM    8  C3  UNL     1      -2.463   5.361   6.198  1.00  0.00     0.124 A 
HETATM    9  N4  UNL     1      -1.698   6.191   5.467  1.00  0.00    -0.345 N 
ATOM     10  H4  UNL     1      -1.462   7.154   5.703  1.00  0.00     0.167 HD
HETATM   11  C4  UNL     1      -1.299   5.522   4.367  1.00  0.00     0.209 A 
HETATM   12  N5  UNL     1      -1.788   4.277   4.369  1.00  0.00    -0.237 N 
HETATM   13  C8  UNL     1      -2.524   4.166   5.518  1.00  0.00     0.173 A 
HETATM   14  N9  UNL     1      -3.241   3.157   6.053  1.00  0.00    -0.173 N 
ATOM     15  H9  UNL     1      -3.283   2.273   5.546  1.00  0.00     0.186 HD
ENDROOT
BRANCH  12  16
HETATM   16  N6  UNL     1      -1.673   3.228   3.472  1.00  0.00    -0.324 N 
ATOM     17  H6  UNL     1      -2.131   2.343   3.692  1.00  0.00     0.180 HD
BRANCH  16  18
HETATM   18  C5  UNL     1      -0.942   3.335   2.256  1.00  0.00     0.181 C 
BRANCH  18  19
HETATM   19  C6  UNL     1      -1.388   2.422   1.154  1.00  0.00     0.230 C 
BRANCH  19  20
HETATM   20  O1  UNL     1      -2.350   1.507   1.589  1.00  0.00    -0.384 OA
ATOM     21  H1  UNL     1      -2.781   1.071   0.863  1.00  0.00     0.210 HD
ENDBRANCH  19  20
BRANCH  19  22
HETATM   22  C7  UNL     1      -0.209   1.684   0.658  1.00  0.00     0.266 C 
HETATM   23  O2  UNL     1       0.038   0.549   1.103  1.00  0.00    -0.269 OA
HETATM   24  N7  UNL     1       0.635   2.253  -0.314  1.00  0.00    -0.274 N 
ATOM     25  H7  UNL     1       0.441   3.182  -0.688  1.00  0.00     0.189 HD
BRANCH  24  26
HETATM   26  N8  UNL     1       1.740   1.528  -0.761  1.00  0.00    -0.343 N 
ATOM     27  H82 UNL     1       2.361   1.091  -0.081  1.00  0.00     0.176 HD
ATOM     28  H81 UNL     1       1.907   1.448  -1.764  1.00  0.00     0.176 HD
ENDBRANCH  24  26
ENDBRANCH  19  22
ENDBRANCH  18  19
ENDBRANCH  16  18
ENDBRANCH  12  16
BRANCH   1  29
HETATM   29  N1  UNL     1      -4.587   2.266   7.710  1.00  0.00    -0.234 N 
ATOM     30  H12 UNL     1      -4.983   2.293   8.650  1.00  0.00     0.174 HD
ATOM     31  H11 UNL     1      -4.740   1.430   7.147  1.00  0.00     0.174 HD
ENDBRANCH   1  29
TORSDOF 7
ENDMDL
MODEL 2
REMARK VINA RESULT: -6.968220099      1.102      1.345
REMARK  7 active torsions:
REMARK  status: ('A' for Active; 'I' for Inactive)
REMARK    1  A    between atoms: N1_1  and  C1_4 
REMARK    2  A    between atoms: N5_15  and  N6_16 
REMARK    3  A    between atoms: N6_16  and  C5_18 
REMARK    4  A    between atoms: C5_18  and  C6_19 
REMARK    5  A    between atoms: C6_19  and  O1_20 
REMARK    6  A    between atoms: C6_19  and  C7_22 
REMARK       I    between atoms: C7_22  and  N7_24 
REMARK    7  A    between atoms: N7_24  and  N8_26 
ROOT
HETATM    1  C1  UNL     1      -4.006   3.185   7.257  1.00  0.00     0.679 A 
HETATM    2  N2  UNL     1      -4.007   4.241   8.088  1.00  0.00    -0.175 N 
ATOM      3  H2  UNL     1      -4.538   4.188   8.956  1.00  0.00     0.186 HD
HETATM    4  C2  UNL     1      -3.321   5.374   7.807  1.00  0.00     0.145 A 
HETATM    5  N3  UNL     1      -3.321   6.380   8.599  1.00  0.00    -0.383 N 
ATOM      6  H31 UNL     1      -2.805   7.234   8.387  1.00  0.00     0.157 HD
ATOM      7  H32 UNL     1      -3.854   6.325   9.467  1.00  0.00     0.157 HD
HETATM    8  C3  UNL     1      -2.597   5.449   6.627  1.00  0.00     0.124 A 
HETATM    9  N4  UNL     1      -1.829   6.394   6.057  1.00  0.00    -0.345 N 
ATOM     10  H4  UNL     1      -1.629   7.317   6.441  1.00  0.00     0.167 HD
HETATM   11  C4  UNL     1      -1.372   5.903   4.888  1.00  0.00     0.209 A 
HETATM   12  N5  UNL     1      -1.827   4.660   4.689  1.00  0.00    -0.237 N 
HETATM   13  C8  UNL     1      -2.600   4.366   5.779  1.00  0.00     0.173 A 
HETATM   14  N9  UNL     1      -3.308   3.273   6.131  1.00  0.00    -0.173 N 
ATOM     15  H9  UNL     1      -3.308   2.473   5.499  1.00  0.00     0.186 HD
ENDROOT
BRANCH  12  16
HETATM   16  N6  UNL     1      -1.650   3.758   3.653  1.00  0.00    -0.324 N 
ATOM     17  H6  UNL     1      -2.367   3.050   3.493  1.00  0.00     0.180 HD
BRANCH  16  18
HETATM   18  C5  UNL     1      -0.509   3.778   2.803  1.00  0.00     0.181 C 
BRANCH  18  19
HETATM   19  C6  UNL     1      -0.795   3.643   1.338  1.00  0.00     0.230 C 
BRANCH  19  20
HETATM   20  O1  UNL     1      -1.839   4.477   0.928  1.00  0.00    -0.384 OA
ATOM     21  H1  UNL     1      -1.785   4.686   0.003  1.00  0.00     0.210 HD
ENDBRANCH  19  20
BRANCH  19  22
HETATM   22  C7  UNL     1      -1.164   2.239   1.067  1.00  0.00     0.266 C 
HETATM   23  O2  UNL     1      -2.314   1.843   1.331  1.00  0.00    -0.269 OA
HETATM   24  N7  UNL     1      -0.229   1.347   0.511  1.00  0.00    -0.274 N 
ATOM     25  H7  UNL     1       0.716   1.660   0.289  1.00  0.00     0.189 HD
BRANCH  24  26
HETATM   26  N8  UNL     1      -0.611   0.028   0.267  1.00  0.00    -0.343 N 
ATOM     27  H82 UNL     1      -1.512  -0.305   0.610  1.00  0.00     0.176 HD
ATOM     28  H81 UNL     1       0.020  -0.584  -0.251  1.00  0.00     0.176 HD
ENDBRANCH  24  26
ENDBRANCH  19  22
ENDBRANCH  18  19
ENDBRANCH  16  18
ENDBRANCH  12  16
BRANCH   1  29
HETATM   29  N1  UNL     1      -4.689   2.119   7.585  1.00  0.00    -0.234 N 
ATOM     30  H12 UNL     1      -4.384   1.469   8.308  1.00  0.00     0.174 HD
ATOM     31  H11 UNL     1      -5.564   1.924   7.099  1.00  0.00     0.174 HD
ENDBRANCH   1  29
TORSDOF 7
ENDMDL
MODEL 3
REMARK VINA RESULT: -6.945597198      2.753      7.791
REMARK  7 active torsions:
REMARK  status: ('A' for Active; 'I' for Inactive)
REMARK    1  A    between atoms: N1_1  and  C1_4 
REMARK    2  A    between atoms: N5_15  and  N6_16 
REMARK    3  A    between atoms: N6_16  and  C5_18 
REMARK    4  A    between atoms: C5_18  and  C6_19 
REMARK    5  A    between atoms: C6_19  and  O1_20 
REMARK    6  A    between atoms: C6_19  and  C7_22 
REMARK       I    between atoms: C7_22  and  N7_24 
REMARK    7  A    between atoms: N7_24  and  N8_26 
ROOT
HETATM    1  C1  UNL     1       2.105   2.901  -0.484  1.00  0.00     0.679 A 
HETATM    2  N2  UNL     1       2.489   1.754  -1.069  1.00  0.00    -0.175 N 
ATOM      3  H2  UNL     1       3.382   1.723  -1.561  1.00  0.00     0.186 HD
HETATM    4  C2  UNL     1       1.725   0.637  -1.025  1.00  0.00     0.145 A 
HETATM    5  N3  UNL     1       2.091  -0.456  -1.582  1.00  0.00    -0.383 N 
ATOM      6  H31 UNL     1       1.515  -1.297  -1.549  1.00  0.00     0.157 HD
ATOM      7  H32 UNL     1       2.984  -0.484  -2.075  1.00  0.00     0.157 HD
HETATM    8  C3  UNL     1       0.512   0.676  -0.357  1.00  0.00     0.124 A 
HETATM    9  N4  UNL     1      -0.461  -0.223  -0.128  1.00  0.00    -0.345 N 
ATOM     10  H4  UNL     1      -0.469  -1.192  -0.442  1.00  0.00     0.167 HD
HETATM   11  C4  UNL     1      -1.424   0.387   0.593  1.00  0.00     0.209 A 
HETATM   12  N5  UNL     1      -1.095   1.661   0.835  1.00  0.00    -0.237 N 
HETATM   13  C8  UNL     1       0.122   1.853   0.240  1.00  0.00     0.173 A 
HETATM   14  N9  UNL     1       0.940   2.922   0.151  1.00  0.00    -0.173 N 
ATOM     15  H9  UNL     1       0.647   3.792   0.595  1.00  0.00     0.186 HD
ENDROOT
BRANCH  12  16
HETATM   16  N6  UNL     1      -1.747   2.680   1.510  1.00  0.00    -0.324 N 
ATOM     17  H6  UNL     1      -2.634   3.022   1.141  1.00  0.00     0.180 HD
BRANCH  16  18
HETATM   18  C5  UNL     1      -1.228   3.269   2.697  1.00  0.00     0.181 C 
BRANCH  18  19
HETATM   19  C6  UNL     1      -1.189   4.768   2.707  1.00  0.00     0.230 C 
BRANCH  19  20
HETATM   20  O1  UNL     1       0.017   5.264   2.204  1.00  0.00    -0.384 OA
ATOM     21  H1  UNL     1       0.680   5.340   2.879  1.00  0.00     0.210 HD
ENDBRANCH  19  20
BRANCH  19  22
HETATM   22  C7  UNL     1      -1.354   5.226   4.102  1.00  0.00     0.266 C 
HETATM   23  O2  UNL     1      -1.685   6.404   4.327  1.00  0.00    -0.269 OA
HETATM   24  N7  UNL     1      -1.142   4.341   5.175  1.00  0.00    -0.274 N 
ATOM     25  H7  UNL     1      -0.872   3.373   5.002  1.00  0.00     0.189 HD
BRANCH  24  26
HETATM   26  N8  UNL     1      -1.307   4.806   6.480  1.00  0.00    -0.343 N 
ATOM     27  H82 UNL     1      -2.181   5.259   6.744  1.00  0.00     0.176 HD
ATOM     28  H81 UNL     1      -0.546   4.684   7.150  1.00  0.00     0.176 HD
ENDBRANCH  24  26
ENDBRANCH  19  22
ENDBRANCH  18  19
ENDBRANCH  16  18
ENDBRANCH  12  16
BRANCH   1  29
HETATM   29  N1  UNL     1       2.888   3.946  -0.563  1.00  0.00    -0.234 N 
ATOM     30  H12 UNL     1       3.900   3.889  -0.449  1.00  0.00     0.174 HD
ATOM     31  H11 UNL     1       2.474   4.861  -0.744  1.00  0.00     0.174 HD
ENDBRANCH   1  29
TORSDOF 7
ENDMDL
MODEL 4
REMARK VINA RESULT: -6.929348132      2.645      7.874
REMARK  7 active torsions:
REMARK  status: ('A' for Active; 'I' for Inactive)
REMARK    1  A    between atoms: N1_1  and  C1_4 
REMARK    2  A    between atoms: N5_15  and  N6_16 
REMARK    3  A    between atoms: N6_16  and  C5_18 
REMARK    4  A    between atoms: C5_18  and  C6_19 
REMARK    5  A    between atoms: C6_19  and  O1_20 
REMARK    6  A    between atoms: C6_19  and  C7_22 
REMARK       I    between atoms: C7_22  and  N7_24 
REMARK    7  A    between atoms: N7_24  and  N8_26 
ROOT
HETATM    1  C1  UNL     1       2.025   1.991  -0.916  1.00  0.00     0.679 A 
HETATM    2  N2  UNL     1       1.689   0.754  -1.318  1.00  0.00    -0.175 N 
ATOM      3  H2  UNL     1       2.305   0.258  -1.962  1.00  0.00     0.186 HD
HETATM    4  C2  UNL     1       0.557   0.145  -0.893  1.00  0.00     0.145 A 
HETATM    5  N3  UNL     1       0.237  -1.034  -1.275  1.00  0.00    -0.383 N 
ATOM      6  H31 UNL     1      -0.616  -1.493  -0.955  1.00  0.00     0.157 HD
ATOM      7  H32 UNL     1       0.855  -1.529  -1.920  1.00  0.00     0.157 HD
HETATM    8  C3  UNL     1      -0.282   0.816  -0.017  1.00  0.00     0.124 A 
HETATM    9  N4  UNL     1      -1.446   0.514   0.583  1.00  0.00    -0.345 N 
ATOM     10  H4  UNL     1      -1.965  -0.357   0.482  1.00  0.00     0.167 HD
HETATM   11  C4  UNL     1      -1.805   1.570   1.340  1.00  0.00     0.209 A 
HETATM   12  N5  UNL     1      -0.897   2.549   1.245  1.00  0.00    -0.237 N 
HETATM   13  C8  UNL     1       0.066   2.084   0.391  1.00  0.00     0.173 A 
HETATM   14  N9  UNL     1       1.211   2.621  -0.078  1.00  0.00    -0.173 N 
ATOM     15  H9  UNL     1       1.464   3.560   0.227  1.00  0.00     0.186 HD
ENDROOT
BRANCH  12  16
HETATM   16  N6  UNL     1      -0.823   3.810   1.813  1.00  0.00    -0.324 N 
ATOM     17  H6  UNL     1      -0.598   4.604   1.213  1.00  0.00     0.180 HD
BRANCH  16  18
HETATM   18  C5  UNL     1      -1.049   4.042   3.198  1.00  0.00     0.181 C 
BRANCH  18  19
HETATM   19  C6  UNL     1      -1.965   5.185   3.518  1.00  0.00     0.230 C 
BRANCH  19  20
HETATM   20  O1  UNL     1      -1.762   6.274   2.665  1.00  0.00    -0.384 OA
ATOM     21  H1  UNL     1      -2.339   6.246   1.911  1.00  0.00     0.210 HD
ENDBRANCH  19  20
BRANCH  19  22
HETATM   22  C7  UNL     1      -1.708   5.609   4.910  1.00  0.00     0.266 C 
HETATM   23  O2  UNL     1      -0.744   6.357   5.157  1.00  0.00    -0.269 OA
HETATM   24  N7  UNL     1      -2.543   5.175   5.956  1.00  0.00    -0.274 N 
ATOM     25  H7  UNL     1      -3.337   4.564   5.764  1.00  0.00     0.189 HD
BRANCH  24  26
HETATM   26  N8  UNL     1      -2.273   5.594   7.258  1.00  0.00    -0.343 N 
ATOM     27  H82 UNL     1      -1.358   5.990   7.478  1.00  0.00     0.176 HD
ATOM     28  H81 UNL     1      -2.996   5.497   7.971  1.00  0.00     0.176 HD
ENDBRANCH  24  26
ENDBRANCH  19  22
ENDBRANCH  18  19
ENDBRANCH  16  18
ENDBRANCH  12  16
BRANCH   1  29
HETATM   29  N1  UNL     1       3.132   2.525  -1.364  1.00  0.00    -0.234 N 
ATOM     30  H12 UNL     1       3.916   1.968  -1.701  1.00  0.00     0.174 HD
ATOM     31  H11 UNL     1       3.221   3.541  -1.377  1.00  0.00     0.174 HD
ENDBRANCH   1  29
TORSDOF 7
ENDMDL
MODEL 5
REMARK VINA RESULT: -6.917141136      2.681      7.979
REMARK  7 active torsions:
REMARK  status: ('A' for Active; 'I' for Inactive)
REMARK    1  A    between atoms: N1_1  and  C1_4 
REMARK    2  A    between atoms: N5_15  and  N6_16 
REMARK    3  A    between atoms: N6_16  and  C5_18 
REMARK    4  A    between atoms: C5_18  and  C6_19 
REMARK    5  A    between atoms: C6_19  and  O1_20 
REMARK    6  A    between atoms: C6_19  and  C7_22 
REMARK       I    between atoms: C7_22  and  N7_24 
REMARK    7  A    between atoms: N7_24  and  N8_26 
ROOT
HETATM    1  C1  UNL     1       2.260   1.090  -1.000  1.00  0.00     0.679 A 
HETATM    2  N2  UNL     1       1.879  -0.033  -1.632  1.00  0.00    -0.175 N 
ATOM      3  H2  UNL     1       2.518  -0.467  -2.298  1.00  0.00     0.186 HD
HETATM    4  C2  UNL     1       0.673  -0.605  -1.412  1.00  0.00     0.145 A 
HETATM    5  N3  UNL     1       0.310  -1.676  -2.013  1.00  0.00    -0.383 N 
ATOM      6  H31 UNL     1      -0.599  -2.107  -1.847  1.00  0.00     0.157 HD
ATOM      7  H32 UNL     1       0.951  -2.109  -2.679  1.00  0.00     0.157 HD
HETATM    8  C3  UNL     1      -0.198  -0.017  -0.507  1.00  0.00     0.124 A 
HETATM    9  N4  UNL     1      -1.432  -0.314  -0.066  1.00  0.00    -0.345 N 
ATOM     10  H4  UNL     1      -1.998  -1.111  -0.356  1.00  0.00     0.167 HD
HETATM   11  C4  UNL     1      -1.789   0.631   0.827  1.00  0.00     0.209 A 
HETATM   12  N5  UNL     1      -0.811   1.533   0.974  1.00  0.00    -0.237 N 
HETATM   13  C8  UNL     1       0.195   1.133   0.137  1.00  0.00     0.173 A 
HETATM   14  N9  UNL     1       1.414   1.642  -0.138  1.00  0.00    -0.173 N 
ATOM     15  H9  UNL     1       1.701   2.494   0.342  1.00  0.00     0.186 HD
ENDROOT
BRANCH  12  16
HETATM   16  N6  UNL     1      -0.705   2.674   1.752  1.00  0.00    -0.324 N 
ATOM     17  H6  UNL     1      -0.020   2.689   2.508  1.00  0.00     0.180 HD
BRANCH  16  18
HETATM   18  C5  UNL     1      -1.512   3.826   1.538  1.00  0.00     0.181 C 
BRANCH  18  19
HETATM   19  C6  UNL     1      -1.267   4.967   2.479  1.00  0.00     0.230 C 
BRANCH  19  20
HETATM   20  O1  UNL     1       0.044   5.445   2.394  1.00  0.00    -0.384 OA
ATOM     21  H1  UNL     1       0.119   6.337   2.710  1.00  0.00     0.210 HD
ENDBRANCH  19  20
BRANCH  19  22
HETATM   22  C7  UNL     1      -1.519   4.495   3.855  1.00  0.00     0.266 C 
HETATM   23  O2  UNL     1      -2.175   3.453   4.037  1.00  0.00    -0.269 OA
HETATM   24  N7  UNL     1      -1.023   5.211   4.961  1.00  0.00    -0.274 N 
ATOM     25  H7  UNL     1      -0.483   6.064   4.823  1.00  0.00     0.189 HD
BRANCH  24  26
HETATM   26  N8  UNL     1      -1.279   4.736   6.247  1.00  0.00    -0.343 N 
ATOM     27  H82 UNL     1      -1.091   5.336   7.050  1.00  0.00     0.176 HD
ATOM     28  H81 UNL     1      -1.652   3.793   6.362  1.00  0.00     0.176 HD
ENDBRANCH  24  26
ENDBRANCH  19  22
ENDBRANCH  18  19
ENDBRANCH  16  18
ENDBRANCH  12  16
BRANCH   1  29
HETATM   29  N1  UNL     1       3.438   1.595  -1.257  1.00  0.00    -0.234 N 
ATOM     30  H12 UNL     1       4.042   1.238  -1.997  1.00  0.00     0.174 HD
ATOM     31  H11 UNL     1       3.774   2.378  -0.697  1.00  0.00     0.174 HD
ENDBRANCH   1  29
TORSDOF 7
ENDMDL
