MODEL 1
REMARK VINA RESULT: -7.482172907      0.000      0.000
REMARK  9 active torsions:
REMARK  status: ('A' for Active; 'I' for Inactive)
REMARK    1  A    between atoms: N1_1  and  N2_4 
REMARK    2  A    between atoms: N2_4  and  C1_6 
REMARK    3  A    between atoms: C1_6  and  O1_7 
REMARK    4  A    between atoms: C1_6  and  C2_9 
REMARK    5  A    between atoms: C2_9  and  N3_10 
REMARK    6  A    between atoms: C2_9  and  N6_25 
REMARK    7  A    between atoms: C7_20  and  N5_21 
REMARK    8  A    between atoms: N5_21  and  O4_23 
REMARK    9  A    between atoms: N6_25  and  N7_26 
ROOT
HETATM    1  N3  UNL     1      -2.134   3.877   4.089  1.00  0.00    -0.360 N 
ATOM      2  H3  UNL     1      -2.712   3.130   3.703  1.00  0.00     0.161 HD
HETATM    3  C3  UNL     1      -2.605   4.368   5.151  1.00  0.00     0.127 A 
HETATM    4  C4  UNL     1      -3.885   3.829   5.692  1.00  0.00     0.277 A 
HETATM    5  O2  UNL     1      -4.464   2.892   5.071  1.00  0.00    -0.266 OA
HETATM    6  N4  UNL     1      -4.398   4.388   6.878  1.00  0.00    -0.288 N 
ATOM      7  H4  UNL     1      -5.274   4.019   7.247  1.00  0.00     0.172 HD
HETATM    8  C5  UNL     1      -3.761   5.436   7.584  1.00  0.00     0.250 A 
HETATM    9  O3  UNL     1      -4.273   5.895   8.644  1.00  0.00    -0.268 OA
HETATM   10  C6  UNL     1      -2.514   5.933   7.023  1.00  0.00     0.108 A 
HETATM   11  C7  UNL     1      -1.985   5.441   5.904  1.00  0.00     0.091 A 
ENDROOT
BRANCH   1  12
HETATM   12  C2  UNL     1      -0.979   4.136   3.319  1.00  0.00     0.246 C 
BRANCH  12  13
HETATM   13  C1  UNL     1      -0.798   3.086   2.207  1.00  0.00     0.272 C 
BRANCH  13  14
HETATM   14  N2  UNL     1      -1.977   2.310   2.009  1.00  0.00    -0.311 N 
ATOM     15  H2  UNL     1      -2.885   2.593   2.379  1.00  0.00     0.182 HD
BRANCH  14  16
HETATM   16  N1  UNL     1      -1.806   1.153   1.283  1.00  0.00    -0.347 N 
ATOM     17  H12 UNL     1      -1.262   1.142   0.420  1.00  0.00     0.176 HD
ATOM     18  H11 UNL     1      -2.259   0.324   1.668  1.00  0.00     0.176 HD
ENDBRANCH  14  16
ENDBRANCH  13  14
BRANCH  13  19
HETATM   19  O1  UNL     1      -0.297   3.707   1.092  1.00  0.00    -0.372 OA
ATOM     20  H1  UNL     1       0.514   4.187   1.215  1.00  0.00     0.212 HD
ENDBRANCH  13  19
ENDBRANCH  12  13
BRANCH  12  21
HETATM   21  N6  UNL     1      -0.947   5.463   2.732  1.00  0.00    -0.118 NA
BRANCH  21  22
HETATM   22  N7  UNL     1      -2.147   5.860   2.189  1.00  0.00    -0.346 N 
ATOM     23  H72 UNL     1      -2.999   5.310   2.295  1.00  0.00     0.172 HD
ATOM     24  H71 UNL     1      -2.097   6.743   1.680  1.00  0.00     0.172 HD
ENDBRANCH  21  22
ENDBRANCH  12  21
ENDBRANCH   1  12
BRANCH  11  25
HETATM   25  N5  UNL     1      -0.754   6.072   5.524  1.00  0.00    -0.267 N 
ATOM     26  H5  UNL     1       0.006   5.554   5.084  1.00  0.00     0.194 HD
BRANCH  25  27
HETATM   27  O4  UNL     1      -0.670   7.309   5.768  1.00  0.00    -0.289 OA
ATOM     28  H4  UNL     1      -0.217   7.831   5.116  1.00  0.00     0.244 HD
ENDBRANCH  25  27
ENDBRANCH  11  25
TORSDOF 9
ENDMDL
MODEL 2
REMARK VINA RESULT: -7.245327482      1.012      1.012
REMARK  9 active torsions:
REMARK  status: ('A' for Active; 'I' for Inactive)
REMARK    1  A    between atoms: N1_1  and  N2_4 
REMARK    2  A    between atoms: N2_4  and  C1_6 
REMARK    3  A    between atoms: C1_6  and  O1_7 
REMARK    4  A    between atoms: C1_6  and  C2_9 
REMARK    5  A    between atoms: C2_9  and  N3_10 
REMARK    6  A    between atoms: C2_9  and  N6_25 
REMARK    7  A    between atoms: C7_20  and  N5_21 
REMARK    8  A    between atoms: N5_21  and  O4_23 
REMARK    9  A    between atoms: N6_25  and  N7_26 
ROOT
HETATM    1  N3  UNL     1      -2.296   3.674   3.944  1.00  0.00    -0.360 N 
ATOM      2  H3  UNL     1      -2.972   2.991   3.602  1.00  0.00     0.161 HD
HETATM    3  C3  UNL     1      -2.634   4.199   5.040  1.00  0.00     0.127 A 
HETATM    4  C4  UNL     1      -3.916   3.783   5.677  1.00  0.00     0.277 A 
HETATM    5  O2  UNL     1      -4.630   2.912   5.099  1.00  0.00    -0.266 OA
HETATM    6  N4  UNL     1      -4.280   4.378   6.899  1.00  0.00    -0.288 N 
ATOM      7  H4  UNL     1      -5.157   4.093   7.333  1.00  0.00     0.172 HD
HETATM    8  C5  UNL     1      -3.492   5.352   7.556  1.00  0.00     0.250 A 
HETATM    9  O3  UNL     1      -3.874   5.849   8.653  1.00  0.00    -0.268 OA
HETATM   10  C6  UNL     1      -2.249   5.730   6.902  1.00  0.00     0.108 A 
HETATM   11  C7  UNL     1      -1.857   5.199   5.745  1.00  0.00     0.091 A 
ENDROOT
BRANCH   1  12
HETATM   12  C2  UNL     1      -1.183   3.827   3.088  1.00  0.00     0.246 C 
BRANCH  12  13
HETATM   13  C1  UNL     1      -1.387   3.071   1.762  1.00  0.00     0.272 C 
BRANCH  13  14
HETATM   14  N2  UNL     1      -0.173   2.952   1.024  1.00  0.00    -0.311 N 
ATOM     15  H2  UNL     1       0.472   3.734   0.905  1.00  0.00     0.182 HD
BRANCH  14  16
HETATM   16  N1  UNL     1       0.068   1.710   0.482  1.00  0.00    -0.347 N 
ATOM     17  H12 UNL     1      -0.280   0.860   0.925  1.00  0.00     0.176 HD
ATOM     18  H11 UNL     1       0.613   1.708  -0.381  1.00  0.00     0.176 HD
ENDBRANCH  14  16
ENDBRANCH  13  14
BRANCH  13  19
HETATM   19  O1  UNL     1      -2.045   1.897   2.021  1.00  0.00    -0.372 OA
ATOM     20  H1  UNL     1      -2.948   1.983   2.305  1.00  0.00     0.212 HD
ENDBRANCH  13  19
ENDBRANCH  12  13
BRANCH  12  21
HETATM   21  N6  UNL     1      -0.843   5.209   2.803  1.00  0.00    -0.118 NA
BRANCH  21  22
HETATM   22  N7  UNL     1      -1.767   5.857   2.017  1.00  0.00    -0.346 N 
ATOM     23  H72 UNL     1      -2.717   5.509   1.895  1.00  0.00     0.172 HD
ATOM     24  H71 UNL     1      -1.410   6.707   1.578  1.00  0.00     0.172 HD
ENDBRANCH  21  22
ENDBRANCH  12  21
ENDBRANCH   1  12
BRANCH  11  25
HETATM   25  N5  UNL     1      -0.602   5.710   5.274  1.00  0.00    -0.267 N 
ATOM     26  H5  UNL     1       0.091   5.113   4.824  1.00  0.00     0.194 HD
BRANCH  25  27
HETATM   27  O4  UNL     1      -0.409   6.946   5.450  1.00  0.00    -0.289 OA
ATOM     28  H4  UNL     1      -1.190   7.478   5.553  1.00  0.00     0.244 HD
ENDBRANCH  25  27
ENDBRANCH  11  25
TORSDOF 9
ENDMDL
MODEL 3
REMARK VINA RESULT: -6.035033087      1.623      1.733
REMARK  9 active torsions:
REMARK  status: ('A' for Active; 'I' for Inactive)
REMARK    1  A    between atoms: N1_1  and  N2_4 
REMARK    2  A    between atoms: N2_4  and  C1_6 
REMARK    3  A    between atoms: C1_6  and  O1_7 
REMARK    4  A    between atoms: C1_6  and  C2_9 
REMARK    5  A    between atoms: C2_9  and  N3_10 
REMARK    6  A    between atoms: C2_9  and  N6_25 
REMARK    7  A    between atoms: C7_20  and  N5_21 
REMARK    8  A    between atoms: N5_21  and  O4_23 
REMARK    9  A    between atoms: N6_25  and  N7_26 
ROOT
HETATM    1  N3  UNL     1      -1.970   4.596   3.402  1.00  0.00    -0.360 N 
ATOM      2  H3  UNL     1      -2.705   4.897   2.762  1.00  0.00     0.161 HD
HETATM    3  C3  UNL     1      -2.280   4.746   4.615  1.00  0.00     0.127 A 
HETATM    4  C4  UNL     1      -3.614   5.317   4.957  1.00  0.00     0.277 A 
HETATM    5  O2  UNL     1      -4.400   5.634   4.018  1.00  0.00    -0.266 OA
HETATM    6  N4  UNL     1      -3.945   5.479   6.316  1.00  0.00    -0.288 N 
ATOM      7  H4  UNL     1      -4.858   5.869   6.548  1.00  0.00     0.172 HD
HETATM    8  C5  UNL     1      -3.076   5.128   7.376  1.00  0.00     0.250 A 
HETATM    9  O3  UNL     1      -3.432   5.297   8.576  1.00  0.00    -0.268 OA
HETATM   10  C6  UNL     1      -1.784   4.574   7.000  1.00  0.00     0.108 A 
HETATM   11  C7  UNL     1      -1.420   4.400   5.730  1.00  0.00     0.091 A 
ENDROOT
BRANCH   1  12
HETATM   12  C2  UNL     1      -0.827   4.100   2.738  1.00  0.00     0.246 C 
BRANCH  12  13
HETATM   13  C1  UNL     1      -1.209   3.334   1.458  1.00  0.00     0.272 C 
BRANCH  13  14
HETATM   14  N2  UNL     1      -2.027   2.201   1.738  1.00  0.00    -0.311 N 
ATOM     15  H2  UNL     1      -2.886   2.271   2.284  1.00  0.00     0.182 HD
BRANCH  14  16
HETATM   16  N1  UNL     1      -1.579   1.007   1.221  1.00  0.00    -0.347 N 
ATOM     17  H12 UNL     1      -0.583   0.819   1.104  1.00  0.00     0.176 HD
ATOM     18  H11 UNL     1      -2.307   0.339   0.968  1.00  0.00     0.176 HD
ENDBRANCH  14  16
ENDBRANCH  13  14
BRANCH  13  19
HETATM   19  O1  UNL     1      -1.713   4.224   0.546  1.00  0.00    -0.372 OA
ATOM     20  H1  UNL     1      -1.111   4.510  -0.130  1.00  0.00     0.212 HD
ENDBRANCH  13  19
ENDBRANCH  12  13
BRANCH  12  21
HETATM   21  N6  UNL     1       0.153   5.119   2.411  1.00  0.00    -0.118 NA
BRANCH  21  22
HETATM   22  N7  UNL     1       0.927   4.814   1.315  1.00  0.00    -0.346 N 
ATOM     23  H72 UNL     1       0.559   4.845   0.364  1.00  0.00     0.172 HD
ATOM     24  H71 UNL     1       1.887   4.558   1.546  1.00  0.00     0.172 HD
ENDBRANCH  21  22
ENDBRANCH  12  21
ENDBRANCH   1  12
BRANCH  11  25
HETATM   25  N5  UNL     1      -0.107   3.842   5.580  1.00  0.00    -0.267 N 
ATOM     26  H5  UNL     1       0.110   3.159   4.855  1.00  0.00     0.194 HD
BRANCH  25  27
HETATM   27  O4  UNL     1       0.762   4.249   6.401  1.00  0.00    -0.289 OA
ATOM     28  H4  UNL     1       1.266   3.574   6.841  1.00  0.00     0.244 HD
ENDBRANCH  25  27
ENDBRANCH  11  25
TORSDOF 9
ENDMDL
MODEL 4
REMARK VINA RESULT: -5.613060447      2.553      6.462
REMARK  9 active torsions:
REMARK  status: ('A' for Active; 'I' for Inactive)
REMARK    1  A    between atoms: N1_1  and  N2_4 
REMARK    2  A    between atoms: N2_4  and  C1_6 
REMARK    3  A    between atoms: C1_6  and  O1_7 
REMARK    4  A    between atoms: C1_6  and  C2_9 
REMARK    5  A    between atoms: C2_9  and  N3_10 
REMARK    6  A    between atoms: C2_9  and  N6_25 
REMARK    7  A    between atoms: C7_20  and  N5_21 
REMARK    8  A    between atoms: N5_21  and  O4_23 
REMARK    9  A    between atoms: N6_25  and  N7_26 
ROOT
HETATM    1  N3  UNL     1      -0.413   4.773   2.523  1.00  0.00    -0.360 N 
ATOM      2  H3  UNL     1       0.217   5.574   2.570  1.00  0.00     0.161 HD
HETATM    3  C3  UNL     1      -0.095   3.946   1.626  1.00  0.00     0.127 A 
HETATM    4  C4  UNL     1       1.103   4.218   0.781  1.00  0.00     0.277 A 
HETATM    5  O2  UNL     1       1.768   5.273   0.989  1.00  0.00    -0.266 OA
HETATM    6  N4  UNL     1       1.445   3.285  -0.216  1.00  0.00    -0.288 N 
ATOM      7  H4  UNL     1       2.264   3.473  -0.793  1.00  0.00     0.172 HD
HETATM    8  C5  UNL     1       0.710   2.100  -0.458  1.00  0.00     0.250 A 
HETATM    9  O3  UNL     1       1.069   1.302  -1.369  1.00  0.00    -0.268 OA
HETATM   10  C6  UNL     1      -0.451   1.872   0.388  1.00  0.00     0.108 A 
HETATM   11  C7  UNL     1      -0.819   2.721   1.345  1.00  0.00     0.091 A 
ENDROOT
BRANCH   1  12
HETATM   12  C2  UNL     1      -1.453   4.830   3.477  1.00  0.00     0.246 C 
BRANCH  12  13
HETATM   13  C1  UNL     1      -0.965   4.380   4.867  1.00  0.00     0.272 C 
BRANCH  13  14
HETATM   14  N2  UNL     1      -0.968   5.452   5.807  1.00  0.00    -0.311 N 
ATOM     15  H2  UNL     1      -0.335   6.248   5.727  1.00  0.00     0.182 HD
BRANCH  14  16
HETATM   16  N1  UNL     1      -1.883   5.338   6.829  1.00  0.00    -0.347 N 
ATOM     17  H12 UNL     1      -1.941   4.494   7.399  1.00  0.00     0.176 HD
ATOM     18  H11 UNL     1      -2.486   6.149   6.968  1.00  0.00     0.176 HD
ENDBRANCH  14  16
ENDBRANCH  13  14
BRANCH  13  19
HETATM   19  O1  UNL     1      -1.664   3.260   5.237  1.00  0.00    -0.372 OA
ATOM     20  H1  UNL     1      -2.289   3.377   5.943  1.00  0.00     0.212 HD
ENDBRANCH  13  19
ENDBRANCH  12  13
BRANCH  12  21
HETATM   21  N6  UNL     1      -2.078   6.135   3.590  1.00  0.00    -0.118 NA
BRANCH  21  22
HETATM   22  N7  UNL     1      -2.414   6.696   2.380  1.00  0.00    -0.346 N 
ATOM     23  H72 UNL     1      -1.883   6.513   1.529  1.00  0.00     0.172 HD
ATOM     24  H71 UNL     1      -3.234   7.303   2.421  1.00  0.00     0.172 HD
ENDBRANCH  21  22
ENDBRANCH  12  21
ENDBRANCH   1  12
BRANCH  11  25
HETATM   25  N5  UNL     1      -1.991   2.308   2.061  1.00  0.00    -0.267 N 
ATOM     26  H5  UNL     1      -2.278   2.754   2.932  1.00  0.00     0.194 HD
BRANCH  25  27
HETATM   27  O4  UNL     1      -2.646   1.357   1.547  1.00  0.00    -0.289 OA
ATOM     28  H4  UNL     1      -3.093   1.554   0.732  1.00  0.00     0.244 HD
ENDBRANCH  25  27
ENDBRANCH  11  25
TORSDOF 9
ENDMDL
MODEL 5
REMARK VINA RESULT: -5.586633052      2.171      2.782
REMARK  9 active torsions:
REMARK  status: ('A' for Active; 'I' for Inactive)
REMARK    1  A    between atoms: N1_1  and  N2_4 
REMARK    2  A    between atoms: N2_4  and  C1_6 
REMARK    3  A    between atoms: C1_6  and  O1_7 
REMARK    4  A    between atoms: C1_6  and  C2_9 
REMARK    5  A    between atoms: C2_9  and  N3_10 
REMARK    6  A    between atoms: C2_9  and  N6_25 
REMARK    7  A    between atoms: C7_20  and  N5_21 
REMARK    8  A    between atoms: N5_21  and  O4_23 
REMARK    9  A    between atoms: N6_25  and  N7_26 
ROOT
HETATM    1  N3  UNL     1      -0.596   3.822   3.199  1.00  0.00    -0.360 N 
ATOM      2  H3  UNL     1       0.122   3.144   3.456  1.00  0.00     0.161 HD
HETATM    3  C3  UNL     1      -1.187   4.319   4.196  1.00  0.00     0.127 A 
HETATM    4  C4  UNL     1      -0.790   3.884   5.565  1.00  0.00     0.277 A 
HETATM    5  O2  UNL     1       0.132   3.026   5.688  1.00  0.00    -0.266 OA
HETATM    6  N4  UNL     1      -1.459   4.448   6.667  1.00  0.00    -0.288 N 
ATOM      7  H4  UNL     1      -1.186   4.149   7.603  1.00  0.00     0.172 HD
HETATM    8  C5  UNL     1      -2.490   5.408   6.543  1.00  0.00     0.250 A 
HETATM    9  O3  UNL     1      -3.052   5.878   7.573  1.00  0.00    -0.268 OA
HETATM   10  C6  UNL     1      -2.848   5.807   5.191  1.00  0.00     0.108 A 
HETATM   11  C7  UNL     1      -2.247   5.305   4.113  1.00  0.00     0.091 A 
ENDROOT
BRANCH   1  12
HETATM   12  C2  UNL     1      -0.713   4.000   1.802  1.00  0.00     0.246 C 
BRANCH  12  13
HETATM   13  C1  UNL     1       0.645   3.824   1.099  1.00  0.00     0.272 C 
BRANCH  13  14
HETATM   14  N2  UNL     1       0.513   3.172  -0.162  1.00  0.00    -0.311 N 
ATOM     15  H2  UNL     1       0.087   3.627  -0.970  1.00  0.00     0.182 HD
BRANCH  14  16
HETATM   16  N1  UNL     1       0.999   1.885  -0.214  1.00  0.00    -0.347 N 
ATOM     17  H12 UNL     1       1.938   1.685  -0.561  1.00  0.00     0.176 HD
ATOM     18  H11 UNL     1       0.359   1.162   0.114  1.00  0.00     0.176 HD
ENDBRANCH  14  16
ENDBRANCH  13  14
BRANCH  13  19
HETATM   19  O1  UNL     1       1.291   5.033   1.080  1.00  0.00    -0.372 OA
ATOM     20  H1  UNL     1       1.678   5.308   1.903  1.00  0.00     0.212 HD
ENDBRANCH  13  19
ENDBRANCH  12  13
BRANCH  12  21
HETATM   21  N6  UNL     1      -1.691   3.131   1.176  1.00  0.00    -0.118 NA
BRANCH  21  22
HETATM   22  N7  UNL     1      -1.873   1.935   1.832  1.00  0.00    -0.346 N 
ATOM     23  H72 UNL     1      -2.790   1.622   2.148  1.00  0.00     0.172 HD
ATOM     24  H71 UNL     1      -1.012   1.404   1.968  1.00  0.00     0.172 HD
ENDBRANCH  21  22
ENDBRANCH  12  21
ENDBRANCH   1  12
BRANCH  11  25
HETATM   25  N5  UNL     1      -2.751   5.831   2.877  1.00  0.00    -0.267 N 
ATOM     26  H5  UNL     1      -3.499   5.372   2.359  1.00  0.00     0.194 HD
BRANCH  25  27
HETATM   27  O4  UNL     1      -2.209   6.897   2.470  1.00  0.00    -0.289 OA
ATOM     28  H4  UNL     1      -1.888   6.884   1.575  1.00  0.00     0.244 HD
ENDBRANCH  25  27
ENDBRANCH  11  25
TORSDOF 9
ENDMDL
