MODEL 1
REMARK VINA RESULT: -3.688209277      0.000      0.000
REMARK  2 active torsions:
REMARK  status: ('A' for Active; 'I' for Inactive)
REMARK    1  A    between atoms: N1_1  and  C1_5 
REMARK    2  A    between atoms: C7_11  and  O1_12 
ROOT
HETATM    1  C1  UNL     1     -67.241  18.812 -17.407  1.00  0.00     0.149 C 
HETATM    2  C2  UNL     1     -68.686  19.279 -17.472  1.00  0.00     0.042 C 
HETATM    3  C3  UNL     1     -68.997  19.717 -16.050  1.00  0.00     0.007 C 
HETATM    4  C4  UNL     1     -67.725  19.626 -15.271  1.00  0.00    -0.012 C 
HETATM    5  C5  UNL     1     -67.504  18.238 -14.674  1.00  0.00     0.007 C 
HETATM    6  C6  UNL     1     -67.954  17.185 -15.647  1.00  0.00     0.034 C 
HETATM    7  C7  UNL     1     -67.212  17.381 -16.938  1.00  0.00     0.153 C 
HETATM    8  C8  UNL     1     -66.674  19.761 -16.380  1.00  0.00     0.046 C 
ENDROOT
BRANCH   1   9
HETATM    9  N1  UNL     1     -66.553  18.937 -18.654  1.00  0.00    -0.068 N 
ATOM     10  H13 UNL     1     -67.179  18.744 -19.436  1.00  0.00     0.275 HD
ATOM     11  H12 UNL     1     -66.335  19.914 -18.852  1.00  0.00     0.275 HD
ATOM     12  H11 UNL     1     -65.714  18.359 -18.710  1.00  0.00     0.275 HD
ENDBRANCH   1   9
BRANCH   7  13
HETATM   13  O1  UNL     1     -65.920  16.890 -16.912  1.00  0.00    -0.393 OA
ATOM     14  H1  UNL     1     -65.896  15.973 -17.160  1.00  0.00     0.210 HD
ENDBRANCH   7  13
TORSDOF 2
ENDMDL
MODEL 2
REMARK VINA RESULT: -2.422120179      1.856      2.556
REMARK  2 active torsions:
REMARK  status: ('A' for Active; 'I' for Inactive)
REMARK    1  A    between atoms: N1_1  and  C1_5 
REMARK    2  A    between atoms: C7_11  and  O1_12 
ROOT
HETATM    1  C1  UNL     1     -67.949  19.785 -15.480  1.00  0.00     0.149 C 
HETATM    2  C2  UNL     1     -69.425  19.465 -15.651  1.00  0.00     0.042 C 
HETATM    3  C3  UNL     1     -69.492  17.952 -15.515  1.00  0.00     0.007 C 
HETATM    4  C4  UNL     1     -68.124  17.480 -15.139  1.00  0.00    -0.012 C 
HETATM    5  C5  UNL     1     -67.244  17.217 -16.358  1.00  0.00     0.007 C 
HETATM    6  C6  UNL     1     -67.498  18.259 -17.409  1.00  0.00     0.034 C 
HETATM    7  C7  UNL     1     -67.255  19.613 -16.805  1.00  0.00     0.153 C 
HETATM    8  C8  UNL     1     -67.537  18.733 -14.479  1.00  0.00     0.046 C 
ENDROOT
BRANCH   1   9
HETATM    9  N1  UNL     1     -67.716  21.099 -14.966  1.00  0.00    -0.068 N 
ATOM     10  H13 UNL     1     -67.534  21.758 -15.723  1.00  0.00     0.275 HD
ATOM     11  H12 UNL     1     -68.576  21.503 -14.595  1.00  0.00     0.275 HD
ATOM     12  H11 UNL     1     -66.970  21.131 -14.270  1.00  0.00     0.275 HD
ENDBRANCH   1   9
BRANCH   7  13
HETATM   13  O1  UNL     1     -65.916  19.946 -16.715  1.00  0.00    -0.393 OA
ATOM     14  H1  UNL     1     -65.522  20.022 -17.576  1.00  0.00     0.210 HD
ENDBRANCH   7  13
TORSDOF 2
ENDMDL
MODEL 3
REMARK VINA RESULT: -2.287409384      1.805      2.711
REMARK  2 active torsions:
REMARK  status: ('A' for Active; 'I' for Inactive)
REMARK    1  A    between atoms: N1_1  and  C1_5 
REMARK    2  A    between atoms: C7_11  and  O1_12 
ROOT
HETATM    1  C1  UNL     1     -67.942  17.946 -15.257  1.00  0.00     0.149 C 
HETATM    2  C2  UNL     1     -67.667  19.202 -14.447  1.00  0.00     0.042 C 
HETATM    3  C3  UNL     1     -68.186  20.328 -15.326  1.00  0.00     0.007 C 
HETATM    4  C4  UNL     1     -68.850  19.698 -16.508  1.00  0.00    -0.012 C 
HETATM    5  C5  UNL     1     -67.872  19.415 -17.645  1.00  0.00     0.007 C 
HETATM    6  C6  UNL     1     -66.559  18.944 -17.086  1.00  0.00     0.034 C 
HETATM    7  C7  UNL     1     -66.813  17.735 -16.230  1.00  0.00     0.153 C 
HETATM    8  C8  UNL     1     -69.230  18.321 -15.949  1.00  0.00     0.046 C 
ENDROOT
BRANCH   1   9
HETATM    9  N1  UNL     1     -68.118  16.782 -14.445  1.00  0.00    -0.068 N 
ATOM     10  H13 UNL     1     -67.749  15.954 -14.912  1.00  0.00     0.275 HD
ATOM     11  H12 UNL     1     -67.500  16.807 -13.633  1.00  0.00     0.275 HD
ATOM     12  H11 UNL     1     -69.087  16.635 -14.158  1.00  0.00     0.275 HD
ENDBRANCH   1   9
BRANCH   7  13
HETATM   13  O1  UNL     1     -66.989  16.572 -16.956  1.00  0.00    -0.393 OA
ATOM     14  H1  UNL     1     -67.243  15.850 -16.393  1.00  0.00     0.210 HD
ENDBRANCH   7  13
TORSDOF 2
ENDMDL
MODEL 4
REMARK VINA RESULT: -2.141895179      1.352      2.288
REMARK  2 active torsions:
REMARK  status: ('A' for Active; 'I' for Inactive)
REMARK    1  A    between atoms: N1_1  and  C1_5 
REMARK    2  A    between atoms: C7_11  and  O1_12 
ROOT
HETATM    1  C1  UNL     1     -67.366  18.110 -17.019  1.00  0.00     0.149 C 
HETATM    2  C2  UNL     1     -67.495  17.037 -15.951  1.00  0.00     0.042 C 
HETATM    3  C3  UNL     1     -68.480  17.625 -14.953  1.00  0.00     0.007 C 
HETATM    4  C4  UNL     1     -68.979  18.911 -15.529  1.00  0.00    -0.012 C 
HETATM    5  C5  UNL     1     -68.086  20.096 -15.173  1.00  0.00     0.007 C 
HETATM    6  C6  UNL     1     -66.642  19.679 -15.210  1.00  0.00     0.034 C 
HETATM    7  C7  UNL     1     -66.344  19.122 -16.573  1.00  0.00     0.153 C 
HETATM    8  C8  UNL     1     -68.765  18.679 -17.030  1.00  0.00     0.046 C 
ENDROOT
BRANCH   1   9
HETATM    9  N1  UNL     1     -67.017  17.587 -18.303  1.00  0.00    -0.068 N 
ATOM     10  H13 UNL     1     -66.220  16.955 -18.233  1.00  0.00     0.275 HD
ATOM     11  H12 UNL     1     -67.724  16.928 -18.631  1.00  0.00     0.275 HD
ATOM     12  H11 UNL     1     -66.846  18.313 -18.999  1.00  0.00     0.275 HD
ENDBRANCH   1   9
BRANCH   7  13
HETATM   13  O1  UNL     1     -66.150  20.094 -17.537  1.00  0.00    -0.393 OA
ATOM     14  H1  UNL     1     -66.266  20.965 -17.175  1.00  0.00     0.210 HD
ENDBRANCH   7  13
TORSDOF 2
ENDMDL
MODEL 5
REMARK VINA RESULT: -2.035633012      1.669      2.185
REMARK  2 active torsions:
REMARK  status: ('A' for Active; 'I' for Inactive)
REMARK    1  A    between atoms: N1_1  and  C1_5 
REMARK    2  A    between atoms: C7_11  and  O1_12 
ROOT
HETATM    1  C1  UNL     1     -67.190  17.526 -16.607  1.00  0.00     0.149 C 
HETATM    2  C2  UNL     1     -67.695  17.987 -17.965  1.00  0.00     0.042 C 
HETATM    3  C3  UNL     1     -67.598  19.502 -17.900  1.00  0.00     0.007 C 
HETATM    4  C4  UNL     1     -66.929  19.848 -16.608  1.00  0.00    -0.012 C 
HETATM    5  C5  UNL     1     -67.920  19.977 -15.455  1.00  0.00     0.007 C 
HETATM    6  C6  UNL     1     -68.987  18.926 -15.577  1.00  0.00     0.034 C 
HETATM    7  C7  UNL     1     -68.325  17.578 -15.620  1.00  0.00     0.153 C 
HETATM    8  C8  UNL     1     -66.135  18.568 -16.320  1.00  0.00     0.046 C 
ENDROOT
BRANCH   1   9
HETATM    9  N1  UNL     1     -66.618  16.216 -16.636  1.00  0.00    -0.068 N 
ATOM     10  H13 UNL     1     -66.311  15.974 -17.577  1.00  0.00     0.275 HD
ATOM     11  H12 UNL     1     -65.718  16.201 -16.156  1.00  0.00     0.275 HD
ATOM     12  H11 UNL     1     -67.240  15.498 -16.261  1.00  0.00     0.275 HD
ENDBRANCH   1   9
BRANCH   7  13
HETATM   13  O1  UNL     1     -67.930  17.117 -14.379  1.00  0.00    -0.393 OA
ATOM     14  H1  UNL     1     -67.613  17.827 -13.833  1.00  0.00     0.210 HD
ENDBRANCH   7  13
TORSDOF 2
ENDMDL
