MODEL 1
REMARK VINA RESULT: -6.343011044      0.000      0.000
REMARK  4 active torsions:
REMARK  status: ('A' for Active; 'I' for Inactive)
REMARK    1  A    between atoms: S1_2  and  C2_3 
REMARK    2  A    between atoms: C3_4  and  N1_5 
REMARK    3  A    between atoms: N1_5  and  C4_7 
REMARK    4  A    between atoms: C4_7  and  C6_9 
REMARK       I    between atoms: C6_9  and  N2_11 
ROOT
HETATM    1  N1  UNL     1     -21.629  -6.542  13.065  1.00  0.00    -0.370 N 
ATOM      2  H1  UNL     1     -21.119  -7.426  13.086  1.00  0.00     0.161 HD
ENDROOT
BRANCH   1   3
HETATM    3  C3  UNL     1     -23.048  -6.540  13.298  1.00  0.00     0.088 A 
HETATM    4  C2  UNL     1     -24.063  -6.531  12.373  1.00  0.00     0.040 A 
HETATM    5  C13 UNL     1     -25.316  -6.529  12.838  1.00  0.00    -0.030 A 
HETATM    6  C11 UNL     1     -25.490  -6.533  14.195  1.00  0.00    -0.012 A 
HETATM    7  C14 UNL     1     -26.563  -6.523  11.967  1.00  0.00     0.050 C 
HETATM    8  S3  UNL     1     -23.897  -6.543  14.784  1.00  0.00    -0.076 SA
HETATM    9  C12 UNL     1     -26.755  -6.532  15.010  1.00  0.00     0.057 C 
BRANCH   4  10
HETATM   10  S1  UNL     1     -23.690  -6.524  10.583  1.00  0.00    -0.131 SA
HETATM   11  C1  UNL     1     -23.765  -8.186   9.912  1.00  0.00     0.095 C 
ENDBRANCH   4  10
ENDBRANCH   1   3
BRANCH   1  12
HETATM   12  C4  UNL     1     -20.908  -5.307  12.799  1.00  0.00     0.170 C 
HETATM   13  C5  UNL     1     -19.854  -5.065  13.846  1.00  0.00     0.042 C 
BRANCH  12  14
HETATM   14  C6  UNL     1     -20.383  -5.295  11.402  1.00  0.00     0.242 C 
HETATM   15  O1  UNL     1     -19.687  -6.298  10.991  1.00  0.00    -0.271 OA
HETATM   16  N2  UNL     1     -20.584  -4.265  10.460  1.00  0.00    -0.349 N 
HETATM   17  C7  UNL     1     -19.987  -4.458   9.129  1.00  0.00     0.136 C 
HETATM   18  C10 UNL     1     -21.342  -3.080  10.682  1.00  0.00     0.136 C 
HETATM   19  C8  UNL     1     -18.998  -3.421   8.745  1.00  0.00     0.093 C 
HETATM   20  S2  UNL     1     -19.556  -1.747   9.186  1.00  0.00    -0.166 SA
HETATM   21  C9  UNL     1     -20.460  -1.880  10.785  1.00  0.00     0.093 C 
ENDBRANCH  12  14
ENDBRANCH   1  12
TORSDOF 4
ENDMDL
MODEL 2
REMARK VINA RESULT: -6.275773881      1.203      1.336
REMARK  4 active torsions:
REMARK  status: ('A' for Active; 'I' for Inactive)
REMARK    1  A    between atoms: S1_2  and  C2_3 
REMARK    2  A    between atoms: C3_4  and  N1_5 
REMARK    3  A    between atoms: N1_5  and  C4_7 
REMARK    4  A    between atoms: C4_7  and  C6_9 
REMARK       I    between atoms: C6_9  and  N2_11 
ROOT
HETATM    1  N1  UNL     1     -21.617  -6.526  13.008  1.00  0.00    -0.370 N 
ATOM      2  H1  UNL     1     -21.174  -7.370  12.645  1.00  0.00     0.161 HD
ENDROOT
BRANCH   1   3
HETATM    3  C3  UNL     1     -23.026  -6.535  13.295  1.00  0.00     0.088 A 
HETATM    4  C2  UNL     1     -24.076  -6.525  12.410  1.00  0.00     0.040 A 
HETATM    5  C13 UNL     1     -25.310  -6.535  12.923  1.00  0.00    -0.030 A 
HETATM    6  C11 UNL     1     -25.432  -6.553  14.286  1.00  0.00    -0.012 A 
HETATM    7  C14 UNL     1     -26.589  -6.530  12.101  1.00  0.00     0.050 C 
HETATM    8  S3  UNL     1     -23.817  -6.557  14.812  1.00  0.00    -0.076 SA
HETATM    9  C12 UNL     1     -26.664  -6.567  15.148  1.00  0.00     0.057 C 
BRANCH   4  10
HETATM   10  S1  UNL     1     -23.772  -6.500  10.607  1.00  0.00    -0.131 SA
HETATM   11  C1  UNL     1     -23.955  -8.142   9.909  1.00  0.00     0.095 C 
ENDBRANCH   4  10
ENDBRANCH   1   3
BRANCH   1  12
HETATM   12  C4  UNL     1     -20.813  -5.334  13.225  1.00  0.00     0.170 C 
HETATM   13  C5  UNL     1     -19.561  -5.664  13.994  1.00  0.00     0.042 C 
BRANCH  12  14
HETATM   14  C6  UNL     1     -20.558  -4.628  11.935  1.00  0.00     0.242 C 
HETATM   15  O1  UNL     1     -20.467  -5.323  10.854  1.00  0.00    -0.271 OA
HETATM   16  N2  UNL     1     -20.408  -3.234  11.779  1.00  0.00    -0.349 N 
HETATM   17  C7  UNL     1     -20.174  -2.743  10.412  1.00  0.00     0.136 C 
HETATM   18  C10 UNL     1     -20.499  -2.273  12.825  1.00  0.00     0.136 C 
HETATM   19  C8  UNL     1     -18.892  -2.017  10.233  1.00  0.00     0.093 C 
HETATM   20  S2  UNL     1     -18.551  -0.879  11.611  1.00  0.00    -0.166 SA
HETATM   21  C9  UNL     1     -19.163  -1.691  13.148  1.00  0.00     0.093 C 
ENDBRANCH  12  14
ENDBRANCH   1  12
TORSDOF 4
ENDMDL
MODEL 3
REMARK VINA RESULT: -6.211045803      1.978      2.614
REMARK  4 active torsions:
REMARK  status: ('A' for Active; 'I' for Inactive)
REMARK    1  A    between atoms: S1_2  and  C2_3 
REMARK    2  A    between atoms: C3_4  and  N1_5 
REMARK    3  A    between atoms: N1_5  and  C4_7 
REMARK    4  A    between atoms: C4_7  and  C6_9 
REMARK       I    between atoms: C6_9  and  N2_11 
ROOT
HETATM    1  N1  UNL     1     -21.393  -5.947  12.352  1.00  0.00    -0.370 N 
ATOM      2  H1  UNL     1     -21.358  -5.429  11.475  1.00  0.00     0.161 HD
ENDROOT
BRANCH   1   3
HETATM    3  C3  UNL     1     -22.662  -6.180  12.986  1.00  0.00     0.088 A 
HETATM    4  C2  UNL     1     -23.914  -6.151  12.421  1.00  0.00     0.040 A 
HETATM    5  C13 UNL     1     -24.954  -6.401  13.223  1.00  0.00    -0.030 A 
HETATM    6  C11 UNL     1     -24.693  -6.664  14.540  1.00  0.00    -0.012 A 
HETATM    7  C14 UNL     1     -26.407  -6.417  12.776  1.00  0.00     0.050 C 
HETATM    8  S3  UNL     1     -23.000  -6.556  14.621  1.00  0.00    -0.076 SA
HETATM    9  C12 UNL     1     -25.634  -6.976  15.671  1.00  0.00     0.057 C 
BRANCH   4  10
HETATM   10  S1  UNL     1     -24.124  -5.786  10.642  1.00  0.00    -0.131 SA
HETATM   11  C1  UNL     1     -23.743  -4.067  10.297  1.00  0.00     0.095 C 
ENDBRANCH   4  10
ENDBRANCH   1   3
BRANCH   1  12
HETATM   12  C4  UNL     1     -20.157  -6.439  12.941  1.00  0.00     0.170 C 
HETATM   13  C5  UNL     1     -19.349  -7.207  11.930  1.00  0.00     0.042 C 
BRANCH  12  14
HETATM   14  C6  UNL     1     -19.406  -5.326  13.594  1.00  0.00     0.242 C 
HETATM   15  O1  UNL     1     -19.292  -5.322  14.877  1.00  0.00    -0.271 OA
HETATM   16  N2  UNL     1     -18.787  -4.251  12.922  1.00  0.00    -0.349 N 
HETATM   17  C7  UNL     1     -18.086  -3.265  13.759  1.00  0.00     0.136 C 
HETATM   18  C10 UNL     1     -18.760  -4.066  11.511  1.00  0.00     0.136 C 
HETATM   19  C8  UNL     1     -18.615  -1.882  13.650  1.00  0.00     0.093 C 
HETATM   20  S2  UNL     1     -18.982  -1.423  11.928  1.00  0.00    -0.166 SA
HETATM   21  C9  UNL     1     -19.633  -2.931  11.093  1.00  0.00     0.093 C 
ENDBRANCH  12  14
ENDBRANCH   1  12
TORSDOF 4
ENDMDL
MODEL 4
REMARK VINA RESULT: -5.960570893      1.749      2.284
REMARK  4 active torsions:
REMARK  status: ('A' for Active; 'I' for Inactive)
REMARK    1  A    between atoms: S1_2  and  C2_3 
REMARK    2  A    between atoms: C3_4  and  N1_5 
REMARK    3  A    between atoms: N1_5  and  C4_7 
REMARK    4  A    between atoms: C4_7  and  C6_9 
REMARK       I    between atoms: C6_9  and  N2_11 
ROOT
HETATM    1  N1  UNL     1     -21.620  -6.491  13.131  1.00  0.00    -0.370 N 
ATOM      2  H1  UNL     1     -21.123  -7.370  12.981  1.00  0.00     0.161 HD
ENDROOT
BRANCH   1   3
HETATM    3  C3  UNL     1     -23.042  -6.511  13.345  1.00  0.00     0.088 A 
HETATM    4  C2  UNL     1     -24.044  -6.505  12.406  1.00  0.00     0.040 A 
HETATM    5  C13 UNL     1     -25.304  -6.526  12.853  1.00  0.00    -0.030 A 
HETATM    6  C11 UNL     1     -25.496  -6.551  14.208  1.00  0.00    -0.012 A 
HETATM    7  C14 UNL     1     -26.538  -6.527  11.966  1.00  0.00     0.050 C 
HETATM    8  S3  UNL     1     -23.911  -6.545  14.818  1.00  0.00    -0.076 SA
HETATM    9  C12 UNL     1     -26.772  -6.577  15.005  1.00  0.00     0.057 C 
BRANCH   4  10
HETATM   10  S1  UNL     1     -23.647  -6.471  10.622  1.00  0.00    -0.131 SA
HETATM   11  C1  UNL     1     -23.750  -8.117   9.916  1.00  0.00     0.095 C 
ENDBRANCH   4  10
ENDBRANCH   1   3
BRANCH   1  12
HETATM   12  C4  UNL     1     -20.878  -5.241  13.125  1.00  0.00     0.170 C 
HETATM   13  C5  UNL     1     -19.610  -5.364  13.926  1.00  0.00     0.042 C 
BRANCH  12  14
HETATM   14  C6  UNL     1     -20.663  -4.763  11.727  1.00  0.00     0.242 C 
HETATM   15  O1  UNL     1     -21.151  -3.623  11.378  1.00  0.00    -0.271 OA
HETATM   16  N2  UNL     1     -19.954  -5.457  10.724  1.00  0.00    -0.349 N 
HETATM   17  C7  UNL     1     -19.851  -4.799   9.412  1.00  0.00     0.136 C 
HETATM   18  C10 UNL     1     -19.308  -6.714  10.891  1.00  0.00     0.136 C 
HETATM   19  C8  UNL     1     -20.448  -5.568   8.292  1.00  0.00     0.093 C 
HETATM   20  S2  UNL     1     -20.044  -7.339   8.385  1.00  0.00    -0.166 SA
HETATM   21  C9  UNL     1     -20.034  -7.800  10.169  1.00  0.00     0.093 C 
ENDBRANCH  12  14
ENDBRANCH   1  12
TORSDOF 4
ENDMDL
MODEL 5
REMARK VINA RESULT: -5.923515093      1.552      1.988
REMARK  4 active torsions:
REMARK  status: ('A' for Active; 'I' for Inactive)
REMARK    1  A    between atoms: S1_2  and  C2_3 
REMARK    2  A    between atoms: C3_4  and  N1_5 
REMARK    3  A    between atoms: N1_5  and  C4_7 
REMARK    4  A    between atoms: C4_7  and  C6_9 
REMARK       I    between atoms: C6_9  and  N2_11 
ROOT
HETATM    1  N1  UNL     1     -21.595  -6.535  12.892  1.00  0.00    -0.370 N 
ATOM      2  H1  UNL     1     -21.292  -7.041  12.059  1.00  0.00     0.161 HD
ENDROOT
BRANCH   1   3
HETATM    3  C3  UNL     1     -22.987  -6.539  13.253  1.00  0.00     0.088 A 
HETATM    4  C2  UNL     1     -24.081  -6.494  12.425  1.00  0.00     0.040 A 
HETATM    5  C13 UNL     1     -25.287  -6.507  13.002  1.00  0.00    -0.030 A 
HETATM    6  C11 UNL     1     -25.337  -6.561  14.369  1.00  0.00    -0.012 A 
HETATM    7  C14 UNL     1     -26.608  -6.467  12.249  1.00  0.00     0.050 C 
HETATM    8  S3  UNL     1     -23.697  -6.595  14.809  1.00  0.00    -0.076 SA
HETATM    9  C12 UNL     1     -26.522  -6.587  15.294  1.00  0.00     0.057 C 
BRANCH   4  10
HETATM   10  S1  UNL     1     -23.873  -6.423  10.610  1.00  0.00    -0.131 SA
HETATM   11  C1  UNL     1     -23.819  -8.074   9.911  1.00  0.00     0.095 C 
ENDBRANCH   4  10
ENDBRANCH   1   3
BRANCH   1  12
HETATM   12  C4  UNL     1     -20.612  -5.824  13.693  1.00  0.00     0.170 C 
HETATM   13  C5  UNL     1     -19.698  -6.787  14.402  1.00  0.00     0.042 C 
BRANCH  12  14
HETATM   14  C6  UNL     1     -19.893  -4.810  12.865  1.00  0.00     0.242 C 
HETATM   15  O1  UNL     1     -19.839  -3.593  13.283  1.00  0.00    -0.271 OA
HETATM   16  N2  UNL     1     -19.245  -5.063  11.639  1.00  0.00    -0.349 N 
HETATM   17  C7  UNL     1     -18.585  -3.920  10.990  1.00  0.00     0.136 C 
HETATM   18  C10 UNL     1     -19.151  -6.333  11.003  1.00  0.00     0.136 C 
HETATM   19  C8  UNL     1     -19.109  -3.593   9.641  1.00  0.00     0.093 C 
HETATM   20  S2  UNL     1     -19.396  -5.084   8.639  1.00  0.00    -0.166 SA
HETATM   21  C9  UNL     1     -20.005  -6.396   9.781  1.00  0.00     0.093 C 
ENDBRANCH  12  14
ENDBRANCH   1  12
TORSDOF 4
ENDMDL
