MODEL 1
REMARK VINA RESULT: -6.998691228      0.000      0.000
REMARK  5 active torsions:
REMARK  status: ('A' for Active; 'I' for Inactive)
REMARK    1  A    between atoms: C2_2  and  C5_5 
REMARK    2  A    between atoms: C6_6  and  C7_7 
REMARK    3  A    between atoms: C7_7  and  C8_8 
REMARK    4  A    between atoms: C8_8  and  C9_9 
REMARK    5  A    between atoms: C10_12  and  N2_13 
ROOT
HETATM    1  C9  UNL     1     -20.866  -5.192  12.173  1.00  0.00     0.053 A 
HETATM    2  N1  UNL     1     -21.825  -5.836  12.862  1.00  0.00    -0.194 N 
ATOM      3  H1  UNL     1     -21.565  -6.346  13.707  1.00  0.00     0.184 HD
HETATM    4  C10 UNL     1     -23.116  -5.834  12.479  1.00  0.00     0.683 A 
HETATM    5  N3  UNL     1     -23.460  -5.157  11.357  1.00  0.00    -0.155 N 
ATOM      6  H3  UNL     1     -24.440  -5.160  11.075  1.00  0.00     0.187 HD
HETATM    7  C15 UNL     1     -22.585  -4.481  10.598  1.00  0.00     0.282 A 
HETATM    8  O1  UNL     1     -22.895  -3.846   9.551  1.00  0.00    -0.266 OA
HETATM    9  C16 UNL     1     -21.257  -4.507  11.027  1.00  0.00     0.136 A 
HETATM   10  C17 UNL     1     -20.259  -3.818  10.258  1.00  0.00     0.107 C 
HETATM   11  N4  UNL     1     -19.467  -3.263   9.619  1.00  0.00    -0.191 NA
ENDROOT
BRANCH   1  12
HETATM   12  C8  UNL     1     -19.434  -5.168  12.530  1.00  0.00     0.063 C 
BRANCH  12  13
HETATM   13  C7  UNL     1     -19.140  -5.011  13.981  1.00  0.00     0.033 C 
BRANCH  13  14
HETATM   14  C6  UNL     1     -18.292  -3.759  14.107  1.00  0.00    -0.029 C 
HETATM   15  C5  UNL     1     -18.698  -2.626  13.599  1.00  0.00    -0.022 C 
BRANCH  15  16
HETATM   16  C2  UNL     1     -18.025  -1.311  13.614  1.00  0.00    -0.034 C 
HETATM   17  C1  UNL     1     -18.184  -0.664  12.230  1.00  0.00     0.018 C 
HETATM   18  C3  UNL     1     -16.512  -1.496  13.810  1.00  0.00     0.018 C 
HETATM   19  C4  UNL     1     -18.498  -0.381  14.682  1.00  0.00     0.018 C 
ENDBRANCH  15  16
ENDBRANCH  13  14
ENDBRANCH  12  13
ENDBRANCH   1  12
BRANCH   4  20
HETATM   20  N2  UNL     1     -24.130  -6.517  13.200  1.00  0.00    -0.216 N 
HETATM   21  C11 UNL     1     -25.273  -7.109  12.546  1.00  0.00     0.151 C 
HETATM   22  C12 UNL     1     -26.494  -6.277  12.847  1.00  0.00     0.094 C 
HETATM   23  S1  UNL     1     -26.713  -6.335  14.666  1.00  0.00    -0.166 SA
HETATM   24  C13 UNL     1     -25.199  -7.036  15.355  1.00  0.00     0.094 C 
HETATM   25  C14 UNL     1     -23.970  -6.593  14.640  1.00  0.00     0.151 C 
ENDBRANCH   4  20
TORSDOF 5
ENDMDL
MODEL 2
REMARK VINA RESULT: -6.856278828      3.119      4.767
REMARK  5 active torsions:
REMARK  status: ('A' for Active; 'I' for Inactive)
REMARK    1  A    between atoms: C2_2  and  C5_5 
REMARK    2  A    between atoms: C6_6  and  C7_7 
REMARK    3  A    between atoms: C7_7  and  C8_8 
REMARK    4  A    between atoms: C8_8  and  C9_9 
REMARK    5  A    between atoms: C10_12  and  N2_13 
ROOT
HETATM    1  C9  UNL     1     -19.963  -3.421  12.455  1.00  0.00     0.053 A 
HETATM    2  N1  UNL     1     -21.031  -4.198  12.200  1.00  0.00    -0.194 N 
ATOM      3  H1  UNL     1     -21.677  -3.918  11.461  1.00  0.00     0.184 HD
HETATM    4  C10 UNL     1     -21.280  -5.332  12.882  1.00  0.00     0.683 A 
HETATM    5  N3  UNL     1     -20.421  -5.702  13.862  1.00  0.00    -0.155 N 
ATOM      6  H3  UNL     1     -20.617  -6.562  14.374  1.00  0.00     0.187 HD
HETATM    7  C15 UNL     1     -19.327  -5.001  14.197  1.00  0.00     0.282 A 
HETATM    8  O1  UNL     1     -18.520  -5.338  15.108  1.00  0.00    -0.266 OA
HETATM    9  C16 UNL     1     -19.104  -3.833  13.468  1.00  0.00     0.136 A 
HETATM   10  C17 UNL     1     -17.960  -3.022  13.777  1.00  0.00     0.107 C 
HETATM   11  N4  UNL     1     -17.036  -2.376  14.048  1.00  0.00    -0.191 NA
ENDROOT
BRANCH   1  12
HETATM   12  C8  UNL     1     -19.644  -2.161  11.755  1.00  0.00     0.063 C 
BRANCH  12  13
HETATM   13  C7  UNL     1     -19.071  -2.316  10.389  1.00  0.00     0.033 C 
BRANCH  13  14
HETATM   14  C6  UNL     1     -20.130  -1.810   9.428  1.00  0.00    -0.029 C 
HETATM   15  C5  UNL     1     -19.812  -1.456   8.211  1.00  0.00    -0.022 C 
BRANCH  15  16
HETATM   16  C2  UNL     1     -20.687  -0.943   7.137  1.00  0.00    -0.034 C 
HETATM   17  C1  UNL     1     -22.149  -1.196   7.536  1.00  0.00     0.018 C 
HETATM   18  C3  UNL     1     -20.467  -1.750   5.848  1.00  0.00     0.018 C 
HETATM   19  C4  UNL     1     -20.481   0.496   6.798  1.00  0.00     0.018 C 
ENDBRANCH  15  16
ENDBRANCH  13  14
ENDBRANCH  12  13
ENDBRANCH   1  12
BRANCH   4  20
HETATM   20  N2  UNL     1     -22.409  -6.152  12.620  1.00  0.00    -0.216 N 
HETATM   21  C11 UNL     1     -22.667  -6.710  11.313  1.00  0.00     0.151 C 
HETATM   22  C12 UNL     1     -23.836  -5.987  10.695  1.00  0.00     0.094 C 
HETATM   23  S1  UNL     1     -25.266  -6.292  11.801  1.00  0.00    -0.166 SA
HETATM   24  C13 UNL     1     -24.607  -7.001  13.326  1.00  0.00     0.094 C 
HETATM   25  C14 UNL     1     -23.304  -6.407  13.733  1.00  0.00     0.151 C 
ENDBRANCH   4  20
TORSDOF 5
ENDMDL
MODEL 3
REMARK VINA RESULT: -6.611739684      2.793      4.433
REMARK  5 active torsions:
REMARK  status: ('A' for Active; 'I' for Inactive)
REMARK    1  A    between atoms: C2_2  and  C5_5 
REMARK    2  A    between atoms: C6_6  and  C7_7 
REMARK    3  A    between atoms: C7_7  and  C8_8 
REMARK    4  A    between atoms: C8_8  and  C9_9 
REMARK    5  A    between atoms: C10_12  and  N2_13 
ROOT
HETATM    1  C9  UNL     1     -21.535  -4.956  11.016  1.00  0.00     0.053 A 
HETATM    2  N1  UNL     1     -22.597  -5.570  11.569  1.00  0.00    -0.194 N 
ATOM      3  H1  UNL     1     -23.417  -5.750  10.990  1.00  0.00     0.184 HD
HETATM    4  C10 UNL     1     -22.619  -5.955  12.859  1.00  0.00     0.683 A 
HETATM    5  N3  UNL     1     -21.528  -5.715  13.627  1.00  0.00    -0.155 N 
ATOM      6  H3  UNL     1     -21.553  -6.010  14.603  1.00  0.00     0.187 HD
HETATM    7  C15 UNL     1     -20.419  -5.111  13.176  1.00  0.00     0.282 A 
HETATM    8  O1  UNL     1     -19.397  -4.883  13.883  1.00  0.00    -0.266 OA
HETATM    9  C16 UNL     1     -20.435  -4.726  11.835  1.00  0.00     0.136 A 
HETATM   10  C17 UNL     1     -19.288  -4.062  11.283  1.00  0.00     0.107 C 
HETATM   11  N4  UNL     1     -18.356  -3.518  10.859  1.00  0.00    -0.191 NA
ENDROOT
BRANCH   1  12
HETATM   12  C8  UNL     1     -21.455  -4.496   9.616  1.00  0.00     0.063 C 
BRANCH  12  13
HETATM   13  C7  UNL     1     -22.174  -3.227   9.317  1.00  0.00     0.033 C 
BRANCH  13  14
HETATM   14  C6  UNL     1     -21.222  -2.389   8.484  1.00  0.00    -0.029 C 
HETATM   15  C5  UNL     1     -21.656  -1.709   7.456  1.00  0.00    -0.022 C 
BRANCH  15  16
HETATM   16  C2  UNL     1     -20.897  -0.844   6.530  1.00  0.00    -0.034 C 
HETATM   17  C1  UNL     1     -21.594  -0.862   5.161  1.00  0.00     0.018 C 
HETATM   18  C3  UNL     1     -19.498  -1.433   6.287  1.00  0.00     0.018 C 
HETATM   19  C4  UNL     1     -20.709   0.560   7.001  1.00  0.00     0.018 C 
ENDBRANCH  15  16
ENDBRANCH  13  14
ENDBRANCH  12  13
ENDBRANCH   1  12
BRANCH   4  20
HETATM   20  N2  UNL     1     -23.739  -6.598  13.448  1.00  0.00    -0.216 N 
HETATM   21  C11 UNL     1     -24.776  -7.215  12.655  1.00  0.00     0.151 C 
HETATM   22  C12 UNL     1     -26.018  -6.365  12.729  1.00  0.00     0.094 C 
HETATM   23  S1  UNL     1     -26.511  -6.335  14.494  1.00  0.00    -0.166 SA
HETATM   24  C13 UNL     1     -25.127  -7.010  15.437  1.00  0.00     0.094 C 
HETATM   25  C14 UNL     1     -23.799  -6.606  14.898  1.00  0.00     0.151 C 
ENDBRANCH   4  20
TORSDOF 5
ENDMDL
MODEL 4
REMARK VINA RESULT: -6.527630132      3.608      6.939
REMARK  5 active torsions:
REMARK  status: ('A' for Active; 'I' for Inactive)
REMARK    1  A    between atoms: C2_2  and  C5_5 
REMARK    2  A    between atoms: C6_6  and  C7_7 
REMARK    3  A    between atoms: C7_7  and  C8_8 
REMARK    4  A    between atoms: C8_8  and  C9_9 
REMARK    5  A    between atoms: C10_12  and  N2_13 
ROOT
HETATM    1  C9  UNL     1     -20.006  -3.310  11.854  1.00  0.00     0.053 A 
HETATM    2  N1  UNL     1     -20.622  -3.304  10.658  1.00  0.00    -0.194 N 
ATOM      3  H1  UNL     1     -21.281  -4.052  10.441  1.00  0.00     0.184 HD
HETATM    4  C10 UNL     1     -20.401  -2.348   9.736  1.00  0.00     0.683 A 
HETATM    5  N3  UNL     1     -19.526  -1.355  10.026  1.00  0.00    -0.155 N 
ATOM      6  H3  UNL     1     -19.365  -0.635   9.322  1.00  0.00     0.187 HD
HETATM    7  C15 UNL     1     -18.860  -1.266  11.187  1.00  0.00     0.282 A 
HETATM    8  O1  UNL     1     -18.043  -0.345  11.468  1.00  0.00    -0.266 OA
HETATM    9  C16 UNL     1     -19.115  -2.275  12.116  1.00  0.00     0.136 A 
HETATM   10  C17 UNL     1     -18.430  -2.255  13.378  1.00  0.00     0.107 C 
HETATM   11  N4  UNL     1     -17.859  -2.227  14.387  1.00  0.00    -0.191 NA
ENDROOT
BRANCH   1  12
HETATM   12  C8  UNL     1     -20.193  -4.335  12.900  1.00  0.00     0.063 C 
BRANCH  12  13
HETATM   13  C7  UNL     1     -20.399  -5.724  12.404  1.00  0.00     0.033 C 
BRANCH  13  14
HETATM   14  C6  UNL     1     -21.847  -6.067  12.699  1.00  0.00    -0.029 C 
HETATM   15  C5  UNL     1     -22.739  -6.069  11.743  1.00  0.00    -0.022 C 
BRANCH  15  16
HETATM   16  C2  UNL     1     -24.183  -6.371  11.826  1.00  0.00    -0.034 C 
HETATM   17  C1  UNL     1     -24.464  -7.639  11.007  1.00  0.00     0.018 C 
HETATM   18  C3  UNL     1     -24.994  -5.255  11.147  1.00  0.00     0.018 C 
HETATM   19  C4  UNL     1     -24.711  -6.519  13.214  1.00  0.00     0.018 C 
ENDBRANCH  15  16
ENDBRANCH  13  14
ENDBRANCH  12  13
ENDBRANCH   1  12
BRANCH   4  20
HETATM   20  N2  UNL     1     -21.045  -2.340   8.471  1.00  0.00    -0.216 N 
HETATM   21  C11 UNL     1     -21.300  -3.554   7.730  1.00  0.00     0.151 C 
HETATM   22  C12 UNL     1     -20.362  -3.613   6.552  1.00  0.00     0.094 C 
HETATM   23  S1  UNL     1     -20.752  -2.152   5.516  1.00  0.00    -0.166 SA
HETATM   24  C13 UNL     1     -21.813  -1.076   6.505  1.00  0.00     0.094 C 
HETATM   25  C14 UNL     1     -21.436  -1.046   7.945  1.00  0.00     0.151 C 
ENDBRANCH   4  20
TORSDOF 5
ENDMDL
MODEL 5
REMARK VINA RESULT: -6.515593943      3.392      7.023
REMARK  5 active torsions:
REMARK  status: ('A' for Active; 'I' for Inactive)
REMARK    1  A    between atoms: C2_2  and  C5_5 
REMARK    2  A    between atoms: C6_6  and  C7_7 
REMARK    3  A    between atoms: C7_7  and  C8_8 
REMARK    4  A    between atoms: C8_8  and  C9_9 
REMARK    5  A    between atoms: C10_12  and  N2_13 
ROOT
HETATM    1  C9  UNL     1     -20.096  -4.940  12.234  1.00  0.00     0.053 A 
HETATM    2  N1  UNL     1     -20.460  -4.468  11.027  1.00  0.00    -0.194 N 
ATOM      3  H1  UNL     1     -21.102  -5.019  10.458  1.00  0.00     0.184 HD
HETATM    4  C10 UNL     1     -20.008  -3.296  10.544  1.00  0.00     0.683 A 
HETATM    5  N3  UNL     1     -19.155  -2.565  11.302  1.00  0.00    -0.155 N 
ATOM      6  H3  UNL     1     -18.817  -1.679  10.928  1.00  0.00     0.187 HD
HETATM    7  C15 UNL     1     -18.729  -2.943  12.517  1.00  0.00     0.282 A 
HETATM    8  O1  UNL     1     -17.935  -2.270  13.231  1.00  0.00    -0.266 OA
HETATM    9  C16 UNL     1     -19.219  -4.164  12.983  1.00  0.00     0.136 A 
HETATM   10  C17 UNL     1     -18.799  -4.641  14.270  1.00  0.00     0.107 C 
HETATM   11  N4  UNL     1     -18.440  -5.014  15.308  1.00  0.00    -0.191 NA
ENDROOT
BRANCH   1  12
HETATM   12  C8  UNL     1     -20.543  -6.222  12.813  1.00  0.00     0.063 C 
BRANCH  12  13
HETATM   13  C7  UNL     1     -21.857  -6.185  13.511  1.00  0.00     0.033 C 
BRANCH  13  14
HETATM   14  C6  UNL     1     -22.914  -6.183  12.422  1.00  0.00    -0.029 C 
HETATM   15  C5  UNL     1     -24.179  -6.317  12.721  1.00  0.00    -0.022 C 
BRANCH  15  16
HETATM   16  C2  UNL     1     -25.346  -6.341  11.816  1.00  0.00    -0.034 C 
HETATM   17  C1  UNL     1     -25.177  -7.508  10.831  1.00  0.00     0.018 C 
HETATM   18  C3  UNL     1     -25.367  -5.072  10.950  1.00  0.00     0.018 C 
HETATM   19  C4  UNL     1     -26.668  -6.428  12.504  1.00  0.00     0.018 C 
ENDBRANCH  15  16
ENDBRANCH  13  14
ENDBRANCH  12  13
ENDBRANCH   1  12
BRANCH   4  20
HETATM   20  N2  UNL     1     -20.385  -2.796   9.269  1.00  0.00    -0.216 N 
HETATM   21  C11 UNL     1     -21.472  -3.368   8.510  1.00  0.00     0.151 C 
HETATM   22  C12 UNL     1     -20.902  -4.135   7.343  1.00  0.00     0.094 C 
HETATM   23  S1  UNL     1     -19.998  -2.910   6.322  1.00  0.00    -0.166 SA
HETATM   24  C13 UNL     1     -19.855  -1.406   7.310  1.00  0.00     0.094 C 
HETATM   25  C14 UNL     1     -19.620  -1.675   8.756  1.00  0.00     0.151 C 
ENDBRANCH   4  20
TORSDOF 5
ENDMDL
