MODEL 1
REMARK VINA RESULT: -7.142314122      0.000      0.000
REMARK  7 active torsions:
REMARK  status: ('A' for Active; 'I' for Inactive)
REMARK    1  A    between atoms: C2_2  and  O2_4 
REMARK    2  A    between atoms: O2_4  and  C3_5 
REMARK    3  A    between atoms: C3_5  and  C4_6 
REMARK    4  A    between atoms: C4_6  and  C5_7 
REMARK    5  A    between atoms: C5_7  and  C6_8 
REMARK    6  A    between atoms: C17_21  and  C18_22 
REMARK    7  A    between atoms: C18_22  and  O5_23 
ROOT
HETATM    1  C6  UNL     1     -22.072  -5.747  11.244  1.00  0.00    -0.014 C 
HETATM    2  C7  UNL     1     -22.508  -4.922  10.074  1.00  0.00     0.005 C 
HETATM    3  C8  UNL     1     -22.147  -3.517   9.948  1.00  0.00     0.005 C 
HETATM    4  C9  UNL     1     -20.745  -3.125   9.579  1.00  0.00    -0.009 C 
HETATM    5  C10 UNL     1     -20.317  -1.866  10.293  1.00  0.00     0.031 C 
HETATM    6  C11 UNL     1     -20.628  -1.765  11.706  1.00  0.00    -0.028 C 
HETATM    7  C12 UNL     1     -20.294  -2.457  12.761  1.00  0.00     0.005 C 
HETATM    8  C13 UNL     1     -19.471  -3.625  12.991  1.00  0.00     0.193 C 
HETATM    9  O3  UNL     1     -18.167  -3.569  12.444  1.00  0.00    -0.230 OA
HETATM   10  O4  UNL     1     -18.263  -3.337  11.193  1.00  0.00    -0.235 OA
HETATM   11  C14 UNL     1     -18.743  -4.425  10.522  1.00  0.00     0.161 C 
HETATM   12  C15 UNL     1     -19.730  -4.190   9.459  1.00  0.00     0.040 C 
HETATM   13  C16 UNL     1     -19.149  -5.507  11.538  1.00  0.00     0.050 C 
HETATM   14  C17 UNL     1     -20.054  -4.970  12.604  1.00  0.00     0.016 C 
HETATM   15  C19 UNL     1     -21.508  -5.009  12.390  1.00  0.00     0.019 C 
ENDROOT
BRANCH   1  16
HETATM   16  C5  UNL     1     -23.259  -6.596  11.666  1.00  0.00     0.007 C 
BRANCH  16  17
HETATM   17  C4  UNL     1     -24.543  -5.876  11.848  1.00  0.00     0.027 C 
BRANCH  17  18
HETATM   18  C3  UNL     1     -25.406  -6.788  12.734  1.00  0.00     0.178 C 
BRANCH  18  19
HETATM   19  O2  UNL     1     -25.548  -6.324  14.036  1.00  0.00    -0.322 OA
BRANCH  19  20
HETATM   20  C2  UNL     1     -24.907  -6.766  15.166  1.00  0.00     0.254 C 
HETATM   21  C1  UNL     1     -23.430  -6.822  15.314  1.00  0.00     0.126 C 
HETATM   22  O1  UNL     1     -25.610  -7.146  16.135  1.00  0.00    -0.266 OA
ENDBRANCH  19  20
ENDBRANCH  18  19
ENDBRANCH  17  18
ENDBRANCH  16  17
ENDBRANCH   1  16
BRANCH  14  23
HETATM   23  C18 UNL     1     -19.755  -5.887  13.823  1.00  0.00     0.176 C 
BRANCH  23  24
HETATM   24  O5  UNL     1     -18.953  -5.127  14.669  1.00  0.00    -0.400 OA
ATOM     25  H5  UNL     1     -18.862  -5.643  15.461  1.00  0.00     0.209 HD
ENDBRANCH  23  24
ENDBRANCH  14  23
TORSDOF 7
ENDMDL
MODEL 2
REMARK VINA RESULT: -6.917368378      1.218      1.378
REMARK  7 active torsions:
REMARK  status: ('A' for Active; 'I' for Inactive)
REMARK    1  A    between atoms: C2_2  and  O2_4 
REMARK    2  A    between atoms: O2_4  and  C3_5 
REMARK    3  A    between atoms: C3_5  and  C4_6 
REMARK    4  A    between atoms: C4_6  and  C5_7 
REMARK    5  A    between atoms: C5_7  and  C6_8 
REMARK    6  A    between atoms: C17_21  and  C18_22 
REMARK    7  A    between atoms: C18_22  and  O5_23 
ROOT
HETATM    1  C6  UNL     1     -21.665  -5.654  11.280  1.00  0.00    -0.014 C 
HETATM    2  C7  UNL     1     -22.158  -4.920  10.073  1.00  0.00     0.005 C 
HETATM    3  C8  UNL     1     -21.938  -3.491   9.900  1.00  0.00     0.005 C 
HETATM    4  C9  UNL     1     -20.576  -2.971   9.540  1.00  0.00    -0.009 C 
HETATM    5  C10 UNL     1     -20.293  -1.650  10.214  1.00  0.00     0.031 C 
HETATM    6  C11 UNL     1     -20.641  -1.531  11.617  1.00  0.00    -0.028 C 
HETATM    7  C12 UNL     1     -20.261  -2.148  12.703  1.00  0.00     0.005 C 
HETATM    8  C13 UNL     1     -19.329  -3.216  12.989  1.00  0.00     0.193 C 
HETATM    9  O3  UNL     1     -18.026  -3.047  12.462  1.00  0.00    -0.230 OA
HETATM   10  O4  UNL     1     -18.119  -2.872  11.203  1.00  0.00    -0.235 OA
HETATM   11  C14 UNL     1     -18.472  -4.026  10.565  1.00  0.00     0.161 C 
HETATM   12  C15 UNL     1     -19.457  -3.931   9.478  1.00  0.00     0.040 C 
HETATM   13  C16 UNL     1     -18.788  -5.106  11.614  1.00  0.00     0.050 C 
HETATM   14  C17 UNL     1     -19.764  -4.627  12.644  1.00  0.00     0.016 C 
HETATM   15  C19 UNL     1     -21.202  -4.822  12.406  1.00  0.00     0.019 C 
ENDROOT
BRANCH   1  16
HETATM   16  C5  UNL     1     -22.768  -6.603  11.714  1.00  0.00     0.007 C 
BRANCH  16  17
HETATM   17  C4  UNL     1     -23.560  -7.222  10.623  1.00  0.00     0.027 C 
BRANCH  17  18
HETATM   18  C3  UNL     1     -25.004  -7.286  11.147  1.00  0.00     0.178 C 
BRANCH  18  19
HETATM   19  O2  UNL     1     -25.111  -7.050  12.511  1.00  0.00    -0.322 OA
BRANCH  19  20
HETATM   20  C2  UNL     1     -26.110  -6.385  13.178  1.00  0.00     0.254 C 
HETATM   21  C1  UNL     1     -26.452  -6.618  14.604  1.00  0.00     0.126 C 
HETATM   22  O1  UNL     1     -26.773  -5.527  12.547  1.00  0.00    -0.266 OA
ENDBRANCH  19  20
ENDBRANCH  18  19
ENDBRANCH  17  18
ENDBRANCH  16  17
ENDBRANCH   1  16
BRANCH  14  23
HETATM   23  C18 UNL     1     -19.399  -5.464  13.901  1.00  0.00     0.176 C 
BRANCH  23  24
HETATM   24  O5  UNL     1     -18.750  -4.581  14.757  1.00  0.00    -0.400 OA
ATOM     25  H5  UNL     1     -18.534  -5.090  15.529  1.00  0.00     0.209 HD
ENDBRANCH  23  24
ENDBRANCH  14  23
TORSDOF 7
ENDMDL
MODEL 3
REMARK VINA RESULT: -6.775547833      1.226      1.673
REMARK  7 active torsions:
REMARK  status: ('A' for Active; 'I' for Inactive)
REMARK    1  A    between atoms: C2_2  and  O2_4 
REMARK    2  A    between atoms: O2_4  and  C3_5 
REMARK    3  A    between atoms: C3_5  and  C4_6 
REMARK    4  A    between atoms: C4_6  and  C5_7 
REMARK    5  A    between atoms: C5_7  and  C6_8 
REMARK    6  A    between atoms: C17_21  and  C18_22 
REMARK    7  A    between atoms: C18_22  and  O5_23 
ROOT
HETATM    1  C6  UNL     1     -21.610  -5.526  11.707  1.00  0.00    -0.014 C 
HETATM    2  C7  UNL     1     -22.401  -5.273  10.463  1.00  0.00     0.005 C 
HETATM    3  C8  UNL     1     -22.265  -4.038   9.704  1.00  0.00     0.005 C 
HETATM    4  C9  UNL     1     -21.045  -3.798   8.860  1.00  0.00    -0.009 C 
HETATM    5  C10 UNL     1     -20.636  -2.346   8.881  1.00  0.00     0.031 C 
HETATM    6  C11 UNL     1     -20.630  -1.675  10.167  1.00  0.00    -0.028 C 
HETATM    7  C12 UNL     1     -19.980  -1.858  11.284  1.00  0.00     0.005 C 
HETATM    8  C13 UNL     1     -18.982  -2.803  11.735  1.00  0.00     0.193 C 
HETATM    9  O3  UNL     1     -17.853  -2.945  10.892  1.00  0.00    -0.230 OA
HETATM   10  O4  UNL     1     -18.258  -3.257   9.724  1.00  0.00    -0.235 OA
HETATM   11  C14 UNL     1     -18.730  -4.537   9.686  1.00  0.00     0.161 C 
HETATM   12  C15 UNL     1     -19.954  -4.790   8.913  1.00  0.00     0.040 C 
HETATM   13  C16 UNL     1     -18.752  -5.109  11.114  1.00  0.00     0.050 C 
HETATM   14  C17 UNL     1     -19.456  -4.202  12.076  1.00  0.00     0.016 C 
HETATM   15  C19 UNL     1     -20.903  -4.364  12.279  1.00  0.00     0.019 C 
ENDROOT
BRANCH   1  16
HETATM   16  C5  UNL     1     -22.549  -6.153  12.722  1.00  0.00     0.007 C 
BRANCH  16  17
HETATM   17  C4  UNL     1     -22.056  -6.207  14.120  1.00  0.00     0.027 C 
BRANCH  17  18
HETATM   18  C3  UNL     1     -23.126  -6.981  14.906  1.00  0.00     0.178 C 
BRANCH  18  19
HETATM   19  O2  UNL     1     -24.240  -6.217  15.230  1.00  0.00    -0.322 OA
BRANCH  19  20
HETATM   20  C2  UNL     1     -25.518  -6.648  15.481  1.00  0.00     0.254 C 
HETATM   21  C1  UNL     1     -26.649  -6.488  14.531  1.00  0.00     0.126 C 
HETATM   22  O1  UNL     1     -25.747  -7.213  16.578  1.00  0.00    -0.266 OA
ENDBRANCH  19  20
ENDBRANCH  18  19
ENDBRANCH  17  18
ENDBRANCH  16  17
ENDBRANCH   1  16
BRANCH  14  23
HETATM   23  C18 UNL     1     -18.773  -4.522  13.435  1.00  0.00     0.176 C 
BRANCH  23  24
HETATM   24  O5  UNL     1     -17.706  -3.634  13.530  1.00  0.00    -0.400 OA
ATOM     25  H5  UNL     1     -17.911  -2.928  12.929  1.00  0.00     0.209 HD
ENDBRANCH  23  24
ENDBRANCH  14  23
TORSDOF 7
ENDMDL
MODEL 4
REMARK VINA RESULT: -6.596961450      1.909      2.883
REMARK  7 active torsions:
REMARK  status: ('A' for Active; 'I' for Inactive)
REMARK    1  A    between atoms: C2_2  and  O2_4 
REMARK    2  A    between atoms: O2_4  and  C3_5 
REMARK    3  A    between atoms: C3_5  and  C4_6 
REMARK    4  A    between atoms: C4_6  and  C5_7 
REMARK    5  A    between atoms: C5_7  and  C6_8 
REMARK    6  A    between atoms: C17_21  and  C18_22 
REMARK    7  A    between atoms: C18_22  and  O5_23 
ROOT
HETATM    1  C6  UNL     1     -20.324  -5.510  12.399  1.00  0.00    -0.014 C 
HETATM    2  C7  UNL     1     -20.416  -6.632  11.414  1.00  0.00     0.005 C 
HETATM    3  C8  UNL     1     -20.760  -6.402  10.018  1.00  0.00     0.005 C 
HETATM    4  C9  UNL     1     -19.758  -5.791   9.081  1.00  0.00    -0.009 C 
HETATM    5  C10 UNL     1     -20.422  -4.874   8.083  1.00  0.00     0.031 C 
HETATM    6  C11 UNL     1     -21.425  -3.956   8.588  1.00  0.00    -0.028 C 
HETATM    7  C12 UNL     1     -21.409  -2.977   9.451  1.00  0.00     0.005 C 
HETATM    8  C13 UNL     1     -20.389  -2.374  10.283  1.00  0.00     0.193 C 
HETATM    9  O3  UNL     1     -19.205  -1.988   9.611  1.00  0.00    -0.230 OA
HETATM   10  O4  UNL     1     -18.732  -3.006   9.006  1.00  0.00    -0.235 OA
HETATM   11  C14 UNL     1     -18.209  -3.909   9.886  1.00  0.00     0.161 C 
HETATM   12  C15 UNL     1     -18.470  -5.333   9.638  1.00  0.00     0.040 C 
HETATM   13  C16 UNL     1     -18.513  -3.449  11.322  1.00  0.00     0.050 C 
HETATM   14  C17 UNL     1     -19.964  -3.138  11.522  1.00  0.00     0.016 C 
HETATM   15  C19 UNL     1     -20.868  -4.211  11.963  1.00  0.00     0.019 C 
ENDROOT
BRANCH   1  16
HETATM   16  C5  UNL     1     -20.984  -5.981  13.684  1.00  0.00     0.007 C 
BRANCH  16  17
HETATM   17  C4  UNL     1     -22.454  -6.168  13.630  1.00  0.00     0.027 C 
BRANCH  17  18
HETATM   18  C3  UNL     1     -22.825  -6.901  14.928  1.00  0.00     0.178 C 
BRANCH  18  19
HETATM   19  O2  UNL     1     -23.919  -6.350  15.584  1.00  0.00    -0.322 OA
BRANCH  19  20
HETATM   20  C2  UNL     1     -25.237  -6.725  15.491  1.00  0.00     0.254 C 
HETATM   21  C1  UNL     1     -26.061  -6.561  14.267  1.00  0.00     0.126 C 
HETATM   22  O1  UNL     1     -25.778  -7.238  16.501  1.00  0.00    -0.266 OA
ENDBRANCH  19  20
ENDBRANCH  18  19
ENDBRANCH  17  18
ENDBRANCH  16  17
ENDBRANCH   1  16
BRANCH  14  23
HETATM   23  C18 UNL     1     -19.951  -2.070  12.650  1.00  0.00     0.176 C 
BRANCH  23  24
HETATM   24  O5  UNL     1     -20.478  -0.918  12.074  1.00  0.00    -0.400 OA
ATOM     25  H5  UNL     1     -19.904  -0.213  12.349  1.00  0.00     0.209 HD
ENDBRANCH  23  24
ENDBRANCH  14  23
TORSDOF 7
ENDMDL
MODEL 5
REMARK VINA RESULT: -6.517423705      1.897      2.673
REMARK  7 active torsions:
REMARK  status: ('A' for Active; 'I' for Inactive)
REMARK    1  A    between atoms: C2_2  and  O2_4 
REMARK    2  A    between atoms: O2_4  and  C3_5 
REMARK    3  A    between atoms: C3_5  and  C4_6 
REMARK    4  A    between atoms: C4_6  and  C5_7 
REMARK    5  A    between atoms: C5_7  and  C6_8 
REMARK    6  A    between atoms: C17_21  and  C18_22 
REMARK    7  A    between atoms: C18_22  and  O5_23 
ROOT
HETATM    1  C6  UNL     1     -21.197  -5.310  11.182  1.00  0.00    -0.014 C 
HETATM    2  C7  UNL     1     -21.257  -6.125   9.929  1.00  0.00     0.005 C 
HETATM    3  C8  UNL     1     -21.224  -5.510   8.610  1.00  0.00     0.005 C 
HETATM    4  C9  UNL     1     -19.940  -4.949   8.067  1.00  0.00    -0.009 C 
HETATM    5  C10 UNL     1     -20.183  -3.701   7.254  1.00  0.00     0.031 C 
HETATM    6  C11 UNL     1     -21.095  -2.717   7.802  1.00  0.00    -0.028 C 
HETATM    7  C12 UNL     1     -21.105  -1.991   8.887  1.00  0.00     0.005 C 
HETATM    8  C13 UNL     1     -20.214  -1.846  10.018  1.00  0.00     0.193 C 
HETATM    9  O3  UNL     1     -18.858  -1.600   9.698  1.00  0.00    -0.230 OA
HETATM   10  O4  UNL     1     -18.447  -2.534   8.933  1.00  0.00    -0.235 OA
HETATM   11  C14 UNL     1     -18.309  -3.710   9.614  1.00  0.00     0.161 C 
HETATM   12  C15 UNL     1     -18.755  -4.941   8.947  1.00  0.00     0.040 C 
HETATM   13  C16 UNL     1     -18.849  -3.532  11.043  1.00  0.00     0.050 C 
HETATM   14  C17 UNL     1     -20.229  -2.948  11.059  1.00  0.00     0.016 C 
HETATM   15  C19 UNL     1     -21.386  -3.855  11.025  1.00  0.00     0.019 C 
ENDROOT
BRANCH   1  16
HETATM   16  C5  UNL     1     -22.208  -5.895  12.152  1.00  0.00     0.007 C 
BRANCH  16  17
HETATM   17  C4  UNL     1     -23.253  -6.764  11.558  1.00  0.00     0.027 C 
BRANCH  17  18
HETATM   18  C3  UNL     1     -24.469  -6.644  12.490  1.00  0.00     0.178 C 
BRANCH  18  19
HETATM   19  O2  UNL     1     -24.171  -6.883  13.826  1.00  0.00    -0.322 OA
BRANCH  19  20
HETATM   20  C2  UNL     1     -24.942  -6.604  14.927  1.00  0.00     0.254 C 
HETATM   21  C1  UNL     1     -26.427  -6.624  14.927  1.00  0.00     0.126 C 
HETATM   22  O1  UNL     1     -24.358  -6.315  16.000  1.00  0.00    -0.266 OA
ENDBRANCH  19  20
ENDBRANCH  18  19
ENDBRANCH  17  18
ENDBRANCH  16  17
ENDBRANCH   1  16
BRANCH  14  23
HETATM   23  C18 UNL     1     -20.286  -2.198  12.418  1.00  0.00     0.176 C 
BRANCH  23  24
HETATM   24  O5  UNL     1     -20.583  -0.877  12.098  1.00  0.00    -0.400 OA
ATOM     25  H5  UNL     1     -19.743  -0.441  12.020  1.00  0.00     0.209 HD
ENDBRANCH  23  24
ENDBRANCH  14  23
TORSDOF 7
ENDMDL
