MODEL 1
REMARK VINA RESULT: -7.063971931      0.000      0.000
REMARK  4 active torsions:
REMARK  status: ('A' for Active; 'I' for Inactive)
REMARK    1  A    between atoms: C2_2  and  C4_4 
REMARK    2  A    between atoms: C8_8  and  C9_9 
REMARK       I    between atoms: C9_9  and  N1_11 
REMARK    3  A    between atoms: C11_13  and  C12_14 
REMARK       I    between atoms: C12_14  and  N2_16 
REMARK    4  A    between atoms: N2_16  and  C13_18 
ROOT
HETATM    1  C9  UNL     1     -20.260  -2.311   7.048  1.00  0.00     0.248 C 
HETATM    2  O1  UNL     1     -19.022  -2.283   6.971  1.00  0.00    -0.271 OA
HETATM    3  N1  UNL     1     -20.837  -2.994   8.172  1.00  0.00    -0.218 N 
HETATM    4  C10 UNL     1     -22.128  -3.168   8.478  1.00  0.00     0.158 A 
HETATM    5  C11 UNL     1     -22.233  -3.879   9.653  1.00  0.00     0.134 A 
HETATM    6  N3  UNL     1     -20.969  -4.121  10.034  1.00  0.00    -0.279 N 
ATOM      7  H3  UNL     1     -20.686  -4.632  10.871  1.00  0.00     0.189 HD
HETATM    8  N4  UNL     1     -20.158  -3.588   9.143  1.00  0.00    -0.233 N 
ATOM      9  H4  UNL     1     -19.139  -3.627   9.194  1.00  0.00     0.209 HD
ENDROOT
BRANCH   1  10
HETATM   10  C8  UNL     1     -21.200  -1.710   6.092  1.00  0.00     0.084 C 
HETATM   11  C4  UNL     1     -20.555  -1.021   4.921  1.00  0.00     0.002 C 
HETATM   12  C5  UNL     1     -19.803   0.092   5.537  1.00  0.00     0.006 C 
HETATM   13  C6  UNL     1     -20.560   0.416   6.815  1.00  0.00     0.001 C 
HETATM   14  C7  UNL     1     -21.785  -0.475   6.805  1.00  0.00     0.014 C 
BRANCH  11  15
HETATM   15  C2  UNL     1     -19.777  -1.927   4.017  1.00  0.00    -0.018 C 
HETATM   16  C1  UNL     1     -18.486  -1.357   3.550  1.00  0.00     0.010 C 
HETATM   17  C3  UNL     1     -20.656  -2.208   2.813  1.00  0.00     0.010 C 
ENDBRANCH  11  15
ENDBRANCH   1  10
BRANCH   5  18
HETATM   18  C12 UNL     1     -23.435  -4.295  10.364  1.00  0.00     0.271 C 
HETATM   19  O2  UNL     1     -24.564  -3.819  10.060  1.00  0.00    -0.266 OA
HETATM   20  N2  UNL     1     -23.395  -5.242  11.415  1.00  0.00    -0.351 N 
ATOM     21  H2  UNL     1     -22.494  -5.640  11.678  1.00  0.00     0.163 HD
BRANCH  20  22
HETATM   22  C13 UNL     1     -24.579  -5.668  12.134  1.00  0.00     0.084 C 
HETATM   23  C14 UNL     1     -25.634  -6.218  11.221  1.00  0.00     0.025 C 
HETATM   24  C15 UNL     1     -26.747  -6.802  12.046  1.00  0.00     0.002 C 
HETATM   25  C16 UNL     1     -26.700  -6.245  13.427  1.00  0.00     0.000 C 
HETATM   26  C17 UNL     1     -25.434  -6.659  14.170  1.00  0.00     0.002 C 
HETATM   27  C18 UNL     1     -24.258  -6.702  13.183  1.00  0.00     0.025 C 
ENDBRANCH  20  22
ENDBRANCH   5  18
TORSDOF 4
ENDMDL
MODEL 2
REMARK VINA RESULT: -7.024975576      1.726      8.810
REMARK  4 active torsions:
REMARK  status: ('A' for Active; 'I' for Inactive)
REMARK    1  A    between atoms: C2_2  and  C4_4 
REMARK    2  A    between atoms: C8_8  and  C9_9 
REMARK       I    between atoms: C9_9  and  N1_11 
REMARK    3  A    between atoms: C11_13  and  C12_14 
REMARK       I    between atoms: C12_14  and  N2_16 
REMARK    4  A    between atoms: N2_16  and  C13_18 
ROOT
HETATM    1  C9  UNL     1     -23.740  -6.852  11.425  1.00  0.00     0.248 C 
HETATM    2  O1  UNL     1     -23.971  -8.060  11.586  1.00  0.00    -0.271 OA
HETATM    3  N1  UNL     1     -22.847  -6.487  10.361  1.00  0.00    -0.218 N 
HETATM    4  C10 UNL     1     -22.437  -5.269   9.987  1.00  0.00     0.158 A 
HETATM    5  C11 UNL     1     -21.585  -5.377   8.912  1.00  0.00     0.134 A 
HETATM    6  N3  UNL     1     -21.500  -6.692   8.658  1.00  0.00    -0.279 N 
ATOM      7  H3  UNL     1     -20.946  -7.122   7.917  1.00  0.00     0.189 HD
HETATM    8  N4  UNL     1     -22.256  -7.332   9.527  1.00  0.00    -0.233 N 
ATOM      9  H4  UNL     1     -22.371  -8.345   9.555  1.00  0.00     0.209 HD
ENDROOT
BRANCH   1  10
HETATM   10  C8  UNL     1     -24.294  -5.751  12.223  1.00  0.00     0.084 C 
HETATM   11  C4  UNL     1     -25.200  -6.179  13.346  1.00  0.00     0.002 C 
HETATM   12  C5  UNL     1     -26.338  -6.821  12.656  1.00  0.00     0.006 C 
HETATM   13  C6  UNL     1     -26.399  -6.150  11.294  1.00  0.00     0.001 C 
HETATM   14  C7  UNL     1     -25.340  -5.068  11.320  1.00  0.00     0.014 C 
BRANCH  11  15
HETATM   15  C2  UNL     1     -24.528  -6.988  14.412  1.00  0.00    -0.018 C 
HETATM   16  C1  UNL     1     -25.173  -6.887  15.747  1.00  0.00     0.010 C 
HETATM   17  C3  UNL     1     -23.101  -6.482  14.515  1.00  0.00     0.010 C 
ENDBRANCH  11  15
ENDBRANCH   1  10
BRANCH   5  18
HETATM   18  C12 UNL     1     -20.903  -4.319   8.176  1.00  0.00     0.271 C 
HETATM   19  O2  UNL     1     -19.661  -4.378   7.960  1.00  0.00    -0.266 OA
HETATM   20  N2  UNL     1     -21.593  -3.189   7.674  1.00  0.00    -0.351 N 
ATOM     21  H2  UNL     1     -22.598  -3.121   7.836  1.00  0.00     0.163 HD
BRANCH  20  22
HETATM   22  C13 UNL     1     -20.934  -2.128   6.941  1.00  0.00     0.084 C 
HETATM   23  C14 UNL     1     -21.037  -2.310   5.456  1.00  0.00     0.025 C 
HETATM   24  C15 UNL     1     -20.495  -1.088   4.768  1.00  0.00     0.002 C 
HETATM   25  C16 UNL     1     -19.618  -0.329   5.703  1.00  0.00     0.000 C 
HETATM   26  C17 UNL     1     -20.393   0.230   6.891  1.00  0.00     0.002 C 
HETATM   27  C18 UNL     1     -21.483  -0.771   7.302  1.00  0.00     0.025 C 
ENDBRANCH  20  22
ENDBRANCH   5  18
TORSDOF 4
ENDMDL
MODEL 3
REMARK VINA RESULT: -6.874130685      1.780      2.500
REMARK  4 active torsions:
REMARK  status: ('A' for Active; 'I' for Inactive)
REMARK    1  A    between atoms: C2_2  and  C4_4 
REMARK    2  A    between atoms: C8_8  and  C9_9 
REMARK       I    between atoms: C9_9  and  N1_11 
REMARK    3  A    between atoms: C11_13  and  C12_14 
REMARK       I    between atoms: C12_14  and  N2_16 
REMARK    4  A    between atoms: N2_16  and  C13_18 
ROOT
HETATM    1  C9  UNL     1     -21.022  -3.992   7.609  1.00  0.00     0.248 C 
HETATM    2  O1  UNL     1     -20.611  -4.516   6.561  1.00  0.00    -0.271 OA
HETATM    3  N1  UNL     1     -21.516  -4.866   8.635  1.00  0.00    -0.218 N 
HETATM    4  C10 UNL     1     -22.012  -4.555   9.838  1.00  0.00     0.158 A 
HETATM    5  C11 UNL     1     -22.363  -5.707  10.506  1.00  0.00     0.134 A 
HETATM    6  N3  UNL     1     -22.062  -6.709   9.666  1.00  0.00    -0.279 N 
ATOM      7  H3  UNL     1     -22.198  -7.704   9.849  1.00  0.00     0.189 HD
HETATM    8  N4  UNL     1     -21.561  -6.190   8.563  1.00  0.00    -0.233 N 
ATOM      9  H4  UNL     1     -21.248  -6.735   7.759  1.00  0.00     0.209 HD
ENDROOT
BRANCH   1  10
HETATM   10  C8  UNL     1     -21.052  -2.553   7.902  1.00  0.00     0.084 C 
HETATM   11  C4  UNL     1     -20.541  -1.672   6.795  1.00  0.00     0.002 C 
HETATM   12  C5  UNL     1     -19.118  -2.052   6.670  1.00  0.00     0.006 C 
HETATM   13  C6  UNL     1     -18.722  -2.544   8.052  1.00  0.00     0.001 C 
HETATM   14  C7  UNL     1     -19.932  -2.316   8.934  1.00  0.00     0.014 C 
BRANCH  11  15
HETATM   15  C2  UNL     1     -21.354  -1.719   5.538  1.00  0.00    -0.018 C 
HETATM   16  C1  UNL     1     -20.548  -1.880   4.300  1.00  0.00     0.010 C 
HETATM   17  C3  UNL     1     -22.121  -0.413   5.460  1.00  0.00     0.010 C 
ENDBRANCH  11  15
ENDBRANCH   1  10
BRANCH   5  18
HETATM   18  C12 UNL     1     -22.936  -5.852  11.839  1.00  0.00     0.271 C 
HETATM   19  O2  UNL     1     -22.200  -5.840  12.864  1.00  0.00    -0.266 OA
HETATM   20  N2  UNL     1     -24.327  -6.010  12.044  1.00  0.00    -0.351 N 
ATOM     21  H2  UNL     1     -24.942  -6.023  11.230  1.00  0.00     0.163 HD
BRANCH  20  22
HETATM   22  C13 UNL     1     -24.916  -6.156  13.360  1.00  0.00     0.084 C 
HETATM   23  C14 UNL     1     -26.393  -6.413  13.299  1.00  0.00     0.025 C 
HETATM   24  C15 UNL     1     -26.898  -6.731  14.679  1.00  0.00     0.002 C 
HETATM   25  C16 UNL     1     -25.930  -6.236  15.698  1.00  0.00     0.000 C 
HETATM   26  C17 UNL     1     -24.590  -6.961  15.618  1.00  0.00     0.002 C 
HETATM   27  C18 UNL     1     -24.264  -7.262  14.148  1.00  0.00     0.025 C 
ENDBRANCH  20  22
ENDBRANCH   5  18
TORSDOF 4
ENDMDL
MODEL 4
REMARK VINA RESULT: -6.871288671      1.614      1.828
REMARK  4 active torsions:
REMARK  status: ('A' for Active; 'I' for Inactive)
REMARK    1  A    between atoms: C2_2  and  C4_4 
REMARK    2  A    between atoms: C8_8  and  C9_9 
REMARK       I    between atoms: C9_9  and  N1_11 
REMARK    3  A    between atoms: C11_13  and  C12_14 
REMARK       I    between atoms: C12_14  and  N2_16 
REMARK    4  A    between atoms: N2_16  and  C13_18 
ROOT
HETATM    1  C9  UNL     1     -20.673  -0.762   6.792  1.00  0.00     0.248 C 
HETATM    2  O1  UNL     1     -19.892   0.201   6.735  1.00  0.00    -0.271 OA
HETATM    3  N1  UNL     1     -20.833  -1.407   8.064  1.00  0.00    -0.218 N 
HETATM    4  C10 UNL     1     -21.601  -2.456   8.385  1.00  0.00     0.158 A 
HETATM    5  C11 UNL     1     -21.455  -2.744   9.723  1.00  0.00     0.134 A 
HETATM    6  N3  UNL     1     -20.581  -1.838  10.187  1.00  0.00    -0.279 N 
ATOM      7  H3  UNL     1     -20.248  -1.768  11.149  1.00  0.00     0.189 HD
HETATM    8  N4  UNL     1     -20.225  -1.056   9.189  1.00  0.00    -0.233 N 
ATOM      9  H4  UNL     1     -19.566  -0.280   9.270  1.00  0.00     0.209 HD
ENDROOT
BRANCH   1  10
HETATM   10  C8  UNL     1     -21.455  -1.308   5.675  1.00  0.00     0.084 C 
HETATM   11  C4  UNL     1     -20.763  -1.265   4.340  1.00  0.00     0.002 C 
HETATM   12  C5  UNL     1     -20.596   0.179   4.076  1.00  0.00     0.006 C 
HETATM   13  C6  UNL     1     -21.734   0.849   4.827  1.00  0.00     0.001 C 
HETATM   14  C7  UNL     1     -22.567  -0.277   5.403  1.00  0.00     0.014 C 
BRANCH  11  15
HETATM   15  C2  UNL     1     -19.526  -2.104   4.253  1.00  0.00    -0.018 C 
HETATM   16  C1  UNL     1     -18.297  -1.340   3.916  1.00  0.00     0.010 C 
HETATM   17  C3  UNL     1     -19.772  -3.143   3.175  1.00  0.00     0.010 C 
ENDBRANCH  11  15
ENDBRANCH   1  10
BRANCH   5  18
HETATM   18  C12 UNL     1     -22.097  -3.793  10.507  1.00  0.00     0.271 C 
HETATM   19  O2  UNL     1     -21.472  -4.383  11.432  1.00  0.00    -0.266 OA
HETATM   20  N2  UNL     1     -23.433  -4.194  10.272  1.00  0.00    -0.351 N 
ATOM     21  H2  UNL     1     -23.958  -3.731   9.530  1.00  0.00     0.163 HD
BRANCH  20  22
HETATM   22  C13 UNL     1     -24.088  -5.234  11.039  1.00  0.00     0.084 C 
HETATM   23  C14 UNL     1     -25.580  -5.082  11.052  1.00  0.00     0.025 C 
HETATM   24  C15 UNL     1     -26.196  -6.286  11.707  1.00  0.00     0.002 C 
HETATM   25  C16 UNL     1     -25.177  -6.986  12.538  1.00  0.00     0.000 C 
HETATM   26  C17 UNL     1     -24.045  -7.564  11.694  1.00  0.00     0.002 C 
HETATM   27  C18 UNL     1     -23.746  -6.610  10.528  1.00  0.00     0.025 C 
ENDBRANCH  20  22
ENDBRANCH   5  18
TORSDOF 4
ENDMDL
MODEL 5
REMARK VINA RESULT: -6.787405913      4.591      5.905
REMARK  4 active torsions:
REMARK  status: ('A' for Active; 'I' for Inactive)
REMARK    1  A    between atoms: C2_2  and  C4_4 
REMARK    2  A    between atoms: C8_8  and  C9_9 
REMARK       I    between atoms: C9_9  and  N1_11 
REMARK    3  A    between atoms: C11_13  and  C12_14 
REMARK       I    between atoms: C12_14  and  N2_16 
REMARK    4  A    between atoms: N2_16  and  C13_18 
ROOT
HETATM    1  C9  UNL     1     -21.172  -7.309   7.343  1.00  0.00     0.248 C 
HETATM    2  O1  UNL     1     -20.344  -6.813   6.564  1.00  0.00    -0.271 OA
HETATM    3  N1  UNL     1     -21.358  -6.660   8.610  1.00  0.00    -0.218 N 
HETATM    4  C10 UNL     1     -22.177  -6.993   9.615  1.00  0.00     0.158 A 
HETATM    5  C11 UNL     1     -22.038  -6.090  10.644  1.00  0.00     0.134 A 
HETATM    6  N3  UNL     1     -21.116  -5.211  10.223  1.00  0.00    -0.279 N 
ATOM      7  H3  UNL     1     -20.774  -4.406  10.748  1.00  0.00     0.189 HD
HETATM    8  N4  UNL     1     -20.726  -5.567   9.016  1.00  0.00    -0.233 N 
ATOM      9  H4  UNL     1     -20.028  -5.066   8.464  1.00  0.00     0.209 HD
ENDROOT
BRANCH   1  10
HETATM   10  C8  UNL     1     -21.988  -8.505   7.093  1.00  0.00     0.084 C 
HETATM   11  C4  UNL     1     -21.220  -9.799   7.070  1.00  0.00     0.002 C 
HETATM   12  C5  UNL     1     -20.314  -9.650   5.912  1.00  0.00     0.006 C 
HETATM   13  C6  UNL     1     -21.034  -8.700   4.971  1.00  0.00     0.001 C 
HETATM   14  C7  UNL     1     -22.384  -8.434   5.606  1.00  0.00     0.014 C 
BRANCH  11  15
HETATM   15  C2  UNL     1     -20.578 -10.164   8.373  1.00  0.00    -0.018 C 
HETATM   16  C1  UNL     1     -19.517 -11.198   8.257  1.00  0.00     0.010 C 
HETATM   17  C3  UNL     1     -21.679 -10.688   9.275  1.00  0.00     0.010 C 
ENDBRANCH  11  15
ENDBRANCH   1  10
BRANCH   5  18
HETATM   18  C12 UNL     1     -22.728  -6.056  11.929  1.00  0.00     0.271 C 
HETATM   19  O2  UNL     1     -22.100  -5.796  12.993  1.00  0.00    -0.266 OA
HETATM   20  N2  UNL     1     -24.116  -6.308  12.042  1.00  0.00    -0.351 N 
ATOM     21  H2  UNL     1     -24.643  -6.520  11.196  1.00  0.00     0.163 HD
BRANCH  20  22
HETATM   22  C13 UNL     1     -24.819  -6.279  13.309  1.00  0.00     0.084 C 
HETATM   23  C14 UNL     1     -26.296  -6.482  13.146  1.00  0.00     0.025 C 
HETATM   24  C15 UNL     1     -26.930  -6.620  14.502  1.00  0.00     0.002 C 
HETATM   25  C16 UNL     1     -26.027  -6.051  15.543  1.00  0.00     0.000 C 
HETATM   26  C17 UNL     1     -24.723  -6.834  15.662  1.00  0.00     0.002 C 
HETATM   27  C18 UNL     1     -24.291  -7.314  14.269  1.00  0.00     0.025 C 
ENDBRANCH  20  22
ENDBRANCH   5  18
TORSDOF 4
ENDMDL
