MODEL 1
REMARK VINA RESULT: -7.569616340      0.000      0.000
REMARK  4 active torsions:
REMARK  status: ('A' for Active; 'I' for Inactive)
REMARK    1  A    between atoms: C2_2  and  N1_3 
REMARK    2  A    between atoms: N1_3  and  C3_5 
REMARK    3  A    between atoms: C8_11  and  O1_12 
REMARK    4  A    between atoms: C10_15  and  C11_16 
ROOT
HETATM    1  C3  UNL     1       2.506  -9.700 -12.437  1.00  0.00     0.065 A 
HETATM    2  C4  UNL     1       3.491  -8.895 -13.025  1.00  0.00     0.040 A 
HETATM    3  C5  UNL     1       3.484  -7.533 -12.818  1.00  0.00    -0.045 A 
HETATM    4  C6  UNL     1       2.538  -6.899 -12.044  1.00  0.00    -0.005 A 
HETATM    5  C7  UNL     1       1.576  -7.691 -11.469  1.00  0.00     0.158 A 
HETATM    6  F1  UNL     1       0.600  -7.157 -10.688  1.00  0.00    -0.203 F 
HETATM    7  C8  UNL     1       1.555  -9.090 -11.663  1.00  0.00     0.131 A 
HETATM    8  C9  UNL     1       2.342  -5.497 -11.696  1.00  0.00     0.095 C 
HETATM    9  C10 UNL     1       3.506  -4.623 -11.779  1.00  0.00    -0.010 C 
HETATM   10  N2  UNL     1       4.702  -4.830 -12.110  1.00  0.00    -0.395 N 
ATOM     11  H2  UNL     1       5.292  -3.999 -12.068  1.00  0.00     0.159 HD
HETATM   12  C17 UNL     1       5.386  -5.999 -12.532  1.00  0.00     0.124 C 
HETATM   13  C18 UNL     1       4.596  -6.833 -13.512  1.00  0.00     0.059 C 
ENDROOT
BRANCH   9  14
HETATM   14  C11 UNL     1       3.188  -3.199 -11.388  1.00  0.00     0.031 C 
HETATM   15  C12 UNL     1       3.691  -2.900 -10.016  1.00  0.00     0.010 C 
HETATM   16  C13 UNL     1       3.109  -1.604  -9.524  1.00  0.00     0.001 C 
HETATM   17  C14 UNL     1       2.485  -0.785 -10.638  1.00  0.00     0.000 C 
HETATM   18  C15 UNL     1       1.339  -1.551 -11.274  1.00  0.00     0.001 C 
HETATM   19  C16 UNL     1       1.684  -3.006 -11.383  1.00  0.00     0.010 C 
ENDBRANCH   9  14
BRANCH   7  20
HETATM   20  O1  UNL     1       0.559  -9.830 -11.055  1.00  0.00    -0.356 OA
ATOM     21  H1  UNL     1       0.298 -10.673 -11.408  1.00  0.00     0.218 HD
ENDBRANCH   7  20
BRANCH   1  22
HETATM   22  N1  UNL     1       2.535 -11.082 -12.682  1.00  0.00    -0.388 N 
ATOM     23  H1  UNL     1       3.076 -11.669 -12.047  1.00  0.00     0.159 HD
BRANCH  22  24
HETATM   24  C2  UNL     1       1.846 -11.726 -13.776  1.00  0.00     0.115 C 
HETATM   25  C1  UNL     1       2.642 -11.723 -15.068  1.00  0.00     0.026 C 
ENDBRANCH  22  24
ENDBRANCH   1  22
TORSDOF 4
ENDMDL
MODEL 2
REMARK VINA RESULT: -7.537615303      2.030      2.517
REMARK  4 active torsions:
REMARK  status: ('A' for Active; 'I' for Inactive)
REMARK    1  A    between atoms: C2_2  and  N1_3 
REMARK    2  A    between atoms: N1_3  and  C3_5 
REMARK    3  A    between atoms: C8_11  and  O1_12 
REMARK    4  A    between atoms: C10_15  and  C11_16 
ROOT
HETATM    1  C3  UNL     1       3.134  -9.466 -11.588  1.00  0.00     0.065 A 
HETATM    2  C4  UNL     1       2.022  -8.623 -11.727  1.00  0.00     0.040 A 
HETATM    3  C5  UNL     1       2.143  -7.273 -11.482  1.00  0.00    -0.045 A 
HETATM    4  C6  UNL     1       3.328  -6.686 -11.097  1.00  0.00    -0.005 A 
HETATM    5  C7  UNL     1       4.414  -7.514 -10.963  1.00  0.00     0.158 A 
HETATM    6  F1  UNL     1       5.627  -7.028 -10.587  1.00  0.00    -0.203 F 
HETATM    7  C8  UNL     1       4.322  -8.902 -11.206  1.00  0.00     0.131 A 
HETATM    8  C9  UNL     1       3.678  -5.305 -10.790  1.00  0.00     0.095 C 
HETATM    9  C10 UNL     1       2.830  -4.263 -11.356  1.00  0.00    -0.010 C 
HETATM   10  N2  UNL     1       1.805  -4.304 -12.085  1.00  0.00    -0.395 N 
ATOM     11  H2  UNL     1       1.428  -3.386 -12.319  1.00  0.00     0.159 HD
HETATM   12  C17 UNL     1       1.074  -5.385 -12.641  1.00  0.00     0.124 C 
HETATM   13  C18 UNL     1       0.871  -6.530 -11.678  1.00  0.00     0.059 C 
ENDROOT
BRANCH   9  14
HETATM   14  C11 UNL     1       3.291  -2.875 -10.980  1.00  0.00     0.031 C 
HETATM   15  C12 UNL     1       3.956  -2.880  -9.644  1.00  0.00     0.010 C 
HETATM   16  C13 UNL     1       4.131  -1.470  -9.150  1.00  0.00     0.001 C 
HETATM   17  C14 UNL     1       3.938  -0.440 -10.246  1.00  0.00     0.000 C 
HETATM   18  C15 UNL     1       2.527  -0.523 -10.801  1.00  0.00     0.001 C 
HETATM   19  C16 UNL     1       2.090  -1.955 -10.896  1.00  0.00     0.010 C 
ENDBRANCH   9  14
BRANCH   7  20
HETATM   20  O1  UNL     1       5.454  -9.679 -11.053  1.00  0.00    -0.356 OA
ATOM     21  H1  UNL     1       6.001  -9.593 -10.280  1.00  0.00     0.218 HD
ENDBRANCH   7  20
BRANCH   1  22
HETATM   22  N1  UNL     1       2.970 -10.838 -11.831  1.00  0.00    -0.388 N 
ATOM     23  H1  UNL     1       3.795 -11.436 -11.773  1.00  0.00     0.159 HD
BRANCH  22  24
HETATM   24  C2  UNL     1       1.708 -11.458 -12.159  1.00  0.00     0.115 C 
HETATM   25  C1  UNL     1       1.575 -11.805 -13.630  1.00  0.00     0.026 C 
ENDBRANCH  22  24
ENDBRANCH   1  22
TORSDOF 4
ENDMDL
MODEL 3
REMARK VINA RESULT: -7.441688236      0.463      1.088
REMARK  4 active torsions:
REMARK  status: ('A' for Active; 'I' for Inactive)
REMARK    1  A    between atoms: C2_2  and  N1_3 
REMARK    2  A    between atoms: N1_3  and  C3_5 
REMARK    3  A    between atoms: C8_11  and  O1_12 
REMARK    4  A    between atoms: C10_15  and  C11_16 
ROOT
HETATM    1  C3  UNL     1       2.499  -9.705 -12.449  1.00  0.00     0.065 A 
HETATM    2  C4  UNL     1       3.469  -8.867 -13.018  1.00  0.00     0.040 A 
HETATM    3  C5  UNL     1       3.437  -7.512 -12.779  1.00  0.00    -0.045 A 
HETATM    4  C6  UNL     1       2.480  -6.914 -11.989  1.00  0.00    -0.005 A 
HETATM    5  C7  UNL     1       1.532  -7.737 -11.434  1.00  0.00     0.158 A 
HETATM    6  F1  UNL     1       0.546  -7.240 -10.640  1.00  0.00    -0.203 F 
HETATM    7  C8  UNL     1       1.538  -9.131 -11.661  1.00  0.00     0.131 A 
HETATM    8  C9  UNL     1       2.258  -5.524 -11.608  1.00  0.00     0.095 C 
HETATM    9  C10 UNL     1       3.405  -4.627 -11.670  1.00  0.00    -0.010 C 
HETATM   10  N2  UNL     1       4.605  -4.804 -12.005  1.00  0.00    -0.395 N 
ATOM     11  H2  UNL     1       5.179  -3.963 -11.943  1.00  0.00     0.159 HD
HETATM   12  C17 UNL     1       5.310  -5.950 -12.455  1.00  0.00     0.124 C 
HETATM   13  C18 UNL     1       4.536  -6.775 -13.455  1.00  0.00     0.059 C 
ENDROOT
BRANCH   9  14
HETATM   14  C11 UNL     1       3.061  -3.219 -11.245  1.00  0.00     0.031 C 
HETATM   15  C12 UNL     1       1.638  -2.901 -11.564  1.00  0.00     0.010 C 
HETATM   16  C13 UNL     1       1.396  -1.423 -11.423  1.00  0.00     0.001 C 
HETATM   17  C14 UNL     1       2.508  -0.720 -10.668  1.00  0.00     0.000 C 
HETATM   18  C15 UNL     1       3.823  -0.866 -11.413  1.00  0.00     0.001 C 
HETATM   19  C16 UNL     1       3.936  -2.241 -12.002  1.00  0.00     0.010 C 
ENDBRANCH   9  14
BRANCH   7  20
HETATM   20  O1  UNL     1       0.555  -9.904 -11.072  1.00  0.00    -0.356 OA
ATOM     21  H1  UNL     1      -0.183  -9.497 -10.633  1.00  0.00     0.218 HD
ENDBRANCH   7  20
BRANCH   1  22
HETATM   22  N1  UNL     1       2.554 -11.080 -12.728  1.00  0.00    -0.388 N 
ATOM     23  H1  UNL     1       3.132 -11.666 -12.127  1.00  0.00     0.159 HD
BRANCH  22  24
HETATM   24  C2  UNL     1       1.842 -11.716 -13.811  1.00  0.00     0.115 C 
HETATM   25  C1  UNL     1       2.617 -11.720 -15.115  1.00  0.00     0.026 C 
ENDBRANCH  22  24
ENDBRANCH   1  22
TORSDOF 4
ENDMDL
MODEL 4
REMARK VINA RESULT: -7.407163576      2.666      3.192
REMARK  4 active torsions:
REMARK  status: ('A' for Active; 'I' for Inactive)
REMARK    1  A    between atoms: C2_2  and  N1_3 
REMARK    2  A    between atoms: N1_3  and  C3_5 
REMARK    3  A    between atoms: C8_11  and  O1_12 
REMARK    4  A    between atoms: C10_15  and  C11_16 
ROOT
HETATM    1  C3  UNL     1       4.139  -9.207 -10.887  1.00  0.00     0.065 A 
HETATM    2  C4  UNL     1       2.886  -8.658 -11.196  1.00  0.00     0.040 A 
HETATM    3  C5  UNL     1       2.702  -7.294 -11.161  1.00  0.00    -0.045 A 
HETATM    4  C6  UNL     1       3.706  -6.412 -10.830  1.00  0.00    -0.005 A 
HETATM    5  C7  UNL     1       4.931  -6.952 -10.529  1.00  0.00     0.158 A 
HETATM    6  F1  UNL     1       5.984  -6.162 -10.190  1.00  0.00    -0.203 F 
HETATM    7  C8  UNL     1       5.152  -8.347 -10.556  1.00  0.00     0.131 A 
HETATM    8  C9  UNL     1       3.734  -4.958 -10.730  1.00  0.00     0.095 C 
HETATM    9  C10 UNL     1       2.726  -4.220 -11.482  1.00  0.00    -0.010 C 
HETATM   10  N2  UNL     1       1.786  -4.590 -12.232  1.00  0.00    -0.395 N 
ATOM     11  H2  UNL     1       1.240  -3.821 -12.621  1.00  0.00     0.159 HD
HETATM   12  C17 UNL     1       1.340  -5.875 -12.639  1.00  0.00     0.124 C 
HETATM   13  C18 UNL     1       1.318  -6.884 -11.516  1.00  0.00     0.059 C 
ENDROOT
BRANCH   9  14
HETATM   14  C11 UNL     1       2.856  -2.725 -11.311  1.00  0.00     0.031 C 
HETATM   15  C12 UNL     1       3.904  -2.396 -10.301  1.00  0.00     0.010 C 
HETATM   16  C13 UNL     1       3.812  -0.944  -9.917  1.00  0.00     0.001 C 
HETATM   17  C14 UNL     1       2.965  -0.139 -10.884  1.00  0.00     0.000 C 
HETATM   18  C15 UNL     1       1.541  -0.665 -10.898  1.00  0.00     0.001 C 
HETATM   19  C16 UNL     1       1.539  -2.163 -10.814  1.00  0.00     0.010 C 
ENDBRANCH   9  14
BRANCH   7  20
HETATM   20  O1  UNL     1       6.409  -8.826 -10.241  1.00  0.00    -0.356 OA
ATOM     21  H1  UNL     1       6.543  -9.369  -9.473  1.00  0.00     0.218 HD
ENDBRANCH   7  20
BRANCH   1  22
HETATM   22  N1  UNL     1       4.286 -10.602 -10.919  1.00  0.00    -0.388 N 
ATOM     23  H1  UNL     1       4.944 -10.998 -11.590  1.00  0.00     0.159 HD
BRANCH  22  24
HETATM   24  C2  UNL     1       3.565 -11.513 -10.061  1.00  0.00     0.115 C 
HETATM   25  C1  UNL     1       3.836 -11.286  -8.586  1.00  0.00     0.026 C 
ENDBRANCH  22  24
ENDBRANCH   1  22
TORSDOF 4
ENDMDL
MODEL 5
REMARK VINA RESULT: -7.391187171      4.409      4.935
REMARK  4 active torsions:
REMARK  status: ('A' for Active; 'I' for Inactive)
REMARK    1  A    between atoms: C2_2  and  N1_3 
REMARK    2  A    between atoms: N1_3  and  C3_5 
REMARK    3  A    between atoms: C8_11  and  O1_12 
REMARK    4  A    between atoms: C10_15  and  C11_16 
ROOT
HETATM    1  C3  UNL     1       4.102  -9.229  -6.933  1.00  0.00     0.065 A 
HETATM    2  C4  UNL     1       4.086  -9.332  -8.332  1.00  0.00     0.040 A 
HETATM    3  C5  UNL     1       4.100  -8.194  -9.107  1.00  0.00    -0.045 A 
HETATM    4  C6  UNL     1       4.130  -6.925  -8.574  1.00  0.00    -0.005 A 
HETATM    5  C7  UNL     1       4.146  -6.829  -7.205  1.00  0.00     0.158 A 
HETATM    6  F1  UNL     1       4.175  -5.619  -6.585  1.00  0.00    -0.203 F 
HETATM    7  C8  UNL     1       4.131  -7.976  -6.382  1.00  0.00     0.131 A 
HETATM    8  C9  UNL     1       4.148  -5.605  -9.194  1.00  0.00     0.095 C 
HETATM    9  C10 UNL     1       4.639  -5.522 -10.564  1.00  0.00    -0.010 C 
HETATM   10  N2  UNL     1       5.066  -6.391 -11.368  1.00  0.00    -0.395 N 
ATOM     11  H2  UNL     1       5.342  -6.014 -12.275  1.00  0.00     0.159 HD
HETATM   12  C17 UNL     1       5.237  -7.794 -11.252  1.00  0.00     0.124 C 
HETATM   13  C18 UNL     1       4.082  -8.483 -10.565  1.00  0.00     0.059 C 
ENDROOT
BRANCH   9  14
HETATM   14  C11 UNL     1       4.622  -4.110 -11.099  1.00  0.00     0.031 C 
HETATM   15  C12 UNL     1       5.519  -3.227 -10.297  1.00  0.00     0.010 C 
HETATM   16  C13 UNL     1       5.261  -1.785 -10.637  1.00  0.00     0.001 C 
HETATM   17  C14 UNL     1       4.461  -1.621 -11.914  1.00  0.00     0.000 C 
HETATM   18  C15 UNL     1       3.097  -2.273 -11.766  1.00  0.00     0.001 C 
HETATM   19  C16 UNL     1       3.215  -3.555 -10.998  1.00  0.00     0.010 C 
ENDBRANCH   9  14
BRANCH   7  20
HETATM   20  O1  UNL     1       4.148  -7.810  -5.010  1.00  0.00    -0.356 OA
ATOM     21  H1  UNL     1       4.141  -6.940  -4.627  1.00  0.00     0.218 HD
ENDBRANCH   7  20
BRANCH   1  22
HETATM   22  N1  UNL     1       4.071 -10.410  -6.174  1.00  0.00    -0.388 N 
ATOM     23  H1  UNL     1       3.161 -10.770  -5.887  1.00  0.00     0.159 HD
BRANCH  22  24
HETATM   24  C2  UNL     1       5.247 -11.146  -5.774  1.00  0.00     0.115 C 
HETATM   25  C1  UNL     1       5.598 -10.963  -4.309  1.00  0.00     0.026 C 
ENDBRANCH  22  24
ENDBRANCH   1  22
TORSDOF 4
ENDMDL
