MODEL 1
REMARK VINA RESULT: -6.400489119      0.000      0.000
REMARK  4 active torsions:
REMARK  status: ('A' for Active; 'I' for Inactive)
REMARK    1  A    between atoms: O1_2  and  C2_3 
REMARK    2  A    between atoms: C3_4  and  O2_5 
REMARK    3  A    between atoms: C6_10  and  O3_11 
REMARK    4  A    between atoms: C7_13  and  C8_14 
ROOT
HETATM    1  C2  UNL     1      -4.888  -0.714 -18.026  1.00  0.00     0.111 A 
HETATM    2  C3  UNL     1      -5.004  -1.376 -16.852  1.00  0.00     0.101 A 
HETATM    3  C4  UNL     1      -3.904  -1.942 -16.236  1.00  0.00     0.061 A 
HETATM    4  C5  UNL     1      -2.660  -1.836 -16.821  1.00  0.00     0.047 A 
HETATM    5 BR1  UNL     1      -1.116  -2.548 -15.955  1.00  0.00    -0.048 Br
HETATM    6  C6  UNL     1      -2.535  -1.147 -18.057  1.00  0.00     0.092 A 
HETATM    7  C7  UNL     1      -3.633  -0.593 -18.657  1.00  0.00     0.020 A 
ENDROOT
BRANCH   7   8
HETATM    8  C8  UNL     1      -3.571   0.137 -19.918  1.00  0.00     0.047 C 
HETATM    9  C9  UNL     1      -2.528   1.233 -19.879  1.00  0.00    -0.015 C 
HETATM   10  C10 UNL     1      -2.243   1.784 -21.068  1.00  0.00    -0.087 C 
HETATM   11  C11 UNL     1      -1.193   2.861 -21.004  1.00  0.00     0.043 C 
HETATM   12  C12 UNL     1      -2.840   1.438 -22.359  1.00  0.00     0.033 C 
HETATM   13  C13 UNL     1      -3.633   0.154 -22.326  1.00  0.00     0.005 C 
HETATM   14  C14 UNL     1      -3.060  -0.676 -21.120  1.00  0.00     0.014 C 
ENDBRANCH   7   8
BRANCH   1  15
HETATM   15  O1  UNL     1      -5.970  -0.157 -18.647  1.00  0.00    -0.352 OA
HETATM   16  C1  UNL     1      -7.023   0.572 -18.112  1.00  0.00     0.210 C 
ENDBRANCH   1  15
BRANCH   6  17
HETATM   17  O3  UNL     1      -1.265  -1.107 -18.521  1.00  0.00    -0.359 OA
ATOM     18  H3  UNL     1      -1.208  -1.178 -19.466  1.00  0.00     0.217 HD
ENDBRANCH   6  17
BRANCH   2  19
HETATM   19  O2  UNL     1      -6.229  -1.541 -16.167  1.00  0.00    -0.358 OA
ATOM     20  H2  UNL     1      -6.322  -1.443 -15.226  1.00  0.00     0.217 HD
ENDBRANCH   2  19
TORSDOF 4
ENDMDL
MODEL 2
REMARK VINA RESULT: -6.284696361      9.559     11.287
REMARK  4 active torsions:
REMARK  status: ('A' for Active; 'I' for Inactive)
REMARK    1  A    between atoms: O1_2  and  C2_3 
REMARK    2  A    between atoms: C3_4  and  O2_5 
REMARK    3  A    between atoms: C6_10  and  O3_11 
REMARK    4  A    between atoms: C7_13  and  C8_14 
ROOT
HETATM    1  C2  UNL     1       1.310  -8.165 -11.479  1.00  0.00     0.111 A 
HETATM    2  C3  UNL     1       1.601  -9.471 -11.681  1.00  0.00     0.101 A 
HETATM    3  C4  UNL     1       2.638  -9.854 -12.511  1.00  0.00     0.061 A 
HETATM    4  C5  UNL     1       3.396  -8.896 -13.149  1.00  0.00     0.047 A 
HETATM    5 BR1  UNL     1       4.877  -9.399 -14.243  1.00  0.00    -0.048 Br
HETATM    6  C6  UNL     1       3.090  -7.524 -12.944  1.00  0.00     0.092 A 
HETATM    7  C7  UNL     1       2.059  -7.158 -12.122  1.00  0.00     0.020 A 
ENDROOT
BRANCH   7   8
HETATM    8  C8  UNL     1       1.700  -5.769 -11.860  1.00  0.00     0.047 C 
HETATM    9  C9  UNL     1       2.924  -4.908 -11.636  1.00  0.00    -0.015 C 
HETATM   10  C10 UNL     1       2.692  -3.587 -11.631  1.00  0.00    -0.087 C 
HETATM   11  C11 UNL     1       3.928  -2.753 -11.422  1.00  0.00     0.043 C 
HETATM   12  C12 UNL     1       1.399  -2.925 -11.807  1.00  0.00     0.033 C 
HETATM   13  C13 UNL     1       0.317  -3.849 -12.311  1.00  0.00     0.005 C 
HETATM   14  C14 UNL     1       1.061  -5.024 -13.044  1.00  0.00     0.014 C 
ENDBRANCH   7   8
BRANCH   1  15
HETATM   15  O1  UNL     1       0.282  -7.776 -10.667  1.00  0.00    -0.352 OA
HETATM   16  C1  UNL     1      -1.081  -7.998 -10.792  1.00  0.00     0.210 C 
ENDBRANCH   1  15
BRANCH   6  17
HETATM   17  O3  UNL     1       3.909  -6.686 -13.619  1.00  0.00    -0.359 OA
ATOM     18  H3  UNL     1       4.049  -5.858 -13.175  1.00  0.00     0.217 HD
ENDBRANCH   6  17
BRANCH   2  19
HETATM   19  O2  UNL     1       0.891 -10.532 -11.075  1.00  0.00    -0.358 OA
ATOM     20  H2  UNL     1       1.042 -11.448 -11.278  1.00  0.00     0.217 HD
ENDBRANCH   2  19
TORSDOF 4
ENDMDL
MODEL 3
REMARK VINA RESULT: -6.199504566      8.657     10.942
REMARK  4 active torsions:
REMARK  status: ('A' for Active; 'I' for Inactive)
REMARK    1  A    between atoms: O1_2  and  C2_3 
REMARK    2  A    between atoms: C3_4  and  O2_5 
REMARK    3  A    between atoms: C6_10  and  O3_11 
REMARK    4  A    between atoms: C7_13  and  C8_14 
ROOT
HETATM    1  C2  UNL     1       1.553  -4.636 -11.771  1.00  0.00     0.111 A 
HETATM    2  C3  UNL     1       1.269  -5.953 -11.902  1.00  0.00     0.101 A 
HETATM    3  C4  UNL     1       2.256  -6.913 -11.787  1.00  0.00     0.061 A 
HETATM    4  C5  UNL     1       3.556  -6.534 -11.533  1.00  0.00     0.047 A 
HETATM    5 BR1  UNL     1       4.923  -7.846 -11.300  1.00  0.00    -0.048 Br
HETATM    6  C6  UNL     1       3.859  -5.152 -11.400  1.00  0.00     0.092 A 
HETATM    7  C7  UNL     1       2.873  -4.211 -11.519  1.00  0.00     0.020 A 
ENDROOT
BRANCH   7   8
HETATM    8  C8  UNL     1       3.114  -2.779 -11.381  1.00  0.00     0.047 C 
HETATM    9  C9  UNL     1       3.579  -2.422  -9.987  1.00  0.00    -0.015 C 
HETATM   10  C10 UNL     1       4.051  -1.174  -9.851  1.00  0.00    -0.087 C 
HETATM   11  C11 UNL     1       4.521  -0.849  -8.458  1.00  0.00     0.043 C 
HETATM   12  C12 UNL     1       4.144  -0.155 -10.897  1.00  0.00     0.033 C 
HETATM   13  C13 UNL     1       3.936  -0.704 -12.288  1.00  0.00     0.005 C 
HETATM   14  C14 UNL     1       4.293  -2.233 -12.205  1.00  0.00     0.014 C 
ENDBRANCH   7   8
BRANCH   1  15
HETATM   15  O1  UNL     1       0.586  -3.678 -11.890  1.00  0.00    -0.352 OA
HETATM   16  C1  UNL     1       0.047  -3.097 -13.029  1.00  0.00     0.210 C 
ENDBRANCH   1  15
BRANCH   6  17
HETATM   17  O3  UNL     1       5.166  -4.914 -11.146  1.00  0.00    -0.359 OA
ATOM     18  H3  UNL     1       5.484  -5.355 -10.367  1.00  0.00     0.217 HD
ENDBRANCH   6  17
BRANCH   2  19
HETATM   19  O2  UNL     1      -0.029  -6.450 -12.160  1.00  0.00    -0.358 OA
ATOM     20  H2  UNL     1      -0.199  -7.310 -12.527  1.00  0.00     0.217 HD
ENDBRANCH   2  19
TORSDOF 4
ENDMDL
MODEL 4
REMARK VINA RESULT: -6.174943405      8.672     11.419
REMARK  4 active torsions:
REMARK  status: ('A' for Active; 'I' for Inactive)
REMARK    1  A    between atoms: O1_2  and  C2_3 
REMARK    2  A    between atoms: C3_4  and  O2_5 
REMARK    3  A    between atoms: C6_10  and  O3_11 
REMARK    4  A    between atoms: C7_13  and  C8_14 
ROOT
HETATM    1  C2  UNL     1       1.861  -3.893 -11.901  1.00  0.00     0.111 A 
HETATM    2  C3  UNL     1       2.092  -2.587 -11.631  1.00  0.00     0.101 A 
HETATM    3  C4  UNL     1       3.302  -2.166 -11.113  1.00  0.00     0.061 A 
HETATM    4  C5  UNL     1       4.299  -3.085 -10.862  1.00  0.00     0.047 A 
HETATM    5 BR1  UNL     1       6.002  -2.517 -10.213  1.00  0.00    -0.048 Br
HETATM    6  C6  UNL     1       4.058  -4.457 -11.138  1.00  0.00     0.092 A 
HETATM    7  C7  UNL     1       2.855  -4.861 -11.649  1.00  0.00     0.020 A 
ENDROOT
BRANCH   7   8
HETATM    8  C8  UNL     1       2.548  -6.252 -11.966  1.00  0.00     0.047 C 
HETATM    9  C9  UNL     1       3.446  -6.787 -13.059  1.00  0.00    -0.015 C 
HETATM   10  C10 UNL     1       3.391  -8.116 -13.235  1.00  0.00    -0.087 C 
HETATM   11  C11 UNL     1       4.304  -8.625 -14.318  1.00  0.00     0.043 C 
HETATM   12  C12 UNL     1       2.556  -9.063 -12.493  1.00  0.00     0.033 C 
HETATM   13  C13 UNL     1       1.937  -8.470 -11.251  1.00  0.00     0.005 C 
HETATM   14  C14 UNL     1       2.856  -7.261 -10.846  1.00  0.00     0.014 C 
ENDBRANCH   7   8
BRANCH   1  15
HETATM   15  O1  UNL     1       0.666  -4.322 -12.406  1.00  0.00    -0.352 OA
HETATM   16  C1  UNL     1       0.041  -3.997 -13.601  1.00  0.00     0.210 C 
ENDBRANCH   1  15
BRANCH   6  17
HETATM   17  O3  UNL     1       5.114  -5.253 -10.856  1.00  0.00    -0.359 OA
ATOM     18  H3  UNL     1       5.451  -5.714 -11.615  1.00  0.00     0.217 HD
ENDBRANCH   6  17
BRANCH   2  19
HETATM   19  O2  UNL     1       1.143  -1.565 -11.853  1.00  0.00    -0.358 OA
ATOM     20  H2  UNL     1       0.490  -1.306 -11.212  1.00  0.00     0.217 HD
ENDBRANCH   2  19
TORSDOF 4
ENDMDL
MODEL 5
REMARK VINA RESULT: -6.149872836      9.669     11.740
REMARK  4 active torsions:
REMARK  status: ('A' for Active; 'I' for Inactive)
REMARK    1  A    between atoms: O1_2  and  C2_3 
REMARK    2  A    between atoms: C3_4  and  O2_5 
REMARK    3  A    between atoms: C6_10  and  O3_11 
REMARK    4  A    between atoms: C7_13  and  C8_14 
ROOT
HETATM    1  C2  UNL     1       2.947  -4.909 -11.701  1.00  0.00     0.111 A 
HETATM    2  C3  UNL     1       2.637  -6.164 -12.101  1.00  0.00     0.101 A 
HETATM    3  C4  UNL     1       3.415  -7.245 -11.733  1.00  0.00     0.061 A 
HETATM    4  C5  UNL     1       4.529  -7.053 -10.944  1.00  0.00     0.047 A 
HETATM    5 BR1  UNL     1       5.577  -8.539 -10.364  1.00  0.00    -0.048 Br
HETATM    6  C6  UNL     1       4.860  -5.736 -10.527  1.00  0.00     0.092 A 
HETATM    7  C7  UNL     1       4.083  -4.674 -10.900  1.00  0.00     0.020 A 
ENDROOT
BRANCH   7   8
HETATM    8  C8  UNL     1       4.361  -3.299 -10.496  1.00  0.00     0.047 C 
HETATM    9  C9  UNL     1       4.253  -2.342 -11.663  1.00  0.00    -0.015 C 
HETATM   10  C10 UNL     1       4.255  -1.043 -11.329  1.00  0.00    -0.087 C 
HETATM   11  C11 UNL     1       4.132  -0.112 -12.506  1.00  0.00     0.043 C 
HETATM   12  C12 UNL     1       4.358  -0.486  -9.979  1.00  0.00     0.033 C 
HETATM   13  C13 UNL     1       4.162  -1.514  -8.891  1.00  0.00     0.005 C 
HETATM   14  C14 UNL     1       3.328  -2.677  -9.542  1.00  0.00     0.014 C 
ENDBRANCH   7   8
BRANCH   1  15
HETATM   15  O1  UNL     1       2.189  -3.831 -12.065  1.00  0.00    -0.352 OA
HETATM   16  C1  UNL     1       0.827  -3.613 -11.916  1.00  0.00     0.210 C 
ENDBRANCH   1  15
BRANCH   6  17
HETATM   17  O3  UNL     1       5.968  -5.683  -9.753  1.00  0.00    -0.359 OA
ATOM     18  H3  UNL     1       6.005  -4.910  -9.201  1.00  0.00     0.217 HD
ENDBRANCH   6  17
BRANCH   2  19
HETATM   19  O2  UNL     1       1.519  -6.473 -12.907  1.00  0.00    -0.358 OA
ATOM     20  H2  UNL     1       1.497  -7.198 -13.520  1.00  0.00     0.217 HD
ENDBRANCH   2  19
TORSDOF 4
ENDMDL
