MODEL 1
REMARK VINA RESULT: -7.544004228      0.000      0.000
REMARK  3 active torsions:
REMARK  status: ('A' for Active; 'I' for Inactive)
REMARK    1  A    between atoms: C7_7  and  C8_8 
REMARK    2  A    between atoms: N1_9  and  C9_11 
REMARK    3  A    between atoms: C12_14  and  O1_15 
ROOT
HETATM    1  C1  UNL     1      -5.563   0.086 -15.006  1.00  0.00     0.032 C 
HETATM    2  C2  UNL     1      -6.047  -0.686 -16.241  1.00  0.00     0.078 C 
HETATM    3  C3  UNL     1      -6.816   0.197 -17.149  1.00  0.00     0.029 C 
HETATM    4  C4  UNL     1      -6.581  -0.005 -18.601  1.00  0.00     0.043 C 
HETATM    5  C5  UNL     1      -5.178  -0.297 -18.946  1.00  0.00    -0.029 A 
HETATM    6  C6  UNL     1      -4.635   0.066 -20.165  1.00  0.00     0.025 A 
HETATM    7  C7  UNL     1      -3.331  -0.196 -20.507  1.00  0.00     0.014 A 
HETATM    8  C12 UNL     1      -2.495  -0.857 -19.603  1.00  0.00     0.097 A 
HETATM    9  C13 UNL     1      -3.042  -1.214 -18.395  1.00  0.00     0.071 A 
HETATM   10 BR1  UNL     1      -1.940  -2.116 -17.132  1.00  0.00    -0.046 Br
HETATM   11  C14 UNL     1      -4.353  -0.949 -18.056  1.00  0.00     0.055 A 
HETATM   12  N2  UNL     1      -4.904  -1.321 -16.807  1.00  0.00    -0.384 N 
ATOM     13  H2  UNL     1      -4.463  -2.080 -16.287  1.00  0.00     0.160 HD
ENDROOT
BRANCH   7  14
HETATM   14  C8  UNL     1      -2.797   0.199 -21.796  1.00  0.00     0.097 C 
HETATM   15  N1  UNL     1      -1.719   0.873 -21.890  1.00  0.00    -0.393 N 
ATOM     16  H1  UNL     1      -1.244   1.124 -21.023  1.00  0.00     0.159 HD
BRANCH  15  17
HETATM   17  C9  UNL     1      -1.128   1.301 -23.117  1.00  0.00     0.081 A 
HETATM   18  C10 UNL     1       0.322   1.508 -23.267  1.00  0.00     0.027 A 
HETATM   19  C11 UNL     1      -0.545   2.695 -23.197  1.00  0.00     0.027 A 
ENDBRANCH  15  17
ENDBRANCH   7  14
BRANCH   8  20
HETATM   20  O1  UNL     1      -1.188  -1.114 -19.961  1.00  0.00    -0.358 OA
ATOM     21  H1  UNL     1      -0.746  -1.868 -19.588  1.00  0.00     0.217 HD
ENDBRANCH   8  20
TORSDOF 3
ENDMDL
MODEL 2
REMARK VINA RESULT: -7.383097186      1.135      1.321
REMARK  3 active torsions:
REMARK  status: ('A' for Active; 'I' for Inactive)
REMARK    1  A    between atoms: C7_7  and  C8_8 
REMARK    2  A    between atoms: N1_9  and  C9_11 
REMARK    3  A    between atoms: C12_14  and  O1_15 
ROOT
HETATM    1  C1  UNL     1      -5.612   0.016 -15.065  1.00  0.00     0.032 C 
HETATM    2  C2  UNL     1      -6.077  -0.714 -16.332  1.00  0.00     0.078 C 
HETATM    3  C3  UNL     1      -6.828   0.200 -17.225  1.00  0.00     0.029 C 
HETATM    4  C4  UNL     1      -6.570   0.043 -18.678  1.00  0.00     0.043 C 
HETATM    5  C5  UNL     1      -5.162  -0.242 -19.009  1.00  0.00    -0.029 A 
HETATM    6  C6  UNL     1      -4.598   0.157 -20.207  1.00  0.00     0.025 A 
HETATM    7  C7  UNL     1      -3.289  -0.099 -20.536  1.00  0.00     0.014 A 
HETATM    8  C12 UNL     1      -2.471  -0.791 -19.639  1.00  0.00     0.097 A 
HETATM    9  C13 UNL     1      -3.039  -1.184 -18.452  1.00  0.00     0.071 A 
HETATM   10 BR1  UNL     1      -1.960  -2.130 -17.201  1.00  0.00    -0.046 Br
HETATM   11  C14 UNL     1      -4.354  -0.925 -18.127  1.00  0.00     0.055 A 
HETATM   12  N2  UNL     1      -4.927  -1.335 -16.899  1.00  0.00    -0.384 N 
ATOM     13  H2  UNL     1      -4.497  -2.112 -16.397  1.00  0.00     0.160 HD
ENDROOT
BRANCH   7  14
HETATM   14  C8  UNL     1      -2.732   0.336 -21.802  1.00  0.00     0.097 C 
HETATM   15  N1  UNL     1      -3.465   0.482 -22.835  1.00  0.00    -0.393 N 
ATOM     16  H1  UNL     1      -4.460   0.284 -22.738  1.00  0.00     0.159 HD
BRANCH  15  17
HETATM   17  C9  UNL     1      -2.996   0.904 -24.115  1.00  0.00     0.081 A 
HETATM   18  C10 UNL     1      -2.393   2.228 -24.341  1.00  0.00     0.027 A 
HETATM   19  C11 UNL     1      -3.754   1.990 -24.848  1.00  0.00     0.027 A 
ENDBRANCH  15  17
ENDBRANCH   7  14
BRANCH   8  20
HETATM   20  O1  UNL     1      -1.158  -1.041 -19.983  1.00  0.00    -0.358 OA
ATOM     21  H1  UNL     1      -0.848  -1.939 -20.003  1.00  0.00     0.217 HD
ENDBRANCH   8  20
TORSDOF 3
ENDMDL
MODEL 3
REMARK VINA RESULT: -6.729667587      9.061     10.824
REMARK  3 active torsions:
REMARK  status: ('A' for Active; 'I' for Inactive)
REMARK    1  A    between atoms: C7_7  and  C8_8 
REMARK    2  A    between atoms: N1_9  and  C9_11 
REMARK    3  A    between atoms: C12_14  and  O1_15 
ROOT
HETATM    1  C1  UNL     1       4.125  -7.617  -9.015  1.00  0.00     0.032 C 
HETATM    2  C2  UNL     1       4.007  -7.550 -10.543  1.00  0.00     0.078 C 
HETATM    3  C3  UNL     1       2.747  -8.179 -11.005  1.00  0.00     0.029 C 
HETATM    4  C4  UNL     1       2.052  -7.492 -12.123  1.00  0.00     0.043 C 
HETATM    5  C5  UNL     1       2.100  -6.021 -12.044  1.00  0.00    -0.029 A 
HETATM    6  C6  UNL     1       1.092  -5.227 -12.562  1.00  0.00     0.025 A 
HETATM    7  C7  UNL     1       1.117  -3.856 -12.500  1.00  0.00     0.014 A 
HETATM    8  C12 UNL     1       2.197  -3.208 -11.894  1.00  0.00     0.097 A 
HETATM    9  C13 UNL     1       3.194  -4.002 -11.382  1.00  0.00     0.071 A 
HETATM   10 BR1  UNL     1       4.684  -3.162 -10.547  1.00  0.00    -0.046 Br
HETATM   11  C14 UNL     1       3.164  -5.380 -11.447  1.00  0.00     0.055 A 
HETATM   12  N2  UNL     1       4.197  -6.187 -10.915  1.00  0.00    -0.384 N 
ATOM     13  H2  UNL     1       5.122  -5.775 -10.793  1.00  0.00     0.160 HD
ENDROOT
BRANCH   7  14
HETATM   14  C8  UNL     1       0.041  -3.057 -13.055  1.00  0.00     0.097 C 
HETATM   15  N1  UNL     1      -0.370  -3.234 -14.248  1.00  0.00    -0.393 N 
ATOM     16  H1  UNL     1       0.085  -3.960 -14.801  1.00  0.00     0.159 HD
BRANCH  15  17
HETATM   17  C9  UNL     1      -1.420  -2.492 -14.868  1.00  0.00     0.081 A 
HETATM   18  C10 UNL     1      -2.304  -3.075 -15.892  1.00  0.00     0.027 A 
HETATM   19  C11 UNL     1      -1.280  -2.110 -16.326  1.00  0.00     0.027 A 
ENDBRANCH  15  17
ENDBRANCH   7  14
BRANCH   8  20
HETATM   20  O1  UNL     1       2.209  -1.829 -11.839  1.00  0.00    -0.358 OA
ATOM     21  H1  UNL     1       3.040  -1.377 -11.754  1.00  0.00     0.217 HD
ENDBRANCH   8  20
TORSDOF 3
ENDMDL
MODEL 4
REMARK VINA RESULT: -6.672722988      8.532     10.278
REMARK  3 active torsions:
REMARK  status: ('A' for Active; 'I' for Inactive)
REMARK    1  A    between atoms: C7_7  and  C8_8 
REMARK    2  A    between atoms: N1_9  and  C9_11 
REMARK    3  A    between atoms: C12_14  and  O1_15 
ROOT
HETATM    1  C1  UNL     1       6.139  -2.295 -10.321  1.00  0.00     0.032 C 
HETATM    2  C2  UNL     1       4.753  -2.173  -9.674  1.00  0.00     0.078 C 
HETATM    3  C3  UNL     1       4.116  -0.882 -10.027  1.00  0.00     0.029 C 
HETATM    4  C4  UNL     1       2.658  -0.934 -10.302  1.00  0.00     0.043 C 
HETATM    5  C5  UNL     1       2.229  -2.138 -11.035  1.00  0.00    -0.029 A 
HETATM    6  C6  UNL     1       1.138  -2.126 -11.886  1.00  0.00     0.025 A 
HETATM    7  C7  UNL     1       0.721  -3.236 -12.578  1.00  0.00     0.014 A 
HETATM    8  C12 UNL     1       1.411  -4.443 -12.435  1.00  0.00     0.097 A 
HETATM    9  C13 UNL     1       2.493  -4.447 -11.589  1.00  0.00     0.071 A 
HETATM   10 BR1  UNL     1       3.462  -6.070 -11.365  1.00  0.00    -0.046 Br
HETATM   11  C14 UNL     1       2.908  -3.329 -10.896  1.00  0.00     0.055 A 
HETATM   12  N2  UNL     1       4.025  -3.346 -10.028  1.00  0.00    -0.384 N 
ATOM     13  H2  UNL     1       4.324  -4.239  -9.636  1.00  0.00     0.160 HD
ENDROOT
BRANCH   7  14
HETATM   14  C8  UNL     1      -0.428  -3.186 -13.461  1.00  0.00     0.097 C 
HETATM   15  N1  UNL     1      -0.594  -2.225 -14.281  1.00  0.00    -0.393 N 
ATOM     16  H1  UNL     1       0.113  -1.490 -14.296  1.00  0.00     0.159 HD
BRANCH  15  17
HETATM   17  C9  UNL     1      -1.695  -2.100 -15.180  1.00  0.00     0.081 A 
HETATM   18  C10 UNL     1      -2.144  -3.208 -16.041  1.00  0.00     0.027 A 
HETATM   19  C11 UNL     1      -1.423  -2.089 -16.669  1.00  0.00     0.027 A 
ENDBRANCH  15  17
ENDBRANCH   7  14
BRANCH   8  20
HETATM   20  O1  UNL     1       0.980  -5.551 -13.137  1.00  0.00    -0.358 OA
ATOM     21  H1  UNL     1       0.977  -6.398 -12.707  1.00  0.00     0.217 HD
ENDBRANCH   8  20
TORSDOF 3
ENDMDL
MODEL 5
REMARK VINA RESULT: -6.527316612     10.201     11.803
REMARK  3 active torsions:
REMARK  status: ('A' for Active; 'I' for Inactive)
REMARK    1  A    between atoms: C7_7  and  C8_8 
REMARK    2  A    between atoms: N1_9  and  C9_11 
REMARK    3  A    between atoms: C12_14  and  O1_15 
ROOT
HETATM    1  C1  UNL     1       2.902  -0.903 -12.100  1.00  0.00     0.032 C 
HETATM    2  C2  UNL     1       2.033  -1.973 -11.426  1.00  0.00     0.078 C 
HETATM    3  C3  UNL     1       0.966  -2.443 -12.342  1.00  0.00     0.029 C 
HETATM    4  C4  UNL     1       0.675  -3.899 -12.305  1.00  0.00     0.043 C 
HETATM    5  C5  UNL     1       1.871  -4.745 -12.146  1.00  0.00    -0.029 A 
HETATM    6  C6  UNL     1       1.935  -6.025 -12.667  1.00  0.00     0.025 A 
HETATM    7  C7  UNL     1       3.039  -6.830 -12.531  1.00  0.00     0.014 A 
HETATM    8  C12 UNL     1       4.160  -6.361 -11.841  1.00  0.00     0.097 A 
HETATM    9  C13 UNL     1       4.089  -5.090 -11.326  1.00  0.00     0.071 A 
HETATM   10 BR1  UNL     1       5.593  -4.410 -10.378  1.00  0.00    -0.046 Br
HETATM   11  C14 UNL     1       2.978  -4.284 -11.466  1.00  0.00     0.055 A 
HETATM   12  N2  UNL     1       2.917  -2.975 -10.932  1.00  0.00    -0.384 N 
ATOM     13  H2  UNL     1       3.535  -2.738 -10.156  1.00  0.00     0.160 HD
ENDROOT
BRANCH   7  14
HETATM   14  C8  UNL     1       3.069  -8.168 -13.091  1.00  0.00     0.097 C 
HETATM   15  N1  UNL     1       3.806  -8.453 -14.090  1.00  0.00    -0.393 N 
ATOM     16  H1  UNL     1       4.378  -7.705 -14.483  1.00  0.00     0.159 HD
BRANCH  15  17
HETATM   17  C9  UNL     1       3.893  -9.741 -14.700  1.00  0.00     0.081 A 
HETATM   18  C10 UNL     1       5.123 -10.230 -15.346  1.00  0.00     0.027 A 
HETATM   19  C11 UNL     1       3.998  -9.828 -16.207  1.00  0.00     0.027 A 
ENDBRANCH  15  17
ENDBRANCH   7  14
BRANCH   8  20
HETATM   20  O1  UNL     1       5.261  -7.182 -11.711  1.00  0.00    -0.358 OA
ATOM     21  H1  UNL     1       6.065  -6.953 -12.164  1.00  0.00     0.217 HD
ENDBRANCH   8  20
TORSDOF 3
ENDMDL
