MODEL 1
REMARK VINA RESULT: -7.373713906      0.000      0.000
REMARK  14 active torsions:
REMARK  status: ('A' for Active; 'I' for Inactive)
REMARK    1  A    between atoms: C2_2  and  N1_3 
REMARK    2  A    between atoms: N1_3  and  C3_4 
REMARK    3  A    between atoms: N1_3  and  C5_6 
REMARK    4  A    between atoms: C5_6  and  C6_7 
REMARK       I    between atoms: C6_7  and  N2_9 
REMARK    5  A    between atoms: C7_11  and  N3_12 
REMARK    6  A    between atoms: C7_11  and  C12_19 
REMARK       I    between atoms: N3_12  and  C8_14 
REMARK    7  A    between atoms: C8_14  and  C9_16 
REMARK    8  A    between atoms: C13_20  and  C14_21 
REMARK       I    between atoms: C14_21  and  N4_23 
REMARK    9  A    between atoms: N4_23  and  C15_25 
REMARK   10  A    between atoms: C19_29  and  C20_30 
REMARK   11  A    between atoms: C20_30  and  C21_31 
REMARK   12  A    between atoms: C20_30  and  N5_35 
REMARK   13  A    between atoms: C21_31  and  C22_32 
REMARK   14  A    between atoms: N5_35  and  C25_37 
ROOT
HETATM    1  C12 UNL     1      20.011  35.799  17.999  1.00  0.00     0.078 A 
HETATM    2  C13 UNL     1      20.205  37.205  17.355  1.00  0.00     0.100 A 
HETATM    3  C19 UNL     1      19.062  36.887  18.209  1.00  0.00     0.057 A 
ENDROOT
BRANCH   1   4
HETATM    4  C7  UNL     1      19.920  34.738  17.003  1.00  0.00     0.092 C 
HETATM    5  N2  UNL     1      18.776  34.120  16.773  1.00  0.00    -0.311 N 
HETATM    6  C6  UNL     1      18.634  33.107  15.821  1.00  0.00     0.262 C 
ATOM      7  H2  UNL     1      17.958  34.396  17.315  1.00  0.00     0.170 HD
HETATM    8  O1  UNL     1      18.490  33.398  14.632  1.00  0.00    -0.267 OA
BRANCH   6   9
HETATM    9  C5  UNL     1      18.659  31.692  16.249  1.00  0.00     0.164 C 
BRANCH   9  10
HETATM   10  N1  UNL     1      18.945  30.852  15.159  1.00  0.00    -0.366 N 
BRANCH  10  11
HETATM   11  C2  UNL     1      17.902  30.172  14.517  1.00  0.00     0.059 C 
HETATM   12  C1  UNL     1      17.864  30.392  13.015  1.00  0.00     0.055 C 
ENDBRANCH  10  11
BRANCH  10  13
HETATM   13  C3  UNL     1      20.256  30.355  15.087  1.00  0.00     0.123 C 
HETATM   14  C4  UNL     1      20.312  28.826  15.086  1.00  0.00     0.027 C 
ENDBRANCH  10  13
ENDBRANCH   9  10
ENDBRANCH   6   9
BRANCH   4  15
HETATM   15  N3  UNL     1      21.012  34.311  16.219  1.00  0.00    -0.316 N 
HETATM   16  C8  UNL     1      22.004  33.369  16.589  1.00  0.00     0.226 C 
HETATM   17  O2  UNL     1      21.954  32.822  17.711  1.00  0.00    -0.273 OA
ATOM     18  H3  UNL     1      21.097  34.725  15.290  1.00  0.00     0.170 HD
BRANCH  16  19
HETATM   19  C9  UNL     1      23.121  33.000  15.677  1.00  0.00     0.070 C 
HETATM   20  C10 UNL     1      24.171  34.086  15.792  1.00  0.00     0.019 C 
HETATM   21  C11 UNL     1      22.606  33.014  14.259  1.00  0.00     0.019 C 
ENDBRANCH  16  19
ENDBRANCH   4  15
ENDBRANCH   1   4
BRANCH   2  22
HETATM   22  C14 UNL     1      21.418  37.869  17.805  1.00  0.00     0.224 C 
HETATM   23  O3  UNL     1      22.463  37.218  18.014  1.00  0.00    -0.273 OA
HETATM   24  N4  UNL     1      21.425  39.269  18.012  1.00  0.00    -0.353 N 
ATOM     25  H4  UNL     1      20.564  39.788  17.837  1.00  0.00     0.163 HD
BRANCH  24  26
HETATM   26  C15 UNL     1      22.590  40.000  18.458  1.00  0.00     0.022 C 
HETATM   27  C16 UNL     1      22.209  41.425  18.762  1.00  0.00     0.037 C 
HETATM   28  C17 UNL     1      23.657  40.039  17.387  1.00  0.00     0.037 C 
HETATM   29  C18 UNL     1      23.246  39.351  19.667  1.00  0.00     0.037 C 
ENDBRANCH  24  26
ENDBRANCH   2  22
BRANCH   3  30
HETATM   30  C20 UNL     1      17.696  36.838  17.635  1.00  0.00    -0.007 C 
BRANCH  30  31
HETATM   31  C21 UNL     1      16.674  36.093  18.422  1.00  0.00     0.056 C 
BRANCH  31  32
HETATM   32  C22 UNL     1      15.481  35.588  17.722  1.00  0.00    -0.018 C 
HETATM   33  C23 UNL     1      15.326  34.126  17.552  1.00  0.00     0.010 C 
HETATM   34  C24 UNL     1      14.270  36.058  18.553  1.00  0.00     0.010 C 
ENDBRANCH  31  32
ENDBRANCH  30  31
BRANCH  30  35
HETATM   35  N5  UNL     1      17.154  38.042  17.107  1.00  0.00    -0.360 N 
ATOM     36  H5  UNL     1      16.602  37.957  16.254  1.00  0.00     0.165 HD
BRANCH  35  37
HETATM   37  C25 UNL     1      17.297  39.329  17.632  1.00  0.00     0.080 A 
HETATM   38  C26 UNL     1      18.101  40.354  17.185  1.00  0.00     0.051 A 
HETATM   39  C27 UNL     1      19.043  40.381  16.041  1.00  0.00     0.072 C 
HETATM   40  N6  UNL     1      17.901  41.419  17.996  1.00  0.00    -0.301 N 
HETATM   41  N7  UNL     1      17.013  41.118  18.931  1.00  0.00    -0.299 N 
ATOM     42  H6  UNL     1      18.367  42.322  17.900  1.00  0.00     0.187 HD
HETATM   43  C28 UNL     1      16.541  42.000  19.978  1.00  0.00     0.177 C 
HETATM   44  C29 UNL     1      16.626  39.825  18.720  1.00  0.00     0.052 A 
HETATM   45  C30 UNL     1      15.617  39.175  19.610  1.00  0.00     0.072 C 
ENDBRANCH  35  37
ENDBRANCH  30  35
ENDBRANCH   3  30
TORSDOF 14
ENDMDL
MODEL 2
REMARK VINA RESULT: -7.102340500      0.786      1.503
REMARK  14 active torsions:
REMARK  status: ('A' for Active; 'I' for Inactive)
REMARK    1  A    between atoms: C2_2  and  N1_3 
REMARK    2  A    between atoms: N1_3  and  C3_4 
REMARK    3  A    between atoms: N1_3  and  C5_6 
REMARK    4  A    between atoms: C5_6  and  C6_7 
REMARK       I    between atoms: C6_7  and  N2_9 
REMARK    5  A    between atoms: C7_11  and  N3_12 
REMARK    6  A    between atoms: C7_11  and  C12_19 
REMARK       I    between atoms: N3_12  and  C8_14 
REMARK    7  A    between atoms: C8_14  and  C9_16 
REMARK    8  A    between atoms: C13_20  and  C14_21 
REMARK       I    between atoms: C14_21  and  N4_23 
REMARK    9  A    between atoms: N4_23  and  C15_25 
REMARK   10  A    between atoms: C19_29  and  C20_30 
REMARK   11  A    between atoms: C20_30  and  C21_31 
REMARK   12  A    between atoms: C20_30  and  N5_35 
REMARK   13  A    between atoms: C21_31  and  C22_32 
REMARK   14  A    between atoms: N5_35  and  C25_37 
ROOT
HETATM    1  C12 UNL     1      19.915  35.276  17.811  1.00  0.00     0.078 A 
HETATM    2  C13 UNL     1      20.076  36.700  17.197  1.00  0.00     0.100 A 
HETATM    3  C19 UNL     1      18.898  36.310  17.969  1.00  0.00     0.057 A 
ENDROOT
BRANCH   1   4
HETATM    4  C7  UNL     1      19.947  34.227  16.799  1.00  0.00     0.092 C 
HETATM    5  N2  UNL     1      18.873  33.506  16.536  1.00  0.00    -0.311 N 
HETATM    6  C6  UNL     1      18.849  32.498  15.568  1.00  0.00     0.262 C 
ATOM      7  H2  UNL     1      18.021  33.694  17.064  1.00  0.00     0.170 HD
HETATM    8  O1  UNL     1      18.702  32.792  14.380  1.00  0.00    -0.267 OA
BRANCH   6   9
HETATM    9  C5  UNL     1      19.001  31.086  15.978  1.00  0.00     0.164 C 
BRANCH   9  10
HETATM   10  N1  UNL     1      19.320  30.283  14.869  1.00  0.00    -0.366 N 
BRANCH  10  11
HETATM   11  C2  UNL     1      18.343  29.444  14.318  1.00  0.00     0.059 C 
HETATM   12  C1  UNL     1      17.943  29.822  12.903  1.00  0.00     0.055 C 
ENDBRANCH  10  11
BRANCH  10  13
HETATM   13  C3  UNL     1      20.681  29.989  14.689  1.00  0.00     0.123 C 
HETATM   14  C4  UNL     1      20.951  28.489  14.548  1.00  0.00     0.027 C 
ENDBRANCH  10  13
ENDBRANCH   9  10
ENDBRANCH   6   9
BRANCH   4  15
HETATM   15  N3  UNL     1      21.092  33.919  16.034  1.00  0.00    -0.316 N 
HETATM   16  C8  UNL     1      22.090  32.964  16.349  1.00  0.00     0.226 C 
HETATM   17  O2  UNL     1      21.997  32.291  17.397  1.00  0.00    -0.273 OA
ATOM     18  H3  UNL     1      21.213  34.438  15.164  1.00  0.00     0.170 HD
BRANCH  16  19
HETATM   19  C9  UNL     1      23.264  32.730  15.464  1.00  0.00     0.070 C 
HETATM   20  C10 UNL     1      24.222  33.885  15.673  1.00  0.00     0.019 C 
HETATM   21  C11 UNL     1      22.799  32.777  14.029  1.00  0.00     0.019 C 
ENDBRANCH  16  19
ENDBRANCH   4  15
ENDBRANCH   1   4
BRANCH   2  22
HETATM   22  C14 UNL     1      21.219  37.421  17.735  1.00  0.00     0.224 C 
HETATM   23  O3  UNL     1      22.253  36.812  18.080  1.00  0.00    -0.273 OA
HETATM   24  N4  UNL     1      21.169  38.828  17.873  1.00  0.00    -0.353 N 
ATOM     25  H4  UNL     1      20.319  39.313  17.587  1.00  0.00     0.163 HD
BRANCH  24  26
HETATM   26  C15 UNL     1      22.264  39.613  18.399  1.00  0.00     0.022 C 
HETATM   27  C16 UNL     1      21.728  40.872  19.027  1.00  0.00     0.037 C 
HETATM   28  C17 UNL     1      23.217  40.030  17.301  1.00  0.00     0.037 C 
HETATM   29  C18 UNL     1      23.104  38.831  19.396  1.00  0.00     0.037 C 
ENDBRANCH  24  26
ENDBRANCH   2  22
BRANCH   3  30
HETATM   30  C20 UNL     1      17.577  36.197  17.305  1.00  0.00    -0.007 C 
BRANCH  30  31
HETATM   31  C21 UNL     1      16.621  35.218  17.894  1.00  0.00     0.056 C 
BRANCH  31  32
HETATM   32  C22 UNL     1      15.463  34.798  17.088  1.00  0.00    -0.018 C 
HETATM   33  C23 UNL     1      15.314  33.363  16.757  1.00  0.00     0.010 C 
HETATM   34  C24 UNL     1      14.214  35.186  17.905  1.00  0.00     0.010 C 
ENDBRANCH  31  32
ENDBRANCH  30  31
BRANCH  30  35
HETATM   35  N5  UNL     1      16.913  37.401  16.940  1.00  0.00    -0.360 N 
ATOM     36  H5  UNL     1      16.403  37.389  16.057  1.00  0.00     0.165 HD
BRANCH  35  37
HETATM   37  C25 UNL     1      16.886  38.598  17.662  1.00  0.00     0.080 A 
HETATM   38  C26 UNL     1      16.133  38.913  18.771  1.00  0.00     0.051 A 
HETATM   39  C27 UNL     1      15.140  38.091  19.501  1.00  0.00     0.072 C 
HETATM   40  N6  UNL     1      16.446  40.179  19.135  1.00  0.00    -0.301 N 
HETATM   41  N7  UNL     1      17.356  40.677  18.311  1.00  0.00    -0.299 N 
ATOM     42  H6  UNL     1      16.041  40.677  19.928  1.00  0.00     0.187 HD
HETATM   43  C28 UNL     1      17.940  42.000  18.380  1.00  0.00     0.177 C 
HETATM   44  C29 UNL     1      17.642  39.709  17.391  1.00  0.00     0.052 A 
HETATM   45  C30 UNL     1      18.647  39.952  16.312  1.00  0.00     0.072 C 
ENDBRANCH  35  37
ENDBRANCH  30  35
ENDBRANCH   3  30
TORSDOF 14
ENDMDL
MODEL 3
REMARK VINA RESULT: -6.777688564      1.303      2.633
REMARK  14 active torsions:
REMARK  status: ('A' for Active; 'I' for Inactive)
REMARK    1  A    between atoms: C2_2  and  N1_3 
REMARK    2  A    between atoms: N1_3  and  C3_4 
REMARK    3  A    between atoms: N1_3  and  C5_6 
REMARK    4  A    between atoms: C5_6  and  C6_7 
REMARK       I    between atoms: C6_7  and  N2_9 
REMARK    5  A    between atoms: C7_11  and  N3_12 
REMARK    6  A    between atoms: C7_11  and  C12_19 
REMARK       I    between atoms: N3_12  and  C8_14 
REMARK    7  A    between atoms: C8_14  and  C9_16 
REMARK    8  A    between atoms: C13_20  and  C14_21 
REMARK       I    between atoms: C14_21  and  N4_23 
REMARK    9  A    between atoms: N4_23  and  C15_25 
REMARK   10  A    between atoms: C19_29  and  C20_30 
REMARK   11  A    between atoms: C20_30  and  C21_31 
REMARK   12  A    between atoms: C20_30  and  N5_35 
REMARK   13  A    between atoms: C21_31  and  C22_32 
REMARK   14  A    between atoms: N5_35  and  C25_37 
ROOT
HETATM    1  C12 UNL     1      20.171  35.694  18.129  1.00  0.00     0.078 A 
HETATM    2  C13 UNL     1      20.318  37.078  17.428  1.00  0.00     0.100 A 
HETATM    3  C19 UNL     1      19.184  36.756  18.293  1.00  0.00     0.057 A 
ENDROOT
BRANCH   1   4
HETATM    4  C7  UNL     1      20.119  34.590  17.178  1.00  0.00     0.092 C 
HETATM    5  N2  UNL     1      20.946  33.567  17.281  1.00  0.00    -0.311 N 
HETATM    6  C6  UNL     1      20.927  32.479  16.402  1.00  0.00     0.262 C 
ATOM      7  H2  UNL     1      21.630  33.570  18.037  1.00  0.00     0.170 HD
HETATM    8  O1  UNL     1      20.104  31.576  16.561  1.00  0.00    -0.267 OA
BRANCH   6   9
HETATM    9  C5  UNL     1      21.898  32.422  15.289  1.00  0.00     0.164 C 
BRANCH   9  10
HETATM   10  N1  UNL     1      21.386  31.655  14.228  1.00  0.00    -0.366 N 
BRANCH  10  11
HETATM   11  C2  UNL     1      22.151  30.607  13.699  1.00  0.00     0.059 C 
HETATM   12  C1  UNL     1      21.774  29.242  14.247  1.00  0.00     0.055 C 
ENDBRANCH  10  11
BRANCH  10  13
HETATM   13  C3  UNL     1      20.396  32.267  13.443  1.00  0.00     0.123 C 
HETATM   14  C4  UNL     1      19.230  31.329  13.120  1.00  0.00     0.027 C 
ENDBRANCH  10  13
ENDBRANCH   9  10
ENDBRANCH   6   9
BRANCH   4  15
HETATM   15  N3  UNL     1      19.196  34.524  16.113  1.00  0.00    -0.316 N 
HETATM   16  C8  UNL     1      18.029  33.722  16.051  1.00  0.00     0.226 C 
HETATM   17  O2  UNL     1      17.733  32.981  17.012  1.00  0.00    -0.273 OA
ATOM     18  H3  UNL     1      19.389  35.115  15.304  1.00  0.00     0.170 HD
BRANCH  16  19
HETATM   19  C9  UNL     1      17.128  33.730  14.866  1.00  0.00     0.070 C 
HETATM   20  C10 UNL     1      16.542  35.122  14.757  1.00  0.00     0.019 C 
HETATM   21  C11 UNL     1      15.989  32.774  15.124  1.00  0.00     0.019 C 
ENDBRANCH  16  19
ENDBRANCH   4  15
ENDBRANCH   1   4
BRANCH   2  22
HETATM   22  C14 UNL     1      21.506  37.802  17.852  1.00  0.00     0.224 C 
HETATM   23  O3  UNL     1      22.595  37.209  18.004  1.00  0.00    -0.273 OA
HETATM   24  N4  UNL     1      21.438  39.194  18.097  1.00  0.00    -0.353 N 
ATOM     25  H4  UNL     1      20.543  39.665  17.969  1.00  0.00     0.163 HD
BRANCH  24  26
HETATM   26  C15 UNL     1      22.575  39.981  18.521  1.00  0.00     0.022 C 
HETATM   27  C16 UNL     1      22.142  41.401  18.773  1.00  0.00     0.037 C 
HETATM   28  C17 UNL     1      23.644  40.021  17.452  1.00  0.00     0.037 C 
HETATM   29  C18 UNL     1      23.249  39.399  19.754  1.00  0.00     0.037 C 
ENDBRANCH  24  26
ENDBRANCH   2  22
BRANCH   3  30
HETATM   30  C20 UNL     1      17.822  36.636  17.720  1.00  0.00    -0.007 C 
BRANCH  30  31
HETATM   31  C21 UNL     1      16.809  35.942  18.563  1.00  0.00     0.056 C 
BRANCH  31  32
HETATM   32  C22 UNL     1      15.464  35.723  18.004  1.00  0.00    -0.018 C 
HETATM   33  C23 UNL     1      14.928  34.344  17.971  1.00  0.00     0.010 C 
HETATM   34  C24 UNL     1      14.500  36.541  18.886  1.00  0.00     0.010 C 
ENDBRANCH  31  32
ENDBRANCH  30  31
BRANCH  30  35
HETATM   35  N5  UNL     1      17.264  37.783  17.092  1.00  0.00    -0.360 N 
ATOM     36  H5  UNL     1      16.699  37.615  16.259  1.00  0.00     0.165 HD
BRANCH  35  37
HETATM   37  C25 UNL     1      17.405  39.114  17.493  1.00  0.00     0.080 A 
HETATM   38  C26 UNL     1      18.220  40.089  16.961  1.00  0.00     0.051 A 
HETATM   39  C27 UNL     1      19.179  40.003  15.835  1.00  0.00     0.072 C 
HETATM   40  N6  UNL     1      18.012  41.227  17.663  1.00  0.00    -0.301 N 
HETATM   41  N7  UNL     1      17.109  41.020  18.609  1.00  0.00    -0.299 N 
ATOM     42  H6  UNL     1      18.483  42.116  17.488  1.00  0.00     0.187 HD
HETATM   43  C28 UNL     1      16.625  42.000  19.559  1.00  0.00     0.177 C 
HETATM   44  C29 UNL     1      16.719  39.714  18.518  1.00  0.00     0.052 A 
HETATM   45  C30 UNL     1      15.694  39.155  19.450  1.00  0.00     0.072 C 
ENDBRANCH  35  37
ENDBRANCH  30  35
ENDBRANCH   3  30
TORSDOF 14
ENDMDL
MODEL 4
REMARK VINA RESULT: -6.655858728      7.791     15.354
REMARK  14 active torsions:
REMARK  status: ('A' for Active; 'I' for Inactive)
REMARK    1  A    between atoms: C2_2  and  N1_3 
REMARK    2  A    between atoms: N1_3  and  C3_4 
REMARK    3  A    between atoms: N1_3  and  C5_6 
REMARK    4  A    between atoms: C5_6  and  C6_7 
REMARK       I    between atoms: C6_7  and  N2_9 
REMARK    5  A    between atoms: C7_11  and  N3_12 
REMARK    6  A    between atoms: C7_11  and  C12_19 
REMARK       I    between atoms: N3_12  and  C8_14 
REMARK    7  A    between atoms: C8_14  and  C9_16 
REMARK    8  A    between atoms: C13_20  and  C14_21 
REMARK       I    between atoms: C14_21  and  N4_23 
REMARK    9  A    between atoms: N4_23  and  C15_25 
REMARK   10  A    between atoms: C19_29  and  C20_30 
REMARK   11  A    between atoms: C20_30  and  C21_31 
REMARK   12  A    between atoms: C20_30  and  N5_35 
REMARK   13  A    between atoms: C21_31  and  C22_32 
REMARK   14  A    between atoms: N5_35  and  C25_37 
ROOT
HETATM    1  C12 UNL     1      20.200  25.416  10.177  1.00  0.00     0.078 A 
HETATM    2  C13 UNL     1      19.914  25.570   8.653  1.00  0.00     0.100 A 
HETATM    3  C19 UNL     1      21.085  24.859   9.160  1.00  0.00     0.057 A 
ENDROOT
BRANCH   1   4
HETATM    4  C7  UNL     1      20.339  26.701  10.851  1.00  0.00     0.092 C 
HETATM    5  N2  UNL     1      21.495  27.074  11.368  1.00  0.00    -0.311 N 
HETATM    6  C6  UNL     1      21.683  28.300  12.012  1.00  0.00     0.262 C 
ATOM      7  H2  UNL     1      22.288  26.437  11.293  1.00  0.00     0.170 HD
HETATM    8  O1  UNL     1      21.876  29.319  11.346  1.00  0.00    -0.267 OA
BRANCH   6   9
HETATM    9  C5  UNL     1      21.648  28.364  13.488  1.00  0.00     0.164 C 
BRANCH   9  10
HETATM   10  N1  UNL     1      21.415  29.681  13.919  1.00  0.00    -0.366 N 
BRANCH  10  11
HETATM   11  C2  UNL     1      22.485  30.582  14.001  1.00  0.00     0.059 C 
HETATM   12  C1  UNL     1      22.060  32.039  13.940  1.00  0.00     0.055 C 
ENDBRANCH  10  11
BRANCH  10  13
HETATM   13  C3  UNL     1      20.265  29.883  14.699  1.00  0.00     0.123 C 
HETATM   14  C4  UNL     1      19.765  28.598  15.363  1.00  0.00     0.027 C 
ENDBRANCH  10  13
ENDBRANCH   9  10
ENDBRANCH   6   9
BRANCH   4  15
HETATM   15  N3  UNL     1      19.283  27.627  10.985  1.00  0.00    -0.316 N 
HETATM   16  C8  UNL     1      18.205  27.556  11.902  1.00  0.00     0.226 C 
HETATM   17  O2  UNL     1      18.133  26.599  12.703  1.00  0.00    -0.273 OA
ATOM     18  H3  UNL     1      19.298  28.431  10.357  1.00  0.00     0.170 HD
BRANCH  16  19
HETATM   19  C9  UNL     1      17.138  28.593  11.948  1.00  0.00     0.070 C 
HETATM   20  C10 UNL     1      16.678  28.826  10.524  1.00  0.00     0.019 C 
HETATM   21  C11 UNL     1      17.745  29.881  12.448  1.00  0.00     0.019 C 
ENDBRANCH  16  19
ENDBRANCH   4  15
ENDBRANCH   1   4
BRANCH   2  22
HETATM   22  C14 UNL     1      18.671  24.936   8.244  1.00  0.00     0.224 C 
HETATM   23  O3  UNL     1      17.738  24.774   9.059  1.00  0.00    -0.273 OA
HETATM   24  N4  UNL     1      18.505  24.494   6.911  1.00  0.00    -0.353 N 
ATOM     25  H4  UNL     1      19.274  24.633   6.255  1.00  0.00     0.163 HD
BRANCH  24  26
HETATM   26  C15 UNL     1      17.299  23.855   6.430  1.00  0.00     0.022 C 
HETATM   27  C16 UNL     1      17.223  22.449   6.964  1.00  0.00     0.037 C 
HETATM   28  C17 UNL     1      17.291  23.763   4.921  1.00  0.00     0.037 C 
HETATM   29  C18 UNL     1      16.049  24.638   6.799  1.00  0.00     0.037 C 
ENDBRANCH  24  26
ENDBRANCH   2  22
BRANCH   3  30
HETATM   30  C20 UNL     1      22.444  25.409   8.939  1.00  0.00    -0.007 C 
BRANCH  30  31
HETATM   31  C21 UNL     1      23.473  25.062   9.959  1.00  0.00     0.056 C 
BRANCH  31  32
HETATM   32  C22 UNL     1      24.576  26.009  10.191  1.00  0.00    -0.018 C 
HETATM   33  C23 UNL     1      24.425  27.402   9.714  1.00  0.00     0.010 C 
HETATM   34  C24 UNL     1      24.748  26.092  11.721  1.00  0.00     0.010 C 
ENDBRANCH  31  32
ENDBRANCH  30  31
BRANCH  30  35
HETATM   35  N5  UNL     1      22.983  25.336   7.625  1.00  0.00    -0.360 N 
ATOM     36  H5  UNL     1      23.637  26.073   7.360  1.00  0.00     0.165 HD
BRANCH  35  37
HETATM   37  C25 UNL     1      22.714  24.362   6.659  1.00  0.00     0.080 A 
HETATM   38  C26 UNL     1      21.903  24.456   5.550  1.00  0.00     0.051 A 
HETATM   39  C27 UNL     1      21.084  25.595   5.076  1.00  0.00     0.072 C 
HETATM   40  N6  UNL     1      21.958  23.271   4.898  1.00  0.00    -0.301 N 
HETATM   41  N7  UNL     1      22.762  22.436   5.540  1.00  0.00    -0.299 N 
ATOM     42  H6  UNL     1      21.455  23.052   4.038  1.00  0.00     0.187 HD
HETATM   43  C28 UNL     1      23.074  21.077   5.148  1.00  0.00     0.177 C 
HETATM   44  C29 UNL     1      23.241  23.097   6.635  1.00  0.00     0.052 A 
HETATM   45  C30 UNL     1      24.189  22.429   7.577  1.00  0.00     0.072 C 
ENDBRANCH  35  37
ENDBRANCH  30  35
ENDBRANCH   3  30
TORSDOF 14
ENDMDL
MODEL 5
REMARK VINA RESULT: -6.540591292      1.797      6.224
REMARK  14 active torsions:
REMARK  status: ('A' for Active; 'I' for Inactive)
REMARK    1  A    between atoms: C2_2  and  N1_3 
REMARK    2  A    between atoms: N1_3  and  C3_4 
REMARK    3  A    between atoms: N1_3  and  C5_6 
REMARK    4  A    between atoms: C5_6  and  C6_7 
REMARK       I    between atoms: C6_7  and  N2_9 
REMARK    5  A    between atoms: C7_11  and  N3_12 
REMARK    6  A    between atoms: C7_11  and  C12_19 
REMARK       I    between atoms: N3_12  and  C8_14 
REMARK    7  A    between atoms: C8_14  and  C9_16 
REMARK    8  A    between atoms: C13_20  and  C14_21 
REMARK       I    between atoms: C14_21  and  N4_23 
REMARK    9  A    between atoms: N4_23  and  C15_25 
REMARK   10  A    between atoms: C19_29  and  C20_30 
REMARK   11  A    between atoms: C20_30  and  C21_31 
REMARK   12  A    between atoms: C20_30  and  N5_35 
REMARK   13  A    between atoms: C21_31  and  C22_32 
REMARK   14  A    between atoms: N5_35  and  C25_37 
ROOT
HETATM    1  C12 UNL     1      20.527  34.868  17.495  1.00  0.00     0.078 A 
HETATM    2  C13 UNL     1      21.386  35.093  16.214  1.00  0.00     0.100 A 
HETATM    3  C19 UNL     1      21.653  35.795  17.468  1.00  0.00     0.057 A 
ENDROOT
BRANCH   1   4
HETATM    4  C7  UNL     1      19.121  35.192  17.288  1.00  0.00     0.092 C 
HETATM    5  N2  UNL     1      18.501  36.055  18.071  1.00  0.00    -0.311 N 
HETATM    6  C6  UNL     1      17.159  36.408  17.906  1.00  0.00     0.262 C 
ATOM      7  H2  UNL     1      19.027  36.483  18.832  1.00  0.00     0.170 HD
HETATM    8  O1  UNL     1      16.846  37.249  17.062  1.00  0.00    -0.267 OA
BRANCH   6   9
HETATM    9  C5  UNL     1      16.125  35.767  18.747  1.00  0.00     0.164 C 
BRANCH   9  10
HETATM   10  N1  UNL     1      14.928  36.503  18.701  1.00  0.00    -0.366 N 
BRANCH  10  11
HETATM   11  C2  UNL     1      14.691  37.499  19.657  1.00  0.00     0.059 C 
HETATM   12  C1  UNL     1      14.736  38.908  19.091  1.00  0.00     0.055 C 
ENDBRANCH  10  11
BRANCH  10  13
HETATM   13  C3  UNL     1      13.850  35.890  18.043  1.00  0.00     0.123 C 
HETATM   14  C4  UNL     1      14.230  34.556  17.396  1.00  0.00     0.027 C 
ENDBRANCH  10  13
ENDBRANCH   9  10
ENDBRANCH   6   9
BRANCH   4  15
HETATM   15  N3  UNL     1      18.339  34.636  16.253  1.00  0.00    -0.316 N 
HETATM   16  C8  UNL     1      18.210  33.261  15.935  1.00  0.00     0.226 C 
HETATM   17  O2  UNL     1      18.823  32.406  16.609  1.00  0.00    -0.273 OA
ATOM     18  H3  UNL     1      17.814  35.291  15.675  1.00  0.00     0.170 HD
BRANCH  16  19
HETATM   19  C9  UNL     1      17.358  32.788  14.810  1.00  0.00     0.070 C 
HETATM   20  C10 UNL     1      16.125  32.152  15.417  1.00  0.00     0.019 C 
HETATM   21  C11 UNL     1      18.106  31.711  14.063  1.00  0.00     0.019 C 
ENDBRANCH  16  19
ENDBRANCH   4  15
ENDBRANCH   1   4
BRANCH   2  22
HETATM   22  C14 UNL     1      22.072  33.889  15.775  1.00  0.00     0.224 C 
HETATM   23  O3  UNL     1      23.222  33.624  16.184  1.00  0.00    -0.273 OA
HETATM   24  N4  UNL     1      21.439  33.001  14.873  1.00  0.00    -0.353 N 
ATOM     25  H4  UNL     1      20.501  33.230  14.547  1.00  0.00     0.163 HD
BRANCH  24  26
HETATM   26  C15 UNL     1      22.057  31.785  14.391  1.00  0.00     0.022 C 
HETATM   27  C16 UNL     1      21.716  30.644  15.311  1.00  0.00     0.037 C 
HETATM   28  C17 UNL     1      23.564  31.908  14.368  1.00  0.00     0.037 C 
HETATM   29  C18 UNL     1      21.650  31.463  12.962  1.00  0.00     0.037 C 
ENDBRANCH  24  26
ENDBRANCH   2  22
BRANCH   3  30
HETATM   30  C20 UNL     1      21.445  37.260  17.560  1.00  0.00    -0.007 C 
BRANCH  30  31
HETATM   31  C21 UNL     1      22.672  38.096  17.694  1.00  0.00     0.056 C 
BRANCH  31  32
HETATM   32  C22 UNL     1      22.595  39.329  18.495  1.00  0.00    -0.018 C 
HETATM   33  C23 UNL     1      23.246  39.353  19.823  1.00  0.00     0.010 C 
HETATM   34  C24 UNL     1      23.284  40.423  17.655  1.00  0.00     0.010 C 
ENDBRANCH  31  32
ENDBRANCH  30  31
BRANCH  30  35
HETATM   35  N5  UNL     1      20.518  37.857  16.662  1.00  0.00    -0.360 N 
ATOM     36  H5  UNL     1      20.135  37.252  15.935  1.00  0.00     0.165 HD
BRANCH  35  37
HETATM   37  C25 UNL     1      20.075  39.182  16.668  1.00  0.00     0.080 A 
HETATM   38  C26 UNL     1      20.328  40.176  15.749  1.00  0.00     0.051 A 
HETATM   39  C27 UNL     1      21.143  40.129  14.512  1.00  0.00     0.072 C 
HETATM   40  N6  UNL     1      19.682  41.292  16.159  1.00  0.00    -0.301 N 
HETATM   41  N7  UNL     1      19.035  41.053  17.290  1.00  0.00    -0.299 N 
ATOM     42  H6  UNL     1      19.691  42.187  15.669  1.00  0.00     0.187 HD
HETATM   43  C28 UNL     1      18.231  42.000  18.033  1.00  0.00     0.177 C 
HETATM   44  C29 UNL     1      19.267  39.748  17.621  1.00  0.00     0.052 A 
HETATM   45  C30 UNL     1      18.668  39.153  18.854  1.00  0.00     0.072 C 
ENDBRANCH  35  37
ENDBRANCH  30  35
ENDBRANCH   3  30
TORSDOF 14
ENDMDL
