MODEL 1
REMARK VINA RESULT: -8.137553171      0.000      0.000
REMARK  14 active torsions:
REMARK  status: ('A' for Active; 'I' for Inactive)
REMARK    1  A    between atoms: C2_2  and  O1_3 
REMARK    2  A    between atoms: O1_3  and  C3_4 
REMARK    3  A    between atoms: C5_6  and  N1_7 
REMARK    4  A    between atoms: N1_7  and  C6_8 
REMARK    5  A    between atoms: C7_11  and  C8_12 
REMARK    6  A    between atoms: C12_16  and  O2_17 
REMARK    7  A    between atoms: C14_19  and  O3_20 
REMARK    8  A    between atoms: C17_25  and  N4_26 
REMARK    9  A    between atoms: N4_26  and  C18_28 
REMARK   10  A    between atoms: C18_28  and  C19_29 
REMARK   11  A    between atoms: C19_29  and  N5_30 
REMARK   12  A    between atoms: N5_30  and  C20_31 
REMARK   13  A    between atoms: N5_30  and  C22_33 
REMARK   14  A    between atoms: C26_39  and  N7_40 
ROOT
HETATM    1  C6  UNL     1      19.223  30.996  14.839  1.00  0.00     0.275 A 
HETATM    2  N2  UNL     1      18.329  31.959  15.248  1.00  0.00    -0.301 N 
ATOM      3  H2  UNL     1      17.454  32.057  14.734  1.00  0.00     0.171 HD
HETATM    4  C7  UNL     1      18.552  32.772  16.286  1.00  0.00     0.135 A 
HETATM    5  N3  UNL     1      19.706  32.609  16.928  1.00  0.00    -0.176 N 
ATOM      6  H3  UNL     1      19.900  33.220  17.722  1.00  0.00     0.186 HD
HETATM    7  C17 UNL     1      20.639  31.685  16.597  1.00  0.00     0.683 A 
HETATM    8  N6  UNL     1      20.396  30.889  15.564  1.00  0.00    -0.149 N 
ATOM      9  H6  UNL     1      21.086  30.186  15.301  1.00  0.00     0.188 HD
ENDROOT
BRANCH   1  10
HETATM   10  N1  UNL     1      19.031  30.322  13.896  1.00  0.00    -0.371 NA
BRANCH  10  11
HETATM   11  C5  UNL     1      18.834  29.556  12.830  1.00  0.00     0.114 A 
HETATM   12  C4  UNL     1      19.835  28.742  12.285  1.00  0.00     0.084 A 
HETATM   13  C3  UNL     1      19.623  27.961  11.185  1.00  0.00     0.099 A 
HETATM   14  C26 UNL     1      18.399  27.925  10.546  1.00  0.00     0.072 A 
HETATM   15  C25 UNL     1      17.396  28.717  11.061  1.00  0.00     0.036 A 
HETATM   16  C24 UNL     1      17.591  29.502  12.153  1.00  0.00     0.047 A 
BRANCH  13  17
HETATM   17  O1  UNL     1      20.617  27.157  10.643  1.00  0.00    -0.349 OA
BRANCH  17  18
HETATM   18  C2  UNL     1      21.359  26.307  11.488  1.00  0.00     0.171 C 
HETATM   19  C1  UNL     1      21.192  24.849  11.066  1.00  0.00     0.034 C 
ENDBRANCH  17  18
ENDBRANCH  13  17
BRANCH  14  20
HETATM   20  N7  UNL     1      18.169  27.096   9.420  1.00  0.00    -0.296 N 
HETATM   21  C27 UNL     1      18.380  27.364   8.030  1.00  0.00     0.154 C 
HETATM   22  C28 UNL     1      17.922  26.159   7.283  1.00  0.00     0.144 C 
HETATM   23  N8  UNL     1      17.243  25.329   8.236  1.00  0.00    -0.341 N 
HETATM   24  C29 UNL     1      17.683  25.754   9.517  1.00  0.00     0.323 C 
ATOM     25  H8  UNL     1      16.578  24.583   8.033  1.00  0.00     0.164 HD
HETATM   26  O4  UNL     1      17.651  25.062  10.567  1.00  0.00    -0.247 OA
ENDBRANCH  14  20
ENDBRANCH  10  11
ENDBRANCH   1  10
BRANCH   4  27
HETATM   27  C8  UNL     1      17.503  33.683  16.707  1.00  0.00     0.012 A 
HETATM   28  C9  UNL     1      16.159  33.257  16.660  1.00  0.00     0.025 A 
HETATM   29  C10 UNL     1      15.120  34.065  16.955  1.00  0.00    -0.025 A 
HETATM   30  C11 UNL     1      13.690  33.581  16.917  1.00  0.00     0.051 C 
HETATM   31  C12 UNL     1      15.359  35.358  17.316  1.00  0.00     0.107 A 
HETATM   32  C14 UNL     1      16.683  35.870  17.390  1.00  0.00     0.102 A 
HETATM   33  C16 UNL     1      17.710  34.978  17.074  1.00  0.00     0.055 A 
BRANCH  31  34
HETATM   34  O2  UNL     1      14.345  36.212  17.613  1.00  0.00    -0.353 OA
HETATM   35  C13 UNL     1      13.954  36.759  18.817  1.00  0.00     0.210 C 
ENDBRANCH  31  34
BRANCH  32  36
HETATM   36  O3  UNL     1      16.842  37.149  17.743  1.00  0.00    -0.353 OA
HETATM   37  C15 UNL     1      17.171  38.310  17.176  1.00  0.00     0.210 C 
ENDBRANCH  32  36
ENDBRANCH   4  27
BRANCH   7  38
HETATM   38  N4  UNL     1      21.748  31.554  17.294  1.00  0.00    -0.224 N 
ATOM     39  H4  UNL     1      22.111  30.629  17.527  1.00  0.00     0.177 HD
BRANCH  38  40
HETATM   40  C18 UNL     1      22.434  32.738  17.715  1.00  0.00     0.168 C 
BRANCH  40  41
HETATM   41  C19 UNL     1      23.354  33.342  16.699  1.00  0.00     0.292 C 
BRANCH  41  42
HETATM   42  N5  UNL     1      22.814  34.495  16.075  1.00  0.00     0.089 N 
BRANCH  42  43
HETATM   43  C20 UNL     1      21.903  35.158  17.003  1.00  0.00     0.268 C 
HETATM   44  C21 UNL     1      22.493  36.480  17.412  1.00  0.00     0.037 C 
ENDBRANCH  42  43
BRANCH  42  45
HETATM   45  C22 UNL     1      22.173  34.215  14.820  1.00  0.00     0.268 C 
HETATM   46  C23 UNL     1      22.868  33.081  14.081  1.00  0.00     0.037 C 
ENDBRANCH  42  45
ENDBRANCH  41  42
ENDBRANCH  40  41
ENDBRANCH  38  40
ENDBRANCH   7  38
TORSDOF 14
ENDMDL
MODEL 2
REMARK VINA RESULT: -7.898240617      2.441      5.330
REMARK  14 active torsions:
REMARK  status: ('A' for Active; 'I' for Inactive)
REMARK    1  A    between atoms: C2_2  and  O1_3 
REMARK    2  A    between atoms: O1_3  and  C3_4 
REMARK    3  A    between atoms: C5_6  and  N1_7 
REMARK    4  A    between atoms: N1_7  and  C6_8 
REMARK    5  A    between atoms: C7_11  and  C8_12 
REMARK    6  A    between atoms: C12_16  and  O2_17 
REMARK    7  A    between atoms: C14_19  and  O3_20 
REMARK    8  A    between atoms: C17_25  and  N4_26 
REMARK    9  A    between atoms: N4_26  and  C18_28 
REMARK   10  A    between atoms: C18_28  and  C19_29 
REMARK   11  A    between atoms: C19_29  and  N5_30 
REMARK   12  A    between atoms: N5_30  and  C20_31 
REMARK   13  A    between atoms: N5_30  and  C22_33 
REMARK   14  A    between atoms: C26_39  and  N7_40 
ROOT
HETATM    1  C6  UNL     1      19.422  30.487  14.043  1.00  0.00     0.275 A 
HETATM    2  N2  UNL     1      20.082  31.484  14.724  1.00  0.00    -0.301 N 
ATOM      3  H2  UNL     1      21.095  31.552  14.623  1.00  0.00     0.171 HD
HETATM    4  C7  UNL     1      19.461  32.367  15.514  1.00  0.00     0.135 A 
HETATM    5  N3  UNL     1      18.141  32.241  15.618  1.00  0.00    -0.176 N 
ATOM      6  H3  UNL     1      17.645  32.901  16.217  1.00  0.00     0.186 HD
HETATM    7  C17 UNL     1      17.412  31.294  14.981  1.00  0.00     0.683 A 
HETATM    8  N6  UNL     1      18.049  30.429  14.203  1.00  0.00    -0.149 N 
ATOM      9  H6  UNL     1      17.517  29.710  13.713  1.00  0.00     0.188 HD
ENDROOT
BRANCH   1  10
HETATM   10  N1  UNL     1      19.989  29.691  13.392  1.00  0.00    -0.371 NA
BRANCH  10  11
HETATM   11  C5  UNL     1      20.613  28.786  12.646  1.00  0.00     0.114 A 
HETATM   12  C4  UNL     1      20.029  27.565  12.289  1.00  0.00     0.084 A 
HETATM   13  C3  UNL     1      20.681  26.639  11.525  1.00  0.00     0.099 A 
HETATM   14  C26 UNL     1      21.961  26.860  11.054  1.00  0.00     0.072 A 
HETATM   15  C25 UNL     1      22.560  28.054  11.391  1.00  0.00     0.036 A 
HETATM   16  C24 UNL     1      21.926  28.984  12.152  1.00  0.00     0.047 A 
BRANCH  13  17
HETATM   17  O1  UNL     1      20.104  25.427  11.174  1.00  0.00    -0.349 OA
BRANCH  17  18
HETATM   18  C2  UNL     1      18.701  25.290  11.211  1.00  0.00     0.171 C 
HETATM   19  C1  UNL     1      18.099  25.557   9.832  1.00  0.00     0.034 C 
ENDBRANCH  17  18
ENDBRANCH  13  17
BRANCH  14  20
HETATM   20  N7  UNL     1      22.631  25.913  10.240  1.00  0.00    -0.296 N 
HETATM   21  C27 UNL     1      22.380  25.536   8.882  1.00  0.00     0.154 C 
HETATM   22  C28 UNL     1      23.355  24.461   8.544  1.00  0.00     0.144 C 
HETATM   23  N8  UNL     1      23.979  24.082   9.779  1.00  0.00    -0.341 N 
HETATM   24  C29 UNL     1      23.764  25.158  10.679  1.00  0.00     0.323 C 
ATOM     25  H8  UNL     1      24.477  23.213   9.971  1.00  0.00     0.164 HD
HETATM   26  O4  UNL     1      24.459  25.408  11.698  1.00  0.00    -0.247 OA
ENDBRANCH  14  20
ENDBRANCH  10  11
ENDBRANCH   1  10
BRANCH   4  27
HETATM   27  C8  UNL     1      20.229  33.447  16.105  1.00  0.00     0.012 A 
HETATM   28  C9  UNL     1      21.623  33.500  15.892  1.00  0.00     0.025 A 
HETATM   29  C10 UNL     1      22.422  34.422  16.469  1.00  0.00    -0.025 A 
HETATM   30  C11 UNL     1      23.909  34.470  16.211  1.00  0.00     0.051 C 
HETATM   31  C12 UNL     1      21.876  35.353  17.301  1.00  0.00     0.107 A 
HETATM   32  C14 UNL     1      20.480  35.374  17.570  1.00  0.00     0.102 A 
HETATM   33  C16 UNL     1      19.713  34.393  16.937  1.00  0.00     0.055 A 
BRANCH  31  34
HETATM   34  O2  UNL     1      22.640  36.295  17.912  1.00  0.00    -0.353 OA
HETATM   35  C13 UNL     1      22.709  37.660  17.722  1.00  0.00     0.210 C 
ENDBRANCH  31  34
BRANCH  32  36
HETATM   36  O3  UNL     1      20.015  36.312  18.401  1.00  0.00    -0.353 OA
HETATM   37  C15 UNL     1      19.015  37.192  18.457  1.00  0.00     0.210 C 
ENDBRANCH  32  36
ENDBRANCH   4  27
BRANCH   7  38
HETATM   38  N4  UNL     1      16.103  31.243  15.102  1.00  0.00    -0.224 N 
ATOM     39  H4  UNL     1      15.536  30.727  14.428  1.00  0.00     0.177 HD
BRANCH  38  40
HETATM   40  C18 UNL     1      15.490  31.928  16.200  1.00  0.00     0.168 C 
BRANCH  40  41
HETATM   41  C19 UNL     1      15.026  33.322  15.908  1.00  0.00     0.292 C 
BRANCH  41  42
HETATM   42  N5  UNL     1      15.586  34.289  16.781  1.00  0.00     0.089 N 
BRANCH  42  43
HETATM   43  C20 UNL     1      14.532  34.833  17.630  1.00  0.00     0.268 C 
HETATM   44  C21 UNL     1      15.037  36.079  18.307  1.00  0.00     0.037 C 
ENDBRANCH  42  43
BRANCH  42  45
HETATM   45  C22 UNL     1      16.296  35.332  16.093  1.00  0.00     0.268 C 
HETATM   46  C23 UNL     1      16.497  34.992  14.623  1.00  0.00     0.037 C 
ENDBRANCH  42  45
ENDBRANCH  41  42
ENDBRANCH  40  41
ENDBRANCH  38  40
ENDBRANCH   7  38
TORSDOF 14
ENDMDL
MODEL 3
REMARK VINA RESULT: -7.752387715      0.303      1.186
REMARK  14 active torsions:
REMARK  status: ('A' for Active; 'I' for Inactive)
REMARK    1  A    between atoms: C2_2  and  O1_3 
REMARK    2  A    between atoms: O1_3  and  C3_4 
REMARK    3  A    between atoms: C5_6  and  N1_7 
REMARK    4  A    between atoms: N1_7  and  C6_8 
REMARK    5  A    between atoms: C7_11  and  C8_12 
REMARK    6  A    between atoms: C12_16  and  O2_17 
REMARK    7  A    between atoms: C14_19  and  O3_20 
REMARK    8  A    between atoms: C17_25  and  N4_26 
REMARK    9  A    between atoms: N4_26  and  C18_28 
REMARK   10  A    between atoms: C18_28  and  C19_29 
REMARK   11  A    between atoms: C19_29  and  N5_30 
REMARK   12  A    between atoms: N5_30  and  C20_31 
REMARK   13  A    between atoms: N5_30  and  C22_33 
REMARK   14  A    between atoms: C26_39  and  N7_40 
ROOT
HETATM    1  C6  UNL     1      19.310  30.924  14.865  1.00  0.00     0.275 A 
HETATM    2  N2  UNL     1      18.426  31.901  15.264  1.00  0.00    -0.301 N 
ATOM      3  H2  UNL     1      17.555  32.009  14.743  1.00  0.00     0.171 HD
HETATM    4  C7  UNL     1      18.653  32.716  16.300  1.00  0.00     0.135 A 
HETATM    5  N3  UNL     1      19.800  32.541  16.949  1.00  0.00    -0.176 N 
ATOM      6  H3  UNL     1      19.998  33.153  17.741  1.00  0.00     0.186 HD
HETATM    7  C17 UNL     1      20.723  31.603  16.629  1.00  0.00     0.683 A 
HETATM    8  N6  UNL     1      20.476  30.806  15.598  1.00  0.00    -0.149 N 
ATOM      9  H6  UNL     1      21.159  30.092  15.342  1.00  0.00     0.188 HD
ENDROOT
BRANCH   1  10
HETATM   10  N1  UNL     1      19.115  30.249  13.924  1.00  0.00    -0.371 NA
BRANCH  10  11
HETATM   11  C5  UNL     1      18.909  29.496  12.850  1.00  0.00     0.114 A 
HETATM   12  C4  UNL     1      19.911  28.705  12.274  1.00  0.00     0.084 A 
HETATM   13  C3  UNL     1      19.690  27.938  11.166  1.00  0.00     0.099 A 
HETATM   14  C26 UNL     1      18.455  27.895  10.549  1.00  0.00     0.072 A 
HETATM   15  C25 UNL     1      17.450  28.665  11.094  1.00  0.00     0.036 A 
HETATM   16  C24 UNL     1      17.655  29.435  12.194  1.00  0.00     0.047 A 
BRANCH  13  17
HETATM   17  O1  UNL     1      20.684  27.156  10.594  1.00  0.00    -0.349 OA
BRANCH  17  18
HETATM   18  C2  UNL     1      21.445  26.295  11.411  1.00  0.00     0.171 C 
HETATM   19  C1  UNL     1      21.191  24.836  11.038  1.00  0.00     0.034 C 
ENDBRANCH  17  18
ENDBRANCH  13  17
BRANCH  14  20
HETATM   20  N7  UNL     1      18.215  27.080   9.414  1.00  0.00    -0.296 N 
HETATM   21  C27 UNL     1      18.423  27.362   8.027  1.00  0.00     0.154 C 
HETATM   22  C28 UNL     1      17.955  26.169   7.268  1.00  0.00     0.144 C 
HETATM   23  N8  UNL     1      17.274  25.333   8.214  1.00  0.00    -0.341 N 
HETATM   24  C29 UNL     1      17.721  25.740   9.498  1.00  0.00     0.323 C 
ATOM     25  H8  UNL     1      16.603  24.593   8.005  1.00  0.00     0.164 HD
HETATM   26  O4  UNL     1      17.688  25.037  10.540  1.00  0.00    -0.247 OA
ENDBRANCH  14  20
ENDBRANCH  10  11
ENDBRANCH   1  10
BRANCH   4  27
HETATM   27  C8  UNL     1      17.613  33.643  16.709  1.00  0.00     0.012 A 
HETATM   28  C9  UNL     1      16.265  33.234  16.657  1.00  0.00     0.025 A 
HETATM   29  C10 UNL     1      15.234  34.057  16.942  1.00  0.00    -0.025 A 
HETATM   30  C11 UNL     1      13.798  33.590  16.899  1.00  0.00     0.051 C 
HETATM   31  C12 UNL     1      15.487  35.348  17.297  1.00  0.00     0.107 A 
HETATM   32  C14 UNL     1      16.818  35.844  17.376  1.00  0.00     0.102 A 
HETATM   33  C16 UNL     1      17.835  34.937  17.070  1.00  0.00     0.055 A 
BRANCH  31  34
HETATM   34  O2  UNL     1      14.483  36.217  17.584  1.00  0.00    -0.353 OA
HETATM   35  C13 UNL     1      14.018  36.687  18.794  1.00  0.00     0.210 C 
ENDBRANCH  31  34
BRANCH  32  36
HETATM   36  O3  UNL     1      16.991  37.122  17.723  1.00  0.00    -0.353 OA
HETATM   37  C15 UNL     1      17.542  38.229  17.223  1.00  0.00     0.210 C 
ENDBRANCH  32  36
ENDBRANCH   4  27
BRANCH   7  38
HETATM   38  N4  UNL     1      21.826  31.461  17.333  1.00  0.00    -0.224 N 
ATOM     39  H4  UNL     1      22.227  30.537  17.492  1.00  0.00     0.177 HD
BRANCH  38  40
HETATM   40  C18 UNL     1      22.451  32.633  17.869  1.00  0.00     0.168 C 
BRANCH  40  41
HETATM   41  C19 UNL     1      23.051  33.559  16.856  1.00  0.00     0.292 C 
BRANCH  41  42
HETATM   42  N5  UNL     1      22.157  34.575  16.432  1.00  0.00     0.089 N 
BRANCH  42  43
HETATM   43  C20 UNL     1      22.078  34.563  14.975  1.00  0.00     0.268 C 
HETATM   44  C21 UNL     1      22.899  33.419  14.445  1.00  0.00     0.037 C 
ENDBRANCH  42  43
BRANCH  42  45
HETATM   45  C22 UNL     1      22.501  35.878  16.928  1.00  0.00     0.268 C 
HETATM   46  C23 UNL     1      21.270  36.635  17.406  1.00  0.00     0.037 C 
ENDBRANCH  42  45
ENDBRANCH  41  42
ENDBRANCH  40  41
ENDBRANCH  38  40
ENDBRANCH   7  38
TORSDOF 14
ENDMDL
MODEL 4
REMARK VINA RESULT: -7.554670371      0.498      1.622
REMARK  14 active torsions:
REMARK  status: ('A' for Active; 'I' for Inactive)
REMARK    1  A    between atoms: C2_2  and  O1_3 
REMARK    2  A    between atoms: O1_3  and  C3_4 
REMARK    3  A    between atoms: C5_6  and  N1_7 
REMARK    4  A    between atoms: N1_7  and  C6_8 
REMARK    5  A    between atoms: C7_11  and  C8_12 
REMARK    6  A    between atoms: C12_16  and  O2_17 
REMARK    7  A    between atoms: C14_19  and  O3_20 
REMARK    8  A    between atoms: C17_25  and  N4_26 
REMARK    9  A    between atoms: N4_26  and  C18_28 
REMARK   10  A    between atoms: C18_28  and  C19_29 
REMARK   11  A    between atoms: C19_29  and  N5_30 
REMARK   12  A    between atoms: N5_30  and  C20_31 
REMARK   13  A    between atoms: N5_30  and  C22_33 
REMARK   14  A    between atoms: C26_39  and  N7_40 
ROOT
HETATM    1  C6  UNL     1      19.247  31.025  14.860  1.00  0.00     0.275 A 
HETATM    2  N2  UNL     1      18.383  32.036  15.214  1.00  0.00    -0.301 N 
ATOM      3  H2  UNL     1      17.530  32.159  14.667  1.00  0.00     0.171 HD
HETATM    4  C7  UNL     1      18.607  32.866  16.239  1.00  0.00     0.135 A 
HETATM    5  N3  UNL     1      19.730  32.669  16.924  1.00  0.00    -0.176 N 
ATOM      6  H3  UNL     1      19.924  33.292  17.709  1.00  0.00     0.186 HD
HETATM    7  C17 UNL     1      20.632  31.698  16.649  1.00  0.00     0.683 A 
HETATM    8  N6  UNL     1      20.388  30.886  15.628  1.00  0.00    -0.149 N 
ATOM      9  H6  UNL     1      21.055  30.148  15.405  1.00  0.00     0.188 HD
ENDROOT
BRANCH   1  10
HETATM   10  N1  UNL     1      19.057  30.336  13.928  1.00  0.00    -0.371 NA
BRANCH  10  11
HETATM   11  C5  UNL     1      18.849  29.573  12.861  1.00  0.00     0.114 A 
HETATM   12  C4  UNL     1      19.844  28.759  12.306  1.00  0.00     0.084 A 
HETATM   13  C3  UNL     1      19.621  27.980  11.205  1.00  0.00     0.099 A 
HETATM   14  C26 UNL     1      18.392  27.949  10.577  1.00  0.00     0.072 A 
HETATM   15  C25 UNL     1      17.394  28.742  11.103  1.00  0.00     0.036 A 
HETATM   16  C24 UNL     1      17.600  29.523  12.195  1.00  0.00     0.047 A 
BRANCH  13  17
HETATM   17  O1  UNL     1      20.608  27.176  10.653  1.00  0.00    -0.349 OA
BRANCH  17  18
HETATM   18  C2  UNL     1      21.369  26.337  11.493  1.00  0.00     0.171 C 
HETATM   19  C1  UNL     1      21.225  24.877  11.067  1.00  0.00     0.034 C 
ENDBRANCH  17  18
ENDBRANCH  13  17
BRANCH  14  20
HETATM   20  N7  UNL     1      18.150  27.124   9.451  1.00  0.00    -0.296 N 
HETATM   21  C27 UNL     1      18.333  27.400   8.059  1.00  0.00     0.154 C 
HETATM   22  C28 UNL     1      17.875  26.194   7.314  1.00  0.00     0.144 C 
HETATM   23  N8  UNL     1      17.222  25.353   8.274  1.00  0.00    -0.341 N 
HETATM   24  C29 UNL     1      17.679  25.776   9.549  1.00  0.00     0.323 C 
ATOM     25  H8  UNL     1      16.560  24.601   8.079  1.00  0.00     0.164 HD
HETATM   26  O4  UNL     1      17.673  25.078  10.596  1.00  0.00    -0.247 OA
ENDBRANCH  14  20
ENDBRANCH  10  11
ENDBRANCH   1  10
BRANCH   4  27
HETATM   27  C8  UNL     1      17.585  33.832  16.600  1.00  0.00     0.012 A 
HETATM   28  C9  UNL     1      17.950  35.179  16.803  1.00  0.00     0.025 A 
HETATM   29  C10 UNL     1      17.080  36.123  17.218  1.00  0.00    -0.025 A 
HETATM   30  C11 UNL     1      17.489  37.564  17.409  1.00  0.00     0.051 C 
HETATM   31  C12 UNL     1      15.784  35.778  17.460  1.00  0.00     0.107 A 
HETATM   32  C14 UNL     1      15.330  34.443  17.280  1.00  0.00     0.102 A 
HETATM   33  C16 UNL     1      16.283  33.518  16.847  1.00  0.00     0.055 A 
BRANCH  31  34
HETATM   34  O2  UNL     1      14.873  36.691  17.888  1.00  0.00    -0.353 OA
HETATM   35  C13 UNL     1      14.509  37.069  19.163  1.00  0.00     0.210 C 
ENDBRANCH  31  34
BRANCH  32  36
HETATM   36  O3  UNL     1      14.048  34.175  17.544  1.00  0.00    -0.353 OA
HETATM   37  C15 UNL     1      12.853  34.344  16.975  1.00  0.00     0.210 C 
ENDBRANCH  32  36
ENDBRANCH   4  27
BRANCH   7  38
HETATM   38  N4  UNL     1      21.710  31.536  17.386  1.00  0.00    -0.224 N 
ATOM     39  H4  UNL     1      22.034  30.603  17.638  1.00  0.00     0.177 HD
BRANCH  38  40
HETATM   40  C18 UNL     1      22.418  32.701  17.825  1.00  0.00     0.168 C 
BRANCH  40  41
HETATM   41  C19 UNL     1      23.347  33.304  16.817  1.00  0.00     0.292 C 
BRANCH  41  42
HETATM   42  N5  UNL     1      22.873  34.531  16.287  1.00  0.00     0.089 N 
BRANCH  42  43
HETATM   43  C20 UNL     1      22.020  35.181  17.276  1.00  0.00     0.268 C 
HETATM   44  C21 UNL     1      21.612  36.535  16.762  1.00  0.00     0.037 C 
ENDBRANCH  42  43
BRANCH  42  45
HETATM   45  C22 UNL     1      22.198  34.383  15.028  1.00  0.00     0.268 C 
HETATM   46  C23 UNL     1      22.779  33.233  14.217  1.00  0.00     0.037 C 
ENDBRANCH  42  45
ENDBRANCH  41  42
ENDBRANCH  40  41
ENDBRANCH  38  40
ENDBRANCH   7  38
TORSDOF 14
ENDMDL
MODEL 5
REMARK VINA RESULT: -7.512835978      2.196      5.063
REMARK  14 active torsions:
REMARK  status: ('A' for Active; 'I' for Inactive)
REMARK    1  A    between atoms: C2_2  and  O1_3 
REMARK    2  A    between atoms: O1_3  and  C3_4 
REMARK    3  A    between atoms: C5_6  and  N1_7 
REMARK    4  A    between atoms: N1_7  and  C6_8 
REMARK    5  A    between atoms: C7_11  and  C8_12 
REMARK    6  A    between atoms: C12_16  and  O2_17 
REMARK    7  A    between atoms: C14_19  and  O3_20 
REMARK    8  A    between atoms: C17_25  and  N4_26 
REMARK    9  A    between atoms: N4_26  and  C18_28 
REMARK   10  A    between atoms: C18_28  and  C19_29 
REMARK   11  A    between atoms: C19_29  and  N5_30 
REMARK   12  A    between atoms: N5_30  and  C20_31 
REMARK   13  A    between atoms: N5_30  and  C22_33 
REMARK   14  A    between atoms: C26_39  and  N7_40 
ROOT
HETATM    1  C6  UNL     1      17.589  31.297  14.361  1.00  0.00     0.275 A 
HETATM    2  N2  UNL     1      18.638  32.023  14.878  1.00  0.00    -0.301 N 
ATOM      3  H2  UNL     1      19.557  31.921  14.447  1.00  0.00     0.171 HD
HETATM    4  C7  UNL     1      18.511  32.853  15.919  1.00  0.00     0.135 A 
HETATM    5  N3  UNL     1      17.296  32.955  16.450  1.00  0.00    -0.176 N 
ATOM      6  H3  UNL     1      17.175  33.580  17.247  1.00  0.00     0.186 HD
HETATM    7  C17 UNL     1      16.209  32.283  16.002  1.00  0.00     0.683 A 
HETATM    8  N6  UNL     1      16.359  31.465  14.968  1.00  0.00    -0.149 N 
ATOM      9  H6  UNL     1      15.551  30.951  14.616  1.00  0.00     0.188 HD
ENDROOT
BRANCH   1  10
HETATM   10  N1  UNL     1      17.730  30.536  13.476  1.00  0.00    -0.371 NA
BRANCH  10  11
HETATM   11  C5  UNL     1      17.875  29.688  12.465  1.00  0.00     0.114 A 
HETATM   12  C4  UNL     1      19.105  29.107  12.134  1.00  0.00     0.084 A 
HETATM   13  C3  UNL     1      19.245  28.239  11.088  1.00  0.00     0.099 A 
HETATM   14  C26 UNL     1      18.172  27.879  10.296  1.00  0.00     0.072 A 
HETATM   15  C25 UNL     1      16.949  28.438  10.600  1.00  0.00     0.036 A 
HETATM   16  C24 UNL     1      16.794  29.305  11.635  1.00  0.00     0.047 A 
BRANCH  13  17
HETATM   17  O1  UNL     1      20.465  27.665  10.758  1.00  0.00    -0.349 OA
BRANCH  17  18
HETATM   18  C2  UNL     1      21.218  27.013  11.757  1.00  0.00     0.171 C 
HETATM   19  C1  UNL     1      21.581  25.596  11.317  1.00  0.00     0.034 C 
ENDBRANCH  17  18
ENDBRANCH  13  17
BRANCH  14  20
HETATM   20  N7  UNL     1      18.308  26.959   9.227  1.00  0.00    -0.296 N 
HETATM   21  C27 UNL     1      18.599  27.199   7.847  1.00  0.00     0.154 C 
HETATM   22  C28 UNL     1      18.577  25.876   7.163  1.00  0.00     0.144 C 
HETATM   23  N8  UNL     1      18.042  24.942   8.112  1.00  0.00    -0.341 N 
HETATM   24  C29 UNL     1      18.197  25.542   9.390  1.00  0.00     0.323 C 
ATOM     25  H8  UNL     1      17.632  24.031   7.909  1.00  0.00     0.164 HD
HETATM   26  O4  UNL     1      18.231  24.926  10.486  1.00  0.00    -0.247 OA
ENDBRANCH  14  20
ENDBRANCH  10  11
ENDBRANCH   1  10
BRANCH   4  27
HETATM   27  C8  UNL     1      19.651  33.656  16.324  1.00  0.00     0.012 A 
HETATM   28  C9  UNL     1      19.437  34.828  17.078  1.00  0.00     0.025 A 
HETATM   29  C10 UNL     1      20.432  35.672  17.425  1.00  0.00    -0.025 A 
HETATM   30  C11 UNL     1      20.181  36.912  18.250  1.00  0.00     0.051 C 
HETATM   31  C12 UNL     1      21.709  35.397  17.037  1.00  0.00     0.107 A 
HETATM   32  C14 UNL     1      22.014  34.235  16.276  1.00  0.00     0.102 A 
HETATM   33  C16 UNL     1      20.938  33.406  15.954  1.00  0.00     0.055 A 
BRANCH  31  34
HETATM   34  O2  UNL     1      22.741  36.220  17.355  1.00  0.00    -0.353 OA
HETATM   35  C13 UNL     1      22.811  37.597  17.409  1.00  0.00     0.210 C 
ENDBRANCH  31  34
BRANCH  32  36
HETATM   36  O3  UNL     1      23.287  34.033  15.924  1.00  0.00    -0.353 OA
HETATM   37  C15 UNL     1      23.982  33.278  15.071  1.00  0.00     0.210 C 
ENDBRANCH  32  36
ENDBRANCH   4  27
BRANCH   7  38
HETATM   38  N4  UNL     1      15.026  32.452  16.552  1.00  0.00    -0.224 N 
ATOM     39  H4  UNL     1      14.514  31.660  16.941  1.00  0.00     0.177 HD
BRANCH  38  40
HETATM   40  C18 UNL     1      14.474  33.773  16.595  1.00  0.00     0.168 C 
BRANCH  40  41
HETATM   41  C19 UNL     1      14.700  34.521  17.872  1.00  0.00     0.292 C 
BRANCH  41  42
HETATM   42  N5  UNL     1      14.967  35.899  17.671  1.00  0.00     0.089 N 
BRANCH  42  43
HETATM   43  C20 UNL     1      16.144  36.038  16.820  1.00  0.00     0.268 C 
HETATM   44  C21 UNL     1      16.767  37.387  17.056  1.00  0.00     0.037 C 
ENDBRANCH  42  43
BRANCH  42  45
HETATM   45  C22 UNL     1      15.115  36.634  18.896  1.00  0.00     0.268 C 
HETATM   46  C23 UNL     1      13.936  37.569  19.130  1.00  0.00     0.037 C 
ENDBRANCH  42  45
ENDBRANCH  41  42
ENDBRANCH  40  41
ENDBRANCH  38  40
ENDBRANCH   7  38
TORSDOF 14
ENDMDL
