MODEL 1
REMARK VINA RESULT: -8.329513995      0.000      0.000
REMARK  17 active torsions:
REMARK  status: ('A' for Active; 'I' for Inactive)
REMARK    1  A    between atoms: C3_3  and  O1_5 
REMARK    2  A    between atoms: O1_5  and  C5_6 
REMARK       I    between atoms: C5_6  and  N1_8 
REMARK    3  A    between atoms: C8_12  and  O3_13 
REMARK    4  A    between atoms: C8_12  and  C9_15 
REMARK    5  A    between atoms: C9_15  and  C10_16 
REMARK    6  A    between atoms: C10_16  and  C11_17 
REMARK    7  A    between atoms: C11_17  and  C13_19 
REMARK    8  A    between atoms: C11_17  and  C16_24 
REMARK    9  A    between atoms: C13_19  and  C14_20 
REMARK   10  A    between atoms: C14_20  and  O5_22 
REMARK   11  A    between atoms: C20_28  and  C21_29 
REMARK   12  A    between atoms: C21_29  and  C22_30 
REMARK   13  A    between atoms: C22_30  and  N3_31 
REMARK       I    between atoms: C23_33  and  N5_35 
REMARK   14  A    between atoms: N5_35  and  C24_37 
REMARK   15  A    between atoms: C24_37  and  C25_38 
REMARK   16  A    between atoms: C25_38  and  C26_39 
REMARK   17  A    between atoms: C26_39  and  C27_40 
ROOT
HETATM    1  C1  UNL     1      15.601  38.966  20.225  1.00  0.00     0.015 C 
HETATM    2  C2  UNL     1      15.874  38.463  19.170  1.00  0.00    -0.085 C 
HETATM    3  C3  UNL     1      16.196  37.866  17.869  1.00  0.00     0.207 C 
HETATM    4  C4  UNL     1      17.203  38.723  17.126  1.00  0.00     0.054 C 
ENDROOT
BRANCH   3   5
HETATM    5  O1  UNL     1      16.801  36.616  18.115  1.00  0.00    -0.285 OA
BRANCH   5   6
HETATM    6  C5  UNL     1      16.095  35.428  18.162  1.00  0.00     0.388 C 
HETATM    7  O2  UNL     1      15.514  35.148  19.231  1.00  0.00    -0.236 OA
HETATM    8  N1  UNL     1      16.014  34.540  17.055  1.00  0.00    -0.189 N 
HETATM    9  C6  UNL     1      15.255  33.318  17.157  1.00  0.00     0.183 C 
HETATM   10  O7  UNL     1      16.649  34.825  15.868  1.00  0.00    -0.174 OA
HETATM   11  C7  UNL     1      15.661  32.263  16.170  1.00  0.00     0.159 C 
HETATM   12  N2  UNL     1      17.087  32.496  15.711  1.00  0.00    -0.270 N 
HETATM   13  C8  UNL     1      17.939  31.459  15.887  1.00  0.00     0.156 C 
HETATM   14  C29 UNL     1      17.229  33.780  15.119  1.00  0.00     0.391 C 
HETATM   15  O6  UNL     1      17.811  33.935  14.041  1.00  0.00    -0.236 OA
BRANCH  13  16
HETATM   16  O3  UNL     1      17.316  30.350  16.282  1.00  0.00    -0.345 OA
ATOM     17  H3  UNL     1      17.496  30.136  17.190  1.00  0.00     0.219 HD
ENDBRANCH  13  16
BRANCH  13  18
HETATM   18  C9  UNL     1      19.420  31.246  15.756  1.00  0.00     0.008 C 
HETATM   19  C20 UNL     1      20.182  32.252  16.421  1.00  0.00    -0.010 C 
BRANCH  18  20
HETATM   20  C10 UNL     1      19.752  30.156  15.222  1.00  0.00    -0.001 C 
BRANCH  20  21
HETATM   21  C11 UNL     1      20.170  29.418  14.030  1.00  0.00    -0.010 C 
HETATM   22  C12 UNL     1      21.240  28.400  14.697  1.00  0.00     0.021 C 
BRANCH  21  23
HETATM   23  C13 UNL     1      19.083  28.442  13.727  1.00  0.00     0.125 C 
BRANCH  23  24
HETATM   24  C14 UNL     1      18.037  28.741  12.776  1.00  0.00     0.259 C 
HETATM   25  O4  UNL     1      17.477  29.855  12.789  1.00  0.00    -0.265 OA
BRANCH  24  26
HETATM   26  O5  UNL     1      17.595  27.849  11.824  1.00  0.00    -0.326 OA
HETATM   27  C15 UNL     1      18.071  27.962  10.499  1.00  0.00     0.213 C 
ENDBRANCH  24  26
ENDBRANCH  23  24
ENDBRANCH  21  23
BRANCH  21  28
HETATM   28  C16 UNL     1      20.980  30.063  13.030  1.00  0.00    -0.040 C 
HETATM   29  C17 UNL     1      21.518  29.262  11.866  1.00  0.00     0.015 C 
HETATM   30  C18 UNL     1      22.339  30.504  13.719  1.00  0.00     0.015 C 
HETATM   31  C19 UNL     1      20.588  31.372  12.405  1.00  0.00     0.015 C 
ENDBRANCH  21  28
ENDBRANCH  20  21
ENDBRANCH  18  20
BRANCH  19  32
HETATM   32  C21 UNL     1      21.602  32.195  16.800  1.00  0.00     0.048 C 
BRANCH  32  33
HETATM   33  C22 UNL     1      22.032  33.590  17.346  1.00  0.00     0.126 C 
BRANCH  33  34
HETATM   34  N3  UNL     1      21.081  34.073  18.306  1.00  0.00    -0.364 N 
HETATM   35  C23 UNL     1      20.649  35.259  18.388  1.00  0.00     0.183 C 
HETATM   36  N4  UNL     1      19.708  35.599  19.389  1.00  0.00    -0.064 NA
HETATM   37  N5  UNL     1      21.089  36.256  17.491  1.00  0.00    -0.365 N 
ATOM     38  H5  UNL     1      21.767  35.988  16.778  1.00  0.00     0.162 HD
ATOM     39  H3  UNL     1      20.722  33.400  18.982  1.00  0.00     0.162 HD
BRANCH  37  40
HETATM   40  C24 UNL     1      20.643  37.630  17.517  1.00  0.00     0.122 C 
BRANCH  40  41
HETATM   41  C25 UNL     1      21.547  38.571  16.773  1.00  0.00     0.020 C 
BRANCH  41  42
HETATM   42  C26 UNL     1      20.712  39.639  16.101  1.00  0.00     0.001 C 
BRANCH  42  43
HETATM   43  C27 UNL     1      21.265  39.876  14.694  1.00  0.00    -0.004 C 
HETATM   44  C28 UNL     1      22.290  40.985  14.708  1.00  0.00     0.005 C 
ENDBRANCH  42  43
ENDBRANCH  41  42
ENDBRANCH  40  41
ENDBRANCH  37  40
ENDBRANCH  33  34
ENDBRANCH  32  33
ENDBRANCH  19  32
ENDBRANCH  13  18
ENDBRANCH   5   6
ENDBRANCH   3   5
TORSDOF 17
ENDMDL
MODEL 2
REMARK VINA RESULT: -8.154052601      0.698      1.090
REMARK  17 active torsions:
REMARK  status: ('A' for Active; 'I' for Inactive)
REMARK    1  A    between atoms: C3_3  and  O1_5 
REMARK    2  A    between atoms: O1_5  and  C5_6 
REMARK       I    between atoms: C5_6  and  N1_8 
REMARK    3  A    between atoms: C8_12  and  O3_13 
REMARK    4  A    between atoms: C8_12  and  C9_15 
REMARK    5  A    between atoms: C9_15  and  C10_16 
REMARK    6  A    between atoms: C10_16  and  C11_17 
REMARK    7  A    between atoms: C11_17  and  C13_19 
REMARK    8  A    between atoms: C11_17  and  C16_24 
REMARK    9  A    between atoms: C13_19  and  C14_20 
REMARK   10  A    between atoms: C14_20  and  O5_22 
REMARK   11  A    between atoms: C20_28  and  C21_29 
REMARK   12  A    between atoms: C21_29  and  C22_30 
REMARK   13  A    between atoms: C22_30  and  N3_31 
REMARK       I    between atoms: C23_33  and  N5_35 
REMARK   14  A    between atoms: N5_35  and  C24_37 
REMARK   15  A    between atoms: C24_37  and  C25_38 
REMARK   16  A    between atoms: C25_38  and  C26_39 
REMARK   17  A    between atoms: C26_39  and  C27_40 
ROOT
HETATM    1  C1  UNL     1      18.796  39.482  18.899  1.00  0.00     0.015 C 
HETATM    2  C2  UNL     1      17.849  38.746  18.924  1.00  0.00    -0.085 C 
HETATM    3  C3  UNL     1      16.678  37.861  18.969  1.00  0.00     0.207 C 
HETATM    4  C4  UNL     1      15.479  38.533  18.330  1.00  0.00     0.054 C 
ENDROOT
BRANCH   3   5
HETATM    5  O1  UNL     1      16.984  36.717  18.204  1.00  0.00    -0.285 OA
BRANCH   5   6
HETATM    6  C5  UNL     1      16.235  35.556  18.243  1.00  0.00     0.388 C 
HETATM    7  O2  UNL     1      15.645  35.290  19.311  1.00  0.00    -0.236 OA
HETATM    8  N1  UNL     1      16.121  34.678  17.130  1.00  0.00    -0.189 N 
HETATM    9  C6  UNL     1      15.318  33.484  17.226  1.00  0.00     0.183 C 
HETATM   10  O7  UNL     1      16.765  34.947  15.945  1.00  0.00    -0.174 OA
HETATM   11  C7  UNL     1      15.684  32.421  16.231  1.00  0.00     0.159 C 
HETATM   12  N2  UNL     1      17.118  32.604  15.772  1.00  0.00    -0.270 N 
HETATM   13  C8  UNL     1      17.931  31.536  15.942  1.00  0.00     0.156 C 
HETATM   14  C29 UNL     1      17.307  33.886  15.189  1.00  0.00     0.391 C 
HETATM   15  O6  UNL     1      17.894  34.027  14.112  1.00  0.00    -0.236 OA
BRANCH  13  16
HETATM   16  O3  UNL     1      17.268  30.448  16.330  1.00  0.00    -0.345 OA
ATOM     17  H3  UNL     1      17.790  29.658  16.255  1.00  0.00     0.219 HD
ENDBRANCH  13  16
BRANCH  13  18
HETATM   18  C9  UNL     1      19.403  31.270  15.808  1.00  0.00     0.008 C 
HETATM   19  C20 UNL     1      20.198  32.169  16.580  1.00  0.00    -0.010 C 
BRANCH  18  20
HETATM   20  C10 UNL     1      19.695  30.224  15.172  1.00  0.00    -0.001 C 
BRANCH  20  21
HETATM   21  C11 UNL     1      20.203  29.597  13.951  1.00  0.00    -0.010 C 
HETATM   22  C12 UNL     1      21.096  28.410  14.600  1.00  0.00     0.021 C 
BRANCH  21  23
HETATM   23  C13 UNL     1      19.089  28.771  13.399  1.00  0.00     0.125 C 
BRANCH  23  24
HETATM   24  C14 UNL     1      18.057  29.345  12.569  1.00  0.00     0.259 C 
HETATM   25  O4  UNL     1      17.206  30.111  13.065  1.00  0.00    -0.265 OA
BRANCH  24  26
HETATM   26  O5  UNL     1      17.937  29.097  11.219  1.00  0.00    -0.326 OA
HETATM   27  C15 UNL     1      18.504  27.921  10.680  1.00  0.00     0.213 C 
ENDBRANCH  24  26
ENDBRANCH  23  24
ENDBRANCH  21  23
BRANCH  21  28
HETATM   28  C16 UNL     1      21.182  30.277  13.145  1.00  0.00    -0.040 C 
HETATM   29  C17 UNL     1      20.754  31.398  12.226  1.00  0.00     0.015 C 
HETATM   30  C18 UNL     1      21.739  29.239  12.082  1.00  0.00     0.015 C 
HETATM   31  C19 UNL     1      22.484  30.767  13.713  1.00  0.00     0.015 C 
ENDBRANCH  21  28
ENDBRANCH  20  21
ENDBRANCH  18  20
BRANCH  19  32
HETATM   32  C21 UNL     1      21.607  32.010  16.968  1.00  0.00     0.048 C 
BRANCH  32  33
HETATM   33  C22 UNL     1      22.172  33.401  17.386  1.00  0.00     0.126 C 
BRANCH  33  34
HETATM   34  N3  UNL     1      21.276  34.059  18.294  1.00  0.00    -0.364 N 
HETATM   35  C23 UNL     1      20.945  35.279  18.253  1.00  0.00     0.183 C 
HETATM   36  N4  UNL     1      20.048  35.799  19.216  1.00  0.00    -0.064 NA
HETATM   37  N5  UNL     1      21.455  36.136  17.255  1.00  0.00    -0.365 N 
ATOM     38  H5  UNL     1      22.100  35.740  16.571  1.00  0.00     0.162 HD
ATOM     39  H3  UNL     1      20.871  33.492  19.038  1.00  0.00     0.162 HD
BRANCH  37  40
HETATM   40  C24 UNL     1      21.125  37.539  17.137  1.00  0.00     0.122 C 
BRANCH  40  41
HETATM   41  C25 UNL     1      22.270  38.457  17.456  1.00  0.00     0.020 C 
BRANCH  41  42
HETATM   42  C26 UNL     1      22.057  39.781  16.756  1.00  0.00     0.001 C 
BRANCH  42  43
HETATM   43  C27 UNL     1      20.972  39.601  15.692  1.00  0.00    -0.004 C 
HETATM   44  C28 UNL     1      21.503  39.969  14.327  1.00  0.00     0.005 C 
ENDBRANCH  42  43
ENDBRANCH  41  42
ENDBRANCH  40  41
ENDBRANCH  37  40
ENDBRANCH  33  34
ENDBRANCH  32  33
ENDBRANCH  19  32
ENDBRANCH  13  18
ENDBRANCH   5   6
ENDBRANCH   3   5
TORSDOF 17
ENDMDL
MODEL 3
REMARK VINA RESULT: -8.046884444      1.143      1.571
REMARK  17 active torsions:
REMARK  status: ('A' for Active; 'I' for Inactive)
REMARK    1  A    between atoms: C3_3  and  O1_5 
REMARK    2  A    between atoms: O1_5  and  C5_6 
REMARK       I    between atoms: C5_6  and  N1_8 
REMARK    3  A    between atoms: C8_12  and  O3_13 
REMARK    4  A    between atoms: C8_12  and  C9_15 
REMARK    5  A    between atoms: C9_15  and  C10_16 
REMARK    6  A    between atoms: C10_16  and  C11_17 
REMARK    7  A    between atoms: C11_17  and  C13_19 
REMARK    8  A    between atoms: C11_17  and  C16_24 
REMARK    9  A    between atoms: C13_19  and  C14_20 
REMARK   10  A    between atoms: C14_20  and  O5_22 
REMARK   11  A    between atoms: C20_28  and  C21_29 
REMARK   12  A    between atoms: C21_29  and  C22_30 
REMARK   13  A    between atoms: C22_30  and  N3_31 
REMARK       I    between atoms: C23_33  and  N5_35 
REMARK   14  A    between atoms: N5_35  and  C24_37 
REMARK   15  A    between atoms: C24_37  and  C25_38 
REMARK   16  A    between atoms: C25_38  and  C26_39 
REMARK   17  A    between atoms: C26_39  and  C27_40 
ROOT
HETATM    1  C1  UNL     1      19.127  35.426  18.840  1.00  0.00     0.015 C 
HETATM    2  C2  UNL     1      18.270  36.263  18.785  1.00  0.00    -0.085 C 
HETATM    3  C3  UNL     1      17.234  37.302  18.735  1.00  0.00     0.207 C 
HETATM    4  C4  UNL     1      17.778  38.565  18.096  1.00  0.00     0.054 C 
ENDROOT
BRANCH   3   5
HETATM    5  O1  UNL     1      16.194  36.821  17.913  1.00  0.00    -0.285 OA
BRANCH   5   6
HETATM    6  C5  UNL     1      15.644  35.560  18.046  1.00  0.00     0.388 C 
HETATM    7  O2  UNL     1      15.116  35.277  19.141  1.00  0.00    -0.236 OA
HETATM    8  N1  UNL     1      15.661  34.601  16.996  1.00  0.00    -0.189 N 
HETATM    9  C6  UNL     1      15.063  33.303  17.187  1.00  0.00     0.183 C 
HETATM   10  O7  UNL     1      16.240  34.888  15.781  1.00  0.00    -0.174 OA
HETATM   11  C7  UNL     1      15.585  32.247  16.257  1.00  0.00     0.159 C 
HETATM   12  N2  UNL     1      16.965  32.626  15.756  1.00  0.00    -0.270 N 
HETATM   13  C8  UNL     1      17.942  31.717  15.977  1.00  0.00     0.156 C 
HETATM   14  C29 UNL     1      16.937  33.879  15.085  1.00  0.00     0.391 C 
HETATM   15  O6  UNL     1      17.482  34.038  13.988  1.00  0.00    -0.236 OA
BRANCH  13  16
HETATM   16  O3  UNL     1      17.469  30.565  16.451  1.00  0.00    -0.345 OA
ATOM     17  H3  UNL     1      18.128  29.882  16.468  1.00  0.00     0.219 HD
ENDBRANCH  13  16
BRANCH  13  18
HETATM   18  C9  UNL     1      19.437  31.682  15.829  1.00  0.00     0.008 C 
HETATM   19  C20 UNL     1      20.076  32.812  16.422  1.00  0.00    -0.010 C 
BRANCH  18  20
HETATM   20  C10 UNL     1      19.896  30.613  15.350  1.00  0.00    -0.001 C 
BRANCH  20  21
HETATM   21  C11 UNL     1      20.209  29.795  14.178  1.00  0.00    -0.010 C 
HETATM   22  C12 UNL     1      20.997  28.574  14.897  1.00  0.00     0.021 C 
BRANCH  21  23
HETATM   23  C13 UNL     1      18.955  29.075  13.810  1.00  0.00     0.125 C 
BRANCH  23  24
HETATM   24  C14 UNL     1      18.034  29.605  12.833  1.00  0.00     0.259 C 
HETATM   25  O4  UNL     1      17.121  30.378  13.185  1.00  0.00    -0.265 OA
BRANCH  24  26
HETATM   26  O5  UNL     1      18.091  29.304  11.490  1.00  0.00    -0.326 OA
HETATM   27  C15 UNL     1      18.610  28.055  11.082  1.00  0.00     0.213 C 
ENDBRANCH  24  26
ENDBRANCH  23  24
ENDBRANCH  21  23
BRANCH  21  28
HETATM   28  C16 UNL     1      21.193  30.243  13.228  1.00  0.00    -0.040 C 
HETATM   29  C17 UNL     1      21.883  29.243  12.329  1.00  0.00     0.015 C 
HETATM   30  C18 UNL     1      22.437  30.794  14.044  1.00  0.00     0.015 C 
HETATM   31  C19 UNL     1      20.954  31.420  12.325  1.00  0.00     0.015 C 
ENDBRANCH  21  28
ENDBRANCH  20  21
ENDBRANCH  18  20
BRANCH  19  32
HETATM   32  C21 UNL     1      21.496  32.954  16.775  1.00  0.00     0.048 C 
BRANCH  32  33
HETATM   33  C22 UNL     1      22.012  34.324  16.241  1.00  0.00     0.126 C 
BRANCH  33  34
HETATM   34  N3  UNL     1      22.554  35.112  17.311  1.00  0.00    -0.364 N 
HETATM   35  C23 UNL     1      22.327  36.339  17.515  1.00  0.00     0.183 C 
HETATM   36  N4  UNL     1      22.933  36.995  18.613  1.00  0.00    -0.064 NA
HETATM   37  N5  UNL     1      21.474  37.071  16.663  1.00  0.00    -0.365 N 
ATOM     38  H5  UNL     1      21.049  36.579  15.878  1.00  0.00     0.162 HD
ATOM     39  H3  UNL     1      23.178  34.640  17.965  1.00  0.00     0.162 HD
BRANCH  37  40
HETATM   40  C24 UNL     1      21.162  38.473  16.828  1.00  0.00     0.122 C 
BRANCH  40  41
HETATM   41  C25 UNL     1      21.319  39.278  15.570  1.00  0.00     0.020 C 
BRANCH  41  42
HETATM   42  C26 UNL     1      20.183  40.272  15.469  1.00  0.00     0.001 C 
BRANCH  42  43
HETATM   43  C27 UNL     1      20.443  41.410  16.459  1.00  0.00    -0.004 C 
HETATM   44  C28 UNL     1      19.169  42.174  16.734  1.00  0.00     0.005 C 
ENDBRANCH  42  43
ENDBRANCH  41  42
ENDBRANCH  40  41
ENDBRANCH  37  40
ENDBRANCH  33  34
ENDBRANCH  32  33
ENDBRANCH  19  32
ENDBRANCH  13  18
ENDBRANCH   5   6
ENDBRANCH   3   5
TORSDOF 17
ENDMDL
MODEL 4
REMARK VINA RESULT: -8.000402404      0.927      1.284
REMARK  17 active torsions:
REMARK  status: ('A' for Active; 'I' for Inactive)
REMARK    1  A    between atoms: C3_3  and  O1_5 
REMARK    2  A    between atoms: O1_5  and  C5_6 
REMARK       I    between atoms: C5_6  and  N1_8 
REMARK    3  A    between atoms: C8_12  and  O3_13 
REMARK    4  A    between atoms: C8_12  and  C9_15 
REMARK    5  A    between atoms: C9_15  and  C10_16 
REMARK    6  A    between atoms: C10_16  and  C11_17 
REMARK    7  A    between atoms: C11_17  and  C13_19 
REMARK    8  A    between atoms: C11_17  and  C16_24 
REMARK    9  A    between atoms: C13_19  and  C14_20 
REMARK   10  A    between atoms: C14_20  and  O5_22 
REMARK   11  A    between atoms: C20_28  and  C21_29 
REMARK   12  A    between atoms: C21_29  and  C22_30 
REMARK   13  A    between atoms: C22_30  and  N3_31 
REMARK       I    between atoms: C23_33  and  N5_35 
REMARK   14  A    between atoms: N5_35  and  C24_37 
REMARK   15  A    between atoms: C24_37  and  C25_38 
REMARK   16  A    between atoms: C25_38  and  C26_39 
REMARK   17  A    between atoms: C26_39  and  C27_40 
ROOT
HETATM    1  C1  UNL     1      15.386  38.915  20.119  1.00  0.00     0.015 C 
HETATM    2  C2  UNL     1      15.770  38.440  19.086  1.00  0.00    -0.085 C 
HETATM    3  C3  UNL     1      16.229  37.878  17.810  1.00  0.00     0.207 C 
HETATM    4  C4  UNL     1      17.279  38.774  17.182  1.00  0.00     0.054 C 
ENDROOT
BRANCH   3   5
HETATM    5  O1  UNL     1      16.839  36.638  18.090  1.00  0.00    -0.285 OA
BRANCH   5   6
HETATM    6  C5  UNL     1      16.144  35.443  18.132  1.00  0.00     0.388 C 
HETATM    7  O2  UNL     1      15.560  35.156  19.197  1.00  0.00    -0.236 OA
HETATM    8  N1  UNL     1      16.079  34.555  17.023  1.00  0.00    -0.189 N 
HETATM    9  C6  UNL     1      15.331  33.326  17.120  1.00  0.00     0.183 C 
HETATM   10  O7  UNL     1      16.717  34.847  15.840  1.00  0.00    -0.174 OA
HETATM   11  C7  UNL     1      15.752  32.276  16.134  1.00  0.00     0.159 C 
HETATM   12  N2  UNL     1      17.179  32.523  15.683  1.00  0.00    -0.270 N 
HETATM   13  C8  UNL     1      18.040  31.494  15.864  1.00  0.00     0.156 C 
HETATM   14  C29 UNL     1      17.312  33.809  15.094  1.00  0.00     0.391 C 
HETATM   15  O6  UNL     1      17.899  33.971  14.020  1.00  0.00    -0.236 OA
BRANCH  13  16
HETATM   16  O3  UNL     1      17.425  30.378  16.254  1.00  0.00    -0.345 OA
ATOM     17  H3  UNL     1      17.015  29.918  15.531  1.00  0.00     0.219 HD
ENDBRANCH  13  16
BRANCH  13  18
HETATM   18  C9  UNL     1      19.523  31.296  15.741  1.00  0.00     0.008 C 
HETATM   19  C20 UNL     1      20.272  32.339  16.363  1.00  0.00    -0.010 C 
BRANCH  18  20
HETATM   20  C10 UNL     1      19.870  30.189  15.252  1.00  0.00    -0.001 C 
BRANCH  20  21
HETATM   21  C11 UNL     1      20.219  29.389  14.078  1.00  0.00    -0.010 C 
HETATM   22  C12 UNL     1      21.298  28.379  14.743  1.00  0.00     0.021 C 
BRANCH  21  23
HETATM   23  C13 UNL     1      19.100  28.423  13.869  1.00  0.00     0.125 C 
BRANCH  23  24
HETATM   24  C14 UNL     1      18.041  28.682  12.923  1.00  0.00     0.259 C 
HETATM   25  O4  UNL     1      17.387  29.743  12.986  1.00  0.00    -0.265 OA
BRANCH  24  26
HETATM   26  O5  UNL     1      17.685  27.808  11.919  1.00  0.00    -0.326 OA
HETATM   27  C15 UNL     1      17.943  28.156  10.576  1.00  0.00     0.213 C 
ENDBRANCH  24  26
ENDBRANCH  23  24
ENDBRANCH  21  23
BRANCH  21  28
HETATM   28  C16 UNL     1      20.995  29.970  13.014  1.00  0.00    -0.040 C 
HETATM   29  C17 UNL     1      21.513  29.095  11.896  1.00  0.00     0.015 C 
HETATM   30  C18 UNL     1      22.365  30.474  13.635  1.00  0.00     0.015 C 
HETATM   31  C19 UNL     1      20.570  31.227  12.309  1.00  0.00     0.015 C 
ENDBRANCH  21  28
ENDBRANCH  20  21
ENDBRANCH  18  20
BRANCH  19  32
HETATM   32  C21 UNL     1      21.692  32.316  16.743  1.00  0.00     0.048 C 
BRANCH  32  33
HETATM   33  C22 UNL     1      22.055  33.677  17.411  1.00  0.00     0.126 C 
BRANCH  33  34
HETATM   34  N3  UNL     1      21.034  34.073  18.340  1.00  0.00    -0.364 N 
HETATM   35  C23 UNL     1      20.603  35.250  18.508  1.00  0.00     0.183 C 
HETATM   36  N4  UNL     1      19.590  35.499  19.464  1.00  0.00    -0.064 NA
HETATM   37  N5  UNL     1      21.116  36.326  17.754  1.00  0.00    -0.365 N 
ATOM     38  H5  UNL     1      21.846  36.123  17.071  1.00  0.00     0.162 HD
ATOM     39  H3  UNL     1      20.621  33.339  18.914  1.00  0.00     0.162 HD
BRANCH  37  40
HETATM   40  C24 UNL     1      20.676  37.696  17.885  1.00  0.00     0.122 C 
BRANCH  40  41
HETATM   41  C25 UNL     1      21.678  38.589  18.560  1.00  0.00     0.020 C 
BRANCH  41  42
HETATM   42  C26 UNL     1      22.819  38.869  17.607  1.00  0.00     0.001 C 
BRANCH  42  43
HETATM   43  C27 UNL     1      24.136  38.741  18.375  1.00  0.00    -0.004 C 
HETATM   44  C28 UNL     1      23.911  38.958  19.853  1.00  0.00     0.005 C 
ENDBRANCH  42  43
ENDBRANCH  41  42
ENDBRANCH  40  41
ENDBRANCH  37  40
ENDBRANCH  33  34
ENDBRANCH  32  33
ENDBRANCH  19  32
ENDBRANCH  13  18
ENDBRANCH   5   6
ENDBRANCH   3   5
TORSDOF 17
ENDMDL
MODEL 5
REMARK VINA RESULT: -7.851322959      1.408      2.185
REMARK  17 active torsions:
REMARK  status: ('A' for Active; 'I' for Inactive)
REMARK    1  A    between atoms: C3_3  and  O1_5 
REMARK    2  A    between atoms: O1_5  and  C5_6 
REMARK       I    between atoms: C5_6  and  N1_8 
REMARK    3  A    between atoms: C8_12  and  O3_13 
REMARK    4  A    between atoms: C8_12  and  C9_15 
REMARK    5  A    between atoms: C9_15  and  C10_16 
REMARK    6  A    between atoms: C10_16  and  C11_17 
REMARK    7  A    between atoms: C11_17  and  C13_19 
REMARK    8  A    between atoms: C11_17  and  C16_24 
REMARK    9  A    between atoms: C13_19  and  C14_20 
REMARK   10  A    between atoms: C14_20  and  O5_22 
REMARK   11  A    between atoms: C20_28  and  C21_29 
REMARK   12  A    between atoms: C21_29  and  C22_30 
REMARK   13  A    between atoms: C22_30  and  N3_31 
REMARK       I    between atoms: C23_33  and  N5_35 
REMARK   14  A    between atoms: N5_35  and  C24_37 
REMARK   15  A    between atoms: C24_37  and  C25_38 
REMARK   16  A    between atoms: C25_38  and  C26_39 
REMARK   17  A    between atoms: C26_39  and  C27_40 
ROOT
HETATM    1  C1  UNL     1      14.955  39.218  19.447  1.00  0.00     0.015 C 
HETATM    2  C2  UNL     1      15.604  38.678  18.595  1.00  0.00    -0.085 C 
HETATM    3  C3  UNL     1      16.389  38.033  17.535  1.00  0.00     0.207 C 
HETATM    4  C4  UNL     1      17.519  38.939  17.086  1.00  0.00     0.054 C 
ENDROOT
BRANCH   3   5
HETATM    5  O1  UNL     1      16.968  36.871  18.085  1.00  0.00    -0.285 OA
BRANCH   5   6
HETATM    6  C5  UNL     1      16.287  35.675  18.218  1.00  0.00     0.388 C 
HETATM    7  O2  UNL     1      15.800  35.413  19.337  1.00  0.00    -0.236 OA
HETATM    8  N1  UNL     1      16.130  34.759  17.142  1.00  0.00    -0.189 N 
HETATM    9  C6  UNL     1      15.401  33.529  17.335  1.00  0.00     0.183 C 
HETATM   10  O7  UNL     1      16.661  35.023  15.900  1.00  0.00    -0.174 OA
HETATM   11  C7  UNL     1      15.742  32.456  16.342  1.00  0.00     0.159 C 
HETATM   12  N2  UNL     1      17.121  32.697  15.761  1.00  0.00    -0.270 N 
HETATM   13  C8  UNL     1      18.001  31.678  15.891  1.00  0.00     0.156 C 
HETATM   14  C29 UNL     1      17.194  33.969  15.131  1.00  0.00     0.391 C 
HETATM   15  O6  UNL     1      17.683  34.106  14.005  1.00  0.00    -0.236 OA
BRANCH  13  16
HETATM   16  O3  UNL     1      17.430  30.569  16.362  1.00  0.00    -0.345 OA
ATOM     17  H3  UNL     1      16.979  30.079  15.685  1.00  0.00     0.219 HD
ENDBRANCH  13  16
BRANCH  13  18
HETATM   18  C9  UNL     1      19.470  31.482  15.644  1.00  0.00     0.008 C 
HETATM   19  C20 UNL     1      20.284  32.263  16.517  1.00  0.00    -0.010 C 
BRANCH  18  20
HETATM   20  C10 UNL     1      19.751  30.568  14.826  1.00  0.00    -0.001 C 
BRANCH  20  21
HETATM   21  C11 UNL     1      19.894  30.123  13.439  1.00  0.00    -0.010 C 
HETATM   22  C12 UNL     1      19.450  31.478  12.668  1.00  0.00     0.021 C 
BRANCH  21  23
HETATM   23  C13 UNL     1      21.354  30.151  13.129  1.00  0.00     0.125 C 
BRANCH  23  24
HETATM   24  C14 UNL     1      22.161  28.955  13.169  1.00  0.00     0.259 C 
HETATM   25  O4  UNL     1      22.516  28.472  14.263  1.00  0.00    -0.265 OA
BRANCH  24  26
HETATM   26  O5  UNL     1      22.586  28.284  12.043  1.00  0.00    -0.326 OA
HETATM   27  C15 UNL     1      23.739  27.471  12.116  1.00  0.00     0.213 C 
ENDBRANCH  24  26
ENDBRANCH  23  24
ENDBRANCH  21  23
BRANCH  21  28
HETATM   28  C16 UNL     1      18.968  29.169  12.888  1.00  0.00    -0.040 C 
HETATM   29  C17 UNL     1      19.186  28.627  11.494  1.00  0.00     0.015 C 
HETATM   30  C18 UNL     1      17.577  29.905  12.690  1.00  0.00     0.015 C 
HETATM   31  C19 UNL     1      18.501  27.969  13.663  1.00  0.00     0.015 C 
ENDBRANCH  21  28
ENDBRANCH  20  21
ENDBRANCH  18  20
BRANCH  19  32
HETATM   32  C21 UNL     1      21.715  32.083  16.804  1.00  0.00     0.048 C 
BRANCH  32  33
HETATM   33  C22 UNL     1      22.236  33.341  17.564  1.00  0.00     0.126 C 
BRANCH  33  34
HETATM   34  N3  UNL     1      21.158  34.004  18.242  1.00  0.00    -0.364 N 
HETATM   35  C23 UNL     1      21.014  35.256  18.354  1.00  0.00     0.183 C 
HETATM   36  N4  UNL     1      19.899  35.776  19.053  1.00  0.00    -0.064 NA
HETATM   37  N5  UNL     1      21.949  36.148  17.789  1.00  0.00    -0.365 N 
ATOM     38  H5  UNL     1      22.744  35.751  17.289  1.00  0.00     0.162 HD
ATOM     39  H3  UNL     1      20.446  33.414  18.671  1.00  0.00     0.162 HD
BRANCH  37  40
HETATM   40  C24 UNL     1      21.854  37.588  17.870  1.00  0.00     0.122 C 
BRANCH  40  41
HETATM   41  C25 UNL     1      21.545  38.247  16.556  1.00  0.00     0.020 C 
BRANCH  41  42
HETATM   42  C26 UNL     1      21.190  39.698  16.797  1.00  0.00     0.001 C 
BRANCH  42  43
HETATM   43  C27 UNL     1      20.604  40.276  15.507  1.00  0.00    -0.004 C 
HETATM   44  C28 UNL     1      21.442  39.872  14.318  1.00  0.00     0.005 C 
ENDBRANCH  42  43
ENDBRANCH  41  42
ENDBRANCH  40  41
ENDBRANCH  37  40
ENDBRANCH  33  34
ENDBRANCH  32  33
ENDBRANCH  19  32
ENDBRANCH  13  18
ENDBRANCH   5   6
ENDBRANCH   3   5
TORSDOF 17
ENDMDL
