MODEL 1
REMARK VINA RESULT: -8.443619350      0.000      0.000
REMARK  16 active torsions:
REMARK  status: ('A' for Active; 'I' for Inactive)
REMARK    1  A    between atoms: C2_2  and  C3_3 
REMARK    2  A    between atoms: C3_3  and  C4_4 
REMARK    3  A    between atoms: C4_4  and  N1_5 
REMARK    4  A    between atoms: N1_5  and  C5_6 
REMARK       I    between atoms: N1_5  and  C8_11 
REMARK    5  A    between atoms: C5_6  and  C6_7 
REMARK    6  A    between atoms: C6_7  and  C7_8 
REMARK    7  A    between atoms: C8_11  and  C9_13 
REMARK    8  A    between atoms: C11_15  and  C12_16 
REMARK    9  A    between atoms: C13_17  and  C14_18 
REMARK   10  A    between atoms: C15_19  and  O3_20 
REMARK   11  A    between atoms: C18_23  and  O4_24 
REMARK   12  A    between atoms: O4_24  and  C19_25 
REMARK   13  A    between atoms: C19_25  and  C20_26 
REMARK   14  A    between atoms: C20_26  and  O5_27 
REMARK   15  A    between atoms: C25_36  and  N5_37 
REMARK   16  A    between atoms: N5_37  and  C26_39 
ROOT
HETATM    1  C9  UNL     1      18.689  27.083  11.399  1.00  0.00     0.077 A 
HETATM    2  C10 UNL     1      18.796  28.124  12.277  1.00  0.00     0.043 A 
HETATM    3  C11 UNL     1      17.871  29.143  12.268  1.00  0.00     0.034 A 
HETATM    4  C24 UNL     1      16.843  29.077  11.353  1.00  0.00     0.110 A 
HETATM    5  N4  UNL     1      16.750  28.065  10.511  1.00  0.00    -0.350 N 
ATOM      6  H4  UNL     1      15.976  28.048   9.847  1.00  0.00     0.166 HD
HETATM    7  C25 UNL     1      17.649  27.043  10.494  1.00  0.00     0.122 A 
ENDROOT
BRANCH   3   8
HETATM    8  C12 UNL     1      17.998  30.229  13.195  1.00  0.00    -0.060 C 
HETATM    9  C13 UNL     1      18.123  31.136  13.984  1.00  0.00    -0.057 C 
BRANCH   9  10
HETATM   10  C14 UNL     1      18.296  32.213  14.938  1.00  0.00     0.073 A 
HETATM   11  C15 UNL     1      19.530  32.821  15.016  1.00  0.00     0.093 A 
HETATM   12  C17 UNL     1      19.675  33.844  15.928  1.00  0.00     0.094 A 
HETATM   13  C18 UNL     1      18.622  34.235  16.725  1.00  0.00     0.145 A 
HETATM   14  N3  UNL     1      17.430  33.610  16.613  1.00  0.00    -0.339 N 
HETATM   15  C22 UNL     1      17.234  32.612  15.746  1.00  0.00     0.029 A 
ATOM     16  H3  UNL     1      16.658  33.908  17.208  1.00  0.00     0.168 HD
HETATM   17  C23 UNL     1      15.933  31.898  15.594  1.00  0.00     0.070 C 
BRANCH  11  18
HETATM   18  O3  UNL     1      20.588  32.424  14.211  1.00  0.00    -0.354 OA
HETATM   19  C16 UNL     1      21.918  32.786  14.436  1.00  0.00     0.210 C 
ENDBRANCH  11  18
BRANCH  13  20
HETATM   20  O4  UNL     1      18.743  35.269  17.656  1.00  0.00    -0.334 OA
BRANCH  20  21
HETATM   21  C19 UNL     1      18.134  35.214  18.914  1.00  0.00     0.203 C 
BRANCH  21  22
HETATM   22  C20 UNL     1      16.807  35.954  18.925  1.00  0.00     0.193 C 
BRANCH  22  23
HETATM   23  O5  UNL     1      15.755  35.042  18.982  1.00  0.00    -0.394 OA
HETATM   24  C21 UNL     1      14.799  35.400  18.038  1.00  0.00     0.201 C 
ENDBRANCH  22  23
ENDBRANCH  21  22
ENDBRANCH  20  21
ENDBRANCH  13  20
ENDBRANCH   9  10
ENDBRANCH   3   8
BRANCH   1  25
HETATM   25  C8  UNL     1      19.656  26.005  11.373  1.00  0.00     0.257 C 
HETATM   26  N1  UNL     1      21.057  26.134  11.239  1.00  0.00    -0.347 N 
HETATM   27  O2  UNL     1      19.176  24.816  11.484  1.00  0.00    -0.267 OA
BRANCH  26  28
HETATM   28  C4  UNL     1      21.834  24.915  11.257  1.00  0.00     0.130 C 
BRANCH  28  29
HETATM   29  C3  UNL     1      22.425  24.504   9.958  1.00  0.00     0.046 C 
BRANCH  29  30
HETATM   30  C2  UNL     1      23.846  24.966   9.968  1.00  0.00    -0.035 C 
HETATM   31  C1  UNL     1      24.291  25.932   9.183  1.00  0.00     0.007 C 
ENDBRANCH  29  30
ENDBRANCH  28  29
ENDBRANCH  26  28
BRANCH  26  32
HETATM   32  C5  UNL     1      21.666  27.420  11.096  1.00  0.00     0.135 C 
BRANCH  32  33
HETATM   33  C6  UNL     1      22.610  27.840  12.167  1.00  0.00     0.119 C 
BRANCH  33  34
HETATM   34  C7  UNL     1      22.064  29.064  12.829  1.00  0.00     0.232 C 
HETATM   35  N2  UNL     1      21.920  29.161  14.237  1.00  0.00    -0.062 NA
HETATM   36  O1  UNL     1      21.719  30.041  12.126  1.00  0.00    -0.277 OA
ENDBRANCH  33  34
ENDBRANCH  32  33
ENDBRANCH  26  32
ENDBRANCH   1  25
BRANCH   7  37
HETATM   37  N5  UNL     1      17.522  25.982   9.558  1.00  0.00    -0.328 N 
ATOM     38  H5  UNL     1      16.896  25.206   9.778  1.00  0.00     0.169 HD
BRANCH  37  39
HETATM   39  C26 UNL     1      18.157  25.963   8.460  1.00  0.00     0.107 A 
HETATM   40  C27 UNL     1      17.900  26.924   7.471  1.00  0.00     0.055 A 
HETATM   41  C28 UNL     1      18.563  26.938   6.271  1.00  0.00    -0.057 A 
HETATM   42  C29 UNL     1      18.246  27.983   5.266  1.00  0.00     0.048 C 
HETATM   43  C30 UNL     1      19.522  25.985   5.997  1.00  0.00     0.031 A 
HETATM   44  C31 UNL     1      19.761  25.049   6.978  1.00  0.00     0.007 A 
HETATM   45  C32 UNL     1      20.796  23.993   6.722  1.00  0.00     0.068 C 
HETATM   46  N6  UNL     1      19.090  25.057   8.158  1.00  0.00    -0.346 N 
ATOM     47  H6  UNL     1      19.310  24.338   8.848  1.00  0.00     0.167 HD
ENDBRANCH  37  39
ENDBRANCH   7  37
TORSDOF 16
ENDMDL
MODEL 2
REMARK VINA RESULT: -8.441183743      0.517      1.335
REMARK  16 active torsions:
REMARK  status: ('A' for Active; 'I' for Inactive)
REMARK    1  A    between atoms: C2_2  and  C3_3 
REMARK    2  A    between atoms: C3_3  and  C4_4 
REMARK    3  A    between atoms: C4_4  and  N1_5 
REMARK    4  A    between atoms: N1_5  and  C5_6 
REMARK       I    between atoms: N1_5  and  C8_11 
REMARK    5  A    between atoms: C5_6  and  C6_7 
REMARK    6  A    between atoms: C6_7  and  C7_8 
REMARK    7  A    between atoms: C8_11  and  C9_13 
REMARK    8  A    between atoms: C11_15  and  C12_16 
REMARK    9  A    between atoms: C13_17  and  C14_18 
REMARK   10  A    between atoms: C15_19  and  O3_20 
REMARK   11  A    between atoms: C18_23  and  O4_24 
REMARK   12  A    between atoms: O4_24  and  C19_25 
REMARK   13  A    between atoms: C19_25  and  C20_26 
REMARK   14  A    between atoms: C20_26  and  O5_27 
REMARK   15  A    between atoms: C25_36  and  N5_37 
REMARK   16  A    between atoms: N5_37  and  C26_39 
ROOT
HETATM    1  C9  UNL     1      18.928  27.043  11.370  1.00  0.00     0.077 A 
HETATM    2  C10 UNL     1      19.011  28.087  12.248  1.00  0.00     0.043 A 
HETATM    3  C11 UNL     1      18.079  29.100  12.219  1.00  0.00     0.034 A 
HETATM    4  C24 UNL     1      17.069  29.025  11.285  1.00  0.00     0.110 A 
HETATM    5  N4  UNL     1      16.999  28.011  10.442  1.00  0.00    -0.350 N 
ATOM      6  H4  UNL     1      16.238  27.988   9.764  1.00  0.00     0.166 HD
HETATM    7  C25 UNL     1      17.905  26.995  10.445  1.00  0.00     0.122 A 
ENDROOT
BRANCH   3   8
HETATM    8  C12 UNL     1      18.181  30.188  13.146  1.00  0.00    -0.060 C 
HETATM    9  C13 UNL     1      18.284  31.097  13.936  1.00  0.00    -0.057 C 
BRANCH   9  10
HETATM   10  C14 UNL     1      18.433  32.177  14.891  1.00  0.00     0.073 A 
HETATM   11  C15 UNL     1      19.647  32.823  14.960  1.00  0.00     0.093 A 
HETATM   12  C17 UNL     1      19.769  33.849  15.872  1.00  0.00     0.094 A 
HETATM   13  C18 UNL     1      18.711  34.205  16.679  1.00  0.00     0.145 A 
HETATM   14  N3  UNL     1      17.538  33.544  16.576  1.00  0.00    -0.339 N 
HETATM   15  C22 UNL     1      17.365  32.542  15.708  1.00  0.00     0.029 A 
ATOM     16  H3  UNL     1      16.762  33.817  17.178  1.00  0.00     0.168 HD
HETATM   17  C23 UNL     1      16.086  31.788  15.566  1.00  0.00     0.070 C 
BRANCH  11  18
HETATM   18  O3  UNL     1      20.711  32.460  14.145  1.00  0.00    -0.354 OA
HETATM   19  C16 UNL     1      22.040  32.804  14.399  1.00  0.00     0.210 C 
ENDBRANCH  11  18
BRANCH  13  20
HETATM   20  O4  UNL     1      18.808  35.241  17.611  1.00  0.00    -0.334 OA
BRANCH  20  21
HETATM   21  C19 UNL     1      18.220  35.160  18.878  1.00  0.00     0.203 C 
BRANCH  21  22
HETATM   22  C20 UNL     1      16.890  35.893  18.925  1.00  0.00     0.193 C 
BRANCH  22  23
HETATM   23  O5  UNL     1      15.844  34.974  18.964  1.00  0.00    -0.394 OA
HETATM   24  C21 UNL     1      14.891  35.340  18.019  1.00  0.00     0.201 C 
ENDBRANCH  22  23
ENDBRANCH  21  22
ENDBRANCH  20  21
ENDBRANCH  13  20
ENDBRANCH   9  10
ENDBRANCH   3   8
BRANCH   1  25
HETATM   25  C8  UNL     1      19.902  25.973  11.364  1.00  0.00     0.257 C 
HETATM   26  N1  UNL     1      21.304  26.110  11.240  1.00  0.00    -0.347 N 
HETATM   27  O2  UNL     1      19.429  24.781  11.485  1.00  0.00    -0.267 OA
BRANCH  26  28
HETATM   28  C4  UNL     1      22.089  24.896  11.279  1.00  0.00     0.130 C 
BRANCH  28  29
HETATM   29  C3  UNL     1      23.410  24.957  10.602  1.00  0.00     0.046 C 
BRANCH  29  30
HETATM   30  C2  UNL     1      23.171  24.620   9.166  1.00  0.00    -0.035 C 
HETATM   31  C1  UNL     1      23.802  25.222   8.173  1.00  0.00     0.007 C 
ENDBRANCH  29  30
ENDBRANCH  28  29
ENDBRANCH  26  28
BRANCH  26  32
HETATM   32  C5  UNL     1      21.904  27.398  11.087  1.00  0.00     0.135 C 
BRANCH  32  33
HETATM   33  C6  UNL     1      22.777  27.870  12.197  1.00  0.00     0.119 C 
BRANCH  33  34
HETATM   34  C7  UNL     1      22.141  29.070  12.823  1.00  0.00     0.232 C 
HETATM   35  N2  UNL     1      21.908  29.160  14.218  1.00  0.00    -0.062 NA
HETATM   36  O1  UNL     1      21.800  30.032  12.098  1.00  0.00    -0.277 OA
ENDBRANCH  33  34
ENDBRANCH  32  33
ENDBRANCH  26  32
ENDBRANCH   1  25
BRANCH   7  37
HETATM   37  N5  UNL     1      17.803  25.932   9.509  1.00  0.00    -0.328 N 
ATOM     38  H5  UNL     1      17.311  25.082   9.783  1.00  0.00     0.169 HD
BRANCH  37  39
HETATM   39  C26 UNL     1      18.302  26.000   8.343  1.00  0.00     0.107 A 
HETATM   40  C27 UNL     1      19.266  25.071   7.926  1.00  0.00     0.055 A 
HETATM   41  C28 UNL     1      19.830  25.109   6.677  1.00  0.00    -0.057 A 
HETATM   42  C29 UNL     1      20.846  24.098   6.295  1.00  0.00     0.048 C 
HETATM   43  C30 UNL     1      19.454  26.084   5.776  1.00  0.00     0.031 A 
HETATM   44  C31 UNL     1      18.506  26.987   6.202  1.00  0.00     0.007 A 
HETATM   45  C32 UNL     1      18.068  28.065   5.255  1.00  0.00     0.068 C 
HETATM   46  N6  UNL     1      17.964  26.927   7.445  1.00  0.00    -0.346 N 
ATOM     47  H6  UNL     1      17.266  27.624   7.705  1.00  0.00     0.167 HD
ENDBRANCH  37  39
ENDBRANCH   7  37
TORSDOF 16
ENDMDL
MODEL 3
REMARK VINA RESULT: -8.218196898      3.052     11.909
REMARK  16 active torsions:
REMARK  status: ('A' for Active; 'I' for Inactive)
REMARK    1  A    between atoms: C2_2  and  C3_3 
REMARK    2  A    between atoms: C3_3  and  C4_4 
REMARK    3  A    between atoms: C4_4  and  N1_5 
REMARK    4  A    between atoms: N1_5  and  C5_6 
REMARK       I    between atoms: N1_5  and  C8_11 
REMARK    5  A    between atoms: C5_6  and  C6_7 
REMARK    6  A    between atoms: C6_7  and  C7_8 
REMARK    7  A    between atoms: C8_11  and  C9_13 
REMARK    8  A    between atoms: C11_15  and  C12_16 
REMARK    9  A    between atoms: C13_17  and  C14_18 
REMARK   10  A    between atoms: C15_19  and  O3_20 
REMARK   11  A    between atoms: C18_23  and  O4_24 
REMARK   12  A    between atoms: O4_24  and  C19_25 
REMARK   13  A    between atoms: C19_25  and  C20_26 
REMARK   14  A    between atoms: C20_26  and  O5_27 
REMARK   15  A    between atoms: C25_36  and  N5_37 
REMARK   16  A    between atoms: N5_37  and  C26_39 
ROOT
HETATM    1  C9  UNL     1      19.245  34.402  17.040  1.00  0.00     0.077 A 
HETATM    2  C10 UNL     1      19.341  33.278  16.270  1.00  0.00     0.043 A 
HETATM    3  C11 UNL     1      20.449  33.065  15.480  1.00  0.00     0.034 A 
HETATM    4  C24 UNL     1      21.445  34.016  15.492  1.00  0.00     0.110 A 
HETATM    5  N4  UNL     1      21.341  35.098  16.241  1.00  0.00    -0.350 N 
ATOM      6  H4  UNL     1      22.098  35.781  16.226  1.00  0.00     0.166 HD
HETATM    7  C25 UNL     1      20.260  35.337  17.032  1.00  0.00     0.122 A 
ENDROOT
BRANCH   3   8
HETATM    8  C12 UNL     1      20.534  31.881  14.678  1.00  0.00    -0.060 C 
HETATM    9  C13 UNL     1      20.626  30.886  13.997  1.00  0.00    -0.057 C 
BRANCH   9  10
HETATM   10  C14 UNL     1      20.762  29.699  13.178  1.00  0.00     0.073 A 
HETATM   11  C15 UNL     1      19.709  29.344  12.364  1.00  0.00     0.093 A 
HETATM   12  C17 UNL     1      19.858  28.213  11.591  1.00  0.00     0.094 A 
HETATM   13  C18 UNL     1      21.019  27.474  11.638  1.00  0.00     0.145 A 
HETATM   14  N3  UNL     1      22.026  27.860  12.450  1.00  0.00    -0.339 N 
HETATM   15  C22 UNL     1      21.935  28.948  13.221  1.00  0.00     0.029 A 
ATOM     16  H3  UNL     1      22.881  27.305  12.476  1.00  0.00     0.168 HD
HETATM   17  C23 UNL     1      23.025  29.406  14.130  1.00  0.00     0.070 C 
BRANCH  11  18
HETATM   18  O3  UNL     1      18.541  30.092  12.321  1.00  0.00    -0.354 OA
HETATM   19  C16 UNL     1      17.267  29.541  12.170  1.00  0.00     0.210 C 
ENDBRANCH  11  18
BRANCH  13  20
HETATM   20  O4  UNL     1      21.195  26.325  10.864  1.00  0.00    -0.334 OA
BRANCH  20  21
HETATM   21  C19 UNL     1      21.846  25.188  11.355  1.00  0.00     0.203 C 
BRANCH  21  22
HETATM   22  C20 UNL     1      23.253  25.063  10.795  1.00  0.00     0.193 C 
BRANCH  22  23
HETATM   23  O5  UNL     1      24.186  25.346  11.790  1.00  0.00    -0.394 OA
HETATM   24  C21 UNL     1      24.972  26.416  11.376  1.00  0.00     0.201 C 
ENDBRANCH  22  23
ENDBRANCH  21  22
ENDBRANCH  20  21
ENDBRANCH  13  20
ENDBRANCH   9  10
ENDBRANCH   3   8
BRANCH   1  25
HETATM   25  C8  UNL     1      18.086  34.662  17.868  1.00  0.00     0.257 C 
HETATM   26  N1  UNL     1      16.767  34.899  17.420  1.00  0.00    -0.347 N 
HETATM   27  O2  UNL     1      18.294  34.676  19.139  1.00  0.00    -0.267 OA
BRANCH  26  28
HETATM   28  C4  UNL     1      15.758  35.118  18.433  1.00  0.00     0.130 C 
BRANCH  28  29
HETATM   29  C3  UNL     1      15.074  36.437  18.392  1.00  0.00     0.046 C 
BRANCH  29  30
HETATM   30  C2  UNL     1      15.770  37.310  19.385  1.00  0.00    -0.035 C 
HETATM   31  C1  UNL     1      15.318  38.503  19.730  1.00  0.00     0.007 C 
ENDBRANCH  29  30
ENDBRANCH  28  29
ENDBRANCH  26  28
BRANCH  26  32
HETATM   32  C5  UNL     1      16.457  34.916  16.024  1.00  0.00     0.135 C 
BRANCH  32  33
HETATM   33  C6  UNL     1      15.359  34.021  15.568  1.00  0.00     0.119 C 
BRANCH  33  34
HETATM   34  C7  UNL     1      15.818  32.603  15.693  1.00  0.00     0.232 C 
HETATM   35  N2  UNL     1      16.782  32.042  14.818  1.00  0.00    -0.062 NA
HETATM   36  O1  UNL     1      15.341  31.880  16.596  1.00  0.00    -0.277 OA
ENDBRANCH  33  34
ENDBRANCH  32  33
ENDBRANCH  26  32
ENDBRANCH   1  25
BRANCH   7  37
HETATM   37  N5  UNL     1      20.179  36.524  17.809  1.00  0.00    -0.328 N 
ATOM     38  H5  UNL     1      20.302  36.459  18.819  1.00  0.00     0.169 HD
BRANCH  37  39
HETATM   39  C26 UNL     1      19.959  37.663  17.293  1.00  0.00     0.107 A 
HETATM   40  C27 UNL     1      18.698  38.265  17.405  1.00  0.00     0.055 A 
HETATM   41  C28 UNL     1      18.419  39.492  16.861  1.00  0.00    -0.057 A 
HETATM   42  C29 UNL     1      17.063  40.076  17.014  1.00  0.00     0.048 C 
HETATM   43  C30 UNL     1      19.395  40.185  16.174  1.00  0.00     0.031 A 
HETATM   44  C31 UNL     1      20.628  39.579  16.075  1.00  0.00     0.007 A 
HETATM   45  C32 UNL     1      21.719  40.297  15.336  1.00  0.00     0.068 C 
HETATM   46  N6  UNL     1      20.877  38.362  16.622  1.00  0.00    -0.346 N 
ATOM     47  H6  UNL     1      21.810  37.963  16.515  1.00  0.00     0.167 HD
ENDBRANCH  37  39
ENDBRANCH   7  37
TORSDOF 16
ENDMDL
MODEL 4
REMARK VINA RESULT: -8.077133424      0.996      1.495
REMARK  16 active torsions:
REMARK  status: ('A' for Active; 'I' for Inactive)
REMARK    1  A    between atoms: C2_2  and  C3_3 
REMARK    2  A    between atoms: C3_3  and  C4_4 
REMARK    3  A    between atoms: C4_4  and  N1_5 
REMARK    4  A    between atoms: N1_5  and  C5_6 
REMARK       I    between atoms: N1_5  and  C8_11 
REMARK    5  A    between atoms: C5_6  and  C6_7 
REMARK    6  A    between atoms: C6_7  and  C7_8 
REMARK    7  A    between atoms: C8_11  and  C9_13 
REMARK    8  A    between atoms: C11_15  and  C12_16 
REMARK    9  A    between atoms: C13_17  and  C14_18 
REMARK   10  A    between atoms: C15_19  and  O3_20 
REMARK   11  A    between atoms: C18_23  and  O4_24 
REMARK   12  A    between atoms: O4_24  and  C19_25 
REMARK   13  A    between atoms: C19_25  and  C20_26 
REMARK   14  A    between atoms: C20_26  and  O5_27 
REMARK   15  A    between atoms: C25_36  and  N5_37 
REMARK   16  A    between atoms: N5_37  and  C26_39 
ROOT
HETATM    1  C9  UNL     1      18.647  27.097  11.393  1.00  0.00     0.077 A 
HETATM    2  C10 UNL     1      18.758  28.123  12.289  1.00  0.00     0.043 A 
HETATM    3  C11 UNL     1      17.833  29.143  12.302  1.00  0.00     0.034 A 
HETATM    4  C24 UNL     1      16.802  29.093  11.391  1.00  0.00     0.110 A 
HETATM    5  N4  UNL     1      16.704  28.096  10.531  1.00  0.00    -0.350 N 
ATOM      6  H4  UNL     1      15.927  28.092   9.870  1.00  0.00     0.166 HD
HETATM    7  C25 UNL     1      17.602  27.075  10.492  1.00  0.00     0.122 A 
ENDROOT
BRANCH   3   8
HETATM    8  C12 UNL     1      17.965  30.211  13.247  1.00  0.00    -0.060 C 
HETATM    9  C13 UNL     1      18.090  31.101  14.056  1.00  0.00    -0.057 C 
BRANCH   9  10
HETATM   10  C14 UNL     1      18.258  32.153  15.039  1.00  0.00     0.073 A 
HETATM   11  C15 UNL     1      19.478  32.789  15.110  1.00  0.00     0.093 A 
HETATM   12  C17 UNL     1      19.618  33.788  16.049  1.00  0.00     0.094 A 
HETATM   13  C18 UNL     1      18.573  34.128  16.879  1.00  0.00     0.145 A 
HETATM   14  N3  UNL     1      17.394  33.478  16.773  1.00  0.00    -0.339 N 
HETATM   15  C22 UNL     1      17.203  32.502  15.880  1.00  0.00     0.029 A 
ATOM     16  H3  UNL     1      16.628  33.739  17.393  1.00  0.00     0.168 HD
HETATM   17  C23 UNL     1      15.918  31.760  15.733  1.00  0.00     0.070 C 
BRANCH  11  18
HETATM   18  O3  UNL     1      20.528  32.442  14.272  1.00  0.00    -0.354 OA
HETATM   19  C16 UNL     1      21.866  32.741  14.534  1.00  0.00     0.210 C 
ENDBRANCH  11  18
BRANCH  13  20
HETATM   20  O4  UNL     1      18.689  35.137  17.839  1.00  0.00    -0.334 OA
BRANCH  20  21
HETATM   21  C19 UNL     1      19.740  36.061  17.825  1.00  0.00     0.203 C 
BRANCH  21  22
HETATM   22  C20 UNL     1      19.386  37.321  18.597  1.00  0.00     0.193 C 
BRANCH  22  23
HETATM   23  O5  UNL     1      20.549  37.948  19.039  1.00  0.00    -0.394 OA
HETATM   24  C21 UNL     1      21.510  37.870  18.036  1.00  0.00     0.201 C 
ENDBRANCH  22  23
ENDBRANCH  21  22
ENDBRANCH  20  21
ENDBRANCH  13  20
ENDBRANCH   9  10
ENDBRANCH   3   8
BRANCH   1  25
HETATM   25  C8  UNL     1      19.612  26.020  11.343  1.00  0.00     0.257 C 
HETATM   26  N1  UNL     1      21.014  26.151  11.215  1.00  0.00    -0.347 N 
HETATM   27  O2  UNL     1      19.131  24.829  11.425  1.00  0.00    -0.267 OA
BRANCH  26  28
HETATM   28  C4  UNL     1      21.790  24.931  11.206  1.00  0.00     0.130 C 
BRANCH  28  29
HETATM   29  C3  UNL     1      22.335  24.519   9.887  1.00  0.00     0.046 C 
BRANCH  29  30
HETATM   30  C2  UNL     1      23.774  24.921   9.874  1.00  0.00    -0.035 C 
HETATM   31  C1  UNL     1      24.233  25.919   9.139  1.00  0.00     0.007 C 
ENDBRANCH  29  30
ENDBRANCH  28  29
ENDBRANCH  26  28
BRANCH  26  32
HETATM   32  C5  UNL     1      21.624  27.439  11.104  1.00  0.00     0.135 C 
BRANCH  32  33
HETATM   33  C6  UNL     1      22.586  27.823  12.173  1.00  0.00     0.119 C 
BRANCH  33  34
HETATM   34  C7  UNL     1      22.063  29.038  12.870  1.00  0.00     0.232 C 
HETATM   35  N2  UNL     1      21.942  29.106  14.281  1.00  0.00    -0.062 NA
HETATM   36  O1  UNL     1      21.717  30.032  12.193  1.00  0.00    -0.277 OA
ENDBRANCH  33  34
ENDBRANCH  32  33
ENDBRANCH  26  32
ENDBRANCH   1  25
BRANCH   7  37
HETATM   37  N5  UNL     1      17.470  26.030   9.538  1.00  0.00    -0.328 N 
ATOM     38  H5  UNL     1      16.842  25.253   9.744  1.00  0.00     0.169 HD
BRANCH  37  39
HETATM   39  C26 UNL     1      18.104  26.028   8.439  1.00  0.00     0.107 A 
HETATM   40  C27 UNL     1      17.854  27.010   7.469  1.00  0.00     0.055 A 
HETATM   41  C28 UNL     1      18.516  27.042   6.269  1.00  0.00    -0.057 A 
HETATM   42  C29 UNL     1      18.206  28.108   5.284  1.00  0.00     0.048 C 
HETATM   43  C30 UNL     1      19.468  26.088   5.976  1.00  0.00     0.031 A 
HETATM   44  C31 UNL     1      19.701  25.131   6.939  1.00  0.00     0.007 A 
HETATM   45  C32 UNL     1      20.729  24.074   6.662  1.00  0.00     0.068 C 
HETATM   46  N6  UNL     1      19.032  25.122   8.120  1.00  0.00    -0.346 N 
ATOM     47  H6  UNL     1      19.246  24.388   8.795  1.00  0.00     0.167 HD
ENDBRANCH  37  39
ENDBRANCH   7  37
TORSDOF 16
ENDMDL
MODEL 5
REMARK VINA RESULT: -8.060345041      1.239      1.916
REMARK  16 active torsions:
REMARK  status: ('A' for Active; 'I' for Inactive)
REMARK    1  A    between atoms: C2_2  and  C3_3 
REMARK    2  A    between atoms: C3_3  and  C4_4 
REMARK    3  A    between atoms: C4_4  and  N1_5 
REMARK    4  A    between atoms: N1_5  and  C5_6 
REMARK       I    between atoms: N1_5  and  C8_11 
REMARK    5  A    between atoms: C5_6  and  C6_7 
REMARK    6  A    between atoms: C6_7  and  C7_8 
REMARK    7  A    between atoms: C8_11  and  C9_13 
REMARK    8  A    between atoms: C11_15  and  C12_16 
REMARK    9  A    between atoms: C13_17  and  C14_18 
REMARK   10  A    between atoms: C15_19  and  O3_20 
REMARK   11  A    between atoms: C18_23  and  O4_24 
REMARK   12  A    between atoms: O4_24  and  C19_25 
REMARK   13  A    between atoms: C19_25  and  C20_26 
REMARK   14  A    between atoms: C20_26  and  O5_27 
REMARK   15  A    between atoms: C25_36  and  N5_37 
REMARK   16  A    between atoms: N5_37  and  C26_39 
ROOT
HETATM    1  C9  UNL     1      18.994  26.962  11.251  1.00  0.00     0.077 A 
HETATM    2  C10 UNL     1      19.099  27.959  12.180  1.00  0.00     0.043 A 
HETATM    3  C11 UNL     1      18.194  28.996  12.197  1.00  0.00     0.034 A 
HETATM    4  C24 UNL     1      17.189  28.994  11.255  1.00  0.00     0.110 A 
HETATM    5  N4  UNL     1      17.097  28.025  10.363  1.00  0.00    -0.350 N 
ATOM      6  H4  UNL     1      16.340  28.055   9.681  1.00  0.00     0.166 HD
HETATM    7  C25 UNL     1      17.976  26.987  10.320  1.00  0.00     0.122 A 
ENDROOT
BRANCH   3   8
HETATM    8  C12 UNL     1      18.318  30.033  13.177  1.00  0.00    -0.060 C 
HETATM    9  C13 UNL     1      18.439  30.917  13.994  1.00  0.00    -0.057 C 
BRANCH   9  10
HETATM   10  C14 UNL     1      18.602  31.988  14.956  1.00  0.00     0.073 A 
HETATM   11  C15 UNL     1      19.775  32.710  14.934  1.00  0.00     0.093 A 
HETATM   12  C17 UNL     1      19.911  33.725  15.856  1.00  0.00     0.094 A 
HETATM   13  C18 UNL     1      18.908  34.000  16.758  1.00  0.00     0.145 A 
HETATM   14  N3  UNL     1      17.774  33.266  16.742  1.00  0.00    -0.339 N 
HETATM   15  C22 UNL     1      17.589  32.270  15.870  1.00  0.00     0.029 A 
ATOM     16  H3  UNL     1      17.038  33.479  17.414  1.00  0.00     0.168 HD
HETATM   17  C23 UNL     1      16.353  31.438  15.821  1.00  0.00     0.070 C 
BRANCH  11  18
HETATM   18  O3  UNL     1      20.784  32.429  14.024  1.00  0.00    -0.354 OA
HETATM   19  C16 UNL     1      22.142  32.635  14.276  1.00  0.00     0.210 C 
ENDBRANCH  11  18
BRANCH  13  20
HETATM   20  O4  UNL     1      19.021  35.024  17.701  1.00  0.00    -0.334 OA
BRANCH  20  21
HETATM   21  C19 UNL     1      20.262  35.505  18.133  1.00  0.00     0.203 C 
BRANCH  21  22
HETATM   22  C20 UNL     1      20.384  37.005  17.922  1.00  0.00     0.193 C 
BRANCH  22  23
HETATM   23  O5  UNL     1      20.068  37.677  19.101  1.00  0.00    -0.394 OA
HETATM   24  C21 UNL     1      19.130  38.664  18.816  1.00  0.00     0.201 C 
ENDBRANCH  22  23
ENDBRANCH  21  22
ENDBRANCH  20  21
ENDBRANCH  13  20
ENDBRANCH   9  10
ENDBRANCH   3   8
BRANCH   1  25
HETATM   25  C8  UNL     1      19.940  25.868  11.196  1.00  0.00     0.257 C 
HETATM   26  N1  UNL     1      21.347  25.974  11.106  1.00  0.00    -0.347 N 
HETATM   27  O2  UNL     1      19.435  24.685  11.235  1.00  0.00    -0.267 OA
BRANCH  26  28
HETATM   28  C4  UNL     1      22.100  24.740  11.084  1.00  0.00     0.130 C 
BRANCH  28  29
HETATM   29  C3  UNL     1      23.368  24.768  10.311  1.00  0.00     0.046 C 
BRANCH  29  30
HETATM   30  C2  UNL     1      22.995  24.603   8.873  1.00  0.00    -0.035 C 
HETATM   31  C1  UNL     1      23.761  25.025   7.881  1.00  0.00     0.007 C 
ENDBRANCH  29  30
ENDBRANCH  28  29
ENDBRANCH  26  28
BRANCH  26  32
HETATM   32  C5  UNL     1      21.984  27.253  11.044  1.00  0.00     0.135 C 
BRANCH  32  33
HETATM   33  C6  UNL     1      22.805  27.654  12.219  1.00  0.00     0.119 C 
BRANCH  33  34
HETATM   34  C7  UNL     1      22.194  28.873  12.831  1.00  0.00     0.232 C 
HETATM   35  N2  UNL     1      21.946  28.976  14.224  1.00  0.00    -0.062 NA
HETATM   36  O1  UNL     1      21.887  29.840  12.098  1.00  0.00    -0.277 OA
ENDBRANCH  33  34
ENDBRANCH  32  33
ENDBRANCH  26  32
ENDBRANCH   1  25
BRANCH   7  37
HETATM   37  N5  UNL     1      17.853  25.974   9.331  1.00  0.00    -0.328 N 
ATOM     38  H5  UNL     1      17.381  25.104   9.577  1.00  0.00     0.169 HD
BRANCH  37  39
HETATM   39  C26 UNL     1      18.306  26.112   8.154  1.00  0.00     0.107 A 
HETATM   40  C27 UNL     1      19.264  25.220   7.651  1.00  0.00     0.055 A 
HETATM   41  C28 UNL     1      19.781  25.333   6.386  1.00  0.00    -0.057 A 
HETATM   42  C29 UNL     1      20.793  24.357   5.911  1.00  0.00     0.048 C 
HETATM   43  C30 UNL     1      19.361  26.351   5.554  1.00  0.00     0.031 A 
HETATM   44  C31 UNL     1      18.419  27.217   6.064  1.00  0.00     0.007 A 
HETATM   45  C32 UNL     1      17.935  28.339   5.194  1.00  0.00     0.068 C 
HETATM   46  N6  UNL     1      17.925  27.083   7.321  1.00  0.00    -0.346 N 
ATOM     47  H6  UNL     1      17.229  27.755   7.645  1.00  0.00     0.167 HD
ENDBRANCH  37  39
ENDBRANCH   7  37
TORSDOF 16
ENDMDL
