MODEL 1
REMARK VINA RESULT: -8.917287842      0.000      0.000
REMARK  13 active torsions:
REMARK  status: ('A' for Active; 'I' for Inactive)
REMARK    1  A    between atoms: C2_2  and  C3_3 
REMARK    2  A    between atoms: C8_9  and  C9_10 
REMARK    3  A    between atoms: C8_9  and  C11_14 
REMARK    4  A    between atoms: C9_10  and  C10_11 
REMARK    5  A    between atoms: C12_15  and  C13_16 
REMARK    6  A    between atoms: C12_15  and  O6_21 
REMARK    7  A    between atoms: C13_16  and  C14_17 
REMARK    8  A    between atoms: C14_17  and  C15_18 
REMARK    9  A    between atoms: O6_21  and  C16_22 
REMARK   10  A    between atoms: C21_29  and  O9_30 
REMARK   11  A    between atoms: O9_30  and  C22_31 
REMARK   12  A    between atoms: C22_31  and  C23_33 
REMARK   13  A    between atoms: C23_33  and  C24_34 
ROOT
HETATM    1  C11 UNL     1      20.356  33.203  17.252  1.00  0.00     0.023 C 
HETATM    2  C12 UNL     1      19.385  34.211  17.450  1.00  0.00     0.045 C 
ENDROOT
BRANCH   2   3
HETATM    3  C13 UNL     1      17.936  34.000  17.640  1.00  0.00     0.074 C 
BRANCH   3   4
HETATM    4  C14 UNL     1      17.029  35.163  17.329  1.00  0.00     0.119 C 
BRANCH   4   5
HETATM    5  C15 UNL     1      16.012  35.214  18.425  1.00  0.00     0.172 C 
HETATM    6  O4  UNL     1      15.403  34.195  18.840  1.00  0.00    -0.648 OA
HETATM    7  O5  UNL     1      15.718  36.434  19.016  1.00  0.00    -0.648 OA
ENDBRANCH   4   5
ENDBRANCH   3   4
ENDBRANCH   2   3
BRANCH   2   8
HETATM    8  O6  UNL     1      19.860  35.160  18.407  1.00  0.00    -0.343 OA
BRANCH   8   9
HETATM    9  C16 UNL     1      21.184  35.370  18.485  1.00  0.00     0.202 C 
HETATM   10  C17 UNL     1      21.556  35.887  19.812  1.00  0.00     0.156 C 
HETATM   11  O7  UNL     1      20.659  35.949  20.627  1.00  0.00    -0.295 OA
HETATM   12  C18 UNL     1      22.856  36.368  20.370  1.00  0.00     0.083 C 
HETATM   13  C19 UNL     1      22.875  37.870  20.204  1.00  0.00     0.040 C 
HETATM   14  C20 UNL     1      21.861  38.207  19.134  1.00  0.00     0.134 C 
HETATM   15  O8  UNL     1      22.103  39.463  18.513  1.00  0.00    -0.354 OA
HETATM   16  C26 UNL     1      22.303  37.583  17.861  1.00  0.00     0.077 C 
HETATM   17  C21 UNL     1      21.660  38.863  17.302  1.00  0.00     0.276 C 
HETATM   18  C27 UNL     1      21.685  36.338  17.408  1.00  0.00     0.030 C 
HETATM   19  C28 UNL     1      22.688  35.646  16.476  1.00  0.00     0.014 C 
BRANCH  17  20
HETATM   20  O9  UNL     1      22.291  39.400  16.165  1.00  0.00    -0.289 OA
BRANCH  20  21
HETATM   21  C22 UNL     1      21.454  39.943  15.168  1.00  0.00     0.261 C 
HETATM   22  O10 UNL     1      20.199  39.916  15.363  1.00  0.00    -0.265 OA
BRANCH  21  23
HETATM   23  C23 UNL     1      22.080  40.516  13.955  1.00  0.00     0.111 C 
BRANCH  23  24
HETATM   24  C24 UNL     1      21.787  39.534  12.820  1.00  0.00     0.005 C 
HETATM   25  C25 UNL     1      22.878  39.642  11.770  1.00  0.00     0.005 C 
ENDBRANCH  23  24
ENDBRANCH  21  23
ENDBRANCH  20  21
ENDBRANCH  17  20
ENDBRANCH   8   9
ENDBRANCH   2   8
BRANCH   1  26
HETATM   26  C8  UNL     1      20.599  32.178  16.206  1.00  0.00     0.051 C 
HETATM   27  C7  UNL     1      20.480  33.072  14.884  1.00  0.00     0.034 C 
HETATM   28  C6  UNL     1      19.246  32.926  14.147  1.00  0.00     0.059 C 
HETATM   29  C5  UNL     1      19.451  31.838  13.113  1.00  0.00     0.144 C 
HETATM   30  C32 UNL     1      18.026  32.417  14.815  1.00  0.00     0.030 C 
HETATM   31  C3  UNL     1      18.958  30.582  13.732  1.00  0.00     0.048 C 
HETATM   32  O1  UNL     1      19.914  31.927  12.007  1.00  0.00    -0.296 OA
HETATM   33  C4  UNL     1      19.961  29.483  13.743  1.00  0.00     0.029 C 
HETATM   34  C30 UNL     1      18.494  31.012  15.114  1.00  0.00     0.036 C 
HETATM   35  C29 UNL     1      19.605  31.121  16.101  1.00  0.00     0.149 C 
HETATM   36  C31 UNL     1      17.382  30.109  15.534  1.00  0.00     0.025 C 
HETATM   37  O11 UNL     1      19.576  30.136  16.871  1.00  0.00    -0.296 OA
BRANCH  31  38
HETATM   38  C2  UNL     1      17.754  30.076  12.994  1.00  0.00    -0.019 C 
HETATM   39  C1  UNL     1      17.834  29.175  12.044  1.00  0.00     0.008 C 
ENDBRANCH  31  38
BRANCH  26  40
HETATM   40  C9  UNL     1      22.031  31.777  16.093  1.00  0.00     0.134 C 
BRANCH  40  41
HETATM   41  C10 UNL     1      22.818  31.828  14.917  1.00  0.00     0.173 C 
HETATM   42  O2  UNL     1      22.703  31.132  13.883  1.00  0.00    -0.648 OA
HETATM   43  O3  UNL     1      23.908  32.759  14.798  1.00  0.00    -0.648 OA
ENDBRANCH  40  41
ENDBRANCH  26  40
ENDBRANCH   1  26
TORSDOF 13
ENDMDL
MODEL 2
REMARK VINA RESULT: -8.870242140      2.369      4.056
REMARK  13 active torsions:
REMARK  status: ('A' for Active; 'I' for Inactive)
REMARK    1  A    between atoms: C2_2  and  C3_3 
REMARK    2  A    between atoms: C8_9  and  C9_10 
REMARK    3  A    between atoms: C8_9  and  C11_14 
REMARK    4  A    between atoms: C9_10  and  C10_11 
REMARK    5  A    between atoms: C12_15  and  C13_16 
REMARK    6  A    between atoms: C12_15  and  O6_21 
REMARK    7  A    between atoms: C13_16  and  C14_17 
REMARK    8  A    between atoms: C14_17  and  C15_18 
REMARK    9  A    between atoms: O6_21  and  C16_22 
REMARK   10  A    between atoms: C21_29  and  O9_30 
REMARK   11  A    between atoms: O9_30  and  C22_31 
REMARK   12  A    between atoms: C22_31  and  C23_33 
REMARK   13  A    between atoms: C23_33  and  C24_34 
ROOT
HETATM    1  C11 UNL     1      20.069  32.726  15.693  1.00  0.00     0.023 C 
HETATM    2  C12 UNL     1      18.690  32.945  15.914  1.00  0.00     0.045 C 
ENDROOT
BRANCH   2   3
HETATM    3  C13 UNL     1      17.836  32.220  16.876  1.00  0.00     0.074 C 
BRANCH   3   4
HETATM    4  C14 UNL     1      16.709  31.398  16.305  1.00  0.00     0.119 C 
BRANCH   4   5
HETATM    5  C15 UNL     1      15.532  32.314  16.187  1.00  0.00     0.172 C 
HETATM    6  O4  UNL     1      15.059  32.679  15.081  1.00  0.00    -0.648 OA
HETATM    7  O5  UNL     1      14.928  32.788  17.341  1.00  0.00    -0.648 OA
ENDBRANCH   4   5
ENDBRANCH   3   4
ENDBRANCH   2   3
BRANCH   2   8
HETATM    8  O6  UNL     1      18.430  34.347  16.004  1.00  0.00    -0.343 OA
BRANCH   8   9
HETATM    9  C16 UNL     1      17.946  34.826  17.163  1.00  0.00     0.202 C 
HETATM   10  C17 UNL     1      16.776  35.686  16.926  1.00  0.00     0.156 C 
HETATM   11  O7  UNL     1      16.388  35.750  15.779  1.00  0.00    -0.295 OA
HETATM   12  C18 UNL     1      15.948  36.524  17.845  1.00  0.00     0.083 C 
HETATM   13  C19 UNL     1      16.511  37.927  17.785  1.00  0.00     0.040 C 
HETATM   14  C20 UNL     1      17.921  37.812  17.251  1.00  0.00     0.134 C 
HETATM   15  O8  UNL     1      18.739  38.922  17.597  1.00  0.00    -0.354 OA
HETATM   16  C26 UNL     1      18.722  37.022  18.219  1.00  0.00     0.077 C 
HETATM   17  C21 UNL     1      19.808  37.993  17.731  1.00  0.00     0.276 C 
HETATM   18  C27 UNL     1      18.998  35.611  17.954  1.00  0.00     0.030 C 
HETATM   19  C28 UNL     1      19.276  34.940  19.306  1.00  0.00     0.014 C 
BRANCH  17  20
HETATM   20  O9  UNL     1      20.745  38.379  18.706  1.00  0.00    -0.289 OA
BRANCH  20  21
HETATM   21  C22 UNL     1      21.951  37.646  18.758  1.00  0.00     0.261 C 
HETATM   22  O10 UNL     1      22.395  37.154  17.674  1.00  0.00    -0.265 OA
BRANCH  21  23
HETATM   23  C23 UNL     1      22.630  37.494  20.064  1.00  0.00     0.111 C 
BRANCH  23  24
HETATM   24  C24 UNL     1      22.680  35.993  20.347  1.00  0.00     0.005 C 
HETATM   25  C25 UNL     1      23.795  35.706  21.338  1.00  0.00     0.005 C 
ENDBRANCH  23  24
ENDBRANCH  21  23
ENDBRANCH  20  21
ENDBRANCH  17  20
ENDBRANCH   8   9
ENDBRANCH   2   8
BRANCH   1  26
HETATM   26  C8  UNL     1      20.880  31.582  15.204  1.00  0.00     0.051 C 
HETATM   27  C7  UNL     1      21.067  31.989  13.667  1.00  0.00     0.034 C 
HETATM   28  C6  UNL     1      20.243  31.262  12.730  1.00  0.00     0.059 C 
HETATM   29  C5  UNL     1      21.028  30.053  12.265  1.00  0.00     0.144 C 
HETATM   30  C32 UNL     1      18.996  30.600  13.179  1.00  0.00     0.030 C 
HETATM   31  C3  UNL     1      20.613  28.929  13.142  1.00  0.00     0.048 C 
HETATM   32  O1  UNL     1      21.832  29.973  11.374  1.00  0.00    -0.296 OA
HETATM   33  C4  UNL     1      21.748  28.252  13.828  1.00  0.00     0.029 C 
HETATM   34  C30 UNL     1      19.602  29.556  14.088  1.00  0.00     0.036 C 
HETATM   35  C29 UNL     1      20.232  30.280  15.228  1.00  0.00     0.149 C 
HETATM   36  C31 UNL     1      18.625  28.503  14.490  1.00  0.00     0.025 C 
HETATM   37  O11 UNL     1      20.129  29.591  16.266  1.00  0.00    -0.296 OA
BRANCH  31  38
HETATM   38  C2  UNL     1      19.890  27.885  12.344  1.00  0.00    -0.019 C 
HETATM   39  C1  UNL     1      20.503  26.859  11.803  1.00  0.00     0.008 C 
ENDBRANCH  31  38
BRANCH  26  40
HETATM   40  C9  UNL     1      22.305  31.640  15.639  1.00  0.00     0.134 C 
BRANCH  40  41
HETATM   41  C10 UNL     1      23.158  32.765  15.545  1.00  0.00     0.173 C 
HETATM   42  O2  UNL     1      23.099  33.834  16.194  1.00  0.00    -0.648 OA
HETATM   43  O3  UNL     1      24.259  32.781  14.619  1.00  0.00    -0.648 OA
ENDBRANCH  40  41
ENDBRANCH  26  40
ENDBRANCH   1  26
TORSDOF 13
ENDMDL
MODEL 3
REMARK VINA RESULT: -8.693995125      1.560      3.055
REMARK  13 active torsions:
REMARK  status: ('A' for Active; 'I' for Inactive)
REMARK    1  A    between atoms: C2_2  and  C3_3 
REMARK    2  A    between atoms: C8_9  and  C9_10 
REMARK    3  A    between atoms: C8_9  and  C11_14 
REMARK    4  A    between atoms: C9_10  and  C10_11 
REMARK    5  A    between atoms: C12_15  and  C13_16 
REMARK    6  A    between atoms: C12_15  and  O6_21 
REMARK    7  A    between atoms: C13_16  and  C14_17 
REMARK    8  A    between atoms: C14_17  and  C15_18 
REMARK    9  A    between atoms: O6_21  and  C16_22 
REMARK   10  A    between atoms: C21_29  and  O9_30 
REMARK   11  A    between atoms: O9_30  and  C22_31 
REMARK   12  A    between atoms: C22_31  and  C23_33 
REMARK   13  A    between atoms: C23_33  and  C24_34 
ROOT
HETATM    1  C11 UNL     1      18.515  32.960  17.077  1.00  0.00     0.023 C 
HETATM    2  C12 UNL     1      18.588  34.372  17.088  1.00  0.00     0.045 C 
ENDROOT
BRANCH   2   3
HETATM    3  C13 UNL     1      17.496  35.304  16.742  1.00  0.00     0.074 C 
BRANCH   3   4
HETATM    4  C14 UNL     1      16.887  36.093  17.874  1.00  0.00     0.119 C 
BRANCH   4   5
HETATM    5  C15 UNL     1      15.597  35.417  18.217  1.00  0.00     0.172 C 
HETATM    6  O4  UNL     1      15.520  34.468  19.039  1.00  0.00    -0.648 OA
HETATM    7  O5  UNL     1      14.428  35.846  17.607  1.00  0.00    -0.648 OA
ENDBRANCH   4   5
ENDBRANCH   3   4
ENDBRANCH   2   3
BRANCH   2   8
HETATM    8  O6  UNL     1      19.235  34.814  18.283  1.00  0.00    -0.343 OA
BRANCH   8   9
HETATM    9  C16 UNL     1      20.578  34.856  18.296  1.00  0.00     0.202 C 
HETATM   10  C17 UNL     1      21.079  35.196  19.637  1.00  0.00     0.156 C 
HETATM   11  O7  UNL     1      20.240  35.286  20.509  1.00  0.00    -0.295 OA
HETATM   12  C18 UNL     1      22.455  35.461  20.154  1.00  0.00     0.083 C 
HETATM   13  C19 UNL     1      22.654  36.959  20.121  1.00  0.00     0.040 C 
HETATM   14  C20 UNL     1      21.636  37.516  19.150  1.00  0.00     0.134 C 
HETATM   15  O8  UNL     1      22.001  38.788  18.629  1.00  0.00    -0.354 OA
HETATM   16  C26 UNL     1      21.932  36.968  17.802  1.00  0.00     0.077 C 
HETATM   17  C21 UNL     1      21.425  38.363  17.400  1.00  0.00     0.276 C 
HETATM   18  C27 UNL     1      21.140  35.856  17.280  1.00  0.00     0.030 C 
HETATM   19  C28 UNL     1      22.000  35.140  16.229  1.00  0.00     0.014 C 
BRANCH  17  20
HETATM   20  O9  UNL     1      22.060  38.927  16.278  1.00  0.00    -0.289 OA
BRANCH  20  21
HETATM   21  C22 UNL     1      21.263  39.721  15.426  1.00  0.00     0.261 C 
HETATM   22  O10 UNL     1      20.013  39.761  15.647  1.00  0.00    -0.265 OA
BRANCH  21  23
HETATM   23  C23 UNL     1      21.924  40.464  14.330  1.00  0.00     0.111 C 
BRANCH  23  24
HETATM   24  C24 UNL     1      21.780  39.596  13.080  1.00  0.00     0.005 C 
HETATM   25  C25 UNL     1      22.829  40.006  12.061  1.00  0.00     0.005 C 
ENDBRANCH  23  24
ENDBRANCH  21  23
ENDBRANCH  20  21
ENDBRANCH  17  20
ENDBRANCH   8   9
ENDBRANCH   2   8
BRANCH   1  26
HETATM   26  C8  UNL     1      18.276  31.935  16.030  1.00  0.00     0.051 C 
HETATM   27  C7  UNL     1      18.889  30.639  16.742  1.00  0.00     0.034 C 
HETATM   28  C6  UNL     1      20.186  30.223  16.262  1.00  0.00     0.059 C 
HETATM   29  C5  UNL     1      19.967  29.221  15.146  1.00  0.00     0.144 C 
HETATM   30  C32 UNL     1      21.077  31.184  15.570  1.00  0.00     0.030 C 
HETATM   31  C3  UNL     1      20.005  29.997  13.881  1.00  0.00     0.048 C 
HETATM   32  O1  UNL     1      19.792  28.034  15.223  1.00  0.00    -0.296 OA
HETATM   33  C4  UNL     1      18.797  29.820  13.031  1.00  0.00     0.029 C 
HETATM   34  C30 UNL     1      20.240  31.428  14.336  1.00  0.00     0.036 C 
HETATM   35  C29 UNL     1      18.996  32.117  14.778  1.00  0.00     0.149 C 
HETATM   36  C31 UNL     1      20.991  32.141  13.260  1.00  0.00     0.025 C 
HETATM   37  O11 UNL     1      18.624  32.916  13.892  1.00  0.00    -0.296 OA
BRANCH  31  38
HETATM   38  C2  UNL     1      21.191  29.590  13.058  1.00  0.00    -0.019 C 
HETATM   39  C1  UNL     1      21.109  28.709  12.088  1.00  0.00     0.008 C 
ENDBRANCH  31  38
BRANCH  26  40
HETATM   40  C9  UNL     1      16.852  31.504  15.939  1.00  0.00     0.134 C 
BRANCH  40  41
HETATM   41  C10 UNL     1      15.720  32.344  16.053  1.00  0.00     0.173 C 
HETATM   42  O2  UNL     1      15.418  33.331  15.345  1.00  0.00    -0.648 OA
HETATM   43  O3  UNL     1      14.735  32.121  17.078  1.00  0.00    -0.648 OA
ENDBRANCH  40  41
ENDBRANCH  26  40
ENDBRANCH   1  26
TORSDOF 13
ENDMDL
MODEL 4
REMARK VINA RESULT: -8.691651469      2.554      9.164
REMARK  13 active torsions:
REMARK  status: ('A' for Active; 'I' for Inactive)
REMARK    1  A    between atoms: C2_2  and  C3_3 
REMARK    2  A    between atoms: C8_9  and  C9_10 
REMARK    3  A    between atoms: C8_9  and  C11_14 
REMARK    4  A    between atoms: C9_10  and  C10_11 
REMARK    5  A    between atoms: C12_15  and  C13_16 
REMARK    6  A    between atoms: C12_15  and  O6_21 
REMARK    7  A    between atoms: C13_16  and  C14_17 
REMARK    8  A    between atoms: C14_17  and  C15_18 
REMARK    9  A    between atoms: O6_21  and  C16_22 
REMARK   10  A    between atoms: C21_29  and  O9_30 
REMARK   11  A    between atoms: O9_30  and  C22_31 
REMARK   12  A    between atoms: C22_31  and  C23_33 
REMARK   13  A    between atoms: C23_33  and  C24_34 
ROOT
HETATM    1  C11 UNL     1      19.435  32.934  16.661  1.00  0.00     0.023 C 
HETATM    2  C12 UNL     1      20.443  32.188  16.009  1.00  0.00     0.045 C 
ENDROOT
BRANCH   2   3
HETATM    3  C13 UNL     1      21.808  31.939  16.515  1.00  0.00     0.074 C 
BRANCH   3   4
HETATM    4  C14 UNL     1      22.841  31.496  15.509  1.00  0.00     0.119 C 
BRANCH   4   5
HETATM    5  C15 UNL     1      23.346  32.737  14.844  1.00  0.00     0.172 C 
HETATM    6  O4  UNL     1      22.836  33.206  13.795  1.00  0.00    -0.648 OA
HETATM    7  O5  UNL     1      24.424  33.409  15.400  1.00  0.00    -0.648 OA
ENDBRANCH   4   5
ENDBRANCH   3   4
ENDBRANCH   2   3
BRANCH   2   8
HETATM    8  O6  UNL     1      19.894  30.973  15.497  1.00  0.00    -0.343 OA
BRANCH   8   9
HETATM    9  C16 UNL     1      19.407  30.978  14.245  1.00  0.00     0.202 C 
HETATM   10  C17 UNL     1      18.091  30.322  14.191  1.00  0.00     0.156 C 
HETATM   11  O7  UNL     1      17.626  29.979  15.258  1.00  0.00    -0.295 OA
HETATM   12  C18 UNL     1      17.187  29.982  13.051  1.00  0.00     0.083 C 
HETATM   13  C19 UNL     1      17.488  28.551  12.665  1.00  0.00     0.040 C 
HETATM   14  C20 UNL     1      18.860  28.228  13.213  1.00  0.00     0.134 C 
HETATM   15  O8  UNL     1      19.490  27.148  12.535  1.00  0.00    -0.354 OA
HETATM   16  C26 UNL     1      19.847  29.115  12.548  1.00  0.00     0.077 C 
HETATM   17  C21 UNL     1      20.712  27.854  12.707  1.00  0.00     0.276 C 
HETATM   18  C27 UNL     1      20.351  30.296  13.249  1.00  0.00     0.030 C 
HETATM   19  C28 UNL     1      20.827  31.289  12.181  1.00  0.00     0.014 C 
BRANCH  17  20
HETATM   20  O9  UNL     1      21.626  27.623  11.663  1.00  0.00    -0.289 OA
BRANCH  20  21
HETATM   21  C22 UNL     1      22.664  26.701  11.916  1.00  0.00     0.261 C 
HETATM   22  O10 UNL     1      22.360  25.470  12.001  1.00  0.00    -0.265 OA
BRANCH  21  23
HETATM   23  C23 UNL     1      24.044  27.214  12.066  1.00  0.00     0.111 C 
BRANCH  23  24
HETATM   24  C24 UNL     1      24.948  26.227  11.328  1.00  0.00     0.005 C 
HETATM   25  C25 UNL     1      24.659  26.299   9.839  1.00  0.00     0.005 C 
ENDBRANCH  23  24
ENDBRANCH  21  23
ENDBRANCH  20  21
ENDBRANCH  17  20
ENDBRANCH   8   9
ENDBRANCH   2   8
BRANCH   1  26
HETATM   26  C8  UNL     1      19.292  34.349  17.085  1.00  0.00     0.051 C 
HETATM   27  C7  UNL     1      20.349  35.057  16.113  1.00  0.00     0.034 C 
HETATM   28  C6  UNL     1      21.598  35.437  16.728  1.00  0.00     0.059 C 
HETATM   29  C5  UNL     1      21.454  36.860  17.227  1.00  0.00     0.144 C 
HETATM   30  C32 UNL     1      22.057  34.776  17.973  1.00  0.00     0.030 C 
HETATM   31  C3  UNL     1      21.051  36.760  18.652  1.00  0.00     0.048 C 
HETATM   32  O1  UNL     1      21.621  37.889  16.627  1.00  0.00    -0.296 OA
HETATM   33  C4  UNL     1      19.799  37.497  18.975  1.00  0.00     0.029 C 
HETATM   34  C30 UNL     1      20.973  35.264  18.907  1.00  0.00     0.036 C 
HETATM   35  C29 UNL     1      19.693  34.654  18.449  1.00  0.00     0.149 C 
HETATM   36  C31 UNL     1      21.295  35.018  20.343  1.00  0.00     0.025 C 
HETATM   37  O11 UNL     1      18.965  34.423  19.439  1.00  0.00    -0.296 OA
BRANCH  31  38
HETATM   38  C2  UNL     1      22.130  37.308  19.538  1.00  0.00    -0.019 C 
HETATM   39  C1  UNL     1      22.366  38.594  19.650  1.00  0.00     0.008 C 
ENDBRANCH  31  38
BRANCH  26  40
HETATM   40  C9  UNL     1      18.043  34.992  16.584  1.00  0.00     0.134 C 
BRANCH  40  41
HETATM   41  C10 UNL     1      16.769  34.382  16.502  1.00  0.00     0.173 C 
HETATM   42  O2  UNL     1      16.047  34.239  15.489  1.00  0.00    -0.648 OA
HETATM   43  O3  UNL     1      16.140  33.827  17.670  1.00  0.00    -0.648 OA
ENDBRANCH  40  41
ENDBRANCH  26  40
ENDBRANCH   1  26
TORSDOF 13
ENDMDL
MODEL 5
REMARK VINA RESULT: -8.637379928      0.822      1.371
REMARK  13 active torsions:
REMARK  status: ('A' for Active; 'I' for Inactive)
REMARK    1  A    between atoms: C2_2  and  C3_3 
REMARK    2  A    between atoms: C8_9  and  C9_10 
REMARK    3  A    between atoms: C8_9  and  C11_14 
REMARK    4  A    between atoms: C9_10  and  C10_11 
REMARK    5  A    between atoms: C12_15  and  C13_16 
REMARK    6  A    between atoms: C12_15  and  O6_21 
REMARK    7  A    between atoms: C13_16  and  C14_17 
REMARK    8  A    between atoms: C14_17  and  C15_18 
REMARK    9  A    between atoms: O6_21  and  C16_22 
REMARK   10  A    between atoms: C21_29  and  O9_30 
REMARK   11  A    between atoms: O9_30  and  C22_31 
REMARK   12  A    between atoms: C22_31  and  C23_33 
REMARK   13  A    between atoms: C23_33  and  C24_34 
ROOT
HETATM    1  C11 UNL     1      20.368  33.106  17.319  1.00  0.00     0.023 C 
HETATM    2  C12 UNL     1      19.433  34.146  17.532  1.00  0.00     0.045 C 
ENDROOT
BRANCH   2   3
HETATM    3  C13 UNL     1      17.970  33.991  17.652  1.00  0.00     0.074 C 
BRANCH   3   4
HETATM    4  C14 UNL     1      17.119  35.144  17.182  1.00  0.00     0.119 C 
BRANCH   4   5
HETATM    5  C15 UNL     1      15.969  35.239  18.134  1.00  0.00     0.172 C 
HETATM    6  O4  UNL     1      15.563  34.263  18.815  1.00  0.00    -0.648 OA
HETATM    7  O5  UNL     1      15.313  36.452  18.278  1.00  0.00    -0.648 OA
ENDBRANCH   4   5
ENDBRANCH   3   4
ENDBRANCH   2   3
BRANCH   2   8
HETATM    8  O6  UNL     1      19.908  35.022  18.556  1.00  0.00    -0.343 OA
BRANCH   8   9
HETATM    9  C16 UNL     1      21.221  35.302  18.589  1.00  0.00     0.202 C 
HETATM   10  C17 UNL     1      21.607  35.853  19.898  1.00  0.00     0.156 C 
HETATM   11  O7  UNL     1      20.735  35.877  20.740  1.00  0.00    -0.295 OA
HETATM   12  C18 UNL     1      22.897  36.406  20.410  1.00  0.00     0.083 C 
HETATM   13  C19 UNL     1      22.832  37.906  20.228  1.00  0.00     0.040 C 
HETATM   14  C20 UNL     1      21.768  38.177  19.188  1.00  0.00     0.134 C 
HETATM   15  O8  UNL     1      21.924  39.437  18.548  1.00  0.00    -0.354 OA
HETATM   16  C26 UNL     1      22.203  37.563  17.908  1.00  0.00     0.077 C 
HETATM   17  C21 UNL     1      21.475  38.801  17.358  1.00  0.00     0.276 C 
HETATM   18  C27 UNL     1      21.636  36.283  17.487  1.00  0.00     0.030 C 
HETATM   19  C28 UNL     1      22.645  35.633  16.529  1.00  0.00     0.014 C 
BRANCH  17  20
HETATM   20  O9  UNL     1      22.042  39.357  16.196  1.00  0.00    -0.289 OA
BRANCH  20  21
HETATM   21  C22 UNL     1      21.146  39.825  15.211  1.00  0.00     0.261 C 
HETATM   22  O10 UNL     1      21.503  39.743  13.994  1.00  0.00    -0.265 OA
BRANCH  21  23
HETATM   23  C23 UNL     1      19.844  40.379  15.645  1.00  0.00     0.111 C 
BRANCH  23  24
HETATM   24  C24 UNL     1      20.114  41.825  16.062  1.00  0.00     0.005 C 
HETATM   25  C25 UNL     1      19.465  42.087  17.410  1.00  0.00     0.005 C 
ENDBRANCH  23  24
ENDBRANCH  21  23
ENDBRANCH  20  21
ENDBRANCH  17  20
ENDBRANCH   8   9
ENDBRANCH   2   8
BRANCH   1  26
HETATM   26  C8  UNL     1      20.610  32.126  16.231  1.00  0.00     0.051 C 
HETATM   27  C7  UNL     1      20.443  33.065  14.945  1.00  0.00     0.034 C 
HETATM   28  C6  UNL     1      19.198  32.920  14.229  1.00  0.00     0.059 C 
HETATM   29  C5  UNL     1      19.403  31.875  13.151  1.00  0.00     0.144 C 
HETATM   30  C32 UNL     1      18.002  32.361  14.902  1.00  0.00     0.030 C 
HETATM   31  C3  UNL     1      18.950  30.587  13.733  1.00  0.00     0.048 C 
HETATM   32  O1  UNL     1      19.841  32.015  12.040  1.00  0.00    -0.296 OA
HETATM   33  C4  UNL     1      19.976  29.510  13.682  1.00  0.00     0.029 C 
HETATM   34  C30 UNL     1      18.507  30.956  15.139  1.00  0.00     0.036 C 
HETATM   35  C29 UNL     1      19.636  31.052  16.106  1.00  0.00     0.149 C 
HETATM   36  C31 UNL     1      17.423  30.014  15.548  1.00  0.00     0.025 C 
HETATM   37  O11 UNL     1      19.644  30.039  16.839  1.00  0.00    -0.296 OA
BRANCH  31  38
HETATM   38  C2  UNL     1      17.741  30.083  13.002  1.00  0.00    -0.019 C 
HETATM   39  C1  UNL     1      17.816  29.187  12.046  1.00  0.00     0.008 C 
ENDBRANCH  31  38
BRANCH  26  40
HETATM   40  C9  UNL     1      22.047  31.761  16.073  1.00  0.00     0.134 C 
BRANCH  40  41
HETATM   41  C10 UNL     1      22.813  31.894  14.891  1.00  0.00     0.173 C 
HETATM   42  O2  UNL     1      22.686  31.267  13.815  1.00  0.00    -0.648 OA
HETATM   43  O3  UNL     1      23.895  32.839  14.815  1.00  0.00    -0.648 OA
ENDBRANCH  40  41
ENDBRANCH  26  40
ENDBRANCH   1  26
TORSDOF 13
ENDMDL
