MODEL 1
REMARK VINA RESULT: -8.260966731      0.000      0.000
REMARK  14 active torsions:
REMARK  status: ('A' for Active; 'I' for Inactive)
REMARK    1  A    between atoms: O1_2  and  C2_3 
REMARK    2  A    between atoms: C2_3  and  C3_4 
REMARK    3  A    between atoms: C3_4  and  N1_5 
REMARK       I    between atoms: N1_5  and  C4_7 
REMARK    4  A    between atoms: C4_7  and  C5_9 
REMARK    5  A    between atoms: C5_9  and  C6_10 
REMARK    6  A    between atoms: C6_10  and  C7_11 
REMARK    7  A    between atoms: N2_21  and  O4_23 
REMARK    8  A    between atoms: O4_23  and  C16_24 
REMARK    9  A    between atoms: C16_24  and  C17_25 
REMARK   10  A    between atoms: C17_25  and  N3_26 
REMARK   11  A    between atoms: C23_32  and  C25_34 
REMARK   12  A    between atoms: C25_34  and  O6_36 
REMARK   13  A    between atoms: O6_36  and  C26_37 
REMARK   14  A    between atoms: C29_40  and  O7_41 
ROOT
HETATM    1  C7  UNL     1      18.225  29.717  12.280  1.00  0.00     0.128 C 
HETATM    2  O3  UNL     1      19.421  29.422  11.650  1.00  0.00    -0.374 OA
HETATM    3  C8  UNL     1      20.430  30.111  12.390  1.00  0.00     0.062 C 
HETATM    4  C9  UNL     1      20.377  31.492  11.843  1.00  0.00     0.046 C 
HETATM    5  C10 UNL     1      21.704  29.526  11.784  1.00  0.00     0.046 C 
HETATM    6  C11 UNL     1      20.094  29.761  13.732  1.00  0.00     0.001 C 
HETATM    7  C12 UNL     1      20.490  28.270  13.880  1.00  0.00     0.019 C 
HETATM    8  C13 UNL     1      18.578  29.738  13.750  1.00  0.00     0.032 C 
HETATM    9  C14 UNL     1      17.901  30.907  14.365  1.00  0.00     0.063 C 
HETATM   10  C15 UNL     1      18.632  31.563  15.479  1.00  0.00     0.017 C 
HETATM   11  N2  UNL     1      17.992  31.868  16.526  1.00  0.00    -0.275 N 
ATOM     12  H2  UNL     1      18.504  32.318  17.285  1.00  0.00     0.193 HD
HETATM   13  C22 UNL     1      20.061  31.796  15.230  1.00  0.00     0.063 C 
HETATM   14  C23 UNL     1      20.821  32.680  16.101  1.00  0.00     0.080 C 
HETATM   15  C24 UNL     1      21.204  32.329  17.463  1.00  0.00     0.029 C 
HETATM   16  C29 UNL     1      22.140  32.888  15.322  1.00  0.00     0.137 C 
HETATM   17  C30 UNL     1      22.879  31.600  15.377  1.00  0.00     0.034 C 
HETATM   18  C31 UNL     1      22.118  30.350  15.124  1.00  0.00     0.013 C 
HETATM   19  C32 UNL     1      20.639  30.427  14.958  1.00  0.00    -0.023 C 
HETATM   20  C33 UNL     1      20.064  29.570  16.113  1.00  0.00     0.017 C 
ENDROOT
BRANCH   1  21
HETATM   21  C6  UNL     1      17.121  28.801  11.902  1.00  0.00     0.041 C 
BRANCH  21  22
HETATM   22  C5  UNL     1      17.395  27.797  10.846  1.00  0.00     0.105 C 
BRANCH  22  23
HETATM   23  C4  UNL     1      18.225  26.689  11.317  1.00  0.00     0.217 C 
HETATM   24  N1  UNL     1      19.455  26.403  10.683  1.00  0.00    -0.359 N 
ATOM     25  H1  UNL     1      19.747  26.983   9.896  1.00  0.00     0.162 HD
HETATM   26  O2  UNL     1      17.856  25.986  12.279  1.00  0.00    -0.274 OA
BRANCH  24  27
HETATM   27  C3  UNL     1      20.321  25.313  11.110  1.00  0.00     0.148 C 
BRANCH  27  28
HETATM   28  C2  UNL     1      21.714  25.802  11.349  1.00  0.00     0.186 C 
BRANCH  28  29
HETATM   29  O1  UNL     1      22.659  24.802  11.401  1.00  0.00    -0.394 OA
HETATM   30  C1  UNL     1      23.913  25.139  10.955  1.00  0.00     0.201 C 
ENDBRANCH  28  29
ENDBRANCH  27  28
ENDBRANCH  24  27
ENDBRANCH  22  23
ENDBRANCH  21  22
ENDBRANCH   1  21
BRANCH  11  31
HETATM   31  O4  UNL     1      16.652  31.632  16.706  1.00  0.00    -0.279 OA
BRANCH  31  32
HETATM   32  C16 UNL     1      15.683  32.566  16.350  1.00  0.00     0.231 C 
BRANCH  32  33
HETATM   33  C17 UNL     1      15.393  33.541  17.441  1.00  0.00     0.301 C 
BRANCH  33  34
HETATM   34  N3  UNL     1      15.175  34.886  16.995  1.00  0.00     0.090 N 
HETATM   35  C18 UNL     1      16.308  35.514  16.395  1.00  0.00     0.272 C 
HETATM   36  C19 UNL     1      16.355  36.929  16.947  1.00  0.00     0.032 C 
HETATM   37  C20 UNL     1      15.688  36.772  18.303  1.00  0.00     0.032 C 
HETATM   38  C21 UNL     1      14.621  35.744  17.996  1.00  0.00     0.272 C 
ENDBRANCH  33  34
ENDBRANCH  32  33
ENDBRANCH  31  32
ENDBRANCH  11  31
BRANCH  14  39
HETATM   39  C25 UNL     1      20.153  34.027  16.140  1.00  0.00     0.271 C 
HETATM   40  O5  UNL     1      19.202  34.281  15.357  1.00  0.00    -0.264 OA
BRANCH  39  41
HETATM   41  O6  UNL     1      20.520  35.034  17.000  1.00  0.00    -0.316 OA
BRANCH  41  42
HETATM   42  C26 UNL     1      19.632  35.820  17.758  1.00  0.00     0.123 C 
HETATM   43  C27 UNL     1      19.016  35.036  18.877  1.00  0.00     0.040 C 
HETATM   44  C28 UNL     1      20.242  37.059  18.325  1.00  0.00     0.040 C 
ENDBRANCH  41  42
ENDBRANCH  39  41
ENDBRANCH  14  39
BRANCH  16  45
HETATM   45  O7  UNL     1      22.884  33.875  15.947  1.00  0.00    -0.394 OA
ATOM     46  H7  UNL     1      22.812  34.681  15.449  1.00  0.00     0.210 HD
ENDBRANCH  16  45
TORSDOF 14
ENDMDL
MODEL 2
REMARK VINA RESULT: -8.116359851      1.923      8.716
REMARK  14 active torsions:
REMARK  status: ('A' for Active; 'I' for Inactive)
REMARK    1  A    between atoms: O1_2  and  C2_3 
REMARK    2  A    between atoms: C2_3  and  C3_4 
REMARK    3  A    between atoms: C3_4  and  N1_5 
REMARK       I    between atoms: N1_5  and  C4_7 
REMARK    4  A    between atoms: C4_7  and  C5_9 
REMARK    5  A    between atoms: C5_9  and  C6_10 
REMARK    6  A    between atoms: C6_10  and  C7_11 
REMARK    7  A    between atoms: N2_21  and  O4_23 
REMARK    8  A    between atoms: O4_23  and  C16_24 
REMARK    9  A    between atoms: C16_24  and  C17_25 
REMARK   10  A    between atoms: C17_25  and  N3_26 
REMARK   11  A    between atoms: C23_32  and  C25_34 
REMARK   12  A    between atoms: C25_34  and  O6_36 
REMARK   13  A    between atoms: O6_36  and  C26_37 
REMARK   14  A    between atoms: C29_40  and  O7_41 
ROOT
HETATM    1  C7  UNL     1      17.210  31.299  15.933  1.00  0.00     0.128 C 
HETATM    2  O3  UNL     1      18.143  31.869  16.781  1.00  0.00    -0.374 OA
HETATM    3  C8  UNL     1      19.420  31.489  16.265  1.00  0.00     0.062 C 
HETATM    4  C9  UNL     1      19.620  30.121  16.812  1.00  0.00     0.046 C 
HETATM    5  C10 UNL     1      20.356  32.358  17.100  1.00  0.00     0.046 C 
HETATM    6  C11 UNL     1      19.272  31.789  14.878  1.00  0.00     0.001 C 
HETATM    7  C12 UNL     1      19.289  33.336  14.788  1.00  0.00     0.019 C 
HETATM    8  C13 UNL     1      17.835  31.423  14.562  1.00  0.00     0.032 C 
HETATM    9  C14 UNL     1      17.616  30.143  13.844  1.00  0.00     0.063 C 
HETATM   10  C15 UNL     1      18.694  29.737  12.906  1.00  0.00     0.017 C 
HETATM   11  N2  UNL     1      18.370  29.316  11.758  1.00  0.00    -0.275 N 
ATOM     12  H2  UNL     1      19.119  29.040  11.122  1.00  0.00     0.193 HD
HETATM   13  C22 UNL     1      20.058  29.869  13.435  1.00  0.00     0.063 C 
HETATM   14  C23 UNL     1      21.175  29.242  12.744  1.00  0.00     0.080 C 
HETATM   15  C24 UNL     1      21.711  29.729  11.479  1.00  0.00     0.029 C 
HETATM   16  C29 UNL     1      22.325  29.351  13.770  1.00  0.00     0.137 C 
HETATM   17  C30 UNL     1      22.702  30.786  13.842  1.00  0.00     0.034 C 
HETATM   18  C31 UNL     1      21.610  31.789  13.921  1.00  0.00     0.013 C 
HETATM   19  C32 UNL     1      20.198  31.330  13.794  1.00  0.00    -0.023 C 
HETATM   20  C33 UNL     1      19.657  32.052  12.535  1.00  0.00     0.017 C 
ENDROOT
BRANCH   1  21
HETATM   21  C6  UNL     1      15.855  31.888  16.072  1.00  0.00     0.041 C 
BRANCH  21  22
HETATM   22  C5  UNL     1      15.601  33.187  15.404  1.00  0.00     0.105 C 
BRANCH  22  23
HETATM   23  C4  UNL     1      15.968  34.334  16.233  1.00  0.00     0.217 C 
HETATM   24  N1  UNL     1      16.094  34.187  17.633  1.00  0.00    -0.359 N 
ATOM     25  H1  UNL     1      15.924  33.271  18.047  1.00  0.00     0.162 HD
HETATM   26  O2  UNL     1      16.171  35.450  15.715  1.00  0.00    -0.274 OA
BRANCH  24  27
HETATM   27  C3  UNL     1      16.458  35.295  18.506  1.00  0.00     0.148 C 
BRANCH  27  28
HETATM   28  C2  UNL     1      17.927  35.561  18.445  1.00  0.00     0.186 C 
BRANCH  28  29
HETATM   29  O1  UNL     1      18.675  34.788  19.305  1.00  0.00    -0.394 OA
HETATM   30  C1  UNL     1      19.920  35.274  19.619  1.00  0.00     0.201 C 
ENDBRANCH  28  29
ENDBRANCH  27  28
ENDBRANCH  24  27
ENDBRANCH  22  23
ENDBRANCH  21  22
ENDBRANCH   1  21
BRANCH  11  31
HETATM   31  O4  UNL     1      17.076  29.207  11.314  1.00  0.00    -0.279 OA
BRANCH  31  32
HETATM   32  C16 UNL     1      16.664  28.164  10.488  1.00  0.00     0.231 C 
BRANCH  32  33
HETATM   33  C17 UNL     1      17.382  26.887  10.767  1.00  0.00     0.301 C 
BRANCH  33  34
HETATM   34  N3  UNL     1      18.175  26.400   9.677  1.00  0.00     0.090 N 
HETATM   35  C18 UNL     1      18.296  27.295   8.572  1.00  0.00     0.272 C 
HETATM   36  C19 UNL     1      18.131  26.451   7.319  1.00  0.00     0.032 C 
HETATM   37  C20 UNL     1      17.255  25.309   7.808  1.00  0.00     0.032 C 
HETATM   38  C21 UNL     1      17.782  25.106   9.211  1.00  0.00     0.272 C 
ENDBRANCH  33  34
ENDBRANCH  32  33
ENDBRANCH  31  32
ENDBRANCH  11  31
BRANCH  14  39
HETATM   39  C25 UNL     1      20.898  27.771  12.595  1.00  0.00     0.271 C 
HETATM   40  O5  UNL     1      20.162  27.182  13.428  1.00  0.00    -0.264 OA
BRANCH  39  41
HETATM   41  O6  UNL     1      21.410  26.999  11.581  1.00  0.00    -0.316 OA
BRANCH  41  42
HETATM   42  C26 UNL     1      22.026  25.744  11.745  1.00  0.00     0.123 C 
HETATM   43  C27 UNL     1      21.228  24.648  11.107  1.00  0.00     0.040 C 
HETATM   44  C28 UNL     1      23.426  25.676  11.228  1.00  0.00     0.040 C 
ENDBRANCH  41  42
ENDBRANCH  39  41
ENDBRANCH  14  39
BRANCH  16  45
HETATM   45  O7  UNL     1      23.406  28.611  13.320  1.00  0.00    -0.394 OA
ATOM     46  H7  UNL     1      23.389  28.581  12.371  1.00  0.00     0.210 HD
ENDBRANCH  16  45
TORSDOF 14
ENDMDL
MODEL 3
REMARK VINA RESULT: -8.103571727      0.966      1.089
REMARK  14 active torsions:
REMARK  status: ('A' for Active; 'I' for Inactive)
REMARK    1  A    between atoms: O1_2  and  C2_3 
REMARK    2  A    between atoms: C2_3  and  C3_4 
REMARK    3  A    between atoms: C3_4  and  N1_5 
REMARK       I    between atoms: N1_5  and  C4_7 
REMARK    4  A    between atoms: C4_7  and  C5_9 
REMARK    5  A    between atoms: C5_9  and  C6_10 
REMARK    6  A    between atoms: C6_10  and  C7_11 
REMARK    7  A    between atoms: N2_21  and  O4_23 
REMARK    8  A    between atoms: O4_23  and  C16_24 
REMARK    9  A    between atoms: C16_24  and  C17_25 
REMARK   10  A    between atoms: C17_25  and  N3_26 
REMARK   11  A    between atoms: C23_32  and  C25_34 
REMARK   12  A    between atoms: C25_34  and  O6_36 
REMARK   13  A    between atoms: O6_36  and  C26_37 
REMARK   14  A    between atoms: C29_40  and  O7_41 
ROOT
HETATM    1  C7  UNL     1      18.183  29.919  12.415  1.00  0.00     0.128 C 
HETATM    2  O3  UNL     1      19.325  29.466  11.779  1.00  0.00    -0.374 OA
HETATM    3  C8  UNL     1      20.420  30.061  12.478  1.00  0.00     0.062 C 
HETATM    4  C9  UNL     1      20.514  31.419  11.880  1.00  0.00     0.046 C 
HETATM    5  C10 UNL     1      21.607  29.313  11.874  1.00  0.00     0.046 C 
HETATM    6  C11 UNL     1      20.072  29.799  13.836  1.00  0.00     0.001 C 
HETATM    7  C12 UNL     1      20.298  28.279  14.033  1.00  0.00     0.019 C 
HETATM    8  C13 UNL     1      18.565  29.951  13.878  1.00  0.00     0.032 C 
HETATM    9  C14 UNL     1      18.037  31.210  14.460  1.00  0.00     0.063 C 
HETATM   10  C15 UNL     1      18.860  31.817  15.537  1.00  0.00     0.017 C 
HETATM   11  N2  UNL     1      18.278  32.230  16.581  1.00  0.00    -0.275 N 
ATOM     12  H2  UNL     1      18.853  32.645  17.316  1.00  0.00     0.193 HD
HETATM   13  C22 UNL     1      20.300  31.876  15.258  1.00  0.00     0.063 C 
HETATM   14  C23 UNL     1      21.173  32.697  16.085  1.00  0.00     0.080 C 
HETATM   15  C24 UNL     1      21.540  32.352  17.452  1.00  0.00     0.029 C 
HETATM   16  C29 UNL     1      22.491  32.725  15.278  1.00  0.00     0.137 C 
HETATM   17  C30 UNL     1      23.080  31.364  15.370  1.00  0.00     0.034 C 
HETATM   18  C31 UNL     1      22.177  30.201  15.175  1.00  0.00     0.013 C 
HETATM   19  C32 UNL     1      20.714  30.441  15.028  1.00  0.00    -0.023 C 
HETATM   20  C33 UNL     1      20.067  29.697  16.223  1.00  0.00     0.017 C 
ENDROOT
BRANCH   1  21
HETATM   21  C6  UNL     1      16.975  29.122  12.089  1.00  0.00     0.041 C 
BRANCH  21  22
HETATM   22  C5  UNL     1      16.816  28.661  10.689  1.00  0.00     0.105 C 
BRANCH  22  23
HETATM   23  C4  UNL     1      17.549  27.427  10.410  1.00  0.00     0.217 C 
HETATM   24  N1  UNL     1      17.912  26.562  11.466  1.00  0.00    -0.359 N 
ATOM     25  H1  UNL     1      17.654  26.816  12.419  1.00  0.00     0.162 HD
HETATM   26  O2  UNL     1      17.862  27.128   9.240  1.00  0.00    -0.274 OA
BRANCH  24  27
HETATM   27  C3  UNL     1      18.641  25.320  11.245  1.00  0.00     0.148 C 
BRANCH  27  28
HETATM   28  C2  UNL     1      20.117  25.551  11.307  1.00  0.00     0.186 C 
BRANCH  28  29
HETATM   29  O1  UNL     1      20.873  24.438  11.014  1.00  0.00    -0.394 OA
HETATM   30  C1  UNL     1      22.117  24.681  10.485  1.00  0.00     0.201 C 
ENDBRANCH  28  29
ENDBRANCH  27  28
ENDBRANCH  24  27
ENDBRANCH  22  23
ENDBRANCH  21  22
ENDBRANCH   1  21
BRANCH  11  31
HETATM   31  O4  UNL     1      16.924  32.155  16.791  1.00  0.00    -0.279 OA
BRANCH  31  32
HETATM   32  C16 UNL     1      16.161  33.279  17.098  1.00  0.00     0.231 C 
BRANCH  32  33
HETATM   33  C17 UNL     1      16.560  34.481  16.310  1.00  0.00     0.301 C 
BRANCH  33  34
HETATM   34  N3  UNL     1      15.893  35.691  16.692  1.00  0.00     0.090 N 
HETATM   35  C18 UNL     1      16.748  36.822  16.863  1.00  0.00     0.272 C 
HETATM   36  C19 UNL     1      16.279  37.525  18.126  1.00  0.00     0.032 C 
HETATM   37  C20 UNL     1      15.675  36.385  18.929  1.00  0.00     0.032 C 
HETATM   38  C21 UNL     1      15.048  35.547  17.837  1.00  0.00     0.272 C 
ENDBRANCH  33  34
ENDBRANCH  32  33
ENDBRANCH  31  32
ENDBRANCH  11  31
BRANCH  14  39
HETATM   39  C25 UNL     1      20.663  34.112  16.083  1.00  0.00     0.271 C 
HETATM   40  O5  UNL     1      20.923  34.874  15.117  1.00  0.00    -0.264 OA
BRANCH  39  41
HETATM   41  O6  UNL     1      19.908  34.650  17.097  1.00  0.00    -0.316 OA
BRANCH  41  42
HETATM   42  C26 UNL     1      20.253  35.785  17.855  1.00  0.00     0.123 C 
HETATM   43  C27 UNL     1      19.513  35.827  19.157  1.00  0.00     0.040 C 
HETATM   44  C28 UNL     1      21.714  35.916  18.133  1.00  0.00     0.040 C 
ENDBRANCH  41  42
ENDBRANCH  39  41
ENDBRANCH  14  39
BRANCH  16  45
HETATM   45  O7  UNL     1      23.355  33.642  15.854  1.00  0.00    -0.394 OA
ATOM     46  H7  UNL     1      24.246  33.436  15.594  1.00  0.00     0.210 HD
ENDBRANCH  16  45
TORSDOF 14
ENDMDL
MODEL 4
REMARK VINA RESULT: -8.020995879      1.134      1.565
REMARK  14 active torsions:
REMARK  status: ('A' for Active; 'I' for Inactive)
REMARK    1  A    between atoms: O1_2  and  C2_3 
REMARK    2  A    between atoms: C2_3  and  C3_4 
REMARK    3  A    between atoms: C3_4  and  N1_5 
REMARK       I    between atoms: N1_5  and  C4_7 
REMARK    4  A    between atoms: C4_7  and  C5_9 
REMARK    5  A    between atoms: C5_9  and  C6_10 
REMARK    6  A    between atoms: C6_10  and  C7_11 
REMARK    7  A    between atoms: N2_21  and  O4_23 
REMARK    8  A    between atoms: O4_23  and  C16_24 
REMARK    9  A    between atoms: C16_24  and  C17_25 
REMARK   10  A    between atoms: C17_25  and  N3_26 
REMARK   11  A    between atoms: C23_32  and  C25_34 
REMARK   12  A    between atoms: C25_34  and  O6_36 
REMARK   13  A    between atoms: O6_36  and  C26_37 
REMARK   14  A    between atoms: C29_40  and  O7_41 
ROOT
HETATM    1  C7  UNL     1      18.361  29.473  12.259  1.00  0.00     0.128 C 
HETATM    2  O3  UNL     1      19.572  29.227  11.637  1.00  0.00    -0.374 OA
HETATM    3  C8  UNL     1      20.543  29.982  12.364  1.00  0.00     0.062 C 
HETATM    4  C9  UNL     1      20.419  31.348  11.789  1.00  0.00     0.046 C 
HETATM    5  C10 UNL     1      21.846  29.452  11.772  1.00  0.00     0.046 C 
HETATM    6  C11 UNL     1      20.222  29.642  13.712  1.00  0.00     0.001 C 
HETATM    7  C12 UNL     1      20.694  28.177  13.890  1.00  0.00     0.019 C 
HETATM    8  C13 UNL     1      18.710  29.541  13.729  1.00  0.00     0.032 C 
HETATM    9  C14 UNL     1      17.971  30.685  14.320  1.00  0.00     0.063 C 
HETATM   10  C15 UNL     1      18.665  31.400  15.421  1.00  0.00     0.017 C 
HETATM   11  N2  UNL     1      18.008  31.693  16.461  1.00  0.00    -0.275 N 
ATOM     12  H2  UNL     1      18.494  32.184  17.211  1.00  0.00     0.193 HD
HETATM   13  C22 UNL     1      20.080  31.703  15.169  1.00  0.00     0.063 C 
HETATM   14  C23 UNL     1      20.792  32.641  16.024  1.00  0.00     0.080 C 
HETATM   15  C24 UNL     1      21.190  32.338  17.393  1.00  0.00     0.029 C 
HETATM   16  C29 UNL     1      22.100  32.902  15.242  1.00  0.00     0.137 C 
HETATM   17  C30 UNL     1      22.904  31.656  15.324  1.00  0.00     0.034 C 
HETATM   18  C31 UNL     1      22.210  30.363  15.095  1.00  0.00     0.013 C 
HETATM   19  C32 UNL     1      20.729  30.360  14.925  1.00  0.00    -0.023 C 
HETATM   20  C33 UNL     1      20.197  29.498  16.097  1.00  0.00     0.017 C 
ENDROOT
BRANCH   1  21
HETATM   21  C6  UNL     1      17.307  28.493  11.898  1.00  0.00     0.041 C 
BRANCH  21  22
HETATM   22  C5  UNL     1      17.346  27.169  12.564  1.00  0.00     0.105 C 
BRANCH  22  23
HETATM   23  C4  UNL     1      18.023  26.150  11.765  1.00  0.00     0.217 C 
HETATM   24  N1  UNL     1      19.088  26.510  10.909  1.00  0.00    -0.359 N 
ATOM     25  H1  UNL     1      19.370  27.489  10.862  1.00  0.00     0.162 HD
HETATM   26  O2  UNL     1      17.668  24.956  11.829  1.00  0.00    -0.274 OA
BRANCH  24  27
HETATM   27  C3  UNL     1      19.799  25.536  10.091  1.00  0.00     0.148 C 
BRANCH  27  28
HETATM   28  C2  UNL     1      19.176  25.422   8.737  1.00  0.00     0.186 C 
BRANCH  28  29
HETATM   29  O1  UNL     1      18.227  24.428   8.637  1.00  0.00    -0.394 OA
HETATM   30  C1  UNL     1      17.111  24.739   7.900  1.00  0.00     0.201 C 
ENDBRANCH  28  29
ENDBRANCH  27  28
ENDBRANCH  24  27
ENDBRANCH  22  23
ENDBRANCH  21  22
ENDBRANCH   1  21
BRANCH  11  31
HETATM   31  O4  UNL     1      16.681  31.391  16.644  1.00  0.00    -0.279 OA
BRANCH  31  32
HETATM   32  C16 UNL     1      15.666  32.275  16.286  1.00  0.00     0.231 C 
BRANCH  32  33
HETATM   33  C17 UNL     1      15.319  33.229  17.378  1.00  0.00     0.301 C 
BRANCH  33  34
HETATM   34  N3  UNL     1      15.064  34.570  16.939  1.00  0.00     0.090 N 
HETATM   35  C18 UNL     1      16.152  35.198  16.261  1.00  0.00     0.272 C 
HETATM   36  C19 UNL     1      16.228  36.617  16.801  1.00  0.00     0.032 C 
HETATM   37  C20 UNL     1      15.653  36.466  18.199  1.00  0.00     0.032 C 
HETATM   38  C21 UNL     1      14.574  35.431  17.970  1.00  0.00     0.272 C 
ENDBRANCH  33  34
ENDBRANCH  32  33
ENDBRANCH  31  32
ENDBRANCH  11  31
BRANCH  14  39
HETATM   39  C25 UNL     1      20.055  33.953  16.034  1.00  0.00     0.271 C 
HETATM   40  O5  UNL     1      19.099  34.144  15.240  1.00  0.00    -0.264 OA
BRANCH  39  41
HETATM   41  O6  UNL     1      20.363  34.991  16.879  1.00  0.00    -0.316 OA
BRANCH  41  42
HETATM   42  C26 UNL     1      19.431  35.730  17.634  1.00  0.00     0.123 C 
HETATM   43  C27 UNL     1      19.070  35.028  18.907  1.00  0.00     0.040 C 
HETATM   44  C28 UNL     1      19.873  37.118  17.964  1.00  0.00     0.040 C 
ENDBRANCH  41  42
ENDBRANCH  39  41
ENDBRANCH  14  39
BRANCH  16  45
HETATM   45  O7  UNL     1      22.791  33.939  15.847  1.00  0.00    -0.394 OA
ATOM     46  H7  UNL     1      23.681  33.956  15.514  1.00  0.00     0.210 HD
ENDBRANCH  16  45
TORSDOF 14
ENDMDL
MODEL 5
REMARK VINA RESULT: -7.750309128      2.129      9.605
REMARK  14 active torsions:
REMARK  status: ('A' for Active; 'I' for Inactive)
REMARK    1  A    between atoms: O1_2  and  C2_3 
REMARK    2  A    between atoms: C2_3  and  C3_4 
REMARK    3  A    between atoms: C3_4  and  N1_5 
REMARK       I    between atoms: N1_5  and  C4_7 
REMARK    4  A    between atoms: C4_7  and  C5_9 
REMARK    5  A    between atoms: C5_9  and  C6_10 
REMARK    6  A    between atoms: C6_10  and  C7_11 
REMARK    7  A    between atoms: N2_21  and  O4_23 
REMARK    8  A    between atoms: O4_23  and  C16_24 
REMARK    9  A    between atoms: C16_24  and  C17_25 
REMARK   10  A    between atoms: C17_25  and  N3_26 
REMARK   11  A    between atoms: C23_32  and  C25_34 
REMARK   12  A    between atoms: C25_34  and  O6_36 
REMARK   13  A    between atoms: O6_36  and  C26_37 
REMARK   14  A    between atoms: C29_40  and  O7_41 
ROOT
HETATM    1  C7  UNL     1      20.951  32.250  14.092  1.00  0.00     0.128 C 
HETATM    2  O3  UNL     1      19.968  32.340  15.062  1.00  0.00    -0.374 OA
HETATM    3  C8  UNL     1      19.094  31.233  14.832  1.00  0.00     0.062 C 
HETATM    4  C9  UNL     1      18.200  31.719  13.749  1.00  0.00     0.046 C 
HETATM    5  C10 UNL     1      18.215  31.277  16.080  1.00  0.00     0.046 C 
HETATM    6  C11 UNL     1      20.021  30.158  14.691  1.00  0.00     0.001 C 
HETATM    7  C12 UNL     1      20.569  29.898  16.118  1.00  0.00     0.019 C 
HETATM    8  C13 UNL     1      21.198  30.765  13.955  1.00  0.00     0.032 C 
HETATM    9  C14 UNL     1      21.313  30.454  12.508  1.00  0.00     0.063 C 
HETATM   10  C15 UNL     1      20.803  29.121  12.094  1.00  0.00     0.017 C 
HETATM   11  N2  UNL     1      21.506  28.423  11.308  1.00  0.00    -0.275 N 
ATOM     12  H2  UNL     1      21.146  27.509  11.030  1.00  0.00     0.193 HD
HETATM   13  C22 UNL     1      19.496  28.755  12.656  1.00  0.00     0.063 C 
HETATM   14  C23 UNL     1      18.756  27.626  12.112  1.00  0.00     0.080 C 
HETATM   15  C24 UNL     1      19.140  26.237  12.325  1.00  0.00     0.029 C 
HETATM   16  C29 UNL     1      17.356  27.789  12.747  1.00  0.00     0.137 C 
HETATM   17  C30 UNL     1      17.499  27.468  14.190  1.00  0.00     0.034 C 
HETATM   18  C31 UNL     1      18.659  28.043  14.919  1.00  0.00     0.013 C 
HETATM   19  C32 UNL     1      19.688  28.800  14.154  1.00  0.00    -0.023 C 
HETATM   20  C33 UNL     1      21.002  28.005  14.360  1.00  0.00     0.017 C 
ENDROOT
BRANCH   1  21
HETATM   21  C6  UNL     1      22.150  33.071  14.394  1.00  0.00     0.041 C 
BRANCH  21  22
HETATM   22  C5  UNL     1      22.698  33.003  15.769  1.00  0.00     0.105 C 
BRANCH  22  23
HETATM   23  C4  UNL     1      22.166  34.045  16.647  1.00  0.00     0.217 C 
HETATM   24  N1  UNL     1      21.013  33.798  17.424  1.00  0.00    -0.359 N 
ATOM     25  H1  UNL     1      20.563  32.885  17.359  1.00  0.00     0.162 HD
HETATM   26  O2  UNL     1      22.724  35.158  16.716  1.00  0.00    -0.274 OA
BRANCH  24  27
HETATM   27  C3  UNL     1      20.441  34.799  18.315  1.00  0.00     0.148 C 
BRANCH  27  28
HETATM   28  C2  UNL     1      19.028  35.106  17.935  1.00  0.00     0.186 C 
BRANCH  28  29
HETATM   29  O1  UNL     1      18.100  34.249  18.484  1.00  0.00    -0.394 OA
HETATM   30  C1  UNL     1      16.851  34.274  17.913  1.00  0.00     0.201 C 
ENDBRANCH  28  29
ENDBRANCH  27  28
ENDBRANCH  24  27
ENDBRANCH  22  23
ENDBRANCH  21  22
ENDBRANCH   1  21
BRANCH  11  31
HETATM   31  O4  UNL     1      22.722  28.815  10.806  1.00  0.00    -0.279 OA
BRANCH  31  32
HETATM   32  C16 UNL     1      23.794  27.934  10.694  1.00  0.00     0.231 C 
BRANCH  32  33
HETATM   33  C17 UNL     1      23.673  26.758  11.604  1.00  0.00     0.301 C 
BRANCH  33  34
HETATM   34  N3  UNL     1      23.635  25.490  10.936  1.00  0.00     0.090 N 
HETATM   35  C18 UNL     1      24.129  25.499   9.597  1.00  0.00     0.272 C 
HETATM   36  C19 UNL     1      23.161  24.660   8.779  1.00  0.00     0.032 C 
HETATM   37  C20 UNL     1      21.859  24.825   9.546  1.00  0.00     0.032 C 
HETATM   38  C21 UNL     1      22.353  24.857  10.975  1.00  0.00     0.272 C 
ENDBRANCH  33  34
ENDBRANCH  32  33
ENDBRANCH  31  32
ENDBRANCH  11  31
BRANCH  14  39
HETATM   39  C25 UNL     1      18.560  27.832  10.635  1.00  0.00     0.271 C 
HETATM   40  O5  UNL     1      17.716  28.668  10.222  1.00  0.00    -0.264 OA
BRANCH  39  41
HETATM   41  O6  UNL     1      19.263  27.149   9.672  1.00  0.00    -0.316 OA
BRANCH  41  42
HETATM   42  C26 UNL     1      18.693  26.342   8.668  1.00  0.00     0.123 C 
HETATM   43  C27 UNL     1      17.513  25.574   9.179  1.00  0.00     0.040 C 
HETATM   44  C28 UNL     1      18.280  27.090   7.443  1.00  0.00     0.040 C 
ENDBRANCH  41  42
ENDBRANCH  39  41
ENDBRANCH  14  39
BRANCH  16  45
HETATM   45  O7  UNL     1      16.483  26.889  12.158  1.00  0.00    -0.394 OA
ATOM     46  H7  UNL     1      15.662  27.330  11.970  1.00  0.00     0.210 HD
ENDBRANCH  16  45
TORSDOF 14
ENDMDL
