MODEL 1
REMARK VINA RESULT: -9.258575864      0.000      0.000
REMARK  13 active torsions:
REMARK  status: ('A' for Active; 'I' for Inactive)
REMARK    1  A    between atoms: O1_2  and  C2_3 
REMARK    2  A    between atoms: C2_3  and  C3_4 
REMARK    3  A    between atoms: C3_4  and  C4_5 
REMARK    4  A    between atoms: C4_5  and  N1_6 
REMARK    5  A    between atoms: C9_11  and  N2_12 
REMARK    6  A    between atoms: N2_12  and  C10_14 
REMARK    7  A    between atoms: C11_17  and  N4_18 
REMARK    8  A    between atoms: N4_18  and  C12_20 
REMARK    9  A    between atoms: C14_22  and  O2_23 
REMARK   10  A    between atoms: C18_27  and  O3_28 
REMARK   11  A    between atoms: C20_34  and  C21_35 
REMARK   12  A    between atoms: C24_38  and  O4_39 
REMARK   13  A    between atoms: C28_43  and  O5_44 
ROOT
HETATM    1  C10 UNL     1      20.252  30.758  14.385  1.00  0.00     0.150 A 
HETATM    2  N3  UNL     1      21.135  30.111  13.599  1.00  0.00    -0.173 N 
ATOM      3  H3  UNL     1      22.101  30.032  13.917  1.00  0.00     0.186 HD
HETATM    4  C11 UNL     1      20.804  29.563  12.410  1.00  0.00     0.699 A 
HETATM    5  N5  UNL     1      19.546  29.640  11.940  1.00  0.00    -0.131 N 
ATOM      6  H5  UNL     1      19.281  29.233  11.043  1.00  0.00     0.205 HD
HETATM    7  N6  UNL     1      18.677  30.267  12.698  1.00  0.00    -0.282 N 
ATOM      8  H6  UNL     1      17.719  30.332  12.354  1.00  0.00     0.187 HD
HETATM    9  C20 UNL     1      18.941  30.832  13.889  1.00  0.00     0.103 A 
ENDROOT
BRANCH   1  10
HETATM   10  N2  UNL     1      20.486  31.321  15.472  1.00  0.00    -0.338 N 
ATOM     11  H2  UNL     1      20.590  30.662  16.243  1.00  0.00     0.167 HD
BRANCH  10  12
HETATM   12  C9  UNL     1      20.637  32.634  15.870  1.00  0.00     0.068 A 
HETATM   13  C8  UNL     1      19.822  33.085  16.899  1.00  0.00     0.040 A 
HETATM   14  C7  UNL     1      19.901  34.395  17.396  1.00  0.00    -0.038 A 
HETATM   15  C6  UNL     1      19.001  34.850  18.455  1.00  0.00     0.059 C 
HETATM   16  C31 UNL     1      20.829  35.231  16.823  1.00  0.00     0.041 A 
HETATM   17  C5  UNL     1      19.344  36.106  19.155  1.00  0.00     0.130 C 
HETATM   18  N1  UNL     1      20.169  37.040  18.448  1.00  0.00    -0.348 N 
HETATM   19  C32 UNL     1      20.963  36.585  17.360  1.00  0.00     0.254 C 
HETATM   20  O6  UNL     1      21.833  37.326  16.795  1.00  0.00    -0.267 OA
HETATM   21  C30 UNL     1      21.620  34.760  15.805  1.00  0.00     0.056 A 
HETATM   22  C28 UNL     1      21.562  33.470  15.294  1.00  0.00     0.096 A 
BRANCH  18  23
HETATM   23  C4  UNL     1      20.223  38.408  18.886  1.00  0.00     0.128 C 
BRANCH  23  24
HETATM   24  C3  UNL     1      19.050  39.258  18.514  1.00  0.00     0.046 C 
BRANCH  24  25
HETATM   25  C2  UNL     1      18.814  39.388  17.055  1.00  0.00     0.168 C 
BRANCH  25  26
HETATM   26  O1  UNL     1      17.498  39.180  16.708  1.00  0.00    -0.396 OA
HETATM   27  C1  UNL     1      16.936  37.999  17.118  1.00  0.00     0.201 C 
ENDBRANCH  25  26
ENDBRANCH  24  25
ENDBRANCH  23  24
ENDBRANCH  18  23
BRANCH  22  28
HETATM   28  O5  UNL     1      22.401  33.070  14.259  1.00  0.00    -0.354 OA
HETATM   29  C29 UNL     1      23.694  32.585  14.457  1.00  0.00     0.210 C 
ENDBRANCH  22  28
ENDBRANCH  10  12
ENDBRANCH   1  10
BRANCH   9  30
HETATM   30  C21 UNL     1      17.918  31.506  14.671  1.00  0.00    -0.004 A 
HETATM   31  C22 UNL     1      17.208  30.925  15.698  1.00  0.00     0.016 A 
HETATM   32  C23 UNL     1      16.265  31.691  16.358  1.00  0.00     0.037 A 
HETATM   33  C24 UNL     1      16.010  33.005  16.028  1.00  0.00     0.068 A 
HETATM   34  C26 UNL     1      16.713  33.597  15.003  1.00  0.00     0.037 A 
HETATM   35  C27 UNL     1      17.655  32.838  14.342  1.00  0.00     0.016 A 
BRANCH  33  36
HETATM   36  O4  UNL     1      15.060  33.763  16.698  1.00  0.00    -0.356 OA
HETATM   37  C25 UNL     1      15.297  34.240  18.006  1.00  0.00     0.210 C 
ENDBRANCH  33  36
ENDBRANCH   9  30
BRANCH   4  38
HETATM   38  N4  UNL     1      21.716  28.911  11.726  1.00  0.00    -0.188 N 
ATOM     39  H4  UNL     1      22.498  29.409  11.301  1.00  0.00     0.184 HD
BRANCH  38  40
HETATM   40  C12 UNL     1      21.601  27.493  11.585  1.00  0.00     0.085 A 
HETATM   41  C13 UNL     1      20.386  26.908  11.285  1.00  0.00     0.069 A 
HETATM   42  C14 UNL     1      20.208  25.552  11.111  1.00  0.00     0.070 A 
HETATM   43  C16 UNL     1      21.327  24.750  11.248  1.00  0.00     0.039 A 
HETATM   44  C17 UNL     1      22.559  25.281  11.547  1.00  0.00     0.042 A 
HETATM   45  C18 UNL     1      22.681  26.661  11.712  1.00  0.00     0.095 A 
BRANCH  42  46
HETATM   46  O2  UNL     1      18.998  24.969  10.812  1.00  0.00    -0.356 OA
HETATM   47  C15 UNL     1      17.936  25.071  11.733  1.00  0.00     0.210 C 
ENDBRANCH  42  46
BRANCH  45  48
HETATM   48  O3  UNL     1      23.921  27.229  12.017  1.00  0.00    -0.354 OA
HETATM   49  C19 UNL     1      25.077  26.478  11.719  1.00  0.00     0.210 C 
ENDBRANCH  45  48
ENDBRANCH  38  40
ENDBRANCH   4  38
TORSDOF 13
ENDMDL
MODEL 2
REMARK VINA RESULT: -8.787039298      1.644      2.787
REMARK  13 active torsions:
REMARK  status: ('A' for Active; 'I' for Inactive)
REMARK    1  A    between atoms: O1_2  and  C2_3 
REMARK    2  A    between atoms: C2_3  and  C3_4 
REMARK    3  A    between atoms: C3_4  and  C4_5 
REMARK    4  A    between atoms: C4_5  and  N1_6 
REMARK    5  A    between atoms: C9_11  and  N2_12 
REMARK    6  A    between atoms: N2_12  and  C10_14 
REMARK    7  A    between atoms: C11_17  and  N4_18 
REMARK    8  A    between atoms: N4_18  and  C12_20 
REMARK    9  A    between atoms: C14_22  and  O2_23 
REMARK   10  A    between atoms: C18_27  and  O3_28 
REMARK   11  A    between atoms: C20_34  and  C21_35 
REMARK   12  A    between atoms: C24_38  and  O4_39 
REMARK   13  A    between atoms: C28_43  and  O5_44 
ROOT
HETATM    1  C10 UNL     1      18.731  30.553  15.760  1.00  0.00     0.150 A 
HETATM    2  N3  UNL     1      19.272  29.390  15.347  1.00  0.00    -0.173 N 
ATOM      3  H3  UNL     1      20.044  28.996  15.885  1.00  0.00     0.186 HD
HETATM    4  C11 UNL     1      18.842  28.721  14.256  1.00  0.00     0.699 A 
HETATM    5  N5  UNL     1      17.830  29.196  13.508  1.00  0.00    -0.131 N 
ATOM      6  H5  UNL     1      17.495  28.704  12.680  1.00  0.00     0.205 HD
HETATM    7  N6  UNL     1      17.295  30.329  13.901  1.00  0.00    -0.282 N 
ATOM      8  H6  UNL     1      16.526  30.700  13.344  1.00  0.00     0.187 HD
HETATM    9  C20 UNL     1      17.674  31.042  14.976  1.00  0.00     0.103 A 
ENDROOT
BRANCH   1  10
HETATM   10  N2  UNL     1      19.094  31.247  16.730  1.00  0.00    -0.338 N 
ATOM     11  H2  UNL     1      18.826  30.842  17.626  1.00  0.00     0.167 HD
BRANCH  10  12
HETATM   12  C9  UNL     1      19.775  32.440  16.866  1.00  0.00     0.068 A 
HETATM   13  C8  UNL     1      19.111  33.484  17.496  1.00  0.00     0.040 A 
HETATM   14  C7  UNL     1      19.713  34.734  17.705  1.00  0.00    -0.038 A 
HETATM   15  C6  UNL     1      18.972  35.826  18.337  1.00  0.00     0.059 C 
HETATM   16  C31 UNL     1      21.002  34.895  17.260  1.00  0.00     0.041 A 
HETATM   17  C5  UNL     1      19.745  36.988  18.823  1.00  0.00     0.130 C 
HETATM   18  N1  UNL     1      21.014  37.232  18.202  1.00  0.00    -0.348 N 
HETATM   19  C32 UNL     1      21.667  36.174  17.513  1.00  0.00     0.254 C 
HETATM   20  O6  UNL     1      22.860  36.279  17.078  1.00  0.00    -0.267 OA
HETATM   21  C30 UNL     1      21.634  33.847  16.638  1.00  0.00     0.056 A 
HETATM   22  C28 UNL     1      21.063  32.601  16.417  1.00  0.00     0.096 A 
BRANCH  18  23
HETATM   23  C4  UNL     1      21.630  38.523  18.336  1.00  0.00     0.128 C 
BRANCH  23  24
HETATM   24  C3  UNL     1      20.913  39.658  17.679  1.00  0.00     0.046 C 
BRANCH  24  25
HETATM   25  C2  UNL     1      20.660  39.478  16.228  1.00  0.00     0.168 C 
BRANCH  25  26
HETATM   26  O1  UNL     1      19.336  39.650  15.893  1.00  0.00    -0.396 OA
HETATM   27  C1  UNL     1      18.487  39.999  16.911  1.00  0.00     0.201 C 
ENDBRANCH  25  26
ENDBRANCH  24  25
ENDBRANCH  23  24
ENDBRANCH  18  23
BRANCH  22  28
HETATM   28  O5  UNL     1      21.772  31.590  15.778  1.00  0.00    -0.354 OA
HETATM   29  C29 UNL     1      22.099  31.615  14.422  1.00  0.00     0.210 C 
ENDBRANCH  22  28
ENDBRANCH  10  12
ENDBRANCH   1  10
BRANCH   9  30
HETATM   30  C21 UNL     1      17.024  32.287  15.349  1.00  0.00    -0.004 A 
HETATM   31  C22 UNL     1      17.219  33.493  14.714  1.00  0.00     0.016 A 
HETATM   32  C23 UNL     1      16.528  34.597  15.179  1.00  0.00     0.037 A 
HETATM   33  C24 UNL     1      15.659  34.537  16.248  1.00  0.00     0.068 A 
HETATM   34  C26 UNL     1      15.456  33.336  16.891  1.00  0.00     0.037 A 
HETATM   35  C27 UNL     1      16.142  32.232  16.432  1.00  0.00     0.016 A 
BRANCH  33  36
HETATM   36  O4  UNL     1      14.972  35.652  16.705  1.00  0.00    -0.356 OA
HETATM   37  C25 UNL     1      14.964  35.992  18.075  1.00  0.00     0.210 C 
ENDBRANCH  33  36
ENDBRANCH   9  30
BRANCH   4  38
HETATM   38  N4  UNL     1      19.395  27.570  13.947  1.00  0.00    -0.188 N 
ATOM     39  H4  UNL     1      19.141  26.722  14.454  1.00  0.00     0.184 HD
BRANCH  38  40
HETATM   40  C12 UNL     1      20.358  27.521  12.892  1.00  0.00     0.085 A 
HETATM   41  C13 UNL     1      21.702  27.697  13.151  1.00  0.00     0.069 A 
HETATM   42  C14 UNL     1      22.686  27.638  12.187  1.00  0.00     0.070 A 
HETATM   43  C16 UNL     1      22.278  27.384  10.890  1.00  0.00     0.039 A 
HETATM   44  C17 UNL     1      20.952  27.201  10.577  1.00  0.00     0.042 A 
HETATM   45  C18 UNL     1      19.999  27.272  11.594  1.00  0.00     0.095 A 
BRANCH  42  46
HETATM   46  O2  UNL     1      24.026  27.813  12.445  1.00  0.00    -0.356 OA
HETATM   47  C15 UNL     1      24.942  26.818  12.047  1.00  0.00     0.210 C 
ENDBRANCH  42  46
BRANCH  45  48
HETATM   48  O3  UNL     1      18.644  27.091  11.306  1.00  0.00    -0.354 OA
HETATM   49  C19 UNL     1      18.180  27.512  10.041  1.00  0.00     0.210 C 
ENDBRANCH  45  48
ENDBRANCH  38  40
ENDBRANCH   4  38
TORSDOF 13
ENDMDL
MODEL 3
REMARK VINA RESULT: -8.775400358      1.088      1.118
REMARK  13 active torsions:
REMARK  status: ('A' for Active; 'I' for Inactive)
REMARK    1  A    between atoms: O1_2  and  C2_3 
REMARK    2  A    between atoms: C2_3  and  C3_4 
REMARK    3  A    between atoms: C3_4  and  C4_5 
REMARK    4  A    between atoms: C4_5  and  N1_6 
REMARK    5  A    between atoms: C9_11  and  N2_12 
REMARK    6  A    between atoms: N2_12  and  C10_14 
REMARK    7  A    between atoms: C11_17  and  N4_18 
REMARK    8  A    between atoms: N4_18  and  C12_20 
REMARK    9  A    between atoms: C14_22  and  O2_23 
REMARK   10  A    between atoms: C18_27  and  O3_28 
REMARK   11  A    between atoms: C20_34  and  C21_35 
REMARK   12  A    between atoms: C24_38  and  O4_39 
REMARK   13  A    between atoms: C28_43  and  O5_44 
ROOT
HETATM    1  C10 UNL     1      19.979  30.876  14.731  1.00  0.00     0.150 A 
HETATM    2  N3  UNL     1      20.878  30.175  14.014  1.00  0.00    -0.173 N 
ATOM      3  H3  UNL     1      21.797  30.005  14.421  1.00  0.00     0.186 HD
HETATM    4  C11 UNL     1      20.621  29.687  12.781  1.00  0.00     0.699 A 
HETATM    5  N5  UNL     1      19.426  29.884  12.195  1.00  0.00    -0.131 N 
ATOM      6  H5  UNL     1      19.218  29.523  11.264  1.00  0.00     0.205 HD
HETATM    7  N6  UNL     1      18.542  30.565  12.885  1.00  0.00    -0.282 N 
ATOM      8  H6  UNL     1      17.632  30.720  12.453  1.00  0.00     0.187 HD
HETATM    9  C20 UNL     1      18.733  31.076  14.114  1.00  0.00     0.103 A 
ENDROOT
BRANCH   1  10
HETATM   10  N2  UNL     1      20.150  31.390  15.854  1.00  0.00    -0.338 N 
ATOM     11  H2  UNL     1      19.917  30.756  16.618  1.00  0.00     0.167 HD
BRANCH  10  12
HETATM   12  C9  UNL     1      20.584  32.622  16.299  1.00  0.00     0.068 A 
HETATM   13  C8  UNL     1      19.651  33.440  16.923  1.00  0.00     0.040 A 
HETATM   14  C7  UNL     1      19.985  34.704  17.429  1.00  0.00    -0.038 A 
HETATM   15  C6  UNL     1      18.969  35.557  18.047  1.00  0.00     0.059 C 
HETATM   16  C31 UNL     1      21.288  35.116  17.288  1.00  0.00     0.041 A 
HETATM   17  C5  UNL     1      19.433  36.710  18.844  1.00  0.00     0.130 C 
HETATM   18  N1  UNL     1      20.734  37.230  18.540  1.00  0.00    -0.348 N 
HETATM   19  C32 UNL     1      21.670  36.409  17.855  1.00  0.00     0.254 C 
HETATM   20  O6  UNL     1      22.888  36.751  17.695  1.00  0.00    -0.267 OA
HETATM   21  C30 UNL     1      22.190  34.290  16.665  1.00  0.00     0.056 A 
HETATM   22  C28 UNL     1      21.887  33.035  16.153  1.00  0.00     0.096 A 
BRANCH  18  23
HETATM   23  C4  UNL     1      21.089  38.551  18.984  1.00  0.00     0.128 C 
BRANCH  23  24
HETATM   24  C3  UNL     1      20.370  39.678  18.315  1.00  0.00     0.046 C 
BRANCH  24  25
HETATM   25  C2  UNL     1      19.697  40.623  19.239  1.00  0.00     0.168 C 
BRANCH  25  26
HETATM   26  O1  UNL     1      18.863  39.991  20.133  1.00  0.00    -0.396 OA
HETATM   27  C1  UNL     1      17.547  39.873  19.765  1.00  0.00     0.201 C 
ENDBRANCH  25  26
ENDBRANCH  24  25
ENDBRANCH  23  24
ENDBRANCH  18  23
BRANCH  22  28
HETATM   28  O5  UNL     1      22.860  32.258  15.534  1.00  0.00    -0.354 OA
HETATM   29  C29 UNL     1      23.532  32.643  14.374  1.00  0.00     0.210 C 
ENDBRANCH  22  28
ENDBRANCH  10  12
ENDBRANCH   1  10
BRANCH   9  30
HETATM   30  C21 UNL     1      17.698  31.816  14.816  1.00  0.00    -0.004 A 
HETATM   31  C22 UNL     1      16.900  31.295  15.809  1.00  0.00     0.016 A 
HETATM   32  C23 UNL     1      15.956  32.121  16.392  1.00  0.00     0.037 A 
HETATM   33  C24 UNL     1      15.784  33.436  16.017  1.00  0.00     0.068 A 
HETATM   34  C26 UNL     1      16.577  33.969  15.024  1.00  0.00     0.037 A 
HETATM   35  C27 UNL     1      17.519  33.150  14.440  1.00  0.00     0.016 A 
BRANCH  33  36
HETATM   36  O4  UNL     1      14.833  34.255  16.608  1.00  0.00    -0.356 OA
HETATM   37  C25 UNL     1      14.989  34.713  17.935  1.00  0.00     0.210 C 
ENDBRANCH  33  36
ENDBRANCH   9  30
BRANCH   4  38
HETATM   38  N4  UNL     1      21.539  28.975  12.167  1.00  0.00    -0.188 N 
ATOM     39  H4  UNL     1      22.418  29.404  11.879  1.00  0.00     0.184 HD
BRANCH  38  40
HETATM   40  C12 UNL     1      21.290  27.592  11.908  1.00  0.00     0.085 A 
HETATM   41  C13 UNL     1      20.010  27.137  11.661  1.00  0.00     0.069 A 
HETATM   42  C14 UNL     1      19.702  25.822  11.379  1.00  0.00     0.070 A 
HETATM   43  C16 UNL     1      20.754  24.925  11.347  1.00  0.00     0.039 A 
HETATM   44  C17 UNL     1      22.047  25.325  11.586  1.00  0.00     0.042 A 
HETATM   45  C18 UNL     1      22.301  26.669  11.866  1.00  0.00     0.095 A 
BRANCH  42  46
HETATM   46  O2  UNL     1      18.427  25.369  11.132  1.00  0.00    -0.356 OA
HETATM   47  C15 UNL     1      17.795  25.711   9.919  1.00  0.00     0.210 C 
ENDBRANCH  42  46
BRANCH  45  48
HETATM   48  O3  UNL     1      23.605  27.105  12.114  1.00  0.00    -0.354 OA
HETATM   49  C19 UNL     1      24.662  26.226  11.796  1.00  0.00     0.210 C 
ENDBRANCH  45  48
ENDBRANCH  38  40
ENDBRANCH   4  38
TORSDOF 13
ENDMDL
MODEL 4
REMARK VINA RESULT: -8.773314398      2.023      3.532
REMARK  13 active torsions:
REMARK  status: ('A' for Active; 'I' for Inactive)
REMARK    1  A    between atoms: O1_2  and  C2_3 
REMARK    2  A    between atoms: C2_3  and  C3_4 
REMARK    3  A    between atoms: C3_4  and  C4_5 
REMARK    4  A    between atoms: C4_5  and  N1_6 
REMARK    5  A    between atoms: C9_11  and  N2_12 
REMARK    6  A    between atoms: N2_12  and  C10_14 
REMARK    7  A    between atoms: C11_17  and  N4_18 
REMARK    8  A    between atoms: N4_18  and  C12_20 
REMARK    9  A    between atoms: C14_22  and  O2_23 
REMARK   10  A    between atoms: C18_27  and  O3_28 
REMARK   11  A    between atoms: C20_34  and  C21_35 
REMARK   12  A    between atoms: C24_38  and  O4_39 
REMARK   13  A    between atoms: C28_43  and  O5_44 
ROOT
HETATM    1  C10 UNL     1      18.808  29.376  14.639  1.00  0.00     0.150 A 
HETATM    2  N3  UNL     1      19.146  28.160  14.170  1.00  0.00    -0.173 N 
ATOM      3  H3  UNL     1      19.766  27.578  14.734  1.00  0.00     0.186 HD
HETATM    4  C11 UNL     1      18.703  27.672  12.992  1.00  0.00     0.699 A 
HETATM    5  N5  UNL     1      17.885  28.397  12.207  1.00  0.00    -0.131 N 
ATOM      6  H5  UNL     1      17.545  28.043  11.313  1.00  0.00     0.205 HD
HETATM    7  N6  UNL     1      17.549  29.584  12.654  1.00  0.00    -0.282 N 
ATOM      8  H6  UNL     1      16.928  30.144  12.069  1.00  0.00     0.187 HD
HETATM    9  C20 UNL     1      17.952  30.127  13.816  1.00  0.00     0.103 A 
ENDROOT
BRANCH   1  10
HETATM   10  N2  UNL     1      19.202  29.911  15.694  1.00  0.00    -0.338 N 
ATOM     11  H2  UNL     1      18.928  29.390  16.526  1.00  0.00     0.167 HD
BRANCH  10  12
HETATM   12  C9  UNL     1      19.924  31.049  15.991  1.00  0.00     0.068 A 
HETATM   13  C8  UNL     1      19.303  32.010  16.779  1.00  0.00     0.040 A 
HETATM   14  C7  UNL     1      19.949  33.197  17.158  1.00  0.00    -0.038 A 
HETATM   15  C6  UNL     1      19.253  34.206  17.956  1.00  0.00     0.059 C 
HETATM   16  C31 UNL     1      21.238  33.381  16.719  1.00  0.00     0.041 A 
HETATM   17  C5  UNL     1      20.070  35.259  18.593  1.00  0.00     0.130 C 
HETATM   18  N1  UNL     1      21.338  35.552  17.993  1.00  0.00    -0.348 N 
HETATM   19  C32 UNL     1      21.947  34.587  17.145  1.00  0.00     0.254 C 
HETATM   20  O6  UNL     1      23.138  34.717  16.710  1.00  0.00    -0.267 OA
HETATM   21  C30 UNL     1      21.826  32.416  15.940  1.00  0.00     0.056 A 
HETATM   22  C28 UNL     1      21.211  31.234  15.549  1.00  0.00     0.096 A 
BRANCH  18  23
HETATM   23  C4  UNL     1      21.999  36.790  18.304  1.00  0.00     0.128 C 
BRANCH  23  24
HETATM   24  C3  UNL     1      22.224  37.061  19.757  1.00  0.00     0.046 C 
BRANCH  24  25
HETATM   25  C2  UNL     1      22.872  35.955  20.503  1.00  0.00     0.168 C 
BRANCH  25  26
HETATM   26  O1  UNL     1      23.886  36.391  21.326  1.00  0.00    -0.396 OA
HETATM   27  C1  UNL     1      24.652  35.421  21.921  1.00  0.00     0.201 C 
ENDBRANCH  25  26
ENDBRANCH  24  25
ENDBRANCH  23  24
ENDBRANCH  18  23
BRANCH  22  28
HETATM   28  O5  UNL     1      21.878  30.306  14.757  1.00  0.00    -0.354 OA
HETATM   29  C29 UNL     1      21.972  30.403  13.368  1.00  0.00     0.210 C 
ENDBRANCH  22  28
ENDBRANCH  10  12
ENDBRANCH   1  10
BRANCH   9  30
HETATM   30  C21 UNL     1      17.529  31.449  14.243  1.00  0.00    -0.004 A 
HETATM   31  C22 UNL     1      18.118  32.628  13.844  1.00  0.00     0.016 A 
HETATM   32  C23 UNL     1      17.605  33.815  14.331  1.00  0.00     0.037 A 
HETATM   33  C24 UNL     1      16.532  33.864  15.196  1.00  0.00     0.068 A 
HETATM   34  C26 UNL     1      15.933  32.692  15.602  1.00  0.00     0.037 A 
HETATM   35  C27 UNL     1      16.441  31.505  15.119  1.00  0.00     0.016 A 
BRANCH  33  36
HETATM   36  O4  UNL     1      16.025  35.061  15.679  1.00  0.00    -0.356 OA
HETATM   37  C25 UNL     1      15.671  35.209  17.037  1.00  0.00     0.210 C 
ENDBRANCH  33  36
ENDBRANCH   9  30
BRANCH   4  38
HETATM   38  N4  UNL     1      19.045  26.456  12.629  1.00  0.00    -0.188 N 
ATOM     39  H4  UNL     1      18.466  25.657  12.887  1.00  0.00     0.184 HD
BRANCH  38  40
HETATM   40  C12 UNL     1      20.240  26.267  11.868  1.00  0.00     0.085 A 
HETATM   41  C13 UNL     1      21.425  26.863  12.249  1.00  0.00     0.069 A 
HETATM   42  C14 UNL     1      22.618  26.703  11.576  1.00  0.00     0.070 A 
HETATM   43  C16 UNL     1      22.602  25.892  10.456  1.00  0.00     0.039 A 
HETATM   44  C17 UNL     1      21.449  25.276  10.032  1.00  0.00     0.042 A 
HETATM   45  C18 UNL     1      20.270  25.473  10.752  1.00  0.00     0.095 A 
BRANCH  42  46
HETATM   46  O2  UNL     1      23.799  27.297  11.957  1.00  0.00    -0.356 OA
HETATM   47  C15 UNL     1      24.995  26.550  11.908  1.00  0.00     0.210 C 
ENDBRANCH  42  46
BRANCH  45  48
HETATM   48  O3  UNL     1      19.083  24.859  10.345  1.00  0.00    -0.354 OA
HETATM   49  C19 UNL     1      18.405  25.412   9.238  1.00  0.00     0.210 C 
ENDBRANCH  45  48
ENDBRANCH  38  40
ENDBRANCH   4  38
TORSDOF 13
ENDMDL
MODEL 5
REMARK VINA RESULT: -8.751233791      2.374      4.869
REMARK  13 active torsions:
REMARK  status: ('A' for Active; 'I' for Inactive)
REMARK    1  A    between atoms: O1_2  and  C2_3 
REMARK    2  A    between atoms: C2_3  and  C3_4 
REMARK    3  A    between atoms: C3_4  and  C4_5 
REMARK    4  A    between atoms: C4_5  and  N1_6 
REMARK    5  A    between atoms: C9_11  and  N2_12 
REMARK    6  A    between atoms: N2_12  and  C10_14 
REMARK    7  A    between atoms: C11_17  and  N4_18 
REMARK    8  A    between atoms: N4_18  and  C12_20 
REMARK    9  A    between atoms: C14_22  and  O2_23 
REMARK   10  A    between atoms: C18_27  and  O3_28 
REMARK   11  A    between atoms: C20_34  and  C21_35 
REMARK   12  A    between atoms: C24_38  and  O4_39 
REMARK   13  A    between atoms: C28_43  and  O5_44 
ROOT
HETATM    1  C10 UNL     1      20.627  29.655  12.826  1.00  0.00     0.150 A 
HETATM    2  N3  UNL     1      20.513  28.499  12.144  1.00  0.00    -0.173 N 
ATOM      3  H3  UNL     1      19.689  28.360  11.559  1.00  0.00     0.186 HD
HETATM    4  C11 UNL     1      21.436  27.514  12.197  1.00  0.00     0.699 A 
HETATM    5  N5  UNL     1      22.540  27.643  12.956  1.00  0.00    -0.131 N 
ATOM      6  H5  UNL     1      23.245  26.907  13.008  1.00  0.00     0.205 HD
HETATM    7  N6  UNL     1      22.662  28.765  13.624  1.00  0.00    -0.282 N 
ATOM      8  H6  UNL     1      23.495  28.876  14.202  1.00  0.00     0.187 HD
HETATM    9  C20 UNL     1      21.783  29.782  13.614  1.00  0.00     0.103 A 
ENDROOT
BRANCH   1  10
HETATM   10  N2  UNL     1      19.806  30.592  12.859  1.00  0.00    -0.338 N 
ATOM     11  H2  UNL     1      19.850  31.184  12.031  1.00  0.00     0.167 HD
BRANCH  10  12
HETATM   12  C9  UNL     1      18.850  31.010  13.762  1.00  0.00     0.068 A 
HETATM   13  C8  UNL     1      18.557  32.367  13.798  1.00  0.00     0.040 A 
HETATM   14  C7  UNL     1      17.590  32.901  14.663  1.00  0.00    -0.038 A 
HETATM   15  C6  UNL     1      17.333  34.340  14.703  1.00  0.00     0.059 C 
HETATM   16  C31 UNL     1      16.929  32.023  15.488  1.00  0.00     0.041 A 
HETATM   17  C5  UNL     1      16.100  34.798  15.376  1.00  0.00     0.130 C 
HETATM   18  N1  UNL     1      15.539  33.930  16.368  1.00  0.00    -0.348 N 
HETATM   19  C32 UNL     1      15.881  32.551  16.362  1.00  0.00     0.254 C 
HETATM   20  O6  UNL     1      15.299  31.700  17.112  1.00  0.00    -0.267 OA
HETATM   21  C30 UNL     1      17.240  30.687  15.435  1.00  0.00     0.056 A 
HETATM   22  C28 UNL     1      18.192  30.132  14.590  1.00  0.00     0.096 A 
BRANCH  18  23
HETATM   23  C4  UNL     1      14.595  34.457  17.317  1.00  0.00     0.128 C 
BRANCH  23  24
HETATM   24  C3  UNL     1      14.843  35.860  17.770  1.00  0.00     0.046 C 
BRANCH  24  25
HETATM   25  C2  UNL     1      15.799  35.991  18.896  1.00  0.00     0.168 C 
BRANCH  25  26
HETATM   26  O1  UNL     1      17.074  36.302  18.478  1.00  0.00    -0.396 OA
HETATM   27  C1  UNL     1      18.027  35.332  18.647  1.00  0.00     0.201 C 
ENDBRANCH  25  26
ENDBRANCH  24  25
ENDBRANCH  23  24
ENDBRANCH  18  23
BRANCH  22  28
HETATM   28  O5  UNL     1      18.449  28.766  14.597  1.00  0.00    -0.354 OA
HETATM   29  C29 UNL     1      17.566  27.811  14.090  1.00  0.00     0.210 C 
ENDBRANCH  22  28
ENDBRANCH  10  12
ENDBRANCH   1  10
BRANCH   9  30
HETATM   30  C21 UNL     1      21.995  30.999  14.380  1.00  0.00    -0.004 A 
HETATM   31  C22 UNL     1      22.565  32.149  13.883  1.00  0.00     0.016 A 
HETATM   32  C23 UNL     1      22.701  33.233  14.730  1.00  0.00     0.037 A 
HETATM   33  C24 UNL     1      22.290  33.205  16.046  1.00  0.00     0.068 A 
HETATM   34  C26 UNL     1      21.718  32.061  16.555  1.00  0.00     0.037 A 
HETATM   35  C27 UNL     1      21.580  30.978  15.715  1.00  0.00     0.016 A 
BRANCH  33  36
HETATM   36  O4  UNL     1      22.431  34.299  16.887  1.00  0.00    -0.356 OA
HETATM   37  C25 UNL     1      21.772  34.351  18.134  1.00  0.00     0.210 C 
ENDBRANCH  33  36
ENDBRANCH   9  30
BRANCH   4  38
HETATM   38  N4  UNL     1      21.269  26.436  11.466  1.00  0.00    -0.188 N 
ATOM     39  H4  UNL     1      21.916  25.651  11.548  1.00  0.00     0.184 HD
BRANCH  38  40
HETATM   40  C12 UNL     1      20.171  26.376  10.554  1.00  0.00     0.085 A 
HETATM   41  C13 UNL     1      19.156  27.310  10.605  1.00  0.00     0.069 A 
HETATM   42  C14 UNL     1      18.081  27.325   9.741  1.00  0.00     0.070 A 
HETATM   43  C16 UNL     1      18.040  26.338   8.774  1.00  0.00     0.039 A 
HETATM   44  C17 UNL     1      19.024  25.384   8.679  1.00  0.00     0.042 A 
HETATM   45  C18 UNL     1      20.089  25.416   9.580  1.00  0.00     0.095 A 
BRANCH  42  46
HETATM   46  O2  UNL     1      17.069  28.257   9.792  1.00  0.00    -0.356 OA
HETATM   47  C15 UNL     1      16.741  28.854  11.027  1.00  0.00     0.210 C 
ENDBRANCH  42  46
BRANCH  45  48
HETATM   48  O3  UNL     1      21.104  24.459   9.508  1.00  0.00    -0.354 OA
HETATM   49  C19 UNL     1      21.858  24.390   8.318  1.00  0.00     0.210 C 
ENDBRANCH  45  48
ENDBRANCH  38  40
ENDBRANCH   4  38
TORSDOF 13
ENDMDL
