MODEL 1
REMARK VINA RESULT: -9.323357365      0.000      0.000
REMARK  13 active torsions:
REMARK  status: ('A' for Active; 'I' for Inactive)
REMARK    1  A    between atoms: C4_4  and  C5_5 
REMARK    2  A    between atoms: C5_5  and  C6_6 
REMARK    3  A    between atoms: C6_6  and  C7_7 
REMARK    4  A    between atoms: C7_7  and  C8_8 
REMARK    5  A    between atoms: C8_8  and  C9_9 
REMARK       I    between atoms: C9_9  and  N1_11 
REMARK    6  A    between atoms: N1_11  and  C10_13 
REMARK    7  A    between atoms: C10_13  and  C11_14 
REMARK    8  A    between atoms: C11_14  and  C12_15 
REMARK    9  A    between atoms: C12_15  and  N2_16 
REMARK   10  A    between atoms: C19_26  and  C20_27 
REMARK   11  A    between atoms: N4_31  and  N5_33 
REMARK       I    between atoms: N5_33  and  C24_35 
REMARK   12  A    between atoms: C24_35  and  C25_37 
REMARK   13  A    between atoms: C25_37  and  C26_38 
ROOT
HETATM    1  C7  UNL     1      19.930  29.641  15.507  1.00  0.00     0.013 C 
HETATM    2  N4  UNL     1      20.977  28.932  15.367  1.00  0.00    -0.306 N 
ATOM      3  H4  UNL     1      21.772  29.138  15.972  1.00  0.00     0.186 HD
ENDROOT
BRANCH   1   4
HETATM    4  C6  UNL     1      18.756  29.353  14.631  1.00  0.00     0.058 C 
BRANCH   4   5
HETATM    5  C5  UNL     1      18.331  30.610  13.880  1.00  0.00     0.033 C 
BRANCH   5   6
HETATM    6  C4  UNL     1      17.154  31.171  14.599  1.00  0.00    -0.024 C 
HETATM    7  C2  UNL     1      17.115  32.476  14.853  1.00  0.00    -0.091 C 
HETATM    8  C1  UNL     1      18.231  33.367  14.422  1.00  0.00     0.042 C 
HETATM    9  C3  UNL     1      15.964  33.067  15.565  1.00  0.00     0.042 C 
ENDBRANCH   5   6
ENDBRANCH   4   5
ENDBRANCH   1   4
BRANCH   1  10
HETATM   10  C8  UNL     1      19.892  30.722  16.511  1.00  0.00     0.156 C 
BRANCH  10  11
HETATM   11  C9  UNL     1      21.010  31.667  16.398  1.00  0.00     0.223 C 
HETATM   12  O1  UNL     1      21.650  31.775  15.336  1.00  0.00    -0.273 OA
HETATM   13  N1  UNL     1      21.378  32.473  17.502  1.00  0.00    -0.360 N 
ATOM     14  H1  UNL     1      20.838  32.378  18.362  1.00  0.00     0.162 HD
BRANCH  13  15
HETATM   15  C10 UNL     1      22.479  33.431  17.494  1.00  0.00     0.128 C 
BRANCH  15  16
HETATM   16  C11 UNL     1      22.086  34.768  16.966  1.00  0.00     0.064 C 
BRANCH  16  17
HETATM   17  C12 UNL     1      21.618  35.824  17.871  1.00  0.00     0.061 C 
BRANCH  17  18
HETATM   18  N2  UNL     1      20.607  36.702  17.498  1.00  0.00    -0.374 N 
HETATM   19  C13 UNL     1      20.973  37.972  16.945  1.00  0.00     0.149 C 
HETATM   20  C14 UNL     1      21.223  39.007  18.054  1.00  0.00     0.187 C 
HETATM   21  O2  UNL     1      20.856  38.579  19.296  1.00  0.00    -0.387 OA
HETATM   22  C15 UNL     1      19.642  37.950  19.360  1.00  0.00     0.205 C 
HETATM   23  C16 UNL     1      19.458  36.858  18.322  1.00  0.00     0.097 C 
HETATM   24  C17 UNL     1      18.988  35.569  19.007  1.00  0.00     0.059 C 
HETATM   25  C19 UNL     1      18.258  37.096  17.488  1.00  0.00     0.036 C 
HETATM   26  C18 UNL     1      18.520  34.854  17.730  1.00  0.00     0.122 C 
HETATM   27  N3  UNL     1      17.720  35.952  17.144  1.00  0.00    -0.391 N 
ATOM     28  H3  UNL     1      16.887  35.836  16.567  1.00  0.00     0.159 HD
BRANCH  25  29
HETATM   29  C20 UNL     1      17.700  38.407  17.126  1.00  0.00     0.029 C 
HETATM   30  C21 UNL     1      16.640  38.915  17.716  1.00  0.00    -0.086 C 
HETATM   31  C22 UNL     1      16.176  40.269  17.243  1.00  0.00     0.043 C 
HETATM   32  C23 UNL     1      15.887  38.245  18.805  1.00  0.00     0.043 C 
ENDBRANCH  25  29
ENDBRANCH  17  18
ENDBRANCH  16  17
ENDBRANCH  15  16
ENDBRANCH  13  15
ENDBRANCH  10  11
ENDBRANCH   1  10
BRANCH   2  33
HETATM   33  N5  UNL     1      21.119  27.894  14.450  1.00  0.00    -0.270 N 
HETATM   34  C24 UNL     1      21.911  28.004  13.289  1.00  0.00     0.236 C 
HETATM   35  O3  UNL     1      22.513  29.108  13.085  1.00  0.00    -0.272 OA
ATOM     36  H5  UNL     1      20.628  27.017  14.625  1.00  0.00     0.190 HD
BRANCH  34  37
HETATM   37  C25 UNL     1      22.035  26.877  12.348  1.00  0.00     0.114 C 
BRANCH  37  38
HETATM   38  C26 UNL     1      21.072  27.037  11.186  1.00  0.00     0.052 C 
HETATM   39  C27 UNL     1      20.903  25.704  10.543  1.00  0.00     0.178 C 
HETATM   40  O4  UNL     1      19.550  25.400  10.478  1.00  0.00    -0.358 OA
HETATM   41  C28 UNL     1      18.946  26.082  11.523  1.00  0.00     0.292 C 
HETATM   42  O5  UNL     1      17.676  26.516  11.221  1.00  0.00    -0.324 OA
HETATM   43  C32 UNL     1      19.711  27.340  11.746  1.00  0.00     0.187 C 
HETATM   44  C29 UNL     1      17.829  27.726  10.573  1.00  0.00     0.160 C 
HETATM   45  C30 UNL     1      17.725  27.500   9.092  1.00  0.00     0.078 C 
HETATM   46  C31 UNL     1      16.713  28.696  10.973  1.00  0.00     0.078 C 
HETATM   47  O6  UNL     1      19.020  28.274  10.973  1.00  0.00    -0.345 OA
ENDBRANCH  37  38
ENDBRANCH  34  37
ENDBRANCH   2  33
TORSDOF 13
ENDMDL
MODEL 2
REMARK VINA RESULT: -9.146763601      2.193      4.364
REMARK  13 active torsions:
REMARK  status: ('A' for Active; 'I' for Inactive)
REMARK    1  A    between atoms: C4_4  and  C5_5 
REMARK    2  A    between atoms: C5_5  and  C6_6 
REMARK    3  A    between atoms: C6_6  and  C7_7 
REMARK    4  A    between atoms: C7_7  and  C8_8 
REMARK    5  A    between atoms: C8_8  and  C9_9 
REMARK       I    between atoms: C9_9  and  N1_11 
REMARK    6  A    between atoms: N1_11  and  C10_13 
REMARK    7  A    between atoms: C10_13  and  C11_14 
REMARK    8  A    between atoms: C11_14  and  C12_15 
REMARK    9  A    between atoms: C12_15  and  N2_16 
REMARK   10  A    between atoms: C19_26  and  C20_27 
REMARK   11  A    between atoms: N4_31  and  N5_33 
REMARK       I    between atoms: N5_33  and  C24_35 
REMARK   12  A    between atoms: C24_35  and  C25_37 
REMARK   13  A    between atoms: C25_37  and  C26_38 
ROOT
HETATM    1  C7  UNL     1      20.782  29.064  13.576  1.00  0.00     0.013 C 
HETATM    2  N4  UNL     1      19.791  29.607  12.993  1.00  0.00    -0.306 N 
ATOM      3  H4  UNL     1      19.378  30.430  13.431  1.00  0.00     0.186 HD
ENDROOT
BRANCH   1   4
HETATM    4  C6  UNL     1      21.401  27.858  12.951  1.00  0.00     0.058 C 
BRANCH   4   5
HETATM    5  C5  UNL     1      22.844  28.147  12.550  1.00  0.00     0.033 C 
BRANCH   5   6
HETATM    6  C4  UNL     1      23.024  27.630  11.166  1.00  0.00    -0.024 C 
HETATM    7  C2  UNL     1      24.084  26.875  10.892  1.00  0.00    -0.091 C 
HETATM    8  C1  UNL     1      25.077  26.547  11.955  1.00  0.00     0.042 C 
HETATM    9  C3  UNL     1      24.295  26.345   9.530  1.00  0.00     0.042 C 
ENDBRANCH   5   6
ENDBRANCH   4   5
ENDBRANCH   1   4
BRANCH   1  10
HETATM   10  C8  UNL     1      21.296  29.619  14.844  1.00  0.00     0.156 C 
BRANCH  10  11
HETATM   11  C9  UNL     1      21.900  30.950  14.698  1.00  0.00     0.223 C 
HETATM   12  O1  UNL     1      22.005  31.485  13.580  1.00  0.00    -0.273 OA
HETATM   13  N1  UNL     1      22.374  31.648  15.836  1.00  0.00    -0.360 N 
ATOM     14  H1  UNL     1      22.272  31.198  16.746  1.00  0.00     0.162 HD
BRANCH  13  15
HETATM   15  C10 UNL     1      22.998  32.966  15.794  1.00  0.00     0.128 C 
BRANCH  15  16
HETATM   16  C11 UNL     1      22.239  33.996  16.556  1.00  0.00     0.064 C 
BRANCH  16  17
HETATM   17  C12 UNL     1      20.837  33.773  16.929  1.00  0.00     0.061 C 
BRANCH  17  18
HETATM   18  N2  UNL     1      19.941  34.829  17.046  1.00  0.00    -0.374 N 
HETATM   19  C13 UNL     1      20.433  36.096  17.498  1.00  0.00     0.149 C 
HETATM   20  C14 UNL     1      20.446  36.168  19.034  1.00  0.00     0.187 C 
HETATM   21  O2  UNL     1      19.813  35.121  19.638  1.00  0.00    -0.387 OA
HETATM   22  C15 UNL     1      18.608  34.776  19.090  1.00  0.00     0.205 C 
HETATM   23  C16 UNL     1      18.642  34.606  17.582  1.00  0.00     0.097 C 
HETATM   24  C17 UNL     1      18.020  33.258  17.200  1.00  0.00     0.059 C 
HETATM   25  C19 UNL     1      17.654  35.484  16.912  1.00  0.00     0.036 C 
HETATM   26  C18 UNL     1      17.833  33.569  15.706  1.00  0.00     0.122 C 
HETATM   27  N3  UNL     1      17.192  34.895  15.837  1.00  0.00    -0.391 N 
ATOM     28  H3  UNL     1      16.503  35.287  15.195  1.00  0.00     0.159 HD
BRANCH  25  29
HETATM   29  C20 UNL     1      17.204  36.800  17.387  1.00  0.00     0.029 C 
HETATM   30  C21 UNL     1      16.045  36.981  17.982  1.00  0.00    -0.086 C 
HETATM   31  C22 UNL     1      15.710  38.386  18.416  1.00  0.00     0.043 C 
HETATM   32  C23 UNL     1      15.065  35.901  18.253  1.00  0.00     0.043 C 
ENDBRANCH  25  29
ENDBRANCH  17  18
ENDBRANCH  16  17
ENDBRANCH  15  16
ENDBRANCH  13  15
ENDBRANCH  10  11
ENDBRANCH   1  10
BRANCH   2  33
HETATM   33  N5  UNL     1      19.228  29.162  11.801  1.00  0.00    -0.270 N 
HETATM   34  C24 UNL     1      18.033  28.414  11.753  1.00  0.00     0.236 C 
HETATM   35  O3  UNL     1      17.461  28.141  12.857  1.00  0.00    -0.272 OA
ATOM     36  H5  UNL     1      19.699  29.386  10.924  1.00  0.00     0.190 HD
BRANCH  34  37
HETATM   37  C25 UNL     1      17.472  27.968  10.466  1.00  0.00     0.114 C 
BRANCH  37  38
HETATM   38  C26 UNL     1      18.443  27.053   9.742  1.00  0.00     0.052 C 
HETATM   39  C27 UNL     1      18.450  25.740  10.447  1.00  0.00     0.178 C 
HETATM   40  O4  UNL     1      18.186  24.732   9.531  1.00  0.00    -0.358 OA
HETATM   41  C28 UNL     1      17.437  25.311   8.518  1.00  0.00     0.292 C 
HETATM   42  O5  UNL     1      17.701  24.776   7.279  1.00  0.00    -0.324 OA
HETATM   43  C32 UNL     1      17.865  26.732   8.393  1.00  0.00     0.187 C 
HETATM   44  C29 UNL     1      18.804  25.453   6.796  1.00  0.00     0.160 C 
HETATM   45  C30 UNL     1      20.029  24.617   7.031  1.00  0.00     0.078 C 
HETATM   46  C31 UNL     1      18.680  25.679   5.285  1.00  0.00     0.078 C 
HETATM   47  O6  UNL     1      18.843  26.683   7.399  1.00  0.00    -0.345 OA
ENDBRANCH  37  38
ENDBRANCH  34  37
ENDBRANCH   2  33
TORSDOF 13
ENDMDL
MODEL 3
REMARK VINA RESULT: -9.135879012      0.981      1.117
REMARK  13 active torsions:
REMARK  status: ('A' for Active; 'I' for Inactive)
REMARK    1  A    between atoms: C4_4  and  C5_5 
REMARK    2  A    between atoms: C5_5  and  C6_6 
REMARK    3  A    between atoms: C6_6  and  C7_7 
REMARK    4  A    between atoms: C7_7  and  C8_8 
REMARK    5  A    between atoms: C8_8  and  C9_9 
REMARK       I    between atoms: C9_9  and  N1_11 
REMARK    6  A    between atoms: N1_11  and  C10_13 
REMARK    7  A    between atoms: C10_13  and  C11_14 
REMARK    8  A    between atoms: C11_14  and  C12_15 
REMARK    9  A    between atoms: C12_15  and  N2_16 
REMARK   10  A    between atoms: C19_26  and  C20_27 
REMARK   11  A    between atoms: N4_31  and  N5_33 
REMARK       I    between atoms: N5_33  and  C24_35 
REMARK   12  A    between atoms: C24_35  and  C25_37 
REMARK   13  A    between atoms: C25_37  and  C26_38 
ROOT
HETATM    1  C7  UNL     1      20.199  30.727  15.807  1.00  0.00     0.013 C 
HETATM    2  N4  UNL     1      21.347  30.247  15.540  1.00  0.00    -0.306 N 
ATOM      3  H4  UNL     1      22.160  30.725  15.928  1.00  0.00     0.186 HD
ENDROOT
BRANCH   1   4
HETATM    4  C6  UNL     1      18.996  30.043  15.250  1.00  0.00     0.058 C 
BRANCH   4   5
HETATM    5  C5  UNL     1      18.271  30.956  14.267  1.00  0.00     0.033 C 
BRANCH   5   6
HETATM    6  C4  UNL     1      17.031  31.426  14.942  1.00  0.00    -0.024 C 
HETATM    7  C2  UNL     1      16.799  32.733  15.028  1.00  0.00    -0.091 C 
HETATM    8  C1  UNL     1      17.765  33.714  14.455  1.00  0.00     0.042 C 
HETATM    9  C3  UNL     1      15.580  33.236  15.691  1.00  0.00     0.042 C 
ENDBRANCH   5   6
ENDBRANCH   4   5
ENDBRANCH   1   4
BRANCH   1  10
HETATM   10  C8  UNL     1      20.075  31.935  16.647  1.00  0.00     0.156 C 
BRANCH  10  11
HETATM   11  C9  UNL     1      20.994  33.014  16.261  1.00  0.00     0.223 C 
HETATM   12  O1  UNL     1      21.231  33.254  15.064  1.00  0.00    -0.273 OA
HETATM   13  N1  UNL     1      21.627  33.801  17.253  1.00  0.00    -0.360 N 
ATOM     14  H1  UNL     1      21.415  33.596  18.230  1.00  0.00     0.162 HD
BRANCH  13  15
HETATM   15  C10 UNL     1      22.563  34.885  16.974  1.00  0.00     0.128 C 
BRANCH  15  16
HETATM   16  C11 UNL     1      22.005  36.232  17.280  1.00  0.00     0.064 C 
BRANCH  16  17
HETATM   17  C12 UNL     1      20.641  36.379  17.799  1.00  0.00     0.061 C 
BRANCH  17  18
HETATM   18  N2  UNL     1      19.835  37.450  17.426  1.00  0.00    -0.374 N 
HETATM   19  C13 UNL     1      20.465  38.672  17.027  1.00  0.00     0.149 C 
HETATM   20  C14 UNL     1      20.776  39.558  18.244  1.00  0.00     0.187 C 
HETATM   21  O2  UNL     1      20.222  39.108  19.406  1.00  0.00    -0.387 OA
HETATM   22  C15 UNL     1      18.918  38.702  19.310  1.00  0.00     0.205 C 
HETATM   23  C16 UNL     1      18.654  37.744  18.163  1.00  0.00     0.097 C 
HETATM   24  C17 UNL     1      17.906  36.510  18.683  1.00  0.00     0.059 C 
HETATM   25  C19 UNL     1      17.600  38.255  17.257  1.00  0.00     0.036 C 
HETATM   26  C18 UNL     1      17.451  35.990  17.310  1.00  0.00     0.122 C 
HETATM   27  N3  UNL     1      16.912  37.255  16.765  1.00  0.00    -0.391 N 
ATOM     28  H3  UNL     1      16.132  37.335  16.112  1.00  0.00     0.159 HD
BRANCH  25  29
HETATM   29  C20 UNL     1      17.312  39.669  16.973  1.00  0.00     0.029 C 
HETATM   30  C21 UNL     1      16.305  40.312  17.523  1.00  0.00    -0.086 C 
HETATM   31  C22 UNL     1      16.127  41.760  17.141  1.00  0.00     0.043 C 
HETATM   32  C23 UNL     1      15.351  39.708  18.486  1.00  0.00     0.043 C 
ENDBRANCH  25  29
ENDBRANCH  17  18
ENDBRANCH  16  17
ENDBRANCH  15  16
ENDBRANCH  13  15
ENDBRANCH  10  11
ENDBRANCH   1  10
BRANCH   2  33
HETATM   33  N5  UNL     1      21.575  29.120  14.757  1.00  0.00    -0.270 N 
HETATM   34  C24 UNL     1      21.950  29.195  13.400  1.00  0.00     0.236 C 
HETATM   35  O3  UNL     1      22.077  30.352  12.884  1.00  0.00    -0.272 OA
ATOM     36  H5  UNL     1      21.466  28.199  15.184  1.00  0.00     0.190 HD
BRANCH  34  37
HETATM   37  C25 UNL     1      22.185  27.972  12.612  1.00  0.00     0.114 C 
BRANCH  37  38
HETATM   38  C26 UNL     1      21.170  27.851  11.489  1.00  0.00     0.052 C 
HETATM   39  C27 UNL     1      21.173  26.439  11.017  1.00  0.00     0.178 C 
HETATM   40  O4  UNL     1      19.878  25.944  11.057  1.00  0.00    -0.358 OA
HETATM   41  C28 UNL     1      19.217  26.659  12.044  1.00  0.00     0.292 C 
HETATM   42  O5  UNL     1      17.888  26.872  11.758  1.00  0.00    -0.324 OA
HETATM   43  C32 UNL     1      19.799  28.030  12.078  1.00  0.00     0.187 C 
HETATM   44  C29 UNL     1      17.843  28.001  10.965  1.00  0.00     0.160 C 
HETATM   45  C30 UNL     1      17.723  27.582   9.528  1.00  0.00     0.078 C 
HETATM   46  C31 UNL     1      16.612  28.849  11.304  1.00  0.00     0.078 C 
HETATM   47  O6  UNL     1      18.955  28.755  11.237  1.00  0.00    -0.345 OA
ENDBRANCH  37  38
ENDBRANCH  34  37
ENDBRANCH   2  33
TORSDOF 13
ENDMDL
MODEL 4
REMARK VINA RESULT: -8.903962688      2.604      9.435
REMARK  13 active torsions:
REMARK  status: ('A' for Active; 'I' for Inactive)
REMARK    1  A    between atoms: C4_4  and  C5_5 
REMARK    2  A    between atoms: C5_5  and  C6_6 
REMARK    3  A    between atoms: C6_6  and  C7_7 
REMARK    4  A    between atoms: C7_7  and  C8_8 
REMARK    5  A    between atoms: C8_8  and  C9_9 
REMARK       I    between atoms: C9_9  and  N1_11 
REMARK    6  A    between atoms: N1_11  and  C10_13 
REMARK    7  A    between atoms: C10_13  and  C11_14 
REMARK    8  A    between atoms: C11_14  and  C12_15 
REMARK    9  A    between atoms: C12_15  and  N2_16 
REMARK   10  A    between atoms: C19_26  and  C20_27 
REMARK   11  A    between atoms: N4_31  and  N5_33 
REMARK       I    between atoms: N5_33  and  C24_35 
REMARK   12  A    between atoms: C24_35  and  C25_37 
REMARK   13  A    between atoms: C25_37  and  C26_38 
ROOT
HETATM    1  C7  UNL     1      20.513  34.798  17.513  1.00  0.00     0.013 C 
HETATM    2  N4  UNL     1      19.755  34.040  16.829  1.00  0.00    -0.306 N 
ATOM      3  H4  UNL     1      20.049  33.072  16.697  1.00  0.00     0.186 HD
ENDROOT
BRANCH   1   4
HETATM    4  C6  UNL     1      20.100  36.218  17.718  1.00  0.00     0.058 C 
BRANCH   4   5
HETATM    5  C5  UNL     1      21.321  37.132  17.729  1.00  0.00     0.033 C 
BRANCH   5   6
HETATM    6  C4  UNL     1      21.361  37.820  16.410  1.00  0.00    -0.024 C 
HETATM    7  C2  UNL     1      21.376  39.150  16.377  1.00  0.00    -0.091 C 
HETATM    8  C1  UNL     1      21.354  39.941  17.641  1.00  0.00     0.042 C 
HETATM    9  C3  UNL     1      21.414  39.867  15.087  1.00  0.00     0.042 C 
ENDBRANCH   5   6
ENDBRANCH   4   5
ENDBRANCH   1   4
BRANCH   1  10
HETATM   10  C8  UNL     1      21.772  34.276  18.081  1.00  0.00     0.156 C 
BRANCH  10  11
HETATM   11  C9  UNL     1      22.435  33.285  17.223  1.00  0.00     0.223 C 
HETATM   12  O1  UNL     1      22.381  32.070  17.490  1.00  0.00    -0.273 OA
HETATM   13  N1  UNL     1      23.150  33.699  16.073  1.00  0.00    -0.360 N 
ATOM     14  H1  UNL     1      23.177  34.698  15.865  1.00  0.00     0.162 HD
BRANCH  13  15
HETATM   15  C10 UNL     1      23.851  32.796  15.167  1.00  0.00     0.128 C 
BRANCH  15  16
HETATM   16  C11 UNL     1      22.982  32.272  14.077  1.00  0.00     0.064 C 
BRANCH  16  17
HETATM   17  C12 UNL     1      22.270  30.998  14.231  1.00  0.00     0.061 C 
BRANCH  17  18
HETATM   18  N2  UNL     1      21.200  30.662  13.409  1.00  0.00    -0.374 N 
HETATM   19  C13 UNL     1      20.458  31.718  12.788  1.00  0.00     0.149 C 
HETATM   20  C14 UNL     1      19.351  32.239  13.719  1.00  0.00     0.187 C 
HETATM   21  O2  UNL     1      19.170  31.477  14.836  1.00  0.00    -0.387 OA
HETATM   22  C15 UNL     1      19.151  30.126  14.621  1.00  0.00     0.205 C 
HETATM   23  C16 UNL     1      20.312  29.617  13.787  1.00  0.00     0.097 C 
HETATM   24  C17 UNL     1      20.984  28.439  14.502  1.00  0.00     0.059 C 
HETATM   25  C19 UNL     1      19.841  28.886  12.587  1.00  0.00     0.036 C 
HETATM   26  C18 UNL     1      21.776  27.927  13.288  1.00  0.00     0.122 C 
HETATM   27  N3  UNL     1      20.678  27.921  12.297  1.00  0.00    -0.391 N 
ATOM     28  H3  UNL     1      20.588  27.272  11.515  1.00  0.00     0.159 HD
BRANCH  25  29
HETATM   29  C20 UNL     1      18.601  29.149  11.844  1.00  0.00     0.029 C 
HETATM   30  C21 UNL     1      17.511  28.430  12.005  1.00  0.00    -0.086 C 
HETATM   31  C22 UNL     1      16.311  28.811  11.175  1.00  0.00     0.043 C 
HETATM   32  C23 UNL     1      17.394  27.287  12.943  1.00  0.00     0.043 C 
ENDBRANCH  25  29
ENDBRANCH  17  18
ENDBRANCH  16  17
ENDBRANCH  15  16
ENDBRANCH  13  15
ENDBRANCH  10  11
ENDBRANCH   1  10
BRANCH   2  33
HETATM   33  N5  UNL     1      18.553  34.432  16.248  1.00  0.00    -0.270 N 
HETATM   34  C24 UNL     1      17.318  33.827  16.562  1.00  0.00     0.236 C 
HETATM   35  O3  UNL     1      17.323  32.880  17.414  1.00  0.00    -0.272 OA
ATOM     36  H5  UNL     1      18.565  35.190  15.565  1.00  0.00     0.190 HD
BRANCH  34  37
HETATM   37  C25 UNL     1      16.070  34.279  15.924  1.00  0.00     0.114 C 
BRANCH  37  38
HETATM   38  C26 UNL     1      15.536  35.525  16.607  1.00  0.00     0.052 C 
HETATM   39  C27 UNL     1      14.767  35.098  17.808  1.00  0.00     0.178 C 
HETATM   40  O4  UNL     1      15.257  35.764  18.922  1.00  0.00    -0.358 OA
HETATM   41  C28 UNL     1      16.583  36.061  18.647  1.00  0.00     0.292 C 
HETATM   42  O5  UNL     1      16.993  37.255  19.194  1.00  0.00    -0.324 OA
HETATM   43  C32 UNL     1      16.704  36.280  17.179  1.00  0.00     0.187 C 
HETATM   44  C29 UNL     1      16.627  38.235  18.291  1.00  0.00     0.160 C 
HETATM   45  C30 UNL     1      15.345  38.866  18.752  1.00  0.00     0.078 C 
HETATM   46  C31 UNL     1      17.691  39.337  18.232  1.00  0.00     0.078 C 
HETATM   47  O6  UNL     1      16.553  37.661  17.050  1.00  0.00    -0.345 OA
ENDBRANCH  37  38
ENDBRANCH  34  37
ENDBRANCH   2  33
TORSDOF 13
ENDMDL
MODEL 5
REMARK VINA RESULT: -8.831704042      2.191     11.040
REMARK  13 active torsions:
REMARK  status: ('A' for Active; 'I' for Inactive)
REMARK    1  A    between atoms: C4_4  and  C5_5 
REMARK    2  A    between atoms: C5_5  and  C6_6 
REMARK    3  A    between atoms: C6_6  and  C7_7 
REMARK    4  A    between atoms: C7_7  and  C8_8 
REMARK    5  A    between atoms: C8_8  and  C9_9 
REMARK       I    between atoms: C9_9  and  N1_11 
REMARK    6  A    between atoms: N1_11  and  C10_13 
REMARK    7  A    between atoms: C10_13  and  C11_14 
REMARK    8  A    between atoms: C11_14  and  C12_15 
REMARK    9  A    between atoms: C12_15  and  N2_16 
REMARK   10  A    between atoms: C19_26  and  C20_27 
REMARK   11  A    between atoms: N4_31  and  N5_33 
REMARK       I    between atoms: N5_33  and  C24_35 
REMARK   12  A    between atoms: C24_35  and  C25_37 
REMARK   13  A    between atoms: C25_37  and  C26_38 
ROOT
HETATM    1  C7  UNL     1      18.626  31.833  15.227  1.00  0.00     0.013 C 
HETATM    2  N4  UNL     1      19.713  32.445  15.477  1.00  0.00    -0.306 N 
ATOM      3  H4  UNL     1      20.395  32.523  14.723  1.00  0.00     0.186 HD
ENDROOT
BRANCH   1   4
HETATM    4  C6  UNL     1      17.614  31.708  16.317  1.00  0.00     0.058 C 
BRANCH   4   5
HETATM    5  C5  UNL     1      16.224  32.057  15.795  1.00  0.00     0.033 C 
BRANCH   5   6
HETATM    6  C4  UNL     1      15.625  33.019  16.760  1.00  0.00    -0.024 C 
HETATM    7  C2  UNL     1      15.661  34.320  16.480  1.00  0.00    -0.091 C 
HETATM    8  C1  UNL     1      16.288  34.807  15.218  1.00  0.00     0.042 C 
HETATM    9  C3  UNL     1      15.078  35.303  17.414  1.00  0.00     0.042 C 
ENDBRANCH   5   6
ENDBRANCH   4   5
ENDBRANCH   1   4
BRANCH   1  10
HETATM   10  C8  UNL     1      18.385  31.262  13.887  1.00  0.00     0.156 C 
BRANCH  10  11
HETATM   11  C9  UNL     1      19.603  31.139  13.075  1.00  0.00     0.223 C 
HETATM   12  O1  UNL     1      19.877  31.984  12.203  1.00  0.00    -0.273 OA
HETATM   13  N1  UNL     1      20.487  30.051  13.273  1.00  0.00    -0.360 N 
ATOM     14  H1  UNL     1      20.251  29.373  13.997  1.00  0.00     0.162 HD
BRANCH  13  15
HETATM   15  C10 UNL     1      21.713  29.834  12.511  1.00  0.00     0.128 C 
BRANCH  15  16
HETATM   16  C11 UNL     1      21.938  28.404  12.161  1.00  0.00     0.064 C 
BRANCH  16  17
HETATM   17  C12 UNL     1      20.861  27.418  12.302  1.00  0.00     0.061 C 
BRANCH  17  18
HETATM   18  N2  UNL     1      20.045  27.078  11.228  1.00  0.00    -0.374 N 
HETATM   19  C13 UNL     1      18.885  27.877  10.971  1.00  0.00     0.149 C 
HETATM   20  C14 UNL     1      17.687  27.398  11.807  1.00  0.00     0.187 C 
HETATM   21  O2  UNL     1      17.905  26.216  12.452  1.00  0.00    -0.387 OA
HETATM   22  C15 UNL     1      18.505  25.244  11.698  1.00  0.00     0.205 C 
HETATM   23  C16 UNL     1      19.748  25.712  10.964  1.00  0.00     0.097 C 
HETATM   24  C17 UNL     1      20.905  24.745  11.241  1.00  0.00     0.059 C 
HETATM   25  C19 UNL     1      19.637  25.485   9.505  1.00  0.00     0.036 C 
HETATM   26  C18 UNL     1      21.813  25.227  10.099  1.00  0.00     0.122 C 
HETATM   27  N3  UNL     1      20.817  25.210   9.006  1.00  0.00    -0.391 N 
ATOM     28  H3  UNL     1      21.016  25.017   8.024  1.00  0.00     0.159 HD
BRANCH  25  29
HETATM   29  C20 UNL     1      18.397  25.507   8.716  1.00  0.00     0.029 C 
HETATM   30  C21 UNL     1      18.281  24.895   7.558  1.00  0.00    -0.086 C 
HETATM   31  C22 UNL     1      16.950  25.003   6.857  1.00  0.00     0.043 C 
HETATM   32  C23 UNL     1      19.364  24.113   6.913  1.00  0.00     0.043 C 
ENDBRANCH  25  29
ENDBRANCH  17  18
ENDBRANCH  16  17
ENDBRANCH  15  16
ENDBRANCH  13  15
ENDBRANCH  10  11
ENDBRANCH   1  10
BRANCH   2  33
HETATM   33  N5  UNL     1      20.040  33.015  16.704  1.00  0.00    -0.270 N 
HETATM   34  C24 UNL     1      21.065  33.973  16.852  1.00  0.00     0.236 C 
HETATM   35  O3  UNL     1      21.710  34.316  15.809  1.00  0.00    -0.272 OA
ATOM     36  H5  UNL     1      19.517  32.728  17.531  1.00  0.00     0.190 HD
BRANCH  34  37
HETATM   37  C25 UNL     1      21.373  34.553  18.171  1.00  0.00     0.114 C 
BRANCH  37  38
HETATM   38  C26 UNL     1      20.165  35.278  18.736  1.00  0.00     0.052 C 
HETATM   39  C27 UNL     1      20.603  36.024  19.949  1.00  0.00     0.178 C 
HETATM   40  O4  UNL     1      20.242  37.357  19.817  1.00  0.00    -0.358 OA
HETATM   41  C28 UNL     1      20.195  37.616  18.456  1.00  0.00     0.292 C 
HETATM   42  O5  UNL     1      19.217  38.521  18.113  1.00  0.00    -0.324 OA
HETATM   43  C32 UNL     1      19.778  36.362  17.770  1.00  0.00     0.187 C 
HETATM   44  C29 UNL     1      18.052  37.792  17.974  1.00  0.00     0.160 C 
HETATM   45  C30 UNL     1      17.243  37.926  19.231  1.00  0.00     0.078 C 
HETATM   46  C31 UNL     1      17.207  38.341  16.819  1.00  0.00     0.078 C 
HETATM   47  O6  UNL     1      18.394  36.502  17.663  1.00  0.00    -0.345 OA
ENDBRANCH  37  38
ENDBRANCH  34  37
ENDBRANCH   2  33
TORSDOF 13
ENDMDL
