MODEL 1
REMARK VINA RESULT: -9.196558210      0.000      0.000
REMARK  12 active torsions:
REMARK  status: ('A' for Active; 'I' for Inactive)
REMARK    1  A    between atoms: O1_2  and  C2_3 
REMARK    2  A    between atoms: C4_5  and  N1_6 
REMARK       I    between atoms: N1_6  and  C5_8 
REMARK       I    between atoms: C5_8  and  N2_10 
REMARK    3  A    between atoms: N2_10  and  C6_12 
REMARK    4  A    between atoms: C9_15  and  N3_16 
REMARK    5  A    between atoms: C19_27  and  O3_28 
REMARK    6  A    between atoms: O3_28  and  C20_29 
REMARK    7  A    between atoms: C20_29  and  C21_30 
REMARK    8  A    between atoms: C21_30  and  N5_31 
REMARK    9  A    between atoms: C27_38  and  O5_39 
REMARK   10  A    between atoms: O5_39  and  C28_40 
REMARK   11  A    between atoms: C28_40  and  C29_41 
REMARK   12  A    between atoms: C29_41  and  N6_42 
ROOT
HETATM    1  C2  UNL     1      18.486  28.771  13.105  1.00  0.00     0.103 A 
HETATM    2  C3  UNL     1      18.085  29.448  14.269  1.00  0.00     0.072 A 
HETATM    3  C4  UNL     1      18.999  30.061  15.079  1.00  0.00     0.072 A 
HETATM    4  C19 UNL     1      20.333  29.988  14.706  1.00  0.00     0.098 A 
HETATM    5  C26 UNL     1      20.713  29.324  13.564  1.00  0.00     0.078 A 
HETATM    6  C27 UNL     1      19.808  28.700  12.735  1.00  0.00     0.104 A 
ENDROOT
BRANCH   3   7
HETATM    7  N1  UNL     1      18.704  30.792  16.239  1.00  0.00    -0.306 N 
HETATM    8  C5  UNL     1      18.368  32.180  16.320  1.00  0.00     0.325 C 
HETATM    9  O2  UNL     1      18.305  32.826  15.262  1.00  0.00    -0.247 OA
HETATM   10  N2  UNL     1      18.120  32.759  17.603  1.00  0.00    -0.308 N 
ATOM     11  H2  UNL     1      18.215  32.144  18.411  1.00  0.00     0.170 HD
ATOM     12  H1  UNL     1      18.733  30.279  17.120  1.00  0.00     0.171 HD
BRANCH  10  13
HETATM   13  C6  UNL     1      17.755  34.100  17.864  1.00  0.00     0.043 A 
HETATM   14  C7  UNL     1      18.658  35.089  18.192  1.00  0.00     0.032 A 
HETATM   15  C8  UNL     1      18.205  36.377  18.383  1.00  0.00     0.032 A 
HETATM   16  C9  UNL     1      16.864  36.742  18.259  1.00  0.00     0.036 A 
HETATM   17  C15 UNL     1      15.995  35.751  17.936  1.00  0.00    -0.027 A 
HETATM   18  C16 UNL     1      14.529  36.062  17.813  1.00  0.00     0.051 C 
HETATM   19  C17 UNL     1      16.392  34.435  17.731  1.00  0.00    -0.027 A 
HETATM   20  C18 UNL     1      15.399  33.386  17.381  1.00  0.00     0.051 C 
BRANCH  16  21
HETATM   21  N3  UNL     1      16.479  38.091  18.440  1.00  0.00    -0.377 N 
HETATM   22  C10 UNL     1      15.997  38.503  19.739  1.00  0.00     0.142 C 
HETATM   23  C11 UNL     1      16.090  39.973  19.945  1.00  0.00     0.136 C 
HETATM   24  N4  UNL     1      17.028  40.688  19.169  1.00  0.00    -0.414 N 
HETATM   25  C12 UNL     1      18.141  41.179  19.898  1.00  0.00     0.143 C 
HETATM   26  C13 UNL     1      17.277  40.274  17.842  1.00  0.00     0.136 C 
HETATM   27  C14 UNL     1      16.513  39.066  17.382  1.00  0.00     0.142 C 
ENDBRANCH  16  21
ENDBRANCH  10  13
ENDBRANCH   3   7
BRANCH   4  28
HETATM   28  O3  UNL     1      21.316  30.593  15.489  1.00  0.00    -0.347 OA
BRANCH  28  29
HETATM   29  C20 UNL     1      22.314  31.413  14.854  1.00  0.00     0.206 C 
BRANCH  29  30
HETATM   30  C21 UNL     1      21.726  32.777  14.680  1.00  0.00     0.299 C 
BRANCH  30  31
HETATM   31  N5  UNL     1      22.132  33.693  15.726  1.00  0.00     0.094 N 
HETATM   32  C22 UNL     1      22.414  33.043  16.967  1.00  0.00     0.298 C 
HETATM   33  C23 UNL     1      22.063  33.975  18.104  1.00  0.00     0.198 C 
HETATM   34  O4  UNL     1      22.460  35.278  17.907  1.00  0.00    -0.388 OA
HETATM   35  C24 UNL     1      21.856  35.856  16.800  1.00  0.00     0.198 C 
HETATM   36  C25 UNL     1      21.269  34.820  15.867  1.00  0.00     0.298 C 
ENDBRANCH  30  31
ENDBRANCH  29  30
ENDBRANCH  28  29
ENDBRANCH   4  28
BRANCH   1  37
HETATM   37  O1  UNL     1      17.537  28.161  12.307  1.00  0.00    -0.353 OA
HETATM   38  C1  UNL     1      16.704  28.974  11.491  1.00  0.00     0.210 C 
ENDBRANCH   1  37
BRANCH   6  39
HETATM   39  O5  UNL     1      20.119  28.031  11.608  1.00  0.00    -0.346 OA
BRANCH  39  40
HETATM   40  C28 UNL     1      21.264  27.485  11.096  1.00  0.00     0.206 C 
BRANCH  40  41
HETATM   41  C29 UNL     1      21.549  26.060  11.458  1.00  0.00     0.299 C 
BRANCH  41  42
HETATM   42  N6  UNL     1      22.976  25.972  11.790  1.00  0.00     0.090 N 
HETATM   43  C30 UNL     1      23.530  27.229  12.134  1.00  0.00     0.272 C 
HETATM   44  C31 UNL     1      25.037  27.013  11.909  1.00  0.00     0.032 C 
HETATM   45  C32 UNL     1      24.994  26.188  10.632  1.00  0.00     0.032 C 
HETATM   46  C33 UNL     1      23.668  25.494  10.645  1.00  0.00     0.272 C 
ENDBRANCH  41  42
ENDBRANCH  40  41
ENDBRANCH  39  40
ENDBRANCH   6  39
TORSDOF 12
ENDMDL
MODEL 2
REMARK VINA RESULT: -9.157084656      0.726      1.168
REMARK  12 active torsions:
REMARK  status: ('A' for Active; 'I' for Inactive)
REMARK    1  A    between atoms: O1_2  and  C2_3 
REMARK    2  A    between atoms: C4_5  and  N1_6 
REMARK       I    between atoms: N1_6  and  C5_8 
REMARK       I    between atoms: C5_8  and  N2_10 
REMARK    3  A    between atoms: N2_10  and  C6_12 
REMARK    4  A    between atoms: C9_15  and  N3_16 
REMARK    5  A    between atoms: C19_27  and  O3_28 
REMARK    6  A    between atoms: O3_28  and  C20_29 
REMARK    7  A    between atoms: C20_29  and  C21_30 
REMARK    8  A    between atoms: C21_30  and  N5_31 
REMARK    9  A    between atoms: C27_38  and  O5_39 
REMARK   10  A    between atoms: O5_39  and  C28_40 
REMARK   11  A    between atoms: C28_40  and  C29_41 
REMARK   12  A    between atoms: C29_41  and  N6_42 
ROOT
HETATM    1  C2  UNL     1      18.411  28.360  12.479  1.00  0.00     0.103 A 
HETATM    2  C3  UNL     1      17.988  29.000  13.656  1.00  0.00     0.072 A 
HETATM    3  C4  UNL     1      18.888  29.567  14.513  1.00  0.00     0.072 A 
HETATM    4  C19 UNL     1      20.231  29.487  14.175  1.00  0.00     0.098 A 
HETATM    5  C26 UNL     1      20.633  28.860  13.020  1.00  0.00     0.078 A 
HETATM    6  C27 UNL     1      19.743  28.282  12.143  1.00  0.00     0.104 A 
ENDROOT
BRANCH   3   7
HETATM    7  N1  UNL     1      18.571  30.260  15.691  1.00  0.00    -0.306 N 
HETATM    8  C5  UNL     1      18.301  31.657  15.822  1.00  0.00     0.325 C 
HETATM    9  O2  UNL     1      18.324  32.353  14.794  1.00  0.00    -0.247 OA
HETATM   10  N2  UNL     1      18.016  32.190  17.118  1.00  0.00    -0.308 N 
ATOM     11  H2  UNL     1      18.039  31.536  17.899  1.00  0.00     0.170 HD
ATOM     12  H1  UNL     1      18.529  29.706  16.547  1.00  0.00     0.171 HD
BRANCH  10  13
HETATM   13  C6  UNL     1      17.706  33.535  17.424  1.00  0.00     0.043 A 
HETATM   14  C7  UNL     1      18.654  34.491  17.723  1.00  0.00     0.032 A 
HETATM   15  C8  UNL     1      18.250  35.787  17.963  1.00  0.00     0.032 A 
HETATM   16  C9  UNL     1      16.916  36.192  17.920  1.00  0.00     0.036 A 
HETATM   17  C15 UNL     1      16.002  35.233  17.625  1.00  0.00    -0.027 A 
HETATM   18  C16 UNL     1      14.541  35.588  17.588  1.00  0.00     0.051 C 
HETATM   19  C17 UNL     1      16.348  33.912  17.373  1.00  0.00    -0.027 A 
HETATM   20  C18 UNL     1      15.307  32.899  17.057  1.00  0.00     0.051 C 
BRANCH  16  21
HETATM   21  N3  UNL     1      16.581  37.547  18.148  1.00  0.00    -0.377 N 
HETATM   22  C10 UNL     1      16.032  37.916  19.434  1.00  0.00     0.142 C 
HETATM   23  C11 UNL     1      16.178  39.367  19.725  1.00  0.00     0.136 C 
HETATM   24  N4  UNL     1      17.197  40.074  19.051  1.00  0.00    -0.414 N 
HETATM   25  C12 UNL     1      18.280  40.473  19.876  1.00  0.00     0.143 C 
HETATM   26  C13 UNL     1      17.516  39.716  17.723  1.00  0.00     0.136 C 
HETATM   27  C14 UNL     1      16.731  38.573  17.149  1.00  0.00     0.142 C 
ENDBRANCH  16  21
ENDBRANCH  10  13
ENDBRANCH   3   7
BRANCH   4  28
HETATM   28  O3  UNL     1      21.199  30.046  15.007  1.00  0.00    -0.347 OA
BRANCH  28  29
HETATM   29  C20 UNL     1      22.243  30.852  14.428  1.00  0.00     0.206 C 
BRANCH  29  30
HETATM   30  C21 UNL     1      21.723  32.251  14.328  1.00  0.00     0.299 C 
BRANCH  30  31
HETATM   31  N5  UNL     1      21.659  32.912  15.615  1.00  0.00     0.094 N 
HETATM   32  C22 UNL     1      21.449  34.321  15.516  1.00  0.00     0.298 C 
HETATM   33  C23 UNL     1      22.136  35.006  16.675  1.00  0.00     0.198 C 
HETATM   34  O4  UNL     1      21.968  34.372  17.885  1.00  0.00    -0.388 OA
HETATM   35  C24 UNL     1      22.498  33.090  17.890  1.00  0.00     0.198 C 
HETATM   36  C25 UNL     1      22.732  32.565  16.491  1.00  0.00     0.298 C 
ENDBRANCH  30  31
ENDBRANCH  29  30
ENDBRANCH  28  29
ENDBRANCH   4  28
BRANCH   1  37
HETATM   37  O1  UNL     1      17.477  27.796  11.632  1.00  0.00    -0.353 OA
HETATM   38  C1  UNL     1      16.748  28.644  10.755  1.00  0.00     0.210 C 
ENDBRANCH   1  37
BRANCH   6  39
HETATM   39  O5  UNL     1      20.076  27.651  11.000  1.00  0.00    -0.346 OA
BRANCH  39  40
HETATM   40  C28 UNL     1      20.422  26.368  10.673  1.00  0.00     0.206 C 
BRANCH  40  41
HETATM   41  C29 UNL     1      21.564  25.766  11.431  1.00  0.00     0.299 C 
BRANCH  41  42
HETATM   42  N6  UNL     1      22.797  26.370  10.914  1.00  0.00     0.090 N 
HETATM   43  C30 UNL     1      23.693  25.408  10.388  1.00  0.00     0.272 C 
HETATM   44  C31 UNL     1      25.044  26.142  10.421  1.00  0.00     0.032 C 
HETATM   45  C32 UNL     1      24.922  26.855  11.759  1.00  0.00     0.032 C 
HETATM   46  C33 UNL     1      23.453  27.027  11.990  1.00  0.00     0.272 C 
ENDBRANCH  41  42
ENDBRANCH  40  41
ENDBRANCH  39  40
ENDBRANCH   6  39
TORSDOF 12
ENDMDL
MODEL 3
REMARK VINA RESULT: -9.124786101      1.334      1.703
REMARK  12 active torsions:
REMARK  status: ('A' for Active; 'I' for Inactive)
REMARK    1  A    between atoms: O1_2  and  C2_3 
REMARK    2  A    between atoms: C4_5  and  N1_6 
REMARK       I    between atoms: N1_6  and  C5_8 
REMARK       I    between atoms: C5_8  and  N2_10 
REMARK    3  A    between atoms: N2_10  and  C6_12 
REMARK    4  A    between atoms: C9_15  and  N3_16 
REMARK    5  A    between atoms: C19_27  and  O3_28 
REMARK    6  A    between atoms: O3_28  and  C20_29 
REMARK    7  A    between atoms: C20_29  and  C21_30 
REMARK    8  A    between atoms: C21_30  and  N5_31 
REMARK    9  A    between atoms: C27_38  and  O5_39 
REMARK   10  A    between atoms: O5_39  and  C28_40 
REMARK   11  A    between atoms: C28_40  and  C29_41 
REMARK   12  A    between atoms: C29_41  and  N6_42 
ROOT
HETATM    1  C2  UNL     1      18.733  27.426  12.195  1.00  0.00     0.103 A 
HETATM    2  C3  UNL     1      18.239  28.023  13.367  1.00  0.00     0.072 A 
HETATM    3  C4  UNL     1      19.034  28.819  14.142  1.00  0.00     0.072 A 
HETATM    4  C19 UNL     1      20.344  29.013  13.726  1.00  0.00     0.098 A 
HETATM    5  C26 UNL     1      20.815  28.424  12.577  1.00  0.00     0.078 A 
HETATM    6  C27 UNL     1      20.030  27.619  11.782  1.00  0.00     0.104 A 
ENDROOT
BRANCH   3   7
HETATM    7  N1  UNL     1      18.633  29.491  15.306  1.00  0.00    -0.306 N 
HETATM    8  C5  UNL     1      18.394  30.893  15.452  1.00  0.00     0.325 C 
HETATM    9  O2  UNL     1      18.532  31.613  14.451  1.00  0.00    -0.247 OA
HETATM   10  N2  UNL     1      18.010  31.401  16.732  1.00  0.00    -0.308 N 
ATOM     11  H2  UNL     1      17.942  30.726  17.493  1.00  0.00     0.170 HD
ATOM     12  H1  UNL     1      18.497  28.917  16.139  1.00  0.00     0.171 HD
BRANCH  10  13
HETATM   13  C6  UNL     1      17.714  32.747  17.047  1.00  0.00     0.043 A 
HETATM   14  C7  UNL     1      18.666  33.676  17.409  1.00  0.00     0.032 A 
HETATM   15  C8  UNL     1      18.279  34.976  17.653  1.00  0.00     0.032 A 
HETATM   16  C9  UNL     1      16.957  35.412  17.552  1.00  0.00     0.036 A 
HETATM   17  C15 UNL     1      16.038  34.479  17.195  1.00  0.00    -0.027 A 
HETATM   18  C16 UNL     1      14.589  34.867  17.094  1.00  0.00     0.051 C 
HETATM   19  C17 UNL     1      16.368  33.155  16.937  1.00  0.00    -0.027 A 
HETATM   20  C18 UNL     1      15.323  32.171  16.552  1.00  0.00     0.051 C 
BRANCH  16  21
HETATM   21  N3  UNL     1      16.640  36.770  17.788  1.00  0.00    -0.377 N 
HETATM   22  C10 UNL     1      16.078  37.136  19.069  1.00  0.00     0.142 C 
HETATM   23  C11 UNL     1      16.242  38.581  19.377  1.00  0.00     0.136 C 
HETATM   24  N4  UNL     1      17.283  39.278  18.725  1.00  0.00    -0.414 N 
HETATM   25  C12 UNL     1      18.359  39.651  19.571  1.00  0.00     0.143 C 
HETATM   26  C13 UNL     1      17.617  38.928  17.399  1.00  0.00     0.136 C 
HETATM   27  C14 UNL     1      16.822  37.803  16.802  1.00  0.00     0.142 C 
ENDBRANCH  16  21
ENDBRANCH  10  13
ENDBRANCH   3   7
BRANCH   4  28
HETATM   28  O3  UNL     1      21.206  29.814  14.472  1.00  0.00    -0.347 OA
BRANCH  28  29
HETATM   29  C20 UNL     1      22.235  30.560  13.795  1.00  0.00     0.206 C 
BRANCH  29  30
HETATM   30  C21 UNL     1      21.835  32.001  13.825  1.00  0.00     0.299 C 
BRANCH  30  31
HETATM   31  N5  UNL     1      21.729  32.518  15.173  1.00  0.00     0.094 N 
HETATM   32  C22 UNL     1      21.475  33.923  15.220  1.00  0.00     0.298 C 
HETATM   33  C23 UNL     1      22.121  34.501  16.458  1.00  0.00     0.198 C 
HETATM   34  O4  UNL     1      21.953  33.737  17.591  1.00  0.00    -0.388 OA
HETATM   35  C24 UNL     1      22.523  32.479  17.470  1.00  0.00     0.198 C 
HETATM   36  C25 UNL     1      22.797  32.112  16.028  1.00  0.00     0.298 C 
ENDBRANCH  30  31
ENDBRANCH  29  30
ENDBRANCH  28  29
ENDBRANCH   4  28
BRANCH   1  37
HETATM   37  O1  UNL     1      17.904  26.626  11.432  1.00  0.00    -0.353 OA
HETATM   38  C1  UNL     1      17.732  25.265  11.807  1.00  0.00     0.210 C 
ENDBRANCH   1  37
BRANCH   6  39
HETATM   39  O5  UNL     1      20.436  27.012  10.650  1.00  0.00    -0.346 OA
BRANCH  39  40
HETATM   40  C28 UNL     1      20.989  25.797  10.352  1.00  0.00     0.206 C 
BRANCH  40  41
HETATM   41  C29 UNL     1      21.688  25.085  11.468  1.00  0.00     0.299 C 
BRANCH  41  42
HETATM   42  N6  UNL     1      23.126  25.128  11.180  1.00  0.00     0.090 N 
HETATM   43  C30 UNL     1      23.762  26.252  11.760  1.00  0.00     0.272 C 
HETATM   44  C31 UNL     1      25.045  26.391  10.924  1.00  0.00     0.032 C 
HETATM   45  C32 UNL     1      24.490  26.085   9.541  1.00  0.00     0.032 C 
HETATM   46  C33 UNL     1      23.292  25.218   9.771  1.00  0.00     0.272 C 
ENDBRANCH  41  42
ENDBRANCH  40  41
ENDBRANCH  39  40
ENDBRANCH   6  39
TORSDOF 12
ENDMDL
MODEL 4
REMARK VINA RESULT: -9.037174158      2.627      4.715
REMARK  12 active torsions:
REMARK  status: ('A' for Active; 'I' for Inactive)
REMARK    1  A    between atoms: O1_2  and  C2_3 
REMARK    2  A    between atoms: C4_5  and  N1_6 
REMARK       I    between atoms: N1_6  and  C5_8 
REMARK       I    between atoms: C5_8  and  N2_10 
REMARK    3  A    between atoms: N2_10  and  C6_12 
REMARK    4  A    between atoms: C9_15  and  N3_16 
REMARK    5  A    between atoms: C19_27  and  O3_28 
REMARK    6  A    between atoms: O3_28  and  C20_29 
REMARK    7  A    between atoms: C20_29  and  C21_30 
REMARK    8  A    between atoms: C21_30  and  N5_31 
REMARK    9  A    between atoms: C27_38  and  O5_39 
REMARK   10  A    between atoms: O5_39  and  C28_40 
REMARK   11  A    between atoms: C28_40  and  C29_41 
REMARK   12  A    between atoms: C29_41  and  N6_42 
ROOT
HETATM    1  C2  UNL     1      20.583  28.379  13.932  1.00  0.00     0.103 A 
HETATM    2  C3  UNL     1      21.011  29.301  14.902  1.00  0.00     0.072 A 
HETATM    3  C4  UNL     1      20.114  30.061  15.597  1.00  0.00     0.072 A 
HETATM    4  C19 UNL     1      18.768  29.886  15.308  1.00  0.00     0.098 A 
HETATM    5  C26 UNL     1      18.361  28.980  14.358  1.00  0.00     0.078 A 
HETATM    6  C27 UNL     1      19.249  28.204  13.647  1.00  0.00     0.104 A 
ENDROOT
BRANCH   3   7
HETATM    7  N1  UNL     1      20.430  30.981  16.608  1.00  0.00    -0.306 N 
HETATM    8  C5  UNL     1      20.579  32.396  16.469  1.00  0.00     0.325 C 
HETATM    9  O2  UNL     1      20.395  32.893  15.346  1.00  0.00    -0.247 OA
HETATM   10  N2  UNL     1      20.927  33.173  17.617  1.00  0.00    -0.308 N 
ATOM     11  H2  UNL     1      21.072  32.665  18.489  1.00  0.00     0.170 HD
ATOM     12  H1  UNL     1      20.568  30.599  17.543  1.00  0.00     0.171 HD
BRANCH  10  13
HETATM   13  C6  UNL     1      21.091  34.577  17.664  1.00  0.00     0.043 A 
HETATM   14  C7  UNL     1      22.228  35.230  17.239  1.00  0.00     0.032 A 
HETATM   15  C8  UNL     1      22.271  36.606  17.285  1.00  0.00     0.032 A 
HETATM   16  C9  UNL     1      21.211  37.389  17.744  1.00  0.00     0.036 A 
HETATM   17  C15 UNL     1      20.103  36.723  18.159  1.00  0.00    -0.027 A 
HETATM   18  C16 UNL     1      18.930  37.497  18.695  1.00  0.00     0.051 C 
HETATM   19  C17 UNL     1      20.002  35.338  18.136  1.00  0.00    -0.027 A 
HETATM   20  C18 UNL     1      18.766  34.657  18.603  1.00  0.00     0.051 C 
BRANCH  16  21
HETATM   21  N3  UNL     1      21.316  38.799  17.734  1.00  0.00    -0.377 N 
HETATM   22  C10 UNL     1      20.909  39.513  16.544  1.00  0.00     0.142 C 
HETATM   23  C11 UNL     1      20.605  40.944  16.810  1.00  0.00     0.136 C 
HETATM   24  N4  UNL     1      20.255  41.309  18.128  1.00  0.00    -0.414 N 
HETATM   25  C12 UNL     1      18.893  41.671  18.295  1.00  0.00     0.143 C 
HETATM   26  C13 UNL     1      20.865  40.637  19.209  1.00  0.00     0.136 C 
HETATM   27  C14 UNL     1      21.839  39.557  18.840  1.00  0.00     0.142 C 
ENDBRANCH  16  21
ENDBRANCH  10  13
ENDBRANCH   3   7
BRANCH   4  28
HETATM   28  O3  UNL     1      17.802  30.631  15.982  1.00  0.00    -0.347 OA
BRANCH  28  29
HETATM   29  C20 UNL     1      17.069  31.642  15.266  1.00  0.00     0.206 C 
BRANCH  29  30
HETATM   30  C21 UNL     1      15.911  32.045  16.123  1.00  0.00     0.299 C 
BRANCH  30  31
HETATM   31  N5  UNL     1      16.030  33.402  16.614  1.00  0.00     0.094 N 
HETATM   32  C22 UNL     1      15.135  33.693  17.689  1.00  0.00     0.298 C 
HETATM   33  C23 UNL     1      14.743  35.152  17.624  1.00  0.00     0.198 C 
HETATM   34  O4  UNL     1      15.789  36.005  17.352  1.00  0.00    -0.388 OA
HETATM   35  C24 UNL     1      16.368  35.757  16.116  1.00  0.00     0.198 C 
HETATM   36  C25 UNL     1      16.008  34.388  15.583  1.00  0.00     0.298 C 
ENDBRANCH  30  31
ENDBRANCH  29  30
ENDBRANCH  28  29
ENDBRANCH   4  28
BRANCH   1  37
HETATM   37  O1  UNL     1      21.515  27.624  13.246  1.00  0.00    -0.353 OA
HETATM   38  C1  UNL     1      22.645  28.279  12.684  1.00  0.00     0.210 C 
ENDBRANCH   1  37
BRANCH   6  39
HETATM   39  O5  UNL     1      18.912  27.304  12.703  1.00  0.00    -0.346 OA
BRANCH  39  40
HETATM   40  C28 UNL     1      17.905  27.204  11.781  1.00  0.00     0.206 C 
BRANCH  40  41
HETATM   41  C29 UNL     1      18.151  27.836  10.447  1.00  0.00     0.299 C 
BRANCH  41  42
HETATM   42  N6  UNL     1      18.524  26.763   9.518  1.00  0.00     0.090 N 
HETATM   43  C30 UNL     1      18.311  27.119   8.164  1.00  0.00     0.272 C 
HETATM   44  C31 UNL     1      18.236  25.755   7.458  1.00  0.00     0.032 C 
HETATM   45  C32 UNL     1      17.434  24.971   8.485  1.00  0.00     0.032 C 
HETATM   46  C33 UNL     1      17.710  25.632   9.800  1.00  0.00     0.272 C 
ENDBRANCH  41  42
ENDBRANCH  40  41
ENDBRANCH  39  40
ENDBRANCH   6  39
TORSDOF 12
ENDMDL
MODEL 5
REMARK VINA RESULT: -8.960003211      2.964      4.957
REMARK  12 active torsions:
REMARK  status: ('A' for Active; 'I' for Inactive)
REMARK    1  A    between atoms: O1_2  and  C2_3 
REMARK    2  A    between atoms: C4_5  and  N1_6 
REMARK       I    between atoms: N1_6  and  C5_8 
REMARK       I    between atoms: C5_8  and  N2_10 
REMARK    3  A    between atoms: N2_10  and  C6_12 
REMARK    4  A    between atoms: C9_15  and  N3_16 
REMARK    5  A    between atoms: C19_27  and  O3_28 
REMARK    6  A    between atoms: O3_28  and  C20_29 
REMARK    7  A    between atoms: C20_29  and  C21_30 
REMARK    8  A    between atoms: C21_30  and  N5_31 
REMARK    9  A    between atoms: C27_38  and  O5_39 
REMARK   10  A    between atoms: O5_39  and  C28_40 
REMARK   11  A    between atoms: C28_40  and  C29_41 
REMARK   12  A    between atoms: C29_41  and  N6_42 
ROOT
HETATM    1  C2  UNL     1      20.542  28.385  13.863  1.00  0.00     0.103 A 
HETATM    2  C3  UNL     1      20.977  29.296  14.840  1.00  0.00     0.072 A 
HETATM    3  C4  UNL     1      20.085  30.047  15.550  1.00  0.00     0.072 A 
HETATM    4  C19 UNL     1      18.737  29.875  15.270  1.00  0.00     0.098 A 
HETATM    5  C26 UNL     1      18.323  28.980  14.313  1.00  0.00     0.078 A 
HETATM    6  C27 UNL     1      19.206  28.213  13.586  1.00  0.00     0.104 A 
ENDROOT
BRANCH   3   7
HETATM    7  N1  UNL     1      20.409  30.956  16.569  1.00  0.00    -0.306 N 
HETATM    8  C5  UNL     1      20.600  32.366  16.437  1.00  0.00     0.325 C 
HETATM    9  O2  UNL     1      20.451  32.870  15.312  1.00  0.00    -0.247 OA
HETATM   10  N2  UNL     1      20.950  33.130  17.593  1.00  0.00    -0.308 N 
ATOM     11  H2  UNL     1      21.065  32.616  18.466  1.00  0.00     0.170 HD
ATOM     12  H1  UNL     1      20.520  30.568  17.506  1.00  0.00     0.171 HD
BRANCH  10  13
HETATM   13  C6  UNL     1      21.153  34.529  17.648  1.00  0.00     0.043 A 
HETATM   14  C7  UNL     1      22.313  35.151  17.239  1.00  0.00     0.032 A 
HETATM   15  C8  UNL     1      22.394  36.525  17.290  1.00  0.00     0.032 A 
HETATM   16  C9  UNL     1      21.351  37.336  17.738  1.00  0.00     0.036 A 
HETATM   17  C15 UNL     1      20.219  36.701  18.136  1.00  0.00    -0.027 A 
HETATM   18  C16 UNL     1      19.062  37.506  18.659  1.00  0.00     0.051 C 
HETATM   19  C17 UNL     1      20.079  35.319  18.107  1.00  0.00    -0.027 A 
HETATM   20  C18 UNL     1      18.819  34.672  18.556  1.00  0.00     0.051 C 
BRANCH  16  21
HETATM   21  N3  UNL     1      21.496  38.743  17.734  1.00  0.00    -0.377 N 
HETATM   22  C10 UNL     1      22.064  39.383  18.899  1.00  0.00     0.142 C 
HETATM   23  C11 UNL     1      22.606  40.736  18.604  1.00  0.00     0.136 C 
HETATM   24  N4  UNL     1      22.968  41.023  17.270  1.00  0.00    -0.414 N 
HETATM   25  C12 UNL     1      24.365  41.137  17.053  1.00  0.00     0.143 C 
HETATM   26  C13 UNL     1      22.211  40.461  16.219  1.00  0.00     0.136 C 
HETATM   27  C14 UNL     1      21.075  39.573  16.635  1.00  0.00     0.142 C 
ENDBRANCH  16  21
ENDBRANCH  10  13
ENDBRANCH   3   7
BRANCH   4  28
HETATM   28  O3  UNL     1      17.776  30.612  15.960  1.00  0.00    -0.347 OA
BRANCH  28  29
HETATM   29  C20 UNL     1      17.056  31.648  15.268  1.00  0.00     0.206 C 
BRANCH  29  30
HETATM   30  C21 UNL     1      15.904  32.046  16.135  1.00  0.00     0.299 C 
BRANCH  30  31
HETATM   31  N5  UNL     1      16.020  33.405  16.623  1.00  0.00     0.094 N 
HETATM   32  C22 UNL     1      15.129  33.695  17.700  1.00  0.00     0.298 C 
HETATM   33  C23 UNL     1      14.731  35.152  17.634  1.00  0.00     0.198 C 
HETATM   34  O4  UNL     1      15.773  36.008  17.356  1.00  0.00    -0.388 OA
HETATM   35  C24 UNL     1      16.348  35.760  16.119  1.00  0.00     0.198 C 
HETATM   36  C25 UNL     1      15.990  34.389  15.589  1.00  0.00     0.298 C 
ENDBRANCH  30  31
ENDBRANCH  29  30
ENDBRANCH  28  29
ENDBRANCH   4  28
BRANCH   1  37
HETATM   37  O1  UNL     1      21.469  27.638  13.161  1.00  0.00    -0.353 OA
HETATM   38  C1  UNL     1      22.704  28.243  12.802  1.00  0.00     0.210 C 
ENDBRANCH   1  37
BRANCH   6  39
HETATM   39  O5  UNL     1      18.862  27.323  12.634  1.00  0.00    -0.346 OA
BRANCH  39  40
HETATM   40  C28 UNL     1      17.847  27.233  11.721  1.00  0.00     0.206 C 
BRANCH  40  41
HETATM   41  C29 UNL     1      18.086  27.867  10.386  1.00  0.00     0.299 C 
BRANCH  41  42
HETATM   42  N6  UNL     1      18.484  26.799   9.461  1.00  0.00     0.090 N 
HETATM   43  C30 UNL     1      18.300  27.160   8.104  1.00  0.00     0.272 C 
HETATM   44  C31 UNL     1      18.247  25.799   7.390  1.00  0.00     0.032 C 
HETATM   45  C32 UNL     1      17.425  25.007   8.397  1.00  0.00     0.032 C 
HETATM   46  C33 UNL     1      17.669  25.663   9.720  1.00  0.00     0.272 C 
ENDBRANCH  41  42
ENDBRANCH  40  41
ENDBRANCH  39  40
ENDBRANCH   6  39
TORSDOF 12
ENDMDL
