MODEL 1
REMARK VINA RESULT: -7.544172160      0.000      0.000
REMARK  20 active torsions:
REMARK  status: ('A' for Active; 'I' for Inactive)
REMARK    1  A    between atoms: O1_2  and  C2_3 
REMARK    2  A    between atoms: C2_3  and  C3_5 
REMARK    3  A    between atoms: C3_5  and  C4_6 
REMARK    4  A    between atoms: C4_6  and  C5_7 
REMARK    5  A    between atoms: C5_7  and  C6_8 
REMARK    6  A    between atoms: C6_8  and  C7_9 
REMARK    7  A    between atoms: C7_9  and  N1_10 
REMARK    8  A    between atoms: C7_9  and  C25_37 
REMARK       I    between atoms: N1_10  and  C8_12 
REMARK    9  A    between atoms: C8_12  and  C9_14 
REMARK       I    between atoms: N2_18  and  C13_19 
REMARK   10  A    between atoms: C13_19  and  C14_21 
REMARK   11  A    between atoms: C14_21  and  C15_22 
REMARK   12  A    between atoms: C14_21  and  N4_28 
REMARK   13  A    between atoms: C15_22  and  C16_23 
REMARK   14  A    between atoms: C16_23  and  C17_24 
REMARK   15  A    between atoms: C17_24  and  N3_25 
REMARK   16  A    between atoms: N4_28  and  C20_30 
REMARK   17  A    between atoms: C20_30  and  S2_32 
REMARK   18  A    between atoms: S2_32  and  C21_33 
REMARK   19  A    between atoms: C25_37  and  O6_39 
REMARK   20  A    between atoms: O6_39  and  C26_40 
ROOT
HETATM    1  C9  UNL     1      21.688  33.581  15.425  1.00  0.00     0.179 C 
HETATM    2  C10 UNL     1      22.754  33.930  16.457  1.00  0.00     0.037 C 
HETATM    3  C11 UNL     1      22.369  32.956  17.553  1.00  0.00     0.022 C 
HETATM    4  C12 UNL     1      21.859  31.728  16.787  1.00  0.00     0.127 C 
HETATM    5  N2  UNL     1      21.774  32.129  15.417  1.00  0.00    -0.337 N 
HETATM    6  C13 UNL     1      21.736  31.393  14.203  1.00  0.00     0.243 C 
HETATM    7  O4  UNL     1      21.592  32.110  13.143  1.00  0.00    -0.271 OA
ENDROOT
BRANCH   1   8
HETATM    8  C8  UNL     1      20.426  34.140  15.868  1.00  0.00     0.245 C 
HETATM    9  N1  UNL     1      20.260  35.038  16.961  1.00  0.00    -0.320 N 
ATOM     10  H1  UNL     1      21.084  35.331  17.485  1.00  0.00     0.169 HD
HETATM   11  O3  UNL     1      19.381  33.824  15.251  1.00  0.00    -0.271 OA
BRANCH   9  12
HETATM   12  C7  UNL     1      18.962  35.551  17.356  1.00  0.00     0.111 C 
BRANCH  12  13
HETATM   13  C6  UNL     1      18.916  36.959  17.764  1.00  0.00     0.036 C 
BRANCH  13  14
HETATM   14  C5  UNL     1      19.801  37.989  17.336  1.00  0.00    -0.001 C 
BRANCH  14  15
HETATM   15  C4  UNL     1      20.941  38.503  17.627  1.00  0.00    -0.017 C 
BRANCH  15  16
HETATM   16  C3  UNL     1      22.264  37.971  17.902  1.00  0.00     0.138 C 
BRANCH  16  17
HETATM   17  C2  UNL     1      22.264  37.289  19.245  1.00  0.00     0.261 C 
HETATM   18  O2  UNL     1      22.465  37.952  20.274  1.00  0.00    -0.265 OA
BRANCH  17  19
HETATM   19  O1  UNL     1      22.041  35.933  19.323  1.00  0.00    -0.326 OA
HETATM   20  C1  UNL     1      21.326  35.446  20.451  1.00  0.00     0.213 C 
ENDBRANCH  17  19
ENDBRANCH  16  17
ENDBRANCH  15  16
ENDBRANCH  14  15
ENDBRANCH  13  14
ENDBRANCH  12  13
BRANCH  12  21
HETATM   21  C25 UNL     1      18.152  34.618  18.144  1.00  0.00     0.310 C 
HETATM   22  O5  UNL     1      18.101  34.695  19.397  1.00  0.00    -0.258 OA
BRANCH  21  23
HETATM   23  O6  UNL     1      17.413  33.623  17.543  1.00  0.00    -0.306 OA
BRANCH  23  24
HETATM   24  C26 UNL     1      16.122  33.896  17.033  1.00  0.00     0.060 C 
HETATM   25  C27 UNL     1      16.167  34.914  15.914  1.00  0.00     0.046 C 
HETATM   26  C28 UNL     1      15.591  32.607  16.440  1.00  0.00     0.046 C 
HETATM   27  C29 UNL     1      15.175  34.392  18.076  1.00  0.00     0.046 C 
ENDBRANCH  23  24
ENDBRANCH  21  23
ENDBRANCH  12  21
ENDBRANCH   9  12
ENDBRANCH   1   8
BRANCH   6  28
HETATM   28  C14 UNL     1      21.829  29.964  13.987  1.00  0.00     0.175 C 
BRANCH  28  29
HETATM   29  C15 UNL     1      22.220  29.489  12.619  1.00  0.00     0.036 C 
BRANCH  29  30
HETATM   30  C16 UNL     1      22.753  28.081  12.542  1.00  0.00     0.033 C 
BRANCH  30  31
HETATM   31  C17 UNL     1      22.853  27.640  11.108  1.00  0.00     0.271 C 
BRANCH  31  32
HETATM   32  N3  UNL     1      24.200  27.207  10.858  1.00  0.00     0.080 N 
HETATM   33  C18 UNL     1      24.860  26.627  11.992  1.00  0.00     0.309 C 
HETATM   34  C19 UNL     1      24.262  26.366   9.686  1.00  0.00     0.309 C 
ENDBRANCH  31  32
ENDBRANCH  30  31
ENDBRANCH  29  30
ENDBRANCH  28  29
BRANCH  28  35
HETATM   35  N4  UNL     1      20.599  29.265  14.306  1.00  0.00    -0.362 N 
ATOM     36  H4  UNL     1      20.703  28.274  14.523  1.00  0.00     0.161 HD
BRANCH  35  37
HETATM   37  C20 UNL     1      19.285  29.759  14.358  1.00  0.00     0.135 C 
HETATM   38  S1  UNL     1      18.469  30.233  15.689  1.00  0.00    -0.053 SA
BRANCH  37  39
HETATM   39  S2  UNL     1      18.352  29.935  12.818  1.00  0.00    -0.092 SA
BRANCH  39  40
HETATM   40  C21 UNL     1      17.995  28.375  12.038  1.00  0.00     0.004 C 
HETATM   41  C22 UNL     1      19.096  27.888  11.129  1.00  0.00     0.026 C 
HETATM   42  C23 UNL     1      16.792  28.622  11.105  1.00  0.00     0.026 C 
HETATM   43  C24 UNL     1      17.569  27.271  12.946  1.00  0.00     0.026 C 
ENDBRANCH  39  40
ENDBRANCH  37  39
ENDBRANCH  35  37
ENDBRANCH  28  35
ENDBRANCH   6  28
TORSDOF 20
ENDMDL
MODEL 2
REMARK VINA RESULT: -7.410915925      3.457     10.246
REMARK  20 active torsions:
REMARK  status: ('A' for Active; 'I' for Inactive)
REMARK    1  A    between atoms: O1_2  and  C2_3 
REMARK    2  A    between atoms: C2_3  and  C3_5 
REMARK    3  A    between atoms: C3_5  and  C4_6 
REMARK    4  A    between atoms: C4_6  and  C5_7 
REMARK    5  A    between atoms: C5_7  and  C6_8 
REMARK    6  A    between atoms: C6_8  and  C7_9 
REMARK    7  A    between atoms: C7_9  and  N1_10 
REMARK    8  A    between atoms: C7_9  and  C25_37 
REMARK       I    between atoms: N1_10  and  C8_12 
REMARK    9  A    between atoms: C8_12  and  C9_14 
REMARK       I    between atoms: N2_18  and  C13_19 
REMARK   10  A    between atoms: C13_19  and  C14_21 
REMARK   11  A    between atoms: C14_21  and  C15_22 
REMARK   12  A    between atoms: C14_21  and  N4_28 
REMARK   13  A    between atoms: C15_22  and  C16_23 
REMARK   14  A    between atoms: C16_23  and  C17_24 
REMARK   15  A    between atoms: C17_24  and  N3_25 
REMARK   16  A    between atoms: N4_28  and  C20_30 
REMARK   17  A    between atoms: C20_30  and  S2_32 
REMARK   18  A    between atoms: S2_32  and  C21_33 
REMARK   19  A    between atoms: C25_37  and  O6_39 
REMARK   20  A    between atoms: O6_39  and  C26_40 
ROOT
HETATM    1  C9  UNL     1      20.092  29.091  14.487  1.00  0.00     0.179 C 
HETATM    2  C10 UNL     1      21.515  28.769  14.044  1.00  0.00     0.037 C 
HETATM    3  C11 UNL     1      21.575  29.596  12.775  1.00  0.00     0.022 C 
HETATM    4  C12 UNL     1      20.714  30.824  13.099  1.00  0.00     0.127 C 
HETATM    5  N2  UNL     1      20.079  30.538  14.348  1.00  0.00    -0.337 N 
HETATM    6  C13 UNL     1      19.483  31.370  15.334  1.00  0.00     0.243 C 
HETATM    7  O4  UNL     1      18.946  30.737  16.318  1.00  0.00    -0.271 OA
ENDROOT
BRANCH   1   8
HETATM    8  C8  UNL     1      19.175  28.363  13.632  1.00  0.00     0.245 C 
HETATM    9  N1  UNL     1      19.547  27.385  12.665  1.00  0.00    -0.320 N 
ATOM     10  H1  UNL     1      20.535  27.158  12.552  1.00  0.00     0.169 HD
HETATM   11  O3  UNL     1      17.947  28.592  13.738  1.00  0.00    -0.271 OA
BRANCH   9  12
HETATM   12  C7  UNL     1      18.574  26.701  11.836  1.00  0.00     0.111 C 
BRANCH  12  13
HETATM   13  C6  UNL     1      18.631  25.235  11.839  1.00  0.00     0.036 C 
BRANCH  13  14
HETATM   14  C5  UNL     1      19.810  24.439  11.781  1.00  0.00    -0.001 C 
BRANCH  14  15
HETATM   15  C4  UNL     1      21.023  24.491  11.363  1.00  0.00    -0.017 C 
BRANCH  15  16
HETATM   16  C3  UNL     1      21.954  25.562  11.051  1.00  0.00     0.138 C 
BRANCH  16  17
HETATM   17  C2  UNL     1      23.309  24.979  10.746  1.00  0.00     0.261 C 
HETATM   18  O2  UNL     1      23.494  24.368   9.682  1.00  0.00    -0.265 OA
BRANCH  17  19
HETATM   19  O1  UNL     1      24.335  25.128  11.650  1.00  0.00    -0.326 OA
HETATM   20  C1  UNL     1      25.002  26.383  11.690  1.00  0.00     0.213 C 
ENDBRANCH  17  19
ENDBRANCH  16  17
ENDBRANCH  15  16
ENDBRANCH  14  15
ENDBRANCH  13  14
ENDBRANCH  12  13
BRANCH  12  21
HETATM   21  C25 UNL     1      18.322  27.339  10.540  1.00  0.00     0.310 C 
HETATM   22  O5  UNL     1      17.403  28.183  10.394  1.00  0.00    -0.258 OA
BRANCH  21  23
HETATM   23  O6  UNL     1      19.085  27.040   9.432  1.00  0.00    -0.306 OA
BRANCH  23  24
HETATM   24  C26 UNL     1      18.549  26.257   8.382  1.00  0.00     0.060 C 
HETATM   25  C27 UNL     1      18.325  27.079   7.131  1.00  0.00     0.046 C 
HETATM   26  C28 UNL     1      19.578  25.199   8.041  1.00  0.00     0.046 C 
HETATM   27  C29 UNL     1      17.259  25.599   8.745  1.00  0.00     0.046 C 
ENDBRANCH  23  24
ENDBRANCH  21  23
ENDBRANCH  12  21
ENDBRANCH   9  12
ENDBRANCH   1   8
BRANCH   6  28
HETATM   28  C14 UNL     1      19.389  32.814  15.388  1.00  0.00     0.175 C 
BRANCH  28  29
HETATM   29  C15 UNL     1      18.432  33.487  14.449  1.00  0.00     0.036 C 
BRANCH  29  30
HETATM   30  C16 UNL     1      17.021  33.642  14.954  1.00  0.00     0.033 C 
BRANCH  30  31
HETATM   31  C17 UNL     1      17.028  34.085  16.391  1.00  0.00     0.271 C 
BRANCH  31  32
HETATM   32  N3  UNL     1      16.154  33.222  17.137  1.00  0.00     0.080 N 
HETATM   33  C18 UNL     1      15.133  33.905  17.879  1.00  0.00     0.309 C 
HETATM   34  C19 UNL     1      15.626  32.173  16.298  1.00  0.00     0.309 C 
ENDBRANCH  31  32
ENDBRANCH  30  31
ENDBRANCH  29  30
ENDBRANCH  28  29
BRANCH  28  35
HETATM   35  N4  UNL     1      20.666  33.469  15.180  1.00  0.00    -0.362 N 
ATOM     36  H4  UNL     1      20.660  34.238  14.511  1.00  0.00     0.161 HD
BRANCH  35  37
HETATM   37  C20 UNL     1      21.911  33.195  15.770  1.00  0.00     0.135 C 
HETATM   38  S1  UNL     1      23.267  32.699  15.010  1.00  0.00    -0.053 SA
BRANCH  37  39
HETATM   39  S2  UNL     1      22.104  33.418  17.556  1.00  0.00    -0.092 SA
BRANCH  39  40
HETATM   40  C21 UNL     1      21.603  35.032  18.114  1.00  0.00     0.004 C 
HETATM   41  C22 UNL     1      22.193  36.161  17.304  1.00  0.00     0.026 C 
HETATM   42  C23 UNL     1      22.196  35.207  19.526  1.00  0.00     0.026 C 
HETATM   43  C24 UNL     1      20.135  35.244  18.274  1.00  0.00     0.026 C 
ENDBRANCH  39  40
ENDBRANCH  37  39
ENDBRANCH  35  37
ENDBRANCH  28  35
ENDBRANCH   6  28
TORSDOF 20
ENDMDL
MODEL 3
REMARK VINA RESULT: -7.372189426      2.351      4.910
REMARK  20 active torsions:
REMARK  status: ('A' for Active; 'I' for Inactive)
REMARK    1  A    between atoms: O1_2  and  C2_3 
REMARK    2  A    between atoms: C2_3  and  C3_5 
REMARK    3  A    between atoms: C3_5  and  C4_6 
REMARK    4  A    between atoms: C4_6  and  C5_7 
REMARK    5  A    between atoms: C5_7  and  C6_8 
REMARK    6  A    between atoms: C6_8  and  C7_9 
REMARK    7  A    between atoms: C7_9  and  N1_10 
REMARK    8  A    between atoms: C7_9  and  C25_37 
REMARK       I    between atoms: N1_10  and  C8_12 
REMARK    9  A    between atoms: C8_12  and  C9_14 
REMARK       I    between atoms: N2_18  and  C13_19 
REMARK   10  A    between atoms: C13_19  and  C14_21 
REMARK   11  A    between atoms: C14_21  and  C15_22 
REMARK   12  A    between atoms: C14_21  and  N4_28 
REMARK   13  A    between atoms: C15_22  and  C16_23 
REMARK   14  A    between atoms: C16_23  and  C17_24 
REMARK   15  A    between atoms: C17_24  and  N3_25 
REMARK   16  A    between atoms: N4_28  and  C20_30 
REMARK   17  A    between atoms: C20_30  and  S2_32 
REMARK   18  A    between atoms: S2_32  and  C21_33 
REMARK   19  A    between atoms: C25_37  and  O6_39 
REMARK   20  A    between atoms: O6_39  and  C26_40 
ROOT
HETATM    1  C9  UNL     1      18.242  31.103  16.201  1.00  0.00     0.179 C 
HETATM    2  C10 UNL     1      16.753  31.246  16.497  1.00  0.00     0.037 C 
HETATM    3  C11 UNL     1      16.298  31.873  15.194  1.00  0.00     0.022 C 
HETATM    4  C12 UNL     1      17.212  31.232  14.142  1.00  0.00     0.127 C 
HETATM    5  N2  UNL     1      18.205  30.509  14.874  1.00  0.00    -0.337 N 
HETATM    6  C13 UNL     1      19.075  29.444  14.517  1.00  0.00     0.243 C 
HETATM    7  O4  UNL     1      19.894  29.084  15.443  1.00  0.00    -0.271 OA
ENDROOT
BRANCH   1   8
HETATM    8  C8  UNL     1      18.851  32.415  16.292  1.00  0.00     0.245 C 
HETATM    9  N1  UNL     1      18.927  33.209  17.473  1.00  0.00    -0.320 N 
ATOM     10  H1  UNL     1      18.533  32.840  18.339  1.00  0.00     0.169 HD
HETATM   11  O3  UNL     1      19.363  32.912  15.262  1.00  0.00    -0.271 OA
BRANCH   9  12
HETATM   12  C7  UNL     1      19.544  34.521  17.490  1.00  0.00     0.111 C 
BRANCH  12  13
HETATM   13  C6  UNL     1      20.929  34.584  17.970  1.00  0.00     0.036 C 
BRANCH  13  14
HETATM   14  C5  UNL     1      22.060  33.974  17.358  1.00  0.00    -0.001 C 
BRANCH  14  15
HETATM   15  C4  UNL     1      22.567  32.815  17.142  1.00  0.00    -0.017 C 
BRANCH  15  16
HETATM   16  C3  UNL     1      22.591  31.902  16.012  1.00  0.00     0.138 C 
BRANCH  16  17
HETATM   17  C2  UNL     1      23.184  32.597  14.815  1.00  0.00     0.261 C 
HETATM   18  O2  UNL     1      24.369  32.964  14.836  1.00  0.00    -0.265 OA
BRANCH  17  19
HETATM   19  O1  UNL     1      22.406  32.822  13.702  1.00  0.00    -0.326 OA
HETATM   20  C1  UNL     1      21.604  31.748  13.230  1.00  0.00     0.213 C 
ENDBRANCH  17  19
ENDBRANCH  16  17
ENDBRANCH  15  16
ENDBRANCH  14  15
ENDBRANCH  13  14
ENDBRANCH  12  13
BRANCH  12  21
HETATM   21  C25 UNL     1      18.657  35.607  17.919  1.00  0.00     0.310 C 
HETATM   22  O5  UNL     1      18.971  36.811  17.754  1.00  0.00    -0.258 OA
BRANCH  21  23
HETATM   23  O6  UNL     1      17.444  35.348  18.518  1.00  0.00    -0.306 OA
BRANCH  23  24
HETATM   24  C26 UNL     1      16.242  35.442  17.777  1.00  0.00     0.060 C 
HETATM   25  C27 UNL     1      15.314  34.283  18.069  1.00  0.00     0.046 C 
HETATM   26  C28 UNL     1      15.534  36.703  18.228  1.00  0.00     0.046 C 
HETATM   27  C29 UNL     1      16.469  35.498  16.303  1.00  0.00     0.046 C 
ENDBRANCH  23  24
ENDBRANCH  21  23
ENDBRANCH  12  21
ENDBRANCH   9  12
ENDBRANCH   1   8
BRANCH   6  28
HETATM   28  C14 UNL     1      19.175  28.713  13.271  1.00  0.00     0.175 C 
BRANCH  28  29
HETATM   29  C15 UNL     1      17.920  28.107  12.714  1.00  0.00     0.036 C 
BRANCH  29  30
HETATM   30  C16 UNL     1      18.117  27.054  11.654  1.00  0.00     0.033 C 
BRANCH  30  31
HETATM   31  C17 UNL     1      18.063  27.677  10.287  1.00  0.00     0.271 C 
BRANCH  31  32
HETATM   32  N3  UNL     1      18.673  26.773   9.351  1.00  0.00     0.080 N 
HETATM   33  C18 UNL     1      18.459  25.383   9.637  1.00  0.00     0.309 C 
HETATM   34  C19 UNL     1      18.326  27.123   7.995  1.00  0.00     0.309 C 
ENDBRANCH  31  32
ENDBRANCH  30  31
ENDBRANCH  29  30
ENDBRANCH  28  29
BRANCH  28  35
HETATM   35  N4  UNL     1      20.139  27.631  13.329  1.00  0.00    -0.362 N 
ATOM     36  H4  UNL     1      19.835  26.801  13.837  1.00  0.00     0.161 HD
BRANCH  35  37
HETATM   37  C20 UNL     1      21.431  27.564  12.784  1.00  0.00     0.135 C 
HETATM   38  S1  UNL     1      22.705  28.511  13.161  1.00  0.00    -0.053 SA
BRANCH  37  39
HETATM   39  S2  UNL     1      21.795  26.297  11.543  1.00  0.00    -0.092 SA
BRANCH  39  40
HETATM   40  C21 UNL     1      23.472  26.363  10.951  1.00  0.00     0.004 C 
HETATM   41  C22 UNL     1      23.803  27.640  10.216  1.00  0.00     0.026 C 
HETATM   42  C23 UNL     1      23.602  25.252   9.890  1.00  0.00     0.026 C 
HETATM   43  C24 UNL     1      24.534  26.074  11.957  1.00  0.00     0.026 C 
ENDBRANCH  39  40
ENDBRANCH  37  39
ENDBRANCH  35  37
ENDBRANCH  28  35
ENDBRANCH   6  28
TORSDOF 20
ENDMDL
MODEL 4
REMARK VINA RESULT: -7.332799966      1.741      2.351
REMARK  20 active torsions:
REMARK  status: ('A' for Active; 'I' for Inactive)
REMARK    1  A    between atoms: O1_2  and  C2_3 
REMARK    2  A    between atoms: C2_3  and  C3_5 
REMARK    3  A    between atoms: C3_5  and  C4_6 
REMARK    4  A    between atoms: C4_6  and  C5_7 
REMARK    5  A    between atoms: C5_7  and  C6_8 
REMARK    6  A    between atoms: C6_8  and  C7_9 
REMARK    7  A    between atoms: C7_9  and  N1_10 
REMARK    8  A    between atoms: C7_9  and  C25_37 
REMARK       I    between atoms: N1_10  and  C8_12 
REMARK    9  A    between atoms: C8_12  and  C9_14 
REMARK       I    between atoms: N2_18  and  C13_19 
REMARK   10  A    between atoms: C13_19  and  C14_21 
REMARK   11  A    between atoms: C14_21  and  C15_22 
REMARK   12  A    between atoms: C14_21  and  N4_28 
REMARK   13  A    between atoms: C15_22  and  C16_23 
REMARK   14  A    between atoms: C16_23  and  C17_24 
REMARK   15  A    between atoms: C17_24  and  N3_25 
REMARK   16  A    between atoms: N4_28  and  C20_30 
REMARK   17  A    between atoms: C20_30  and  S2_32 
REMARK   18  A    between atoms: S2_32  and  C21_33 
REMARK   19  A    between atoms: C25_37  and  O6_39 
REMARK   20  A    between atoms: O6_39  and  C26_40 
ROOT
HETATM    1  C9  UNL     1      21.737  33.641  15.468  1.00  0.00     0.179 C 
HETATM    2  C10 UNL     1      22.841  33.981  16.462  1.00  0.00     0.037 C 
HETATM    3  C11 UNL     1      22.484  33.013  17.573  1.00  0.00     0.022 C 
HETATM    4  C12 UNL     1      21.935  31.790  16.827  1.00  0.00     0.127 C 
HETATM    5  N2  UNL     1      21.807  32.189  15.460  1.00  0.00    -0.337 N 
HETATM    6  C13 UNL     1      21.719  31.451  14.249  1.00  0.00     0.243 C 
HETATM    7  O4  UNL     1      21.547  32.168  13.194  1.00  0.00    -0.271 OA
ENDROOT
BRANCH   1   8
HETATM    8  C8  UNL     1      20.497  34.214  15.953  1.00  0.00     0.245 C 
HETATM    9  N1  UNL     1      20.383  35.159  17.013  1.00  0.00    -0.320 N 
ATOM     10  H1  UNL     1      21.233  35.478  17.480  1.00  0.00     0.169 HD
HETATM   11  O3  UNL     1      19.422  33.869  15.408  1.00  0.00    -0.271 OA
BRANCH   9  12
HETATM   12  C7  UNL     1      19.106  35.684  17.455  1.00  0.00     0.111 C 
BRANCH  12  13
HETATM   13  C6  UNL     1      19.071  37.110  17.798  1.00  0.00     0.036 C 
BRANCH  13  14
HETATM   14  C5  UNL     1      18.055  37.770  18.547  1.00  0.00    -0.001 C 
BRANCH  14  15
HETATM   15  C4  UNL     1      17.046  38.545  18.382  1.00  0.00    -0.017 C 
BRANCH  15  16
HETATM   16  C3  UNL     1      16.555  39.369  17.291  1.00  0.00     0.138 C 
BRANCH  16  17
HETATM   17  C2  UNL     1      17.613  40.367  16.897  1.00  0.00     0.261 C 
HETATM   18  O2  UNL     1      17.741  41.418  17.542  1.00  0.00    -0.265 OA
BRANCH  17  19
HETATM   19  O1  UNL     1      18.432  40.105  15.823  1.00  0.00    -0.326 OA
HETATM   20  C1  UNL     1      19.820  40.372  15.971  1.00  0.00     0.213 C 
ENDBRANCH  17  19
ENDBRANCH  16  17
ENDBRANCH  15  16
ENDBRANCH  14  15
ENDBRANCH  13  14
ENDBRANCH  12  13
BRANCH  12  21
HETATM   21  C25 UNL     1      18.347  34.786  18.331  1.00  0.00     0.310 C 
HETATM   22  O5  UNL     1      18.544  34.762  19.571  1.00  0.00    -0.258 OA
BRANCH  21  23
HETATM   23  O6  UNL     1      17.387  33.935  17.828  1.00  0.00    -0.306 OA
BRANCH  23  24
HETATM   24  C26 UNL     1      16.129  34.434  17.417  1.00  0.00     0.060 C 
HETATM   25  C27 UNL     1      16.245  35.283  16.170  1.00  0.00     0.046 C 
HETATM   26  C28 UNL     1      15.266  33.241  17.064  1.00  0.00     0.046 C 
HETATM   27  C29 UNL     1      15.450  35.244  18.472  1.00  0.00     0.046 C 
ENDBRANCH  23  24
ENDBRANCH  21  23
ENDBRANCH  12  21
ENDBRANCH   9  12
ENDBRANCH   1   8
BRANCH   6  28
HETATM   28  C14 UNL     1      21.790  30.021  14.034  1.00  0.00     0.175 C 
BRANCH  28  29
HETATM   29  C15 UNL     1      22.125  29.540  12.652  1.00  0.00     0.036 C 
BRANCH  29  30
HETATM   30  C16 UNL     1      22.635  28.125  12.559  1.00  0.00     0.033 C 
BRANCH  30  31
HETATM   31  C17 UNL     1      22.778  27.718  11.118  1.00  0.00     0.271 C 
BRANCH  31  32
HETATM   32  N3  UNL     1      24.141  27.325  10.889  1.00  0.00     0.080 N 
HETATM   33  C18 UNL     1      24.834  26.865  12.058  1.00  0.00     0.309 C 
HETATM   34  C19 UNL     1      24.232  26.399   9.786  1.00  0.00     0.309 C 
ENDBRANCH  31  32
ENDBRANCH  30  31
ENDBRANCH  29  30
ENDBRANCH  28  29
BRANCH  28  35
HETATM   35  N4  UNL     1      20.566  29.335  14.399  1.00  0.00    -0.362 N 
ATOM     36  H4  UNL     1      20.671  28.349  14.635  1.00  0.00     0.161 HD
BRANCH  35  37
HETATM   37  C20 UNL     1      19.256  29.837  14.475  1.00  0.00     0.135 C 
HETATM   38  S1  UNL     1      18.462  30.302  15.822  1.00  0.00    -0.053 SA
BRANCH  37  39
HETATM   39  S2  UNL     1      18.302  30.033  12.950  1.00  0.00    -0.092 SA
BRANCH  39  40
HETATM   40  C21 UNL     1      17.935  28.483  12.154  1.00  0.00     0.004 C 
HETATM   41  C22 UNL     1      19.013  28.023  11.203  1.00  0.00     0.026 C 
HETATM   42  C23 UNL     1      16.702  28.735  11.262  1.00  0.00     0.026 C 
HETATM   43  C24 UNL     1      17.548  27.360  13.054  1.00  0.00     0.026 C 
ENDBRANCH  39  40
ENDBRANCH  37  39
ENDBRANCH  35  37
ENDBRANCH  28  35
ENDBRANCH   6  28
TORSDOF 20
ENDMDL
MODEL 5
REMARK VINA RESULT: -7.243878905      2.603      5.828
REMARK  20 active torsions:
REMARK  status: ('A' for Active; 'I' for Inactive)
REMARK    1  A    between atoms: O1_2  and  C2_3 
REMARK    2  A    between atoms: C2_3  and  C3_5 
REMARK    3  A    between atoms: C3_5  and  C4_6 
REMARK    4  A    between atoms: C4_6  and  C5_7 
REMARK    5  A    between atoms: C5_7  and  C6_8 
REMARK    6  A    between atoms: C6_8  and  C7_9 
REMARK    7  A    between atoms: C7_9  and  N1_10 
REMARK    8  A    between atoms: C7_9  and  C25_37 
REMARK       I    between atoms: N1_10  and  C8_12 
REMARK    9  A    between atoms: C8_12  and  C9_14 
REMARK       I    between atoms: N2_18  and  C13_19 
REMARK   10  A    between atoms: C13_19  and  C14_21 
REMARK   11  A    between atoms: C14_21  and  C15_22 
REMARK   12  A    between atoms: C14_21  and  N4_28 
REMARK   13  A    between atoms: C15_22  and  C16_23 
REMARK   14  A    between atoms: C16_23  and  C17_24 
REMARK   15  A    between atoms: C17_24  and  N3_25 
REMARK   16  A    between atoms: N4_28  and  C20_30 
REMARK   17  A    between atoms: C20_30  and  S2_32 
REMARK   18  A    between atoms: S2_32  and  C21_33 
REMARK   19  A    between atoms: C25_37  and  O6_39 
REMARK   20  A    between atoms: O6_39  and  C26_40 
ROOT
HETATM    1  C9  UNL     1      21.187  33.749  15.602  1.00  0.00     0.179 C 
HETATM    2  C10 UNL     1      22.524  33.037  15.441  1.00  0.00     0.037 C 
HETATM    3  C11 UNL     1      22.451  32.097  16.629  1.00  0.00     0.022 C 
HETATM    4  C12 UNL     1      20.960  31.750  16.728  1.00  0.00     0.127 C 
HETATM    5  N2  UNL     1      20.294  32.621  15.810  1.00  0.00    -0.337 N 
HETATM    6  C13 UNL     1      19.024  32.556  15.176  1.00  0.00     0.243 C 
HETATM    7  O4  UNL     1      18.735  33.576  14.445  1.00  0.00    -0.271 OA
ENDROOT
BRANCH   1   8
HETATM    8  C8  UNL     1      21.299  34.682  16.706  1.00  0.00     0.245 C 
HETATM    9  N1  UNL     1      20.331  34.864  17.735  1.00  0.00    -0.320 N 
ATOM     10  H1  UNL     1      19.484  34.296  17.717  1.00  0.00     0.169 HD
HETATM   11  O3  UNL     1      22.326  35.397  16.785  1.00  0.00    -0.271 OA
BRANCH   9  12
HETATM   12  C7  UNL     1      20.505  35.825  18.806  1.00  0.00     0.111 C 
BRANCH  12  13
HETATM   13  C6  UNL     1      20.888  35.282  20.113  1.00  0.00     0.036 C 
BRANCH  13  14
HETATM   14  C5  UNL     1      22.218  35.090  20.587  1.00  0.00    -0.001 C 
BRANCH  14  15
HETATM   15  C4  UNL     1      23.236  35.762  20.985  1.00  0.00    -0.017 C 
BRANCH  15  16
HETATM   16  C3  UNL     1      24.373  35.486  21.846  1.00  0.00     0.138 C 
BRANCH  16  17
HETATM   17  C2  UNL     1      25.211  36.729  21.990  1.00  0.00     0.261 C 
HETATM   18  O2  UNL     1      24.660  37.832  22.128  1.00  0.00    -0.265 OA
BRANCH  17  19
HETATM   19  O1  UNL     1      26.583  36.634  21.969  1.00  0.00    -0.326 OA
HETATM   20  C1  UNL     1      27.329  37.843  22.022  1.00  0.00     0.213 C 
ENDBRANCH  17  19
ENDBRANCH  16  17
ENDBRANCH  15  16
ENDBRANCH  14  15
ENDBRANCH  13  14
ENDBRANCH  12  13
BRANCH  12  21
HETATM   21  C25 UNL     1      19.519  36.910  18.817  1.00  0.00     0.310 C 
HETATM   22  O5  UNL     1      18.370  36.755  18.334  1.00  0.00    -0.258 OA
BRANCH  21  23
HETATM   23  O6  UNL     1      19.813  38.142  19.360  1.00  0.00    -0.306 OA
BRANCH  23  24
HETATM   24  C26 UNL     1      20.662  39.044  18.676  1.00  0.00     0.060 C 
HETATM   25  C27 UNL     1      20.195  40.475  18.827  1.00  0.00     0.046 C 
HETATM   26  C28 UNL     1      22.029  38.951  19.322  1.00  0.00     0.046 C 
HETATM   27  C29 UNL     1      20.779  38.743  17.218  1.00  0.00     0.046 C 
ENDBRANCH  23  24
ENDBRANCH  21  23
ENDBRANCH  12  21
ENDBRANCH   9  12
ENDBRANCH   1   8
BRANCH   6  28
HETATM   28  C14 UNL     1      18.014  31.521  15.238  1.00  0.00     0.175 C 
BRANCH  28  29
HETATM   29  C15 UNL     1      17.054  31.549  16.391  1.00  0.00     0.036 C 
BRANCH  29  30
HETATM   30  C16 UNL     1      15.833  32.412  16.205  1.00  0.00     0.033 C 
BRANCH  30  31
HETATM   31  C17 UNL     1      15.695  33.371  17.355  1.00  0.00     0.271 C 
BRANCH  31  32
HETATM   32  N3  UNL     1      15.233  34.632  16.843  1.00  0.00     0.080 N 
HETATM   33  C18 UNL     1      14.740  35.537  17.840  1.00  0.00     0.309 C 
HETATM   34  C19 UNL     1      16.226  35.234  15.985  1.00  0.00     0.309 C 
ENDBRANCH  31  32
ENDBRANCH  30  31
ENDBRANCH  29  30
ENDBRANCH  28  29
BRANCH  28  35
HETATM   35  N4  UNL     1      18.577  30.185  15.231  1.00  0.00    -0.362 N 
ATOM     36  H4  UNL     1      18.352  29.611  16.043  1.00  0.00     0.161 HD
BRANCH  35  37
HETATM   37  C20 UNL     1      19.388  29.568  14.264  1.00  0.00     0.135 C 
HETATM   38  S1  UNL     1      20.721  28.666  14.534  1.00  0.00    -0.053 SA
BRANCH  37  39
HETATM   39  S2  UNL     1      18.950  29.734  12.516  1.00  0.00    -0.092 SA
BRANCH  39  40
HETATM   40  C21 UNL     1      17.932  28.400  11.923  1.00  0.00     0.004 C 
HETATM   41  C22 UNL     1      17.542  27.415  12.998  1.00  0.00     0.026 C 
HETATM   42  C23 UNL     1      18.804  27.590  10.943  1.00  0.00     0.026 C 
HETATM   43  C24 UNL     1      16.724  28.794  11.143  1.00  0.00     0.026 C 
ENDBRANCH  39  40
ENDBRANCH  37  39
ENDBRANCH  35  37
ENDBRANCH  28  35
ENDBRANCH   6  28
TORSDOF 20
ENDMDL
