MODEL 1
REMARK VINA RESULT: -8.410074264      0.000      0.000
REMARK  15 active torsions:
REMARK  status: ('A' for Active; 'I' for Inactive)
REMARK    1  A    between atoms: O1_2  and  C2_3 
REMARK    2  A    between atoms: C4_5  and  C5_6 
REMARK    3  A    between atoms: C5_6  and  C6_7 
REMARK    4  A    between atoms: C7_10  and  O2_11 
REMARK    5  A    between atoms: C8_13  and  C9_14 
REMARK    6  A    between atoms: C9_14  and  C10_15 
REMARK    7  A    between atoms: C10_15  and  S2_17 
REMARK    8  A    between atoms: S2_17  and  C11_18 
REMARK    9  A    between atoms: C11_18  and  C12_19 
REMARK   10  A    between atoms: C12_19  and  C13_20 
REMARK   11  A    between atoms: C13_20  and  N2_21 
REMARK   12  A    between atoms: C20_33  and  C21_34 
REMARK   13  A    between atoms: C21_34  and  C22_35 
REMARK   14  A    between atoms: C22_35  and  C23_36 
REMARK   15  A    between atoms: C23_36  and  N4_37 
ROOT
HETATM    1  C6  UNL     1      21.789  34.384  18.115  1.00  0.00     0.077 A 
HETATM    2  N1  UNL     1      21.263  34.753  19.279  1.00  0.00    -0.330 N 
ATOM      3  H1  UNL     1      21.270  34.119  20.078  1.00  0.00     0.168 HD
HETATM    4  C7  UNL     1      20.735  35.954  19.379  1.00  0.00     0.158 A 
HETATM    5  C8  UNL     1      20.763  36.750  18.263  1.00  0.00     0.056 A 
HETATM    6  S3  UNL     1      21.543  35.742  17.127  1.00  0.00    -0.068 SA
ENDROOT
BRANCH   1   7
HETATM    7  C5  UNL     1      22.376  33.218  17.791  1.00  0.00     0.048 C 
BRANCH   7   8
HETATM    8  C4  UNL     1      22.217  32.577  16.507  1.00  0.00    -0.031 A 
HETATM    9  C3  UNL     1      21.024  31.970  16.183  1.00  0.00     0.048 A 
HETATM   10  C2  UNL     1      20.846  31.340  14.946  1.00  0.00     0.075 A 
HETATM   11  C20 UNL     1      21.884  31.332  14.044  1.00  0.00    -0.025 A 
HETATM   12  C19 UNL     1      23.068  31.944  14.390  1.00  0.00     0.011 A 
HETATM   13  C18 UNL     1      23.253  32.573  15.617  1.00  0.00     0.012 A 
BRANCH  10  14
HETATM   14  O1  UNL     1      19.619  30.754  14.695  1.00  0.00    -0.355 OA
HETATM   15  C1  UNL     1      18.652  30.494  15.661  1.00  0.00     0.210 C 
ENDBRANCH  10  14
BRANCH  11  16
HETATM   16  C21 UNL     1      21.676  30.661  12.749  1.00  0.00     0.043 C 
BRANCH  16  17
HETATM   17  C22 UNL     1      22.100  29.209  12.745  1.00  0.00     0.035 C 
BRANCH  17  18
HETATM   18  C23 UNL     1      21.966  28.710  11.324  1.00  0.00     0.272 C 
BRANCH  18  19
HETATM   19  N4  UNL     1      23.049  27.781  11.074  1.00  0.00     0.088 N 
HETATM   20  C24 UNL     1      24.008  27.774  12.168  1.00  0.00     0.272 C 
HETATM   21  C25 UNL     1      24.857  26.570  11.794  1.00  0.00     0.032 C 
HETATM   22  C26 UNL     1      23.957  25.670  10.984  1.00  0.00     0.032 C 
HETATM   23  C27 UNL     1      22.610  26.396  11.105  1.00  0.00     0.272 C 
ENDBRANCH  18  19
ENDBRANCH  17  18
ENDBRANCH  16  17
ENDBRANCH  11  16
ENDBRANCH   7   8
ENDBRANCH   1   7
BRANCH   4  24
HETATM   24  O2  UNL     1      20.193  36.419  20.468  1.00  0.00    -0.345 OA
ATOM     25  H2  UNL     1      19.810  37.286  20.540  1.00  0.00     0.219 HD
ENDBRANCH   4  24
BRANCH   5  26
HETATM   26  C9  UNL     1      20.290  37.996  18.129  1.00  0.00     0.023 C 
BRANCH  26  27
HETATM   27  C10 UNL     1      18.917  38.299  18.567  1.00  0.00     0.143 C 
HETATM   28  S1  UNL     1      18.892  39.957  19.280  1.00  0.00    -0.077 SA
BRANCH  27  29
HETATM   29  S2  UNL     1      17.782  38.305  17.137  1.00  0.00    -0.149 SA
BRANCH  29  30
HETATM   30  C11 UNL     1      16.060  38.045  17.671  1.00  0.00     0.077 C 
BRANCH  30  31
HETATM   31  C12 UNL     1      16.098  37.191  18.894  1.00  0.00     0.030 C 
BRANCH  31  32
HETATM   32  C13 UNL     1      15.459  35.857  18.790  1.00  0.00     0.128 C 
BRANCH  32  33
HETATM   33  N2  UNL     1      16.099  34.926  17.882  1.00  0.00    -0.333 N 
HETATM   34  C14 UNL     1      15.348  34.315  16.815  1.00  0.00     0.136 C 
HETATM   35  C15 UNL     1      16.089  34.232  15.525  1.00  0.00     0.123 C 
HETATM   36  C16 UNL     1      17.552  34.075  15.670  1.00  0.00     0.227 C 
HETATM   37  O3  UNL     1      18.213  33.865  14.622  1.00  0.00    -0.273 OA
HETATM   38  N3  UNL     1      18.211  34.153  16.924  1.00  0.00    -0.279 N 
HETATM   39  C17 UNL     1      17.465  34.585  18.043  1.00  0.00     0.325 C 
ATOM     40  H3  UNL     1      19.196  33.904  17.014  1.00  0.00     0.173 HD
HETATM   41  O4  UNL     1      18.011  34.673  19.195  1.00  0.00    -0.247 OA
ENDBRANCH  32  33
ENDBRANCH  31  32
ENDBRANCH  30  31
ENDBRANCH  29  30
ENDBRANCH  27  29
ENDBRANCH  26  27
ENDBRANCH   5  26
TORSDOF 15
ENDMDL
MODEL 2
REMARK VINA RESULT: -8.396072910      1.625      2.332
REMARK  15 active torsions:
REMARK  status: ('A' for Active; 'I' for Inactive)
REMARK    1  A    between atoms: O1_2  and  C2_3 
REMARK    2  A    between atoms: C4_5  and  C5_6 
REMARK    3  A    between atoms: C5_6  and  C6_7 
REMARK    4  A    between atoms: C7_10  and  O2_11 
REMARK    5  A    between atoms: C8_13  and  C9_14 
REMARK    6  A    between atoms: C9_14  and  C10_15 
REMARK    7  A    between atoms: C10_15  and  S2_17 
REMARK    8  A    between atoms: S2_17  and  C11_18 
REMARK    9  A    between atoms: C11_18  and  C12_19 
REMARK   10  A    between atoms: C12_19  and  C13_20 
REMARK   11  A    between atoms: C13_20  and  N2_21 
REMARK   12  A    between atoms: C20_33  and  C21_34 
REMARK   13  A    between atoms: C21_34  and  C22_35 
REMARK   14  A    between atoms: C22_35  and  C23_36 
REMARK   15  A    between atoms: C23_36  and  N4_37 
ROOT
HETATM    1  C6  UNL     1      21.840  34.376  18.092  1.00  0.00     0.077 A 
HETATM    2  N1  UNL     1      21.362  34.579  19.315  1.00  0.00    -0.330 N 
ATOM      3  H1  UNL     1      21.336  33.820  19.996  1.00  0.00     0.168 HD
HETATM    4  C7  UNL     1      20.922  35.778  19.630  1.00  0.00     0.158 A 
HETATM    5  C8  UNL     1      20.989  36.748  18.663  1.00  0.00     0.056 A 
HETATM    6  S3  UNL     1      21.677  35.895  17.352  1.00  0.00    -0.068 SA
ENDROOT
BRANCH   1   7
HETATM    7  C5  UNL     1      22.337  33.245  17.560  1.00  0.00     0.048 C 
BRANCH   7   8
HETATM    8  C4  UNL     1      21.931  32.724  16.277  1.00  0.00    -0.031 A 
HETATM    9  C3  UNL     1      20.727  32.070  16.148  1.00  0.00     0.048 A 
HETATM   10  C2  UNL     1      20.313  31.554  14.914  1.00  0.00     0.075 A 
HETATM   11  C20 UNL     1      21.128  31.707  13.818  1.00  0.00    -0.025 A 
HETATM   12  C19 UNL     1      22.329  32.364  13.970  1.00  0.00     0.011 A 
HETATM   13  C18 UNL     1      22.748  32.881  15.192  1.00  0.00     0.012 A 
BRANCH  10  14
HETATM   14  O1  UNL     1      19.089  30.911  14.865  1.00  0.00    -0.355 OA
HETATM   15  C1  UNL     1      18.293  30.638  15.973  1.00  0.00     0.210 C 
ENDBRANCH  10  14
BRANCH  11  16
HETATM   16  C21 UNL     1      20.674  31.154  12.530  1.00  0.00     0.043 C 
BRANCH  16  17
HETATM   17  C22 UNL     1      21.332  29.841  12.169  1.00  0.00     0.035 C 
BRANCH  17  18
HETATM   18  C23 UNL     1      20.340  28.744  12.486  1.00  0.00     0.272 C 
BRANCH  18  19
HETATM   19  N4  UNL     1      19.156  28.967  11.682  1.00  0.00     0.088 N 
HETATM   20  C24 UNL     1      18.966  27.904  10.707  1.00  0.00     0.272 C 
HETATM   21  C25 UNL     1      17.568  28.227  10.204  1.00  0.00     0.032 C 
HETATM   22  C26 UNL     1      16.883  28.953  11.334  1.00  0.00     0.032 C 
HETATM   23  C27 UNL     1      17.930  28.838  12.451  1.00  0.00     0.272 C 
ENDBRANCH  18  19
ENDBRANCH  17  18
ENDBRANCH  16  17
ENDBRANCH  11  16
ENDBRANCH   7   8
ENDBRANCH   1   7
BRANCH   4  24
HETATM   24  O2  UNL     1      20.433  36.089  20.796  1.00  0.00    -0.345 OA
ATOM     25  H2  UNL     1      20.860  36.675  21.410  1.00  0.00     0.219 HD
ENDBRANCH   4  24
BRANCH   5  26
HETATM   26  C9  UNL     1      20.604  38.027  18.752  1.00  0.00     0.023 C 
BRANCH  26  27
HETATM   27  C10 UNL     1      19.170  38.346  18.846  1.00  0.00     0.143 C 
HETATM   28  S1  UNL     1      18.994  40.082  19.312  1.00  0.00    -0.077 SA
BRANCH  27  29
HETATM   29  S2  UNL     1      18.365  38.136  17.221  1.00  0.00    -0.149 SA
BRANCH  29  30
HETATM   30  C11 UNL     1      16.554  38.039  17.398  1.00  0.00     0.077 C 
BRANCH  30  31
HETATM   31  C12 UNL     1      16.268  37.558  18.781  1.00  0.00     0.030 C 
BRANCH  31  32
HETATM   32  C13 UNL     1      15.653  36.215  18.902  1.00  0.00     0.128 C 
BRANCH  32  33
HETATM   33  N2  UNL     1      16.137  35.219  17.965  1.00  0.00    -0.333 N 
HETATM   34  C14 UNL     1      15.267  34.698  16.941  1.00  0.00     0.136 C 
HETATM   35  C15 UNL     1      15.925  34.535  15.614  1.00  0.00     0.123 C 
HETATM   36  C16 UNL     1      17.367  34.216  15.683  1.00  0.00     0.227 C 
HETATM   37  O3  UNL     1      17.945  33.936  14.603  1.00  0.00    -0.273 OA
HETATM   38  N3  UNL     1      18.096  34.218  16.900  1.00  0.00    -0.279 N 
HETATM   39  C17 UNL     1      17.463  34.729  18.055  1.00  0.00     0.325 C 
ATOM     40  H3  UNL     1      19.050  33.861  16.939  1.00  0.00     0.173 HD
HETATM   41  O4  UNL     1      18.075  34.753  19.177  1.00  0.00    -0.247 OA
ENDBRANCH  32  33
ENDBRANCH  31  32
ENDBRANCH  30  31
ENDBRANCH  29  30
ENDBRANCH  27  29
ENDBRANCH  26  27
ENDBRANCH   5  26
TORSDOF 15
ENDMDL
MODEL 3
REMARK VINA RESULT: -8.227401592      1.647      4.225
REMARK  15 active torsions:
REMARK  status: ('A' for Active; 'I' for Inactive)
REMARK    1  A    between atoms: O1_2  and  C2_3 
REMARK    2  A    between atoms: C4_5  and  C5_6 
REMARK    3  A    between atoms: C5_6  and  C6_7 
REMARK    4  A    between atoms: C7_10  and  O2_11 
REMARK    5  A    between atoms: C8_13  and  C9_14 
REMARK    6  A    between atoms: C9_14  and  C10_15 
REMARK    7  A    between atoms: C10_15  and  S2_17 
REMARK    8  A    between atoms: S2_17  and  C11_18 
REMARK    9  A    between atoms: C11_18  and  C12_19 
REMARK   10  A    between atoms: C12_19  and  C13_20 
REMARK   11  A    between atoms: C13_20  and  N2_21 
REMARK   12  A    between atoms: C20_33  and  C21_34 
REMARK   13  A    between atoms: C21_34  and  C22_35 
REMARK   14  A    between atoms: C22_35  and  C23_36 
REMARK   15  A    between atoms: C23_36  and  N4_37 
ROOT
HETATM    1  C6  UNL     1      17.328  33.706  15.918  1.00  0.00     0.077 A 
HETATM    2  N1  UNL     1      17.930  33.605  17.099  1.00  0.00    -0.330 N 
ATOM      3  H1  UNL     1      18.585  32.845  17.287  1.00  0.00     0.168 HD
HETATM    4  C7  UNL     1      17.666  34.506  18.021  1.00  0.00     0.158 A 
HETATM    5  C8  UNL     1      16.777  35.498  17.695  1.00  0.00     0.056 A 
HETATM    6  S3  UNL     1      16.364  35.092  16.089  1.00  0.00    -0.068 SA
ENDROOT
BRANCH   1   7
HETATM    7  C5  UNL     1      17.449  32.907  14.843  1.00  0.00     0.048 C 
BRANCH   7   8
HETATM    8  C4  UNL     1      18.563  32.013  14.637  1.00  0.00    -0.031 A 
HETATM    9  C3  UNL     1      19.772  32.507  14.200  1.00  0.00     0.048 A 
HETATM   10  C2  UNL     1      20.866  31.658  13.992  1.00  0.00     0.075 A 
HETATM   11  C20 UNL     1      20.724  30.312  14.229  1.00  0.00    -0.025 A 
HETATM   12  C19 UNL     1      19.505  29.841  14.665  1.00  0.00     0.011 A 
HETATM   13  C18 UNL     1      18.413  30.676  14.876  1.00  0.00     0.012 A 
BRANCH  10  14
HETATM   14  O1  UNL     1      22.046  32.231  13.552  1.00  0.00    -0.355 OA
HETATM   15  C1  UNL     1      22.905  32.984  14.346  1.00  0.00     0.210 C 
ENDBRANCH  10  14
BRANCH  11  16
HETATM   16  C21 UNL     1      21.887  29.438  14.000  1.00  0.00     0.043 C 
BRANCH  16  17
HETATM   17  C22 UNL     1      21.597  28.272  13.081  1.00  0.00     0.035 C 
BRANCH  17  18
HETATM   18  C23 UNL     1      22.046  28.676  11.694  1.00  0.00     0.272 C 
BRANCH  18  19
HETATM   19  N4  UNL     1      22.953  27.658  11.206  1.00  0.00     0.088 N 
HETATM   20  C24 UNL     1      24.194  27.642  11.965  1.00  0.00     0.272 C 
HETATM   21  C25 UNL     1      24.827  26.361  11.449  1.00  0.00     0.032 C 
HETATM   22  C26 UNL     1      23.680  25.485  11.009  1.00  0.00     0.032 C 
HETATM   23  C27 UNL     1      22.470  26.312  11.468  1.00  0.00     0.272 C 
ENDBRANCH  18  19
ENDBRANCH  17  18
ENDBRANCH  16  17
ENDBRANCH  11  16
ENDBRANCH   7   8
ENDBRANCH   1   7
BRANCH   4  24
HETATM   24  O2  UNL     1      18.196  34.505  19.210  1.00  0.00    -0.345 OA
ATOM     25  H2  UNL     1      17.950  35.110  19.900  1.00  0.00     0.219 HD
ENDBRANCH   4  24
BRANCH   5  26
HETATM   26  C9  UNL     1      16.357  36.512  18.463  1.00  0.00     0.023 C 
BRANCH  26  27
HETATM   27  C10 UNL     1      16.680  37.895  18.076  1.00  0.00     0.143 C 
HETATM   28  S1  UNL     1      15.692  39.022  19.082  1.00  0.00    -0.077 SA
BRANCH  27  29
HETATM   29  S2  UNL     1      18.436  38.256  18.421  1.00  0.00    -0.149 SA
BRANCH  29  30
HETATM   30  C11 UNL     1      19.235  39.040  16.983  1.00  0.00     0.077 C 
BRANCH  30  31
HETATM   31  C12 UNL     1      20.709  38.984  17.208  1.00  0.00     0.030 C 
BRANCH  31  32
HETATM   32  C13 UNL     1      21.405  37.762  16.739  1.00  0.00     0.128 C 
BRANCH  32  33
HETATM   33  N2  UNL     1      21.764  36.810  17.773  1.00  0.00    -0.333 N 
HETATM   34  C14 UNL     1      22.698  37.177  18.807  1.00  0.00     0.136 C 
HETATM   35  C15 UNL     1      22.316  36.696  20.165  1.00  0.00     0.123 C 
HETATM   36  C16 UNL     1      21.567  35.422  20.173  1.00  0.00     0.227 C 
HETATM   37  O3  UNL     1      21.334  34.899  21.292  1.00  0.00    -0.273 OA
HETATM   38  N3  UNL     1      21.115  34.790  18.986  1.00  0.00    -0.279 N 
HETATM   39  C17 UNL     1      21.219  35.502  17.770  1.00  0.00     0.325 C 
ATOM     40  H3  UNL     1      20.725  33.848  19.010  1.00  0.00     0.173 HD
HETATM   41  O4  UNL     1      20.827  34.979  16.672  1.00  0.00    -0.247 OA
ENDBRANCH  32  33
ENDBRANCH  31  32
ENDBRANCH  30  31
ENDBRANCH  29  30
ENDBRANCH  27  29
ENDBRANCH  26  27
ENDBRANCH   5  26
TORSDOF 15
ENDMDL
MODEL 4
REMARK VINA RESULT: -8.207672137      2.332      4.674
REMARK  15 active torsions:
REMARK  status: ('A' for Active; 'I' for Inactive)
REMARK    1  A    between atoms: O1_2  and  C2_3 
REMARK    2  A    between atoms: C4_5  and  C5_6 
REMARK    3  A    between atoms: C5_6  and  C6_7 
REMARK    4  A    between atoms: C7_10  and  O2_11 
REMARK    5  A    between atoms: C8_13  and  C9_14 
REMARK    6  A    between atoms: C9_14  and  C10_15 
REMARK    7  A    between atoms: C10_15  and  S2_17 
REMARK    8  A    between atoms: S2_17  and  C11_18 
REMARK    9  A    between atoms: C11_18  and  C12_19 
REMARK   10  A    between atoms: C12_19  and  C13_20 
REMARK   11  A    between atoms: C13_20  and  N2_21 
REMARK   12  A    between atoms: C20_33  and  C21_34 
REMARK   13  A    between atoms: C21_34  and  C22_35 
REMARK   14  A    between atoms: C22_35  and  C23_36 
REMARK   15  A    between atoms: C23_36  and  N4_37 
ROOT
HETATM    1  C6  UNL     1      16.107  32.909  15.599  1.00  0.00     0.077 A 
HETATM    2  N1  UNL     1      15.495  32.968  16.778  1.00  0.00    -0.330 N 
ATOM      3  H1  UNL     1      15.004  32.156  17.151  1.00  0.00     0.168 HD
HETATM    4  C7  UNL     1      15.535  34.097  17.453  1.00  0.00     0.158 A 
HETATM    5  C8  UNL     1      16.214  35.145  16.887  1.00  0.00     0.056 A 
HETATM    6  S3  UNL     1      16.760  34.465  15.419  1.00  0.00    -0.068 SA
ENDROOT
BRANCH   1   7
HETATM    7  C5  UNL     1      16.194  31.870  14.749  1.00  0.00     0.048 C 
BRANCH   7   8
HETATM    8  C4  UNL     1      17.362  31.030  14.635  1.00  0.00    -0.031 A 
HETATM    9  C3  UNL     1      17.699  30.478  13.420  1.00  0.00     0.048 A 
HETATM   10  C2  UNL     1      18.826  29.659  13.285  1.00  0.00     0.075 A 
HETATM   11  C20 UNL     1      19.605  29.406  14.389  1.00  0.00    -0.025 A 
HETATM   12  C19 UNL     1      19.248  29.968  15.595  1.00  0.00     0.011 A 
HETATM   13  C18 UNL     1      18.131  30.784  15.738  1.00  0.00     0.012 A 
BRANCH  10  14
HETATM   14  O1  UNL     1      19.097  29.143  12.031  1.00  0.00    -0.355 OA
HETATM   15  C1  UNL     1      18.181  28.455  11.241  1.00  0.00     0.210 C 
ENDBRANCH  10  14
BRANCH  11  16
HETATM   16  C21 UNL     1      20.784  28.538  14.225  1.00  0.00     0.043 C 
BRANCH  16  17
HETATM   17  C22 UNL     1      22.062  29.299  13.949  1.00  0.00     0.035 C 
BRANCH  17  18
HETATM   18  C23 UNL     1      22.410  29.072  12.495  1.00  0.00     0.272 C 
BRANCH  18  19
HETATM   19  N4  UNL     1      22.920  27.723  12.364  1.00  0.00     0.088 N 
HETATM   20  C24 UNL     1      22.349  27.047  11.209  1.00  0.00     0.272 C 
HETATM   21  C25 UNL     1      23.220  25.803  11.148  1.00  0.00     0.032 C 
HETATM   22  C26 UNL     1      24.532  26.190  11.781  1.00  0.00     0.032 C 
HETATM   23  C27 UNL     1      24.330  27.694  12.010  1.00  0.00     0.272 C 
ENDBRANCH  18  19
ENDBRANCH  17  18
ENDBRANCH  16  17
ENDBRANCH  11  16
ENDBRANCH   7   8
ENDBRANCH   1   7
BRANCH   4  24
HETATM   24  O2  UNL     1      14.972  34.268  18.614  1.00  0.00    -0.345 OA
ATOM     25  H2  UNL     1      15.331  34.816  19.301  1.00  0.00     0.219 HD
ENDBRANCH   4  24
BRANCH   5  26
HETATM   26  C9  UNL     1      16.386  36.377  17.384  1.00  0.00     0.023 C 
BRANCH  26  27
HETATM   27  C10 UNL     1      17.745  36.845  17.702  1.00  0.00     0.143 C 
HETATM   28  S1  UNL     1      17.627  38.463  18.496  1.00  0.00    -0.077 SA
BRANCH  27  29
HETATM   29  S2  UNL     1      18.543  35.714  18.892  1.00  0.00    -0.149 SA
BRANCH  29  30
HETATM   30  C11 UNL     1      20.321  35.539  18.533  1.00  0.00     0.077 C 
BRANCH  30  31
HETATM   31  C12 UNL     1      20.452  35.206  17.085  1.00  0.00     0.030 C 
BRANCH  31  32
HETATM   32  C13 UNL     1      20.021  33.848  16.676  1.00  0.00     0.128 C 
BRANCH  32  33
HETATM   33  N2  UNL     1      21.035  33.038  16.030  1.00  0.00    -0.333 N 
HETATM   34  C14 UNL     1      21.072  32.926  14.594  1.00  0.00     0.136 C 
HETATM   35  C15 UNL     1      22.446  32.977  14.018  1.00  0.00     0.123 C 
HETATM   36  C16 UNL     1      23.496  32.418  14.895  1.00  0.00     0.227 C 
HETATM   37  O3  UNL     1      24.651  32.311  14.411  1.00  0.00    -0.273 OA
HETATM   38  N3  UNL     1      23.244  32.010  16.231  1.00  0.00    -0.279 N 
HETATM   39  C17 UNL     1      21.991  32.329  16.799  1.00  0.00     0.325 C 
ATOM     40  H3  UNL     1      23.949  31.502  16.765  1.00  0.00     0.173 HD
HETATM   41  O4  UNL     1      21.712  31.985  17.998  1.00  0.00    -0.247 OA
ENDBRANCH  32  33
ENDBRANCH  31  32
ENDBRANCH  30  31
ENDBRANCH  29  30
ENDBRANCH  27  29
ENDBRANCH  26  27
ENDBRANCH   5  26
TORSDOF 15
ENDMDL
MODEL 5
REMARK VINA RESULT: -8.171676314      1.949      4.420
REMARK  15 active torsions:
REMARK  status: ('A' for Active; 'I' for Inactive)
REMARK    1  A    between atoms: O1_2  and  C2_3 
REMARK    2  A    between atoms: C4_5  and  C5_6 
REMARK    3  A    between atoms: C5_6  and  C6_7 
REMARK    4  A    between atoms: C7_10  and  O2_11 
REMARK    5  A    between atoms: C8_13  and  C9_14 
REMARK    6  A    between atoms: C9_14  and  C10_15 
REMARK    7  A    between atoms: C10_15  and  S2_17 
REMARK    8  A    between atoms: S2_17  and  C11_18 
REMARK    9  A    between atoms: C11_18  and  C12_19 
REMARK   10  A    between atoms: C12_19  and  C13_20 
REMARK   11  A    between atoms: C13_20  and  N2_21 
REMARK   12  A    between atoms: C20_33  and  C21_34 
REMARK   13  A    between atoms: C21_34  and  C22_35 
REMARK   14  A    between atoms: C22_35  and  C23_36 
REMARK   15  A    between atoms: C23_36  and  N4_37 
ROOT
HETATM    1  C6  UNL     1      16.129  32.942  15.571  1.00  0.00     0.077 A 
HETATM    2  N1  UNL     1      15.589  32.903  16.785  1.00  0.00    -0.330 N 
ATOM      3  H1  UNL     1      15.256  32.023  17.179  1.00  0.00     0.168 HD
HETATM    4  C7  UNL     1      15.492  34.023  17.469  1.00  0.00     0.158 A 
HETATM    5  C8  UNL     1      15.961  35.166  16.874  1.00  0.00     0.056 A 
HETATM    6  S3  UNL     1      16.515  34.582  15.368  1.00  0.00    -0.068 SA
ENDROOT
BRANCH   1   7
HETATM    7  C5  UNL     1      16.325  31.931  14.706  1.00  0.00     0.048 C 
BRANCH   7   8
HETATM    8  C4  UNL     1      17.528  31.133  14.674  1.00  0.00    -0.031 A 
HETATM    9  C3  UNL     1      17.671  30.140  13.732  1.00  0.00     0.048 A 
HETATM   10  C2  UNL     1      18.827  29.352  13.682  1.00  0.00     0.075 A 
HETATM   11  C20 UNL     1      19.832  29.580  14.592  1.00  0.00    -0.025 A 
HETATM   12  C19 UNL     1      19.666  30.579  15.526  1.00  0.00     0.011 A 
HETATM   13  C18 UNL     1      18.521  31.367  15.583  1.00  0.00     0.012 A 
BRANCH  10  14
HETATM   14  O1  UNL     1      18.896  28.375  12.705  1.00  0.00    -0.355 OA
HETATM   15  C1  UNL     1      18.677  28.593  11.349  1.00  0.00     0.210 C 
ENDBRANCH  10  14
BRANCH  11  16
HETATM   16  C21 UNL     1      21.038  28.737  14.523  1.00  0.00     0.043 C 
BRANCH  16  17
HETATM   17  C22 UNL     1      22.231  29.436  13.908  1.00  0.00     0.035 C 
BRANCH  17  18
HETATM   18  C23 UNL     1      22.269  29.050  12.447  1.00  0.00     0.272 C 
BRANCH  18  19
HETATM   19  N4  UNL     1      22.826  27.716  12.353  1.00  0.00     0.088 N 
HETATM   20  C24 UNL     1      22.252  26.977  11.238  1.00  0.00     0.272 C 
HETATM   21  C25 UNL     1      23.167  25.764  11.201  1.00  0.00     0.032 C 
HETATM   22  C26 UNL     1      24.480  26.222  11.786  1.00  0.00     0.032 C 
HETATM   23  C27 UNL     1      24.227  27.726  11.965  1.00  0.00     0.272 C 
ENDBRANCH  18  19
ENDBRANCH  17  18
ENDBRANCH  16  17
ENDBRANCH  11  16
ENDBRANCH   7   8
ENDBRANCH   1   7
BRANCH   4  24
HETATM   24  O2  UNL     1      14.982  34.102  18.664  1.00  0.00    -0.345 OA
ATOM     25  H2  UNL     1      15.436  33.832  19.453  1.00  0.00     0.219 HD
ENDBRANCH   4  24
BRANCH   5  26
HETATM   26  C9  UNL     1      15.967  36.410  17.372  1.00  0.00     0.023 C 
BRANCH  26  27
HETATM   27  C10 UNL     1      17.188  37.226  17.264  1.00  0.00     0.143 C 
HETATM   28  S1  UNL     1      16.753  38.955  17.549  1.00  0.00    -0.077 SA
BRANCH  27  29
HETATM   29  S2  UNL     1      18.386  36.747  18.556  1.00  0.00    -0.149 SA
BRANCH  29  30
HETATM   30  C11 UNL     1      19.716  37.984  18.701  1.00  0.00     0.077 C 
BRANCH  30  31
HETATM   31  C12 UNL     1      20.570  37.864  17.484  1.00  0.00     0.030 C 
BRANCH  31  32
HETATM   32  C13 UNL     1      21.780  37.016  17.604  1.00  0.00     0.128 C 
BRANCH  32  33
HETATM   33  N2  UNL     1      21.585  35.606  17.328  1.00  0.00    -0.333 N 
HETATM   34  C14 UNL     1      21.245  35.164  15.999  1.00  0.00     0.136 C 
HETATM   35  C15 UNL     1      21.957  33.926  15.572  1.00  0.00     0.123 C 
HETATM   36  C16 UNL     1      22.272  32.993  16.674  1.00  0.00     0.227 C 
HETATM   37  O3  UNL     1      22.751  31.874  16.359  1.00  0.00    -0.273 OA
HETATM   38  N3  UNL     1      22.055  33.315  18.039  1.00  0.00    -0.279 N 
HETATM   39  C17 UNL     1      21.705  34.645  18.362  1.00  0.00     0.325 C 
ATOM     40  H3  UNL     1      22.149  32.605  18.765  1.00  0.00     0.173 HD
HETATM   41  O4  UNL     1      21.498  34.988  19.575  1.00  0.00    -0.247 OA
ENDBRANCH  32  33
ENDBRANCH  31  32
ENDBRANCH  30  31
ENDBRANCH  29  30
ENDBRANCH  27  29
ENDBRANCH  26  27
ENDBRANCH   5  26
TORSDOF 15
ENDMDL
