MODEL 1
REMARK VINA RESULT: -9.401901488      0.000      0.000
REMARK  15 active torsions:
REMARK  status: ('A' for Active; 'I' for Inactive)
REMARK    1  A    between atoms: O1_2  and  N1_3 
REMARK    2  A    between atoms: C2_5  and  C3_6 
REMARK    3  A    between atoms: C2_5  and  N4_31 
REMARK    4  A    between atoms: C3_6  and  C4_7 
REMARK    5  A    between atoms: C4_7  and  C5_8 
REMARK    6  A    between atoms: C5_8  and  C6_9 
REMARK    7  A    between atoms: C6_9  and  C7_10 
REMARK    8  A    between atoms: C7_10  and  N2_11 
REMARK    9  A    between atoms: N2_11  and  C8_12 
REMARK   10  A    between atoms: N4_31  and  C23_33 
REMARK   11  A    between atoms: C23_33  and  C24_34 
REMARK   12  A    between atoms: C24_34  and  C25_35 
REMARK   13  A    between atoms: C27_37  and  O4_38 
REMARK   14  A    between atoms: C29_40  and  O5_41 
REMARK   15  A    between atoms: C31_43  and  O6_44 
ROOT
HETATM    1  C4  UNL     1      22.481  32.731  14.376  1.00  0.00     0.008 C 
ENDROOT
BRANCH   1   2
HETATM    2  C3  UNL     1      22.958  32.175  15.679  1.00  0.00     0.078 C 
BRANCH   2   3
HETATM    3  C2  UNL     1      22.044  32.504  16.779  1.00  0.00     0.097 C 
HETATM    4  N1  UNL     1      21.067  31.822  17.131  1.00  0.00    -0.255 N 
ATOM      5  H1  UNL     1      20.571  32.240  17.918  1.00  0.00     0.195 HD
BRANCH   4   6
HETATM    6  O1  UNL     1      20.511  30.690  16.739  1.00  0.00    -0.284 OA
HETATM    7  C1  UNL     1      19.104  30.521  16.739  1.00  0.00     0.237 C 
ENDBRANCH   4   6
BRANCH   3   8
HETATM    8  N4  UNL     1      22.383  33.722  17.508  1.00  0.00    -0.378 N 
ATOM      9  H4  UNL     1      23.369  33.967  17.599  1.00  0.00     0.160 HD
BRANCH   8  10
HETATM   10  C23 UNL     1      21.428  34.585  18.095  1.00  0.00     0.125 C 
BRANCH  10  11
HETATM   11  C24 UNL     1      20.521  35.340  17.178  1.00  0.00     0.058 C 
BRANCH  11  12
HETATM   12  C25 UNL     1      19.074  35.172  17.489  1.00  0.00    -0.051 A 
HETATM   13  C26 UNL     1      18.347  34.053  17.168  1.00  0.00     0.047 A 
HETATM   14  C27 UNL     1      17.006  33.896  17.469  1.00  0.00     0.104 A 
HETATM   15  C29 UNL     1      16.380  34.916  18.121  1.00  0.00     0.135 A 
HETATM   16  C31 UNL     1      17.085  36.080  18.467  1.00  0.00     0.104 A 
HETATM   17  C33 UNL     1      18.409  36.204  18.157  1.00  0.00     0.047 A 
BRANCH  14  18
HETATM   18  O4  UNL     1      16.337  32.737  17.114  1.00  0.00    -0.353 OA
HETATM   19  C28 UNL     1      16.036  32.510  15.766  1.00  0.00     0.210 C 
ENDBRANCH  14  18
BRANCH  15  20
HETATM   20  O5  UNL     1      15.037  34.789  18.437  1.00  0.00    -0.351 OA
HETATM   21  C30 UNL     1      14.092  35.275  17.489  1.00  0.00     0.210 C 
ENDBRANCH  15  20
BRANCH  16  22
HETATM   22  O6  UNL     1      16.347  37.051  19.128  1.00  0.00    -0.353 OA
HETATM   23  C32 UNL     1      16.114  38.282  18.485  1.00  0.00     0.210 C 
ENDBRANCH  16  22
ENDBRANCH  11  12
ENDBRANCH  10  11
ENDBRANCH   8  10
ENDBRANCH   3   8
ENDBRANCH   2   3
ENDBRANCH   1   2
BRANCH   1  24
HETATM   24  C5  UNL     1      21.841  31.636  13.516  1.00  0.00     0.003 C 
BRANCH  24  25
HETATM   25  C6  UNL     1      22.444  30.294  13.785  1.00  0.00     0.033 C 
BRANCH  25  26
HETATM   26  C7  UNL     1      21.342  29.254  14.050  1.00  0.00     0.218 C 
BRANCH  26  27
HETATM   27  N2  UNL     1      21.239  28.330  13.111  1.00  0.00    -0.446 NA
BRANCH  27  28
HETATM   28  C8  UNL     1      21.099  27.512  12.224  1.00  0.00     0.136 A 
HETATM   29  C9  UNL     1      19.870  27.173  11.676  1.00  0.00     0.123 A 
HETATM   30  C10 UNL     1      19.729  26.250  10.673  1.00  0.00     0.045 A 
HETATM   31  S1  UNL     1      18.315  27.885  12.003  1.00  0.00     0.181 S 
HETATM   32  N3  UNL     1      20.865  25.634  10.172  1.00  0.00    -0.351 N 
HETATM   33  C19 UNL     1      18.348  25.967  10.421  1.00  0.00     0.010 C 
HETATM   34  C11 UNL     1      20.788  24.887   8.981  1.00  0.00     0.156 C 
HETATM   35  C12 UNL     1      22.085  25.915  10.671  1.00  0.00     0.054 A 
HETATM   36  C13 UNL     1      23.198  25.240  10.190  1.00  0.00    -0.034 A 
HETATM   37  C18 UNL     1      22.226  26.852  11.693  1.00  0.00     0.033 A 
HETATM   38  C14 UNL     1      23.139  24.144   9.247  1.00  0.00     0.050 C 
HETATM   39  C15 UNL     1      24.438  25.588  10.791  1.00  0.00     0.009 A 
HETATM   40  C16 UNL     1      24.567  26.514  11.782  1.00  0.00     0.002 A 
HETATM   41  C17 UNL     1      23.463  27.149  12.239  1.00  0.00     0.017 A 
HETATM   42  C20 UNL     1      17.805  25.094   9.389  1.00  0.00     0.022 C 
HETATM   43  C21 UNL     1      17.883  25.243  11.747  1.00  0.00     0.022 C 
HETATM   44  C22 UNL     1      17.536  27.293  10.483  1.00  0.00     0.161 C 
HETATM   45  O2  UNL     1      17.635  27.437  13.215  1.00  0.00    -0.222 OA
HETATM   46  O3  UNL     1      18.358  29.386  11.864  1.00  0.00    -0.222 OA
ENDBRANCH  27  28
ENDBRANCH  26  27
ENDBRANCH  25  26
ENDBRANCH  24  25
ENDBRANCH   1  24
TORSDOF 15
ENDMDL
MODEL 2
REMARK VINA RESULT: -9.370363427      0.047      1.845
REMARK  15 active torsions:
REMARK  status: ('A' for Active; 'I' for Inactive)
REMARK    1  A    between atoms: O1_2  and  N1_3 
REMARK    2  A    between atoms: C2_5  and  C3_6 
REMARK    3  A    between atoms: C2_5  and  N4_31 
REMARK    4  A    between atoms: C3_6  and  C4_7 
REMARK    5  A    between atoms: C4_7  and  C5_8 
REMARK    6  A    between atoms: C5_8  and  C6_9 
REMARK    7  A    between atoms: C6_9  and  C7_10 
REMARK    8  A    between atoms: C7_10  and  N2_11 
REMARK    9  A    between atoms: N2_11  and  C8_12 
REMARK   10  A    between atoms: N4_31  and  C23_33 
REMARK   11  A    between atoms: C23_33  and  C24_34 
REMARK   12  A    between atoms: C24_34  and  C25_35 
REMARK   13  A    between atoms: C27_37  and  O4_38 
REMARK   14  A    between atoms: C29_40  and  O5_41 
REMARK   15  A    between atoms: C31_43  and  O6_44 
ROOT
HETATM    1  C4  UNL     1      22.540  32.701  14.380  1.00  0.00     0.008 C 
ENDROOT
BRANCH   1   2
HETATM    2  C3  UNL     1      22.982  32.145  15.696  1.00  0.00     0.078 C 
BRANCH   2   3
HETATM    3  C2  UNL     1      22.052  32.494  16.776  1.00  0.00     0.097 C 
HETATM    4  N1  UNL     1      21.068  31.820  17.124  1.00  0.00    -0.255 N 
ATOM      5  H1  UNL     1      20.561  32.253  17.895  1.00  0.00     0.195 HD
BRANCH   4   6
HETATM    6  O1  UNL     1      20.516  30.683  16.742  1.00  0.00    -0.284 OA
HETATM    7  C1  UNL     1      19.109  30.511  16.740  1.00  0.00     0.237 C 
ENDBRANCH   4   6
BRANCH   3   8
HETATM    8  N4  UNL     1      22.382  33.724  17.489  1.00  0.00    -0.378 N 
ATOM      9  H4  UNL     1      23.367  33.978  17.575  1.00  0.00     0.160 HD
BRANCH   8  10
HETATM   10  C23 UNL     1      21.421  34.585  18.069  1.00  0.00     0.125 C 
BRANCH  10  11
HETATM   11  C24 UNL     1      20.498  35.312  17.146  1.00  0.00     0.058 C 
BRANCH  11  12
HETATM   12  C25 UNL     1      19.059  35.182  17.507  1.00  0.00    -0.051 A 
HETATM   13  C26 UNL     1      18.343  36.155  18.158  1.00  0.00     0.047 A 
HETATM   14  C27 UNL     1      17.002  36.035  18.480  1.00  0.00     0.104 A 
HETATM   15  C29 UNL     1      16.367  34.883  18.127  1.00  0.00     0.135 A 
HETATM   16  C31 UNL     1      17.062  33.861  17.461  1.00  0.00     0.104 A 
HETATM   17  C33 UNL     1      18.384  34.009  17.156  1.00  0.00     0.047 A 
BRANCH  14  18
HETATM   18  O4  UNL     1      16.344  37.060  19.139  1.00  0.00    -0.353 OA
HETATM   19  C28 UNL     1      16.136  38.274  18.474  1.00  0.00     0.210 C 
ENDBRANCH  14  18
BRANCH  15  20
HETATM   20  O5  UNL     1      15.025  34.733  18.436  1.00  0.00    -0.351 OA
HETATM   21  C30 UNL     1      14.077  35.297  17.535  1.00  0.00     0.210 C 
ENDBRANCH  15  20
BRANCH  16  22
HETATM   22  O6  UNL     1      16.315  32.734  17.151  1.00  0.00    -0.353 OA
HETATM   23  C32 UNL     1      16.024  32.461  15.800  1.00  0.00     0.210 C 
ENDBRANCH  16  22
ENDBRANCH  11  12
ENDBRANCH  10  11
ENDBRANCH   8  10
ENDBRANCH   3   8
ENDBRANCH   2   3
ENDBRANCH   1   2
BRANCH   1  24
HETATM   24  C5  UNL     1      21.815  31.635  13.553  1.00  0.00     0.003 C 
BRANCH  24  25
HETATM   25  C6  UNL     1      22.470  30.295  13.674  1.00  0.00     0.033 C 
BRANCH  25  26
HETATM   26  C7  UNL     1      21.434  29.222  14.050  1.00  0.00     0.218 C 
BRANCH  26  27
HETATM   27  N2  UNL     1      21.239  28.313  13.110  1.00  0.00    -0.446 NA
BRANCH  27  28
HETATM   28  C8  UNL     1      21.109  27.497  12.220  1.00  0.00     0.136 A 
HETATM   29  C9  UNL     1      19.885  27.154  11.663  1.00  0.00     0.123 A 
HETATM   30  C10 UNL     1      19.755  26.234  10.656  1.00  0.00     0.045 A 
HETATM   31  S1  UNL     1      18.324  27.857  11.982  1.00  0.00     0.181 S 
HETATM   32  N3  UNL     1      20.897  25.624  10.161  1.00  0.00    -0.351 N 
HETATM   33  C19 UNL     1      18.378  25.944  10.395  1.00  0.00     0.010 C 
HETATM   34  C11 UNL     1      20.831  24.881   8.967  1.00  0.00     0.156 C 
HETATM   35  C12 UNL     1      22.112  25.910  10.668  1.00  0.00     0.054 A 
HETATM   36  C13 UNL     1      23.232  25.243  10.192  1.00  0.00    -0.034 A 
HETATM   37  C18 UNL     1      22.243  26.844  11.694  1.00  0.00     0.033 A 
HETATM   38  C14 UNL     1      23.184  24.149   9.245  1.00  0.00     0.050 C 
HETATM   39  C15 UNL     1      24.466  25.594  10.802  1.00  0.00     0.009 A 
HETATM   40  C16 UNL     1      24.585  26.518  11.797  1.00  0.00     0.002 A 
HETATM   41  C17 UNL     1      23.474  27.146  12.249  1.00  0.00     0.017 A 
HETATM   42  C20 UNL     1      17.844  25.072   9.357  1.00  0.00     0.022 C 
HETATM   43  C21 UNL     1      17.907  25.214  11.716  1.00  0.00     0.022 C 
HETATM   44  C22 UNL     1      17.558  27.266  10.456  1.00  0.00     0.161 C 
HETATM   45  O2  UNL     1      17.639  27.401  13.189  1.00  0.00    -0.222 OA
HETATM   46  O3  UNL     1      18.361  29.359  11.849  1.00  0.00    -0.222 OA
ENDBRANCH  27  28
ENDBRANCH  26  27
ENDBRANCH  25  26
ENDBRANCH  24  25
ENDBRANCH   1  24
TORSDOF 15
ENDMDL
MODEL 3
REMARK VINA RESULT: -9.349186662      1.188      2.254
REMARK  15 active torsions:
REMARK  status: ('A' for Active; 'I' for Inactive)
REMARK    1  A    between atoms: O1_2  and  N1_3 
REMARK    2  A    between atoms: C2_5  and  C3_6 
REMARK    3  A    between atoms: C2_5  and  N4_31 
REMARK    4  A    between atoms: C3_6  and  C4_7 
REMARK    5  A    between atoms: C4_7  and  C5_8 
REMARK    6  A    between atoms: C5_8  and  C6_9 
REMARK    7  A    between atoms: C6_9  and  C7_10 
REMARK    8  A    between atoms: C7_10  and  N2_11 
REMARK    9  A    between atoms: N2_11  and  C8_12 
REMARK   10  A    between atoms: N4_31  and  C23_33 
REMARK   11  A    between atoms: C23_33  and  C24_34 
REMARK   12  A    between atoms: C24_34  and  C25_35 
REMARK   13  A    between atoms: C27_37  and  O4_38 
REMARK   14  A    between atoms: C29_40  and  O5_41 
REMARK   15  A    between atoms: C31_43  and  O6_44 
ROOT
HETATM    1  C4  UNL     1      23.092  32.794  15.234  1.00  0.00     0.008 C 
ENDROOT
BRANCH   1   2
HETATM    2  C3  UNL     1      21.671  33.256  15.317  1.00  0.00     0.078 C 
BRANCH   2   3
HETATM    3  C2  UNL     1      21.079  32.964  16.627  1.00  0.00     0.097 C 
HETATM    4  N1  UNL     1      19.979  32.419  16.814  1.00  0.00    -0.255 N 
ATOM      5  H1  UNL     1      19.766  32.315  17.805  1.00  0.00     0.195 HD
BRANCH   4   6
HETATM    6  O1  UNL     1      19.016  31.939  16.046  1.00  0.00    -0.284 OA
HETATM    7  C1  UNL     1      18.205  30.859  16.472  1.00  0.00     0.237 C 
ENDBRANCH   4   6
BRANCH   3   8
HETATM    8  N4  UNL     1      21.913  33.332  17.767  1.00  0.00    -0.378 N 
ATOM      9  H4  UNL     1      22.382  32.584  18.279  1.00  0.00     0.160 HD
BRANCH   8  10
HETATM   10  C23 UNL     1      22.112  34.662  18.206  1.00  0.00     0.125 C 
BRANCH  10  11
HETATM   11  C24 UNL     1      21.231  35.166  19.303  1.00  0.00     0.058 C 
BRANCH  11  12
HETATM   12  C25 UNL     1      19.954  35.766  18.825  1.00  0.00    -0.051 A 
HETATM   13  C26 UNL     1      19.863  37.002  18.235  1.00  0.00     0.047 A 
HETATM   14  C27 UNL     1      18.677  37.550  17.781  1.00  0.00     0.104 A 
HETATM   15  C29 UNL     1      17.540  36.813  17.932  1.00  0.00     0.135 A 
HETATM   16  C31 UNL     1      17.588  35.544  18.531  1.00  0.00     0.104 A 
HETATM   17  C33 UNL     1      18.774  35.030  18.969  1.00  0.00     0.047 A 
BRANCH  14  18
HETATM   18  O4  UNL     1      18.661  38.804  17.195  1.00  0.00    -0.353 OA
HETATM   19  C28 UNL     1      19.044  39.916  17.955  1.00  0.00     0.210 C 
ENDBRANCH  14  18
BRANCH  15  20
HETATM   20  O5  UNL     1      16.336  37.335  17.487  1.00  0.00    -0.351 OA
HETATM   21  C30 UNL     1      15.621  38.186  18.377  1.00  0.00     0.210 C 
ENDBRANCH  15  20
BRANCH  16  22
HETATM   22  O6  UNL     1      16.371  34.886  18.632  1.00  0.00    -0.353 OA
HETATM   23  C32 UNL     1      16.079  33.854  17.721  1.00  0.00     0.210 C 
ENDBRANCH  16  22
ENDBRANCH  11  12
ENDBRANCH  10  11
ENDBRANCH   8  10
ENDBRANCH   3   8
ENDBRANCH   2   3
ENDBRANCH   1   2
BRANCH   1  24
HETATM   24  C5  UNL     1      23.171  31.368  14.682  1.00  0.00     0.003 C 
BRANCH  24  25
HETATM   25  C6  UNL     1      22.054  31.076  13.730  1.00  0.00     0.033 C 
BRANCH  25  26
HETATM   26  C7  UNL     1      21.277  29.829  14.181  1.00  0.00     0.218 C 
BRANCH  26  27
HETATM   27  N2  UNL     1      21.191  28.887  13.257  1.00  0.00    -0.446 NA
BRANCH  27  28
HETATM   28  C8  UNL     1      21.092  27.985  12.450  1.00  0.00     0.136 A 
HETATM   29  C9  UNL     1      19.882  27.548  11.928  1.00  0.00     0.123 A 
HETATM   30  C10 UNL     1      19.787  26.531  11.015  1.00  0.00     0.045 A 
HETATM   31  S1  UNL     1      18.297  28.226  12.177  1.00  0.00     0.181 S 
HETATM   32  N3  UNL     1      20.950  25.916  10.581  1.00  0.00    -0.351 N 
HETATM   33  C19 UNL     1      18.421  26.172  10.782  1.00  0.00     0.010 C 
HETATM   34  C11 UNL     1      20.914  25.059   9.465  1.00  0.00     0.156 C 
HETATM   35  C12 UNL     1      22.153  26.291  11.059  1.00  0.00     0.054 A 
HETATM   36  C13 UNL     1      23.296  25.618  10.650  1.00  0.00    -0.034 A 
HETATM   37  C18 UNL     1      22.248  27.323  11.990  1.00  0.00     0.033 A 
HETATM   38  C14 UNL     1      23.289  24.437   9.813  1.00  0.00     0.050 C 
HETATM   39  C15 UNL     1      24.516  26.069  11.224  1.00  0.00     0.009 A 
HETATM   40  C16 UNL     1      24.600  27.087  12.125  1.00  0.00     0.002 A 
HETATM   41  C17 UNL     1      23.467  27.718  12.513  1.00  0.00     0.017 A 
HETATM   42  C20 UNL     1      17.921  25.186   9.833  1.00  0.00     0.022 C 
HETATM   43  C21 UNL     1      17.970  25.557  12.167  1.00  0.00     0.022 C 
HETATM   44  C22 UNL     1      17.557  27.465  10.714  1.00  0.00     0.161 C 
HETATM   45  O2  UNL     1      17.623  27.866  13.422  1.00  0.00    -0.222 OA
HETATM   46  O3  UNL     1      18.284  29.709  11.899  1.00  0.00    -0.222 OA
ENDBRANCH  27  28
ENDBRANCH  26  27
ENDBRANCH  25  26
ENDBRANCH  24  25
ENDBRANCH   1  24
TORSDOF 15
ENDMDL
MODEL 4
REMARK VINA RESULT: -9.266124924      1.109      1.534
REMARK  15 active torsions:
REMARK  status: ('A' for Active; 'I' for Inactive)
REMARK    1  A    between atoms: O1_2  and  N1_3 
REMARK    2  A    between atoms: C2_5  and  C3_6 
REMARK    3  A    between atoms: C2_5  and  N4_31 
REMARK    4  A    between atoms: C3_6  and  C4_7 
REMARK    5  A    between atoms: C4_7  and  C5_8 
REMARK    6  A    between atoms: C5_8  and  C6_9 
REMARK    7  A    between atoms: C6_9  and  C7_10 
REMARK    8  A    between atoms: C7_10  and  N2_11 
REMARK    9  A    between atoms: N2_11  and  C8_12 
REMARK   10  A    between atoms: N4_31  and  C23_33 
REMARK   11  A    between atoms: C23_33  and  C24_34 
REMARK   12  A    between atoms: C24_34  and  C25_35 
REMARK   13  A    between atoms: C27_37  and  O4_38 
REMARK   14  A    between atoms: C29_40  and  O5_41 
REMARK   15  A    between atoms: C31_43  and  O6_44 
ROOT
HETATM    1  C4  UNL     1      23.250  32.553  15.077  1.00  0.00     0.008 C 
ENDROOT
BRANCH   1   2
HETATM    2  C3  UNL     1      22.736  32.257  16.449  1.00  0.00     0.078 C 
BRANCH   2   3
HETATM    3  C2  UNL     1      21.501  32.994  16.739  1.00  0.00     0.097 C 
HETATM    4  N1  UNL     1      20.372  32.488  16.858  1.00  0.00    -0.255 N 
ATOM      5  H1  UNL     1      19.658  33.187  17.059  1.00  0.00     0.195 HD
BRANCH   4   6
HETATM    6  O1  UNL     1      19.868  31.269  16.790  1.00  0.00    -0.284 OA
HETATM    7  C1  UNL     1      18.475  31.055  16.647  1.00  0.00     0.237 C 
ENDBRANCH   4   6
BRANCH   3   8
HETATM    8  N4  UNL     1      21.680  34.430  16.931  1.00  0.00    -0.378 N 
ATOM      9  H4  UNL     1      21.460  35.049  16.150  1.00  0.00     0.160 HD
BRANCH   8  10
HETATM   10  C23 UNL     1      22.139  35.016  18.134  1.00  0.00     0.125 C 
BRANCH  10  11
HETATM   11  C24 UNL     1      21.161  35.150  19.255  1.00  0.00     0.058 C 
BRANCH  11  12
HETATM   12  C25 UNL     1      19.851  35.730  18.848  1.00  0.00    -0.051 A 
HETATM   13  C26 UNL     1      18.659  35.055  18.923  1.00  0.00     0.047 A 
HETATM   14  C27 UNL     1      17.443  35.602  18.555  1.00  0.00     0.104 A 
HETATM   15  C29 UNL     1      17.439  36.884  18.092  1.00  0.00     0.135 A 
HETATM   16  C31 UNL     1      18.636  37.611  17.997  1.00  0.00     0.104 A 
HETATM   17  C33 UNL     1      19.821  37.043  18.369  1.00  0.00     0.047 A 
BRANCH  14  18
HETATM   18  O4  UNL     1      16.278  34.860  18.659  1.00  0.00    -0.353 OA
HETATM   19  C28 UNL     1      15.991  33.902  17.680  1.00  0.00     0.210 C 
ENDBRANCH  14  18
BRANCH  15  20
HETATM   20  O5  UNL     1      16.236  37.459  17.715  1.00  0.00    -0.351 OA
HETATM   21  C30 UNL     1      15.584  38.297  18.664  1.00  0.00     0.210 C 
ENDBRANCH  15  20
BRANCH  16  22
HETATM   22  O6  UNL     1      18.512  38.904  17.513  1.00  0.00    -0.353 OA
HETATM   23  C32 UNL     1      19.361  39.325  16.471  1.00  0.00     0.210 C 
ENDBRANCH  16  22
ENDBRANCH  11  12
ENDBRANCH  10  11
ENDBRANCH   8  10
ENDBRANCH   3   8
ENDBRANCH   2   3
ENDBRANCH   1   2
BRANCH   1  24
HETATM   24  C5  UNL     1      23.269  31.287  14.215  1.00  0.00     0.003 C 
BRANCH  24  25
HETATM   25  C6  UNL     1      21.950  31.046  13.551  1.00  0.00     0.033 C 
BRANCH  25  26
HETATM   26  C7  UNL     1      21.300  29.764  14.096  1.00  0.00     0.218 C 
BRANCH  26  27
HETATM   27  N2  UNL     1      21.244  28.776  13.219  1.00  0.00    -0.446 NA
BRANCH  27  28
HETATM   28  C8  UNL     1      21.139  27.888  12.397  1.00  0.00     0.136 A 
HETATM   29  C9  UNL     1      19.927  27.471  11.864  1.00  0.00     0.123 A 
HETATM   30  C10 UNL     1      19.826  26.471  10.934  1.00  0.00     0.045 A 
HETATM   31  S1  UNL     1      18.348  28.159  12.120  1.00  0.00     0.181 S 
HETATM   32  N3  UNL     1      20.985  25.853  10.493  1.00  0.00    -0.351 N 
HETATM   33  C19 UNL     1      18.457  26.128  10.691  1.00  0.00     0.010 C 
HETATM   34  C11 UNL     1      20.944  25.014   9.363  1.00  0.00     0.156 C 
HETATM   35  C12 UNL     1      22.190  26.208  10.981  1.00  0.00     0.054 A 
HETATM   36  C13 UNL     1      23.328  25.532  10.564  1.00  0.00    -0.034 A 
HETATM   37  C18 UNL     1      22.291  27.224  11.929  1.00  0.00     0.033 A 
HETATM   38  C14 UNL     1      23.313  24.366   9.708  1.00  0.00     0.050 C 
HETATM   39  C15 UNL     1      24.550  25.962  11.149  1.00  0.00     0.009 A 
HETATM   40  C16 UNL     1      24.640  26.965  12.067  1.00  0.00     0.002 A 
HETATM   41  C17 UNL     1      23.512  27.600  12.463  1.00  0.00     0.017 A 
HETATM   42  C20 UNL     1      17.951  25.163   9.724  1.00  0.00     0.022 C 
HETATM   43  C21 UNL     1      17.997  25.494  12.064  1.00  0.00     0.022 C 
HETATM   44  C22 UNL     1      17.605  27.429  10.643  1.00  0.00     0.161 C 
HETATM   45  O2  UNL     1      17.666  27.785  13.356  1.00  0.00    -0.222 OA
HETATM   46  O3  UNL     1      18.349  29.646  11.867  1.00  0.00    -0.222 OA
ENDBRANCH  27  28
ENDBRANCH  26  27
ENDBRANCH  25  26
ENDBRANCH  24  25
ENDBRANCH   1  24
TORSDOF 15
ENDMDL
MODEL 5
REMARK VINA RESULT: -9.234051223      2.844     10.967
REMARK  15 active torsions:
REMARK  status: ('A' for Active; 'I' for Inactive)
REMARK    1  A    between atoms: O1_2  and  N1_3 
REMARK    2  A    between atoms: C2_5  and  C3_6 
REMARK    3  A    between atoms: C2_5  and  N4_31 
REMARK    4  A    between atoms: C3_6  and  C4_7 
REMARK    5  A    between atoms: C4_7  and  C5_8 
REMARK    6  A    between atoms: C5_8  and  C6_9 
REMARK    7  A    between atoms: C6_9  and  C7_10 
REMARK    8  A    between atoms: C7_10  and  N2_11 
REMARK    9  A    between atoms: N2_11  and  C8_12 
REMARK   10  A    between atoms: N4_31  and  C23_33 
REMARK   11  A    between atoms: C23_33  and  C24_34 
REMARK   12  A    between atoms: C24_34  and  C25_35 
REMARK   13  A    between atoms: C27_37  and  O4_38 
REMARK   14  A    between atoms: C29_40  and  O5_41 
REMARK   15  A    between atoms: C31_43  and  O6_44 
ROOT
HETATM    1  C4  UNL     1      19.203  30.955  13.269  1.00  0.00     0.008 C 
ENDROOT
BRANCH   1   2
HETATM    2  C3  UNL     1      20.620  31.426  13.176  1.00  0.00     0.078 C 
BRANCH   2   3
HETATM    3  C2  UNL     1      21.483  30.751  14.152  1.00  0.00     0.097 C 
HETATM    4  N1  UNL     1      22.625  31.115  14.476  1.00  0.00    -0.255 N 
ATOM      5  H1  UNL     1      23.042  30.498  15.171  1.00  0.00     0.195 HD
BRANCH   4   6
HETATM    6  O1  UNL     1      23.434  32.105  14.142  1.00  0.00    -0.284 OA
HETATM    7  C1  UNL     1      24.247  32.749  15.107  1.00  0.00     0.237 C 
ENDBRANCH   4   6
BRANCH   3   8
HETATM    8  N4  UNL     1      20.881  29.585  14.792  1.00  0.00    -0.378 N 
ATOM      9  H4  UNL     1      20.149  29.743  15.484  1.00  0.00     0.160 HD
BRANCH   8  10
HETATM   10  C23 UNL     1      21.252  28.249  14.511  1.00  0.00     0.125 C 
BRANCH  10  11
HETATM   11  C24 UNL     1      21.905  27.974  13.195  1.00  0.00     0.058 C 
BRANCH  11  12
HETATM   12  C25 UNL     1      21.082  27.140  12.276  1.00  0.00    -0.051 A 
HETATM   13  C26 UNL     1      21.569  26.065  11.576  1.00  0.00     0.047 A 
HETATM   14  C27 UNL     1      20.799  25.285  10.733  1.00  0.00     0.104 A 
HETATM   15  C29 UNL     1      19.483  25.610  10.596  1.00  0.00     0.135 A 
HETATM   16  C31 UNL     1      18.942  26.703  11.293  1.00  0.00     0.104 A 
HETATM   17  C33 UNL     1      19.729  27.453  12.118  1.00  0.00     0.047 A 
BRANCH  14  18
HETATM   18  O4  UNL     1      21.360  24.213  10.058  1.00  0.00    -0.353 OA
HETATM   19  C28 UNL     1      22.376  24.452   9.126  1.00  0.00     0.210 C 
ENDBRANCH  14  18
BRANCH  15  20
HETATM   20  O5  UNL     1      18.684  24.847   9.759  1.00  0.00    -0.351 OA
HETATM   21  C30 UNL     1      18.614  25.233   8.389  1.00  0.00     0.210 C 
ENDBRANCH  15  20
BRANCH  16  22
HETATM   22  O6  UNL     1      17.593  26.940  11.077  1.00  0.00    -0.353 OA
HETATM   23  C32 UNL     1      17.183  28.231  10.693  1.00  0.00     0.210 C 
ENDBRANCH  16  22
ENDBRANCH  11  12
ENDBRANCH  10  11
ENDBRANCH   8  10
ENDBRANCH   3   8
ENDBRANCH   2   3
ENDBRANCH   1   2
BRANCH   1  24
HETATM   24  C5  UNL     1      18.343  31.960  14.041  1.00  0.00     0.003 C 
BRANCH  24  25
HETATM   25  C6  UNL     1      17.640  31.320  15.196  1.00  0.00     0.033 C 
BRANCH  25  26
HETATM   26  C7  UNL     1      18.394  31.602  16.507  1.00  0.00     0.218 C 
BRANCH  26  27
HETATM   27  N2  UNL     1      18.404  32.877  16.856  1.00  0.00    -0.446 NA
BRANCH  27  28
HETATM   28  C8  UNL     1      18.394  34.033  17.230  1.00  0.00     0.136 A 
HETATM   29  C9  UNL     1      19.537  34.807  17.369  1.00  0.00     0.123 A 
HETATM   30  C10 UNL     1      19.508  36.111  17.789  1.00  0.00     0.045 A 
HETATM   31  S1  UNL     1      21.174  34.393  16.943  1.00  0.00     0.181 S 
HETATM   32  N3  UNL     1      18.282  36.690  18.077  1.00  0.00    -0.351 N 
HETATM   33  C19 UNL     1      20.831  36.612  18.011  1.00  0.00     0.010 C 
HETATM   34  C11 UNL     1      18.192  38.084  18.255  1.00  0.00     0.156 C 
HETATM   35  C12 UNL     1      17.139  35.985  17.969  1.00  0.00     0.054 A 
HETATM   36  C13 UNL     1      15.932  36.573  18.319  1.00  0.00    -0.034 A 
HETATM   37  C18 UNL     1      17.170  34.658  17.545  1.00  0.00     0.033 A 
HETATM   38  C14 UNL     1      15.810  37.885  18.917  1.00  0.00     0.050 C 
HETATM   39  C15 UNL     1      14.783  35.746  18.193  1.00  0.00     0.009 A 
HETATM   40  C16 UNL     1      14.822  34.453  17.766  1.00  0.00     0.002 A 
HETATM   41  C17 UNL     1      16.016  33.902  17.441  1.00  0.00     0.017 A 
HETATM   42  C20 UNL     1      21.205  37.967  18.394  1.00  0.00     0.022 C 
HETATM   43  C21 UNL     1      21.332  35.767  19.250  1.00  0.00     0.022 C 
HETATM   44  C22 UNL     1      21.768  36.099  16.879  1.00  0.00     0.161 C 
HETATM   45  O2  UNL     1      21.904  33.561  17.896  1.00  0.00    -0.222 OA
HETATM   46  O3  UNL     1      21.262  33.891  15.523  1.00  0.00    -0.222 OA
ENDBRANCH  27  28
ENDBRANCH  26  27
ENDBRANCH  25  26
ENDBRANCH  24  25
ENDBRANCH   1  24
TORSDOF 15
ENDMDL
