MODEL 1
REMARK VINA RESULT: -8.838499031      0.000      0.000
REMARK  15 active torsions:
REMARK  status: ('A' for Active; 'I' for Inactive)
REMARK    1  A    between atoms: O1_2  and  C2_3 
REMARK    2  A    between atoms: C2_3  and  C3_4 
REMARK    3  A    between atoms: C3_4  and  O2_5 
REMARK    4  A    between atoms: C3_4  and  N1_7 
REMARK    5  A    between atoms: N1_7  and  C4_9 
REMARK    6  A    between atoms: C5_10  and  O3_11 
REMARK    7  A    between atoms: C8_14  and  O4_15 
REMARK    8  A    between atoms: C12_19  and  O5_20 
REMARK    9  A    between atoms: O5_20  and  C13_21 
REMARK   10  A    between atoms: C13_21  and  C14_22 
REMARK   11  A    between atoms: C14_22  and  N2_23 
REMARK       I    between atoms: N2_23  and  C15_25 
REMARK   12  A    between atoms: C15_25  and  C16_27 
REMARK       I    between atoms: N3_30  and  C19_31 
REMARK   13  A    between atoms: C23_36  and  C25_38 
REMARK   14  A    between atoms: C28_41  and  O8_42 
REMARK   15  A    between atoms: C30_44  and  O9_45 
ROOT
HETATM    1  C4  UNL     1      21.407  28.017  13.105  1.00  0.00     0.102 A 
HETATM    2  C5  UNL     1      22.382  27.457  12.318  1.00  0.00     0.100 A 
HETATM    3  C7  UNL     1      21.955  26.609  11.317  1.00  0.00     0.076 A 
HETATM    4  C8  UNL     1      20.628  26.343  11.124  1.00  0.00     0.079 A 
HETATM    5  C10 UNL     1      19.667  26.935  11.950  1.00  0.00     0.007 A 
HETATM    6  C11 UNL     1      18.251  26.600  11.682  1.00  0.00     0.054 C 
HETATM    7  C12 UNL     1      20.054  27.788  12.960  1.00  0.00     0.107 A 
ENDROOT
BRANCH   1   8
HETATM    8  N1  UNL     1      21.912  28.886  14.163  1.00  0.00    -0.330 N 
ATOM      9  H1  UNL     1      22.400  28.500  14.971  1.00  0.00     0.168 HD
BRANCH   8  10
HETATM   10  C3  UNL     1      21.706  30.267  14.037  1.00  0.00     0.175 C 
BRANCH  10  11
HETATM   11  C2  UNL     1      21.564  31.292  15.015  1.00  0.00     0.125 C 
HETATM   12  C23 UNL     1      22.385  32.289  15.221  1.00  0.00    -0.014 C 
HETATM   13  C24 UNL     1      23.643  32.565  14.486  1.00  0.00     0.052 C 
BRANCH  11  14
HETATM   14  O1  UNL     1      20.447  31.273  15.861  1.00  0.00    -0.351 OA
HETATM   15  C1  UNL     1      20.020  30.281  16.708  1.00  0.00     0.210 C 
ENDBRANCH  11  14
BRANCH  12  16
HETATM   16  C25 UNL     1      22.073  33.310  16.273  1.00  0.00    -0.025 A 
HETATM   17  C26 UNL     1      22.412  33.034  17.575  1.00  0.00     0.015 A 
HETATM   18  C27 UNL     1      22.166  33.955  18.598  1.00  0.00     0.040 A 
HETATM   19  C28 UNL     1      21.572  35.160  18.281  1.00  0.00     0.101 A 
HETATM   20  C30 UNL     1      21.227  35.445  16.973  1.00  0.00     0.102 A 
HETATM   21  C32 UNL     1      21.482  34.506  15.966  1.00  0.00     0.051 A 
BRANCH  19  22
HETATM   22  O8  UNL     1      21.301  36.116  19.254  1.00  0.00    -0.353 OA
HETATM   23  C29 UNL     1      22.395  36.652  19.972  1.00  0.00     0.210 C 
ENDBRANCH  19  22
BRANCH  20  24
HETATM   24  O9  UNL     1      20.631  36.666  16.702  1.00  0.00    -0.353 OA
HETATM   25  C31 UNL     1      21.504  37.751  16.379  1.00  0.00     0.210 C 
ENDBRANCH  20  24
ENDBRANCH  12  16
ENDBRANCH  10  11
BRANCH  10  26
HETATM   26  O2  UNL     1      21.634  30.661  12.799  1.00  0.00    -0.344 OA
ATOM     27  H2  UNL     1      22.454  30.942  12.411  1.00  0.00     0.219 HD
ENDBRANCH  10  26
ENDBRANCH   8  10
ENDBRANCH   1   8
BRANCH   2  28
HETATM   28  O3  UNL     1      23.744  27.733  12.519  1.00  0.00    -0.353 OA
HETATM   29  C6  UNL     1      24.671  26.814  12.024  1.00  0.00     0.210 C 
ENDBRANCH   2  28
BRANCH   7  30
HETATM   30  O5  UNL     1      19.134  28.369  13.768  1.00  0.00    -0.346 OA
BRANCH  30  31
HETATM   31  C13 UNL     1      17.904  28.942  13.472  1.00  0.00     0.195 C 
BRANCH  31  32
HETATM   32  C14 UNL     1      18.110  30.433  13.370  1.00  0.00     0.149 C 
BRANCH  32  33
HETATM   33  N2  UNL     1      17.519  31.113  14.480  1.00  0.00    -0.359 N 
HETATM   34  C15 UNL     1      17.729  32.487  14.707  1.00  0.00     0.222 C 
HETATM   35  O6  UNL     1      18.449  33.162  13.939  1.00  0.00    -0.273 OA
ATOM     36  H2  UNL     1      16.929  30.589  15.126  1.00  0.00     0.162 HD
BRANCH  34  37
HETATM   37  C16 UNL     1      17.071  33.135  15.889  1.00  0.00     0.081 C 
HETATM   38  C17 UNL     1      18.030  33.461  16.987  1.00  0.00     0.034 C 
HETATM   39  C18 UNL     1      17.313  34.325  18.004  1.00  0.00     0.126 C 
HETATM   40  N3  UNL     1      15.879  34.358  17.732  1.00  0.00    -0.352 N 
HETATM   41  C19 UNL     1      15.150  35.577  17.716  1.00  0.00     0.215 C 
HETATM   42  C21 UNL     1      15.225  33.096  17.483  1.00  0.00     0.126 C 
HETATM   43  C20 UNL     1      15.879  36.839  17.988  1.00  0.00     0.117 C 
HETATM   44  O7  UNL     1      13.914  35.552  17.473  1.00  0.00    -0.274 OA
HETATM   45  C22 UNL     1      15.936  32.303  16.424  1.00  0.00     0.034 C 
ENDBRANCH  34  37
ENDBRANCH  32  33
ENDBRANCH  31  32
ENDBRANCH  30  31
ENDBRANCH   7  30
BRANCH   4  46
HETATM   46  O4  UNL     1      20.200  25.477  10.104  1.00  0.00    -0.355 OA
HETATM   47  C9  UNL     1      21.174  24.819   9.340  1.00  0.00     0.210 C 
ENDBRANCH   4  46
TORSDOF 15
ENDMDL
MODEL 2
REMARK VINA RESULT: -8.595178850      1.484      1.877
REMARK  15 active torsions:
REMARK  status: ('A' for Active; 'I' for Inactive)
REMARK    1  A    between atoms: O1_2  and  C2_3 
REMARK    2  A    between atoms: C2_3  and  C3_4 
REMARK    3  A    between atoms: C3_4  and  O2_5 
REMARK    4  A    between atoms: C3_4  and  N1_7 
REMARK    5  A    between atoms: N1_7  and  C4_9 
REMARK    6  A    between atoms: C5_10  and  O3_11 
REMARK    7  A    between atoms: C8_14  and  O4_15 
REMARK    8  A    between atoms: C12_19  and  O5_20 
REMARK    9  A    between atoms: O5_20  and  C13_21 
REMARK   10  A    between atoms: C13_21  and  C14_22 
REMARK   11  A    between atoms: C14_22  and  N2_23 
REMARK       I    between atoms: N2_23  and  C15_25 
REMARK   12  A    between atoms: C15_25  and  C16_27 
REMARK       I    between atoms: N3_30  and  C19_31 
REMARK   13  A    between atoms: C23_36  and  C25_38 
REMARK   14  A    between atoms: C28_41  and  O8_42 
REMARK   15  A    between atoms: C30_44  and  O9_45 
ROOT
HETATM    1  C4  UNL     1      20.532  28.966  12.345  1.00  0.00     0.102 A 
HETATM    2  C5  UNL     1      20.877  27.640  12.264  1.00  0.00     0.100 A 
HETATM    3  C7  UNL     1      19.856  26.752  11.990  1.00  0.00     0.076 A 
HETATM    4  C8  UNL     1      18.569  27.178  11.810  1.00  0.00     0.079 A 
HETATM    5  C10 UNL     1      18.262  28.540  11.901  1.00  0.00     0.007 A 
HETATM    6  C11 UNL     1      16.848  28.926  11.695  1.00  0.00     0.054 C 
HETATM    7  C12 UNL     1      19.254  29.456  12.173  1.00  0.00     0.107 A 
ENDROOT
BRANCH   1   8
HETATM    8  N1  UNL     1      21.642  29.859  12.660  1.00  0.00    -0.330 N 
ATOM      9  H1  UNL     1      22.116  30.387  11.927  1.00  0.00     0.168 HD
BRANCH   8  10
HETATM   10  C3  UNL     1      22.039  29.971  14.000  1.00  0.00     0.175 C 
BRANCH  10  11
HETATM   11  C2  UNL     1      21.830  30.999  14.962  1.00  0.00     0.125 C 
HETATM   12  C23 UNL     1      22.577  32.057  15.143  1.00  0.00    -0.014 C 
HETATM   13  C24 UNL     1      23.803  32.414  14.391  1.00  0.00     0.052 C 
BRANCH  11  14
HETATM   14  O1  UNL     1      20.725  30.911  15.820  1.00  0.00    -0.351 OA
HETATM   15  C1  UNL     1      20.057  29.795  16.258  1.00  0.00     0.210 C 
ENDBRANCH  11  14
BRANCH  12  16
HETATM   16  C25 UNL     1      22.199  33.070  16.182  1.00  0.00    -0.025 A 
HETATM   17  C26 UNL     1      22.485  32.797  17.497  1.00  0.00     0.015 A 
HETATM   18  C27 UNL     1      22.177  33.711  18.510  1.00  0.00     0.040 A 
HETATM   19  C28 UNL     1      21.575  34.906  18.168  1.00  0.00     0.101 A 
HETATM   20  C30 UNL     1      21.284  35.188  16.847  1.00  0.00     0.102 A 
HETATM   21  C32 UNL     1      21.601  34.256  15.851  1.00  0.00     0.051 A 
BRANCH  19  22
HETATM   22  O8  UNL     1      21.244  35.854  19.130  1.00  0.00    -0.353 OA
HETATM   23  C29 UNL     1      21.198  35.435  20.480  1.00  0.00     0.210 C 
ENDBRANCH  19  22
BRANCH  20  24
HETATM   24  O9  UNL     1      20.679  36.399  16.551  1.00  0.00    -0.353 OA
HETATM   25  C31 UNL     1      21.540  37.530  16.402  1.00  0.00     0.210 C 
ENDBRANCH  20  24
ENDBRANCH  12  16
ENDBRANCH  10  11
BRANCH  10  26
HETATM   26  O2  UNL     1      22.719  28.943  14.417  1.00  0.00    -0.344 OA
ATOM     27  H2  UNL     1      23.393  28.631  13.825  1.00  0.00     0.219 HD
ENDBRANCH  10  26
ENDBRANCH   8  10
ENDBRANCH   1   8
BRANCH   2  28
HETATM   28  O3  UNL     1      22.199  27.206  12.450  1.00  0.00    -0.353 OA
HETATM   29  C6  UNL     1      22.687  26.226  11.585  1.00  0.00     0.210 C 
ENDBRANCH   2  28
BRANCH   7  30
HETATM   30  O5  UNL     1      18.970  30.778  12.264  1.00  0.00    -0.346 OA
BRANCH  30  31
HETATM   31  C13 UNL     1      19.082  31.654  13.335  1.00  0.00     0.195 C 
BRANCH  31  32
HETATM   32  C14 UNL     1      17.754  31.673  14.049  1.00  0.00     0.149 C 
BRANCH  32  33
HETATM   33  N2  UNL     1      17.716  32.698  15.045  1.00  0.00    -0.359 N 
HETATM   34  C15 UNL     1      16.611  32.862  15.903  1.00  0.00     0.222 C 
HETATM   35  O6  UNL     1      15.615  32.110  15.818  1.00  0.00    -0.273 OA
ATOM     36  H2  UNL     1      18.512  33.329  15.136  1.00  0.00     0.162 HD
BRANCH  34  37
HETATM   37  C16 UNL     1      16.645  33.956  16.928  1.00  0.00     0.081 C 
HETATM   38  C17 UNL     1      17.838  33.881  17.824  1.00  0.00     0.034 C 
HETATM   39  C18 UNL     1      17.901  35.157  18.640  1.00  0.00     0.126 C 
HETATM   40  N3  UNL     1      16.671  35.928  18.485  1.00  0.00    -0.352 N 
HETATM   41  C19 UNL     1      16.692  37.322  18.215  1.00  0.00     0.215 C 
HETATM   42  C21 UNL     1      15.423  35.216  18.622  1.00  0.00     0.126 C 
HETATM   43  C20 UNL     1      18.008  37.997  18.094  1.00  0.00     0.117 C 
HETATM   44  O7  UNL     1      15.604  37.942  18.087  1.00  0.00    -0.274 OA
HETATM   45  C22 UNL     1      15.383  33.995  17.748  1.00  0.00     0.034 C 
ENDBRANCH  34  37
ENDBRANCH  32  33
ENDBRANCH  31  32
ENDBRANCH  30  31
ENDBRANCH   7  30
BRANCH   4  46
HETATM   46  O4  UNL     1      17.534  26.269  11.532  1.00  0.00    -0.355 OA
HETATM   47  C9  UNL     1      17.844  24.903  11.491  1.00  0.00     0.210 C 
ENDBRANCH   4  46
TORSDOF 15
ENDMDL
MODEL 3
REMARK VINA RESULT: -8.509334139      1.484      2.063
REMARK  15 active torsions:
REMARK  status: ('A' for Active; 'I' for Inactive)
REMARK    1  A    between atoms: O1_2  and  C2_3 
REMARK    2  A    between atoms: C2_3  and  C3_4 
REMARK    3  A    between atoms: C3_4  and  O2_5 
REMARK    4  A    between atoms: C3_4  and  N1_7 
REMARK    5  A    between atoms: N1_7  and  C4_9 
REMARK    6  A    between atoms: C5_10  and  O3_11 
REMARK    7  A    between atoms: C8_14  and  O4_15 
REMARK    8  A    between atoms: C12_19  and  O5_20 
REMARK    9  A    between atoms: O5_20  and  C13_21 
REMARK   10  A    between atoms: C13_21  and  C14_22 
REMARK   11  A    between atoms: C14_22  and  N2_23 
REMARK       I    between atoms: N2_23  and  C15_25 
REMARK   12  A    between atoms: C15_25  and  C16_27 
REMARK       I    between atoms: N3_30  and  C19_31 
REMARK   13  A    between atoms: C23_36  and  C25_38 
REMARK   14  A    between atoms: C28_41  and  O8_42 
REMARK   15  A    between atoms: C30_44  and  O9_45 
ROOT
HETATM    1  C4  UNL     1      20.847  29.143  12.614  1.00  0.00     0.102 A 
HETATM    2  C5  UNL     1      21.551  28.237  11.861  1.00  0.00     0.100 A 
HETATM    3  C7  UNL     1      20.887  27.080  11.508  1.00  0.00     0.076 A 
HETATM    4  C8  UNL     1      19.595  26.853  11.892  1.00  0.00     0.079 A 
HETATM    5  C10 UNL     1      18.914  27.804  12.659  1.00  0.00     0.007 A 
HETATM    6  C11 UNL     1      17.518  27.489  13.037  1.00  0.00     0.054 C 
HETATM    7  C12 UNL     1      19.543  28.971  13.031  1.00  0.00     0.107 A 
ENDROOT
BRANCH   1   8
HETATM    8  N1  UNL     1      21.601  30.337  12.981  1.00  0.00    -0.330 N 
ATOM      9  H1  UNL     1      21.906  31.004  12.273  1.00  0.00     0.168 HD
BRANCH   8  10
HETATM   10  C3  UNL     1      21.895  30.541  14.337  1.00  0.00     0.175 C 
BRANCH  10  11
HETATM   11  C2  UNL     1      21.689  31.664  15.188  1.00  0.00     0.125 C 
HETATM   12  C23 UNL     1      22.548  32.617  15.439  1.00  0.00    -0.014 C 
HETATM   13  C24 UNL     1      23.923  32.733  14.897  1.00  0.00     0.052 C 
BRANCH  11  14
HETATM   14  O1  UNL     1      20.456  31.803  15.840  1.00  0.00    -0.351 OA
HETATM   15  C1  UNL     1      19.847  30.954  16.729  1.00  0.00     0.210 C 
ENDBRANCH  11  14
BRANCH  12  16
HETATM   16  C25 UNL     1      22.162  33.754  16.336  1.00  0.00    -0.025 A 
HETATM   17  C26 UNL     1      21.691  34.909  15.762  1.00  0.00     0.015 A 
HETATM   18  C27 UNL     1      21.294  35.998  16.546  1.00  0.00     0.040 A 
HETATM   19  C28 UNL     1      21.382  35.895  17.920  1.00  0.00     0.101 A 
HETATM   20  C30 UNL     1      21.856  34.736  18.505  1.00  0.00     0.102 A 
HETATM   21  C32 UNL     1      22.248  33.660  17.698  1.00  0.00     0.051 A 
BRANCH  19  22
HETATM   22  O8  UNL     1      21.004  36.943  18.753  1.00  0.00    -0.353 OA
HETATM   23  C29 UNL     1      21.609  38.203  18.542  1.00  0.00     0.210 C 
ENDBRANCH  19  22
BRANCH  20  24
HETATM   24  O9  UNL     1      21.928  34.679  19.887  1.00  0.00    -0.353 OA
HETATM   25  C31 UNL     1      22.986  35.413  20.509  1.00  0.00     0.210 C 
ENDBRANCH  20  24
ENDBRANCH  12  16
ENDBRANCH  10  11
BRANCH  10  26
HETATM   26  O2  UNL     1      22.457  29.510  14.897  1.00  0.00    -0.344 OA
ATOM     27  H2  UNL     1      23.366  29.361  14.662  1.00  0.00     0.219 HD
ENDBRANCH  10  26
ENDBRANCH   8  10
ENDBRANCH   1   8
BRANCH   2  28
HETATM   28  O3  UNL     1      22.879  28.473  11.469  1.00  0.00    -0.353 OA
HETATM   29  C6  UNL     1      23.845  27.545  11.861  1.00  0.00     0.210 C 
ENDBRANCH   2  28
BRANCH   7  30
HETATM   30  O5  UNL     1      18.896  29.901  13.775  1.00  0.00    -0.346 OA
BRANCH  30  31
HETATM   31  C13 UNL     1      18.305  31.102  13.406  1.00  0.00     0.195 C 
BRANCH  31  32
HETATM   32  C14 UNL     1      17.077  31.287  14.263  1.00  0.00     0.149 C 
BRANCH  32  33
HETATM   33  N2  UNL     1      17.205  32.433  15.109  1.00  0.00    -0.359 N 
HETATM   34  C15 UNL     1      16.289  32.698  16.145  1.00  0.00     0.222 C 
HETATM   35  O6  UNL     1      15.322  31.935  16.358  1.00  0.00    -0.273 OA
ATOM     36  H2  UNL     1      17.982  33.076  14.957  1.00  0.00     0.162 HD
BRANCH  34  37
HETATM   37  C16 UNL     1      16.491  33.916  16.996  1.00  0.00     0.081 C 
HETATM   38  C17 UNL     1      17.816  33.935  17.686  1.00  0.00     0.034 C 
HETATM   39  C18 UNL     1      18.011  35.305  18.304  1.00  0.00     0.126 C 
HETATM   40  N3  UNL     1      16.771  36.074  18.254  1.00  0.00    -0.352 N 
HETATM   41  C19 UNL     1      16.745  37.420  17.802  1.00  0.00     0.215 C 
HETATM   42  C21 UNL     1      15.565  35.411  18.687  1.00  0.00     0.126 C 
HETATM   43  C20 UNL     1      18.021  38.047  17.377  1.00  0.00     0.117 C 
HETATM   44  O7  UNL     1      15.649  38.040  17.774  1.00  0.00    -0.274 OA
HETATM   45  C22 UNL     1      15.383  34.087  18.001  1.00  0.00     0.034 C 
ENDBRANCH  34  37
ENDBRANCH  32  33
ENDBRANCH  31  32
ENDBRANCH  30  31
ENDBRANCH   7  30
BRANCH   4  46
HETATM   46  O4  UNL     1      18.925  25.672  11.529  1.00  0.00    -0.355 OA
HETATM   47  C9  UNL     1      18.726  25.413  10.167  1.00  0.00     0.210 C 
ENDBRANCH   4  46
TORSDOF 15
ENDMDL
MODEL 4
REMARK VINA RESULT: -8.386789277      2.699      8.374
REMARK  15 active torsions:
REMARK  status: ('A' for Active; 'I' for Inactive)
REMARK    1  A    between atoms: O1_2  and  C2_3 
REMARK    2  A    between atoms: C2_3  and  C3_4 
REMARK    3  A    between atoms: C3_4  and  O2_5 
REMARK    4  A    between atoms: C3_4  and  N1_7 
REMARK    5  A    between atoms: N1_7  and  C4_9 
REMARK    6  A    between atoms: C5_10  and  O3_11 
REMARK    7  A    between atoms: C8_14  and  O4_15 
REMARK    8  A    between atoms: C12_19  and  O5_20 
REMARK    9  A    between atoms: O5_20  and  C13_21 
REMARK   10  A    between atoms: C13_21  and  C14_22 
REMARK   11  A    between atoms: C14_22  and  N2_23 
REMARK       I    between atoms: N2_23  and  C15_25 
REMARK   12  A    between atoms: C15_25  and  C16_27 
REMARK       I    between atoms: N3_30  and  C19_31 
REMARK   13  A    between atoms: C23_36  and  C25_38 
REMARK   14  A    between atoms: C28_41  and  O8_42 
REMARK   15  A    between atoms: C30_44  and  O9_45 
ROOT
HETATM    1  C4  UNL     1      20.137  30.044  14.517  1.00  0.00     0.102 A 
HETATM    2  C5  UNL     1      21.470  29.737  14.394  1.00  0.00     0.100 A 
HETATM    3  C7  UNL     1      22.363  30.628  14.954  1.00  0.00     0.076 A 
HETATM    4  C8  UNL     1      21.937  31.756  15.598  1.00  0.00     0.079 A 
HETATM    5  C10 UNL     1      20.568  32.030  15.701  1.00  0.00     0.007 A 
HETATM    6  C11 UNL     1      20.182  33.270  16.411  1.00  0.00     0.054 C 
HETATM    7  C12 UNL     1      19.647  31.165  15.154  1.00  0.00     0.107 A 
ENDROOT
BRANCH   1   8
HETATM    8  N1  UNL     1      19.237  29.084  13.887  1.00  0.00    -0.330 N 
ATOM      9  H1  UNL     1      18.826  28.320  14.423  1.00  0.00     0.168 HD
BRANCH   8  10
HETATM   10  C3  UNL     1      18.953  29.243  12.524  1.00  0.00     0.175 C 
BRANCH  10  11
HETATM   11  C2  UNL     1      18.769  28.290  11.482  1.00  0.00     0.125 C 
HETATM   12  C23 UNL     1      17.658  28.050  10.835  1.00  0.00    -0.014 C 
HETATM   13  C24 UNL     1      16.349  28.713  11.050  1.00  0.00     0.052 C 
BRANCH  11  14
HETATM   14  O1  UNL     1      19.861  27.512  11.073  1.00  0.00    -0.351 OA
HETATM   15  C1  UNL     1      20.335  26.340  11.607  1.00  0.00     0.210 C 
ENDBRANCH  11  14
BRANCH  12  16
HETATM   16  C25 UNL     1      17.638  27.033   9.734  1.00  0.00    -0.025 A 
HETATM   17  C26 UNL     1      17.001  25.838   9.958  1.00  0.00     0.015 A 
HETATM   18  C27 UNL     1      16.930  24.858   8.963  1.00  0.00     0.040 A 
HETATM   19  C28 UNL     1      17.514  25.109   7.737  1.00  0.00     0.101 A 
HETATM   20  C30 UNL     1      18.158  26.310   7.504  1.00  0.00     0.102 A 
HETATM   21  C32 UNL     1      18.217  27.276   8.518  1.00  0.00     0.051 A 
BRANCH  19  22
HETATM   22  O8  UNL     1      17.478  24.174   6.708  1.00  0.00    -0.353 OA
HETATM   23  C29 UNL     1      16.245  23.974   6.045  1.00  0.00     0.210 C 
ENDBRANCH  19  22
BRANCH  20  24
HETATM   24  O9  UNL     1      18.731  26.518   6.260  1.00  0.00    -0.353 OA
HETATM   25  C31 UNL     1      18.173  27.563   5.460  1.00  0.00     0.210 C 
ENDBRANCH  20  24
ENDBRANCH  12  16
ENDBRANCH  10  11
BRANCH  10  26
HETATM   26  O2  UNL     1      18.842  30.490  12.168  1.00  0.00    -0.344 OA
ATOM     27  H2  UNL     1      18.209  31.000  12.659  1.00  0.00     0.219 HD
ENDBRANCH  10  26
ENDBRANCH   8  10
ENDBRANCH   1   8
BRANCH   2  28
HETATM   28  O3  UNL     1      21.904  28.577  13.732  1.00  0.00    -0.353 OA
HETATM   29  C6  UNL     1      22.772  28.735  12.651  1.00  0.00     0.210 C 
ENDBRANCH   2  28
BRANCH   7  30
HETATM   30  O5  UNL     1      18.319  31.418  15.246  1.00  0.00    -0.346 OA
BRANCH  30  31
HETATM   31  C13 UNL     1      17.394  31.054  16.216  1.00  0.00     0.195 C 
BRANCH  31  32
HETATM   32  C14 UNL     1      16.250  32.034  16.145  1.00  0.00     0.149 C 
BRANCH  32  33
HETATM   33  N2  UNL     1      16.685  33.360  16.456  1.00  0.00    -0.359 N 
HETATM   34  C15 UNL     1      16.178  34.069  17.562  1.00  0.00     0.222 C 
HETATM   35  O6  UNL     1      15.318  33.558  18.313  1.00  0.00    -0.273 OA
ATOM     36  H2  UNL     1      17.383  33.805  15.859  1.00  0.00     0.162 HD
BRANCH  34  37
HETATM   37  C16 UNL     1      16.686  35.455  17.829  1.00  0.00     0.081 C 
HETATM   38  C17 UNL     1      17.987  35.469  18.563  1.00  0.00     0.034 C 
HETATM   39  C18 UNL     1      18.522  36.886  18.555  1.00  0.00     0.126 C 
HETATM   40  N3  UNL     1      17.507  37.817  18.070  1.00  0.00    -0.352 N 
HETATM   41  C19 UNL     1      17.804  38.800  17.089  1.00  0.00     0.215 C 
HETATM   42  C21 UNL     1      16.184  37.702  18.633  1.00  0.00     0.126 C 
HETATM   43  C20 UNL     1      19.186  38.872  16.557  1.00  0.00     0.117 C 
HETATM   44  O7  UNL     1      16.892  39.578  16.701  1.00  0.00    -0.274 OA
HETATM   45  C22 UNL     1      15.671  36.292  18.561  1.00  0.00     0.034 C 
ENDBRANCH  34  37
ENDBRANCH  32  33
ENDBRANCH  31  32
ENDBRANCH  30  31
ENDBRANCH   7  30
BRANCH   4  46
HETATM   46  O4  UNL     1      22.851  32.659  16.166  1.00  0.00    -0.355 OA
HETATM   47  C9  UNL     1      23.906  33.124  15.369  1.00  0.00     0.210 C 
ENDBRANCH   4  46
TORSDOF 15
ENDMDL
MODEL 5
REMARK VINA RESULT: -8.365830173      1.713      2.465
REMARK  15 active torsions:
REMARK  status: ('A' for Active; 'I' for Inactive)
REMARK    1  A    between atoms: O1_2  and  C2_3 
REMARK    2  A    between atoms: C2_3  and  C3_4 
REMARK    3  A    between atoms: C3_4  and  O2_5 
REMARK    4  A    between atoms: C3_4  and  N1_7 
REMARK    5  A    between atoms: N1_7  and  C4_9 
REMARK    6  A    between atoms: C5_10  and  O3_11 
REMARK    7  A    between atoms: C8_14  and  O4_15 
REMARK    8  A    between atoms: C12_19  and  O5_20 
REMARK    9  A    between atoms: O5_20  and  C13_21 
REMARK   10  A    between atoms: C13_21  and  C14_22 
REMARK   11  A    between atoms: C14_22  and  N2_23 
REMARK       I    between atoms: N2_23  and  C15_25 
REMARK   12  A    between atoms: C15_25  and  C16_27 
REMARK       I    between atoms: N3_30  and  C19_31 
REMARK   13  A    between atoms: C23_36  and  C25_38 
REMARK   14  A    between atoms: C28_41  and  O8_42 
REMARK   15  A    between atoms: C30_44  and  O9_45 
ROOT
HETATM    1  C4  UNL     1      20.632  29.433  13.385  1.00  0.00     0.102 A 
HETATM    2  C5  UNL     1      21.406  28.703  12.518  1.00  0.00     0.100 A 
HETATM    3  C7  UNL     1      20.736  27.994  11.541  1.00  0.00     0.076 A 
HETATM    4  C8  UNL     1      19.373  28.021  11.447  1.00  0.00     0.079 A 
HETATM    5  C10 UNL     1      18.622  28.779  12.353  1.00  0.00     0.007 A 
HETATM    6  C11 UNL     1      17.152  28.760  12.189  1.00  0.00     0.054 C 
HETATM    7  C12 UNL     1      19.254  29.500  13.341  1.00  0.00     0.107 A 
ENDROOT
BRANCH   1   8
HETATM    8  N1  UNL     1      21.385  30.144  14.413  1.00  0.00    -0.330 N 
ATOM      9  H1  UNL     1      21.759  29.651  15.225  1.00  0.00     0.168 HD
BRANCH   8  10
HETATM   10  C3  UNL     1      21.581  31.522  14.253  1.00  0.00     0.175 C 
BRANCH  10  11
HETATM   11  C2  UNL     1      21.475  32.603  15.174  1.00  0.00     0.125 C 
HETATM   12  C23 UNL     1      22.467  33.238  15.744  1.00  0.00    -0.014 C 
HETATM   13  C24 UNL     1      23.913  32.970  15.558  1.00  0.00     0.052 C 
BRANCH  11  14
HETATM   14  O1  UNL     1      20.203  33.066  15.534  1.00  0.00    -0.351 OA
HETATM   15  C1  UNL     1      19.193  33.531  14.730  1.00  0.00     0.210 C 
ENDBRANCH  11  14
BRANCH  12  16
HETATM   16  C25 UNL     1      22.187  34.384  16.669  1.00  0.00    -0.025 A 
HETATM   17  C26 UNL     1      21.783  35.579  16.128  1.00  0.00     0.015 A 
HETATM   18  C27 UNL     1      21.485  36.678  16.940  1.00  0.00     0.040 A 
HETATM   19  C28 UNL     1      21.603  36.546  18.310  1.00  0.00     0.101 A 
HETATM   20  C30 UNL     1      22.010  35.346  18.862  1.00  0.00     0.102 A 
HETATM   21  C32 UNL     1      22.303  34.260  18.027  1.00  0.00     0.051 A 
BRANCH  19  22
HETATM   22  O8  UNL     1      21.323  37.602  19.170  1.00  0.00    -0.353 OA
HETATM   23  C29 UNL     1      21.888  38.863  18.870  1.00  0.00     0.210 C 
ENDBRANCH  19  22
BRANCH  20  24
HETATM   24  O9  UNL     1      22.116  35.259  20.241  1.00  0.00    -0.353 OA
HETATM   25  C31 UNL     1      21.012  34.674  20.937  1.00  0.00     0.210 C 
ENDBRANCH  20  24
ENDBRANCH  12  16
ENDBRANCH  10  11
BRANCH  10  26
HETATM   26  O2  UNL     1      21.918  31.852  13.040  1.00  0.00    -0.344 OA
ATOM     27  H2  UNL     1      21.244  31.729  12.382  1.00  0.00     0.219 HD
ENDBRANCH  10  26
ENDBRANCH   8  10
ENDBRANCH   1   8
BRANCH   2  28
HETATM   28  O3  UNL     1      22.806  28.677  12.618  1.00  0.00    -0.353 OA
HETATM   29  C6  UNL     1      23.462  27.510  12.225  1.00  0.00     0.210 C 
ENDBRANCH   2  28
BRANCH   7  30
HETATM   30  O5  UNL     1      18.540  30.238  14.225  1.00  0.00    -0.346 OA
BRANCH  30  31
HETATM   31  C13 UNL     1      18.409  30.121  15.603  1.00  0.00     0.195 C 
BRANCH  31  32
HETATM   32  C14 UNL     1      17.082  30.726  15.987  1.00  0.00     0.149 C 
BRANCH  32  33
HETATM   33  N2  UNL     1      17.258  31.984  16.644  1.00  0.00    -0.359 N 
HETATM   34  C15 UNL     1      16.276  32.992  16.596  1.00  0.00     0.222 C 
HETATM   35  O6  UNL     1      15.209  32.820  15.967  1.00  0.00    -0.273 OA
ATOM     36  H2  UNL     1      18.120  32.155  17.163  1.00  0.00     0.162 HD
BRANCH  34  37
HETATM   37  C16 UNL     1      16.528  34.283  17.316  1.00  0.00     0.081 C 
HETATM   38  C17 UNL     1      17.811  34.287  18.081  1.00  0.00     0.034 C 
HETATM   39  C18 UNL     1      18.080  35.701  18.552  1.00  0.00     0.126 C 
HETATM   40  N3  UNL     1      16.910  36.548  18.337  1.00  0.00    -0.352 N 
HETATM   41  C19 UNL     1      17.016  37.830  17.735  1.00  0.00     0.215 C 
HETATM   42  C21 UNL     1      15.633  36.030  18.766  1.00  0.00     0.126 C 
HETATM   43  C20 UNL     1      18.359  38.308  17.324  1.00  0.00     0.117 C 
HETATM   44  O7  UNL     1      15.976  38.520  17.569  1.00  0.00    -0.274 OA
HETATM   45  C22 UNL     1      15.384  34.651  18.223  1.00  0.00     0.034 C 
ENDBRANCH  34  37
ENDBRANCH  32  33
ENDBRANCH  31  32
ENDBRANCH  30  31
ENDBRANCH   7  30
BRANCH   4  46
HETATM   46  O4  UNL     1      18.698  27.297  10.451  1.00  0.00    -0.355 OA
HETATM   47  C9  UNL     1      19.346  26.195   9.877  1.00  0.00     0.210 C 
ENDBRANCH   4  46
TORSDOF 15
ENDMDL
