MODEL 1
REMARK VINA RESULT: -8.678782986      0.000      0.000
REMARK  15 active torsions:
REMARK  status: ('A' for Active; 'I' for Inactive)
REMARK    1  A    between atoms: O1_2  and  C2_3 
REMARK    2  A    between atoms: C4_5  and  C5_6 
REMARK    3  A    between atoms: C5_6  and  C7_8 
REMARK    4  A    between atoms: C5_6  and  N2_26 
REMARK    5  A    between atoms: C7_8  and  N1_9 
REMARK    6  A    between atoms: N1_9  and  C8_11 
REMARK    7  A    between atoms: C8_11  and  O2_12 
REMARK    8  A    between atoms: C8_11  and  C9_14 
REMARK    9  A    between atoms: C12_17  and  O3_18 
REMARK   10  A    between atoms: C14_20  and  O4_21 
REMARK   11  A    between atoms: C16_23  and  O5_24 
REMARK   12  A    between atoms: N2_26  and  S1_28 
REMARK   13  A    between atoms: S1_28  and  C18_31 
REMARK   14  A    between atoms: C28_41  and  O8_42 
REMARK   15  A    between atoms: C30_44  and  O9_45 
ROOT
HETATM    1  C5  UNL     1      21.512  34.345  17.184  1.00  0.00     0.080 C 
HETATM    2  C6  UNL     1      21.611  34.879  15.758  1.00  0.00     0.046 C 
ENDROOT
BRANCH   1   3
HETATM    3  C4  UNL     1      22.126  35.420  18.074  1.00  0.00    -0.023 A 
HETATM    4  C3  UNL     1      22.395  36.657  17.485  1.00  0.00     0.049 A 
HETATM    5  C2  UNL     1      22.945  37.697  18.176  1.00  0.00     0.104 A 
HETATM    6  C30 UNL     1      23.246  37.507  19.513  1.00  0.00     0.135 A 
HETATM    7  C28 UNL     1      23.001  36.315  20.132  1.00  0.00     0.104 A 
HETATM    8  C27 UNL     1      22.432  35.275  19.382  1.00  0.00     0.049 A 
BRANCH   5   9
HETATM    9  O1  UNL     1      23.208  38.937  17.572  1.00  0.00    -0.353 OA
HETATM   10  C1  UNL     1      22.135  39.583  16.874  1.00  0.00     0.210 C 
ENDBRANCH   5   9
BRANCH   6  11
HETATM   11  O9  UNL     1      23.815  38.610  20.188  1.00  0.00    -0.351 OA
HETATM   12  C31 UNL     1      25.250  38.673  20.122  1.00  0.00     0.210 C 
ENDBRANCH   6  11
BRANCH   7  13
HETATM   13  O8  UNL     1      23.304  36.131  21.460  1.00  0.00    -0.353 OA
HETATM   14  C29 UNL     1      24.496  35.468  21.811  1.00  0.00     0.210 C 
ENDBRANCH   7  13
ENDBRANCH   1   3
BRANCH   1  15
HETATM   15  C7  UNL     1      22.405  33.144  17.236  1.00  0.00     0.158 C 
BRANCH  15  16
HETATM   16  N1  UNL     1      22.520  32.395  15.997  1.00  0.00    -0.367 N 
ATOM     17  H1  UNL     1      23.210  32.642  15.288  1.00  0.00     0.161 HD
BRANCH  16  18
HETATM   18  C8  UNL     1      21.641  31.318  15.819  1.00  0.00     0.149 C 
BRANCH  18  19
HETATM   19  O2  UNL     1      20.887  31.000  16.851  1.00  0.00    -0.346 OA
ATOM     20  H2  UNL     1      20.310  31.681  17.177  1.00  0.00     0.219 HD
ENDBRANCH  18  19
BRANCH  18  21
HETATM   21  C9  UNL     1      21.418  30.484  14.658  1.00  0.00     0.051 A 
HETATM   22  C10 UNL     1      22.522  29.702  14.215  1.00  0.00     0.021 A 
HETATM   23  C11 UNL     1      22.390  28.988  13.051  1.00  0.00     0.041 A 
HETATM   24  C12 UNL     1      21.225  29.007  12.303  1.00  0.00     0.104 A 
HETATM   25  C14 UNL     1      20.153  29.762  12.731  1.00  0.00     0.136 A 
HETATM   26  C16 UNL     1      20.272  30.484  13.906  1.00  0.00     0.118 A 
BRANCH  24  27
HETATM   27  O3  UNL     1      21.179  28.254  11.134  1.00  0.00    -0.353 OA
HETATM   28  C13 UNL     1      21.025  26.850  11.177  1.00  0.00     0.210 C 
ENDBRANCH  24  27
BRANCH  25  29
HETATM   29  O4  UNL     1      18.991  29.801  12.010  1.00  0.00    -0.351 OA
HETATM   30  C15 UNL     1      17.987  28.837  12.245  1.00  0.00     0.210 C 
ENDBRANCH  25  29
BRANCH  26  31
HETATM   31  O5  UNL     1      19.161  31.199  14.284  1.00  0.00    -0.352 OA
HETATM   32  C17 UNL     1      18.995  32.572  13.899  1.00  0.00     0.210 C 
ENDBRANCH  26  31
ENDBRANCH  18  21
ENDBRANCH  16  18
ENDBRANCH  15  16
ENDBRANCH   1  15
BRANCH   1  33
HETATM   33  N2  UNL     1      20.257  33.983  17.658  1.00  0.00    -0.300 N 
ATOM     34  H2  UNL     1      20.077  32.980  17.676  1.00  0.00     0.173 HD
BRANCH  33  35
HETATM   35  S1  UNL     1      19.025  34.915  18.193  1.00  0.00     0.260 S 
HETATM   36  O6  UNL     1      19.011  34.978  19.737  1.00  0.00    -0.200 OA
HETATM   37  O7  UNL     1      19.068  36.376  17.741  1.00  0.00    -0.200 OA
BRANCH  35  38
HETATM   38  C18 UNL     1      17.447  34.374  17.704  1.00  0.00     0.086 A 
HETATM   39  C19 UNL     1      17.356  33.160  17.026  1.00  0.00     0.032 A 
HETATM   40  C20 UNL     1      16.168  32.627  16.569  1.00  0.00    -0.060 A 
HETATM   41  C21 UNL     1      16.106  31.324  15.847  1.00  0.00     0.048 C 
HETATM   42  C22 UNL     1      15.010  33.311  16.782  1.00  0.00     0.014 A 
HETATM   43  C23 UNL     1      15.060  34.496  17.439  1.00  0.00    -0.054 A 
HETATM   44  C24 UNL     1      13.800  35.250  17.672  1.00  0.00     0.049 C 
HETATM   45  C25 UNL     1      16.276  35.032  17.904  1.00  0.00    -0.033 A 
HETATM   46  C26 UNL     1      16.223  36.314  18.636  1.00  0.00     0.050 C 
ENDBRANCH  35  38
ENDBRANCH  33  35
ENDBRANCH   1  33
TORSDOF 15
ENDMDL
MODEL 2
REMARK VINA RESULT: -8.526958062      0.920      1.827
REMARK  15 active torsions:
REMARK  status: ('A' for Active; 'I' for Inactive)
REMARK    1  A    between atoms: O1_2  and  C2_3 
REMARK    2  A    between atoms: C4_5  and  C5_6 
REMARK    3  A    between atoms: C5_6  and  C7_8 
REMARK    4  A    between atoms: C5_6  and  N2_26 
REMARK    5  A    between atoms: C7_8  and  N1_9 
REMARK    6  A    between atoms: N1_9  and  C8_11 
REMARK    7  A    between atoms: C8_11  and  O2_12 
REMARK    8  A    between atoms: C8_11  and  C9_14 
REMARK    9  A    between atoms: C12_17  and  O3_18 
REMARK   10  A    between atoms: C14_20  and  O4_21 
REMARK   11  A    between atoms: C16_23  and  O5_24 
REMARK   12  A    between atoms: N2_26  and  S1_28 
REMARK   13  A    between atoms: S1_28  and  C18_31 
REMARK   14  A    between atoms: C28_41  and  O8_42 
REMARK   15  A    between atoms: C30_44  and  O9_45 
ROOT
HETATM    1  C5  UNL     1      21.544  34.252  17.138  1.00  0.00     0.080 C 
HETATM    2  C6  UNL     1      21.679  34.779  15.713  1.00  0.00     0.046 C 
ENDROOT
BRANCH   1   3
HETATM    3  C4  UNL     1      22.133  35.332  18.039  1.00  0.00    -0.023 A 
HETATM    4  C3  UNL     1      22.393  36.574  17.456  1.00  0.00     0.049 A 
HETATM    5  C2  UNL     1      22.921  37.619  18.156  1.00  0.00     0.104 A 
HETATM    6  C30 UNL     1      23.207  37.430  19.498  1.00  0.00     0.135 A 
HETATM    7  C28 UNL     1      22.970  36.233  20.110  1.00  0.00     0.104 A 
HETATM    8  C27 UNL     1      22.424  35.188  19.351  1.00  0.00     0.049 A 
BRANCH   5   9
HETATM    9  O1  UNL     1      23.176  38.865  17.559  1.00  0.00    -0.353 OA
HETATM   10  C1  UNL     1      22.053  39.625  17.094  1.00  0.00     0.210 C 
ENDBRANCH   5   9
BRANCH   6  11
HETATM   11  O9  UNL     1      23.753  38.538  20.182  1.00  0.00    -0.351 OA
HETATM   12  C31 UNL     1      25.184  38.645  20.098  1.00  0.00     0.210 C 
ENDBRANCH   6  11
BRANCH   7  13
HETATM   13  O8  UNL     1      23.258  36.050  21.441  1.00  0.00    -0.353 OA
HETATM   14  C29 UNL     1      24.491  35.478  21.809  1.00  0.00     0.210 C 
ENDBRANCH   7  13
ENDBRANCH   1   3
BRANCH   1  15
HETATM   15  C7  UNL     1      22.439  33.053  17.219  1.00  0.00     0.158 C 
BRANCH  15  16
HETATM   16  N1  UNL     1      21.847  31.800  16.784  1.00  0.00    -0.367 N 
ATOM     17  H1  UNL     1      21.295  31.224  17.418  1.00  0.00     0.161 HD
BRANCH  16  18
HETATM   18  C8  UNL     1      22.069  31.418  15.453  1.00  0.00     0.149 C 
BRANCH  18  19
HETATM   19  O2  UNL     1      23.309  31.507  15.018  1.00  0.00    -0.346 OA
ATOM     20  H2  UNL     1      23.490  32.209  14.403  1.00  0.00     0.219 HD
ENDBRANCH  18  19
BRANCH  18  21
HETATM   21  C9  UNL     1      21.138  30.925  14.462  1.00  0.00     0.051 A 
HETATM   22  C10 UNL     1      20.064  31.791  14.112  1.00  0.00     0.021 A 
HETATM   23  C11 UNL     1      19.095  31.318  13.264  1.00  0.00     0.041 A 
HETATM   24  C12 UNL     1      19.131  30.034  12.746  1.00  0.00     0.104 A 
HETATM   25  C14 UNL     1      20.171  29.194  13.082  1.00  0.00     0.136 A 
HETATM   26  C16 UNL     1      21.159  29.660  13.934  1.00  0.00     0.118 A 
BRANCH  24  27
HETATM   27  O3  UNL     1      18.105  29.637  11.895  1.00  0.00    -0.353 OA
HETATM   28  C13 UNL     1      17.040  28.833  12.360  1.00  0.00     0.210 C 
ENDBRANCH  24  27
BRANCH  25  29
HETATM   29  O4  UNL     1      20.231  27.920  12.587  1.00  0.00    -0.351 OA
HETATM   30  C15 UNL     1      20.549  27.709  11.228  1.00  0.00     0.210 C 
ENDBRANCH  25  29
BRANCH  26  31
HETATM   31  O5  UNL     1      22.174  28.778  14.213  1.00  0.00    -0.352 OA
HETATM   32  C17 UNL     1      23.233  28.542  13.273  1.00  0.00     0.210 C 
ENDBRANCH  26  31
ENDBRANCH  18  21
ENDBRANCH  16  18
ENDBRANCH  15  16
ENDBRANCH   1  15
BRANCH   1  33
HETATM   33  N2  UNL     1      20.280  33.888  17.582  1.00  0.00    -0.300 N 
ATOM     34  H2  UNL     1      20.098  32.885  17.590  1.00  0.00     0.173 HD
BRANCH  33  35
HETATM   35  S1  UNL     1      19.037  34.818  18.096  1.00  0.00     0.260 S 
HETATM   36  O6  UNL     1      18.992  34.876  19.640  1.00  0.00    -0.200 OA
HETATM   37  O7  UNL     1      19.088  36.280  17.650  1.00  0.00    -0.200 OA
BRANCH  35  38
HETATM   38  C18 UNL     1      17.468  34.278  17.575  1.00  0.00     0.086 A 
HETATM   39  C19 UNL     1      17.402  33.116  16.809  1.00  0.00     0.032 A 
HETATM   40  C20 UNL     1      16.224  32.590  16.319  1.00  0.00    -0.060 A 
HETATM   41  C21 UNL     1      16.187  31.343  15.503  1.00  0.00     0.048 C 
HETATM   42  C22 UNL     1      15.051  33.230  16.586  1.00  0.00     0.014 A 
HETATM   43  C23 UNL     1      15.078  34.364  17.329  1.00  0.00    -0.054 A 
HETATM   44  C24 UNL     1      13.802  35.069  17.622  1.00  0.00     0.049 C 
HETATM   45  C25 UNL     1      16.285  34.892  17.827  1.00  0.00    -0.033 A 
HETATM   46  C26 UNL     1      16.206  36.116  18.652  1.00  0.00     0.050 C 
ENDBRANCH  35  38
ENDBRANCH  33  35
ENDBRANCH   1  33
TORSDOF 15
ENDMDL
MODEL 3
REMARK VINA RESULT: -8.491103389      0.917      2.193
REMARK  15 active torsions:
REMARK  status: ('A' for Active; 'I' for Inactive)
REMARK    1  A    between atoms: O1_2  and  C2_3 
REMARK    2  A    between atoms: C4_5  and  C5_6 
REMARK    3  A    between atoms: C5_6  and  C7_8 
REMARK    4  A    between atoms: C5_6  and  N2_26 
REMARK    5  A    between atoms: C7_8  and  N1_9 
REMARK    6  A    between atoms: N1_9  and  C8_11 
REMARK    7  A    between atoms: C8_11  and  O2_12 
REMARK    8  A    between atoms: C8_11  and  C9_14 
REMARK    9  A    between atoms: C12_17  and  O3_18 
REMARK   10  A    between atoms: C14_20  and  O4_21 
REMARK   11  A    between atoms: C16_23  and  O5_24 
REMARK   12  A    between atoms: N2_26  and  S1_28 
REMARK   13  A    between atoms: S1_28  and  C18_31 
REMARK   14  A    between atoms: C28_41  and  O8_42 
REMARK   15  A    between atoms: C30_44  and  O9_45 
ROOT
HETATM    1  C5  UNL     1      21.594  34.364  17.143  1.00  0.00     0.080 C 
HETATM    2  C6  UNL     1      21.568  34.762  15.670  1.00  0.00     0.046 C 
ENDROOT
BRANCH   1   3
HETATM    3  C4  UNL     1      22.186  35.557  17.886  1.00  0.00    -0.023 A 
HETATM    4  C3  UNL     1      22.462  35.387  19.244  1.00  0.00     0.049 A 
HETATM    5  C2  UNL     1      22.990  36.380  20.017  1.00  0.00     0.104 A 
HETATM    6  C30 UNL     1      23.259  37.600  19.421  1.00  0.00     0.135 A 
HETATM    7  C28 UNL     1      23.005  37.812  18.097  1.00  0.00     0.104 A 
HETATM    8  C27 UNL     1      22.464  36.762  17.341  1.00  0.00     0.049 A 
BRANCH   5   9
HETATM    9  O1  UNL     1      23.266  36.196  21.382  1.00  0.00    -0.353 OA
HETATM   10  C1  UNL     1      24.412  35.410  21.732  1.00  0.00     0.210 C 
ENDBRANCH   5   9
BRANCH   6  11
HETATM   11  O9  UNL     1      23.804  38.598  20.259  1.00  0.00    -0.351 OA
HETATM   12  C31 UNL     1      25.235  38.712  20.197  1.00  0.00     0.210 C 
ENDBRANCH   6  11
BRANCH   7  13
HETATM   13  O8  UNL     1      23.272  39.027  17.511  1.00  0.00    -0.353 OA
HETATM   14  C29 UNL     1      22.233  39.724  16.863  1.00  0.00     0.210 C 
ENDBRANCH   7  13
ENDBRANCH   1   3
BRANCH   1  15
HETATM   15  C7  UNL     1      22.570  33.232  17.245  1.00  0.00     0.158 C 
BRANCH  15  16
HETATM   16  N1  UNL     1      22.083  31.943  16.788  1.00  0.00    -0.367 N 
ATOM     17  H1  UNL     1      21.474  31.367  17.369  1.00  0.00     0.161 HD
BRANCH  16  18
HETATM   18  C8  UNL     1      22.487  31.524  15.513  1.00  0.00     0.149 C 
BRANCH  18  19
HETATM   19  O2  UNL     1      23.637  31.998  15.079  1.00  0.00    -0.346 OA
ATOM     20  H2  UNL     1      23.591  32.742  14.491  1.00  0.00     0.219 HD
ENDBRANCH  18  19
BRANCH  18  21
HETATM   21  C9  UNL     1      21.836  30.632  14.579  1.00  0.00     0.051 A 
HETATM   22  C10 UNL     1      22.636  30.135  13.511  1.00  0.00     0.021 A 
HETATM   23  C11 UNL     1      22.029  29.382  12.538  1.00  0.00     0.041 A 
HETATM   24  C12 UNL     1      20.674  29.096  12.565  1.00  0.00     0.104 A 
HETATM   25  C14 UNL     1      19.898  29.574  13.599  1.00  0.00     0.136 A 
HETATM   26  C16 UNL     1      20.499  30.333  14.590  1.00  0.00     0.118 A 
BRANCH  24  27
HETATM   27  O3  UNL     1      20.142  28.325  11.536  1.00  0.00    -0.353 OA
HETATM   28  C13 UNL     1      20.489  26.964  11.389  1.00  0.00     0.210 C 
ENDBRANCH  24  27
BRANCH  25  29
HETATM   29  O4  UNL     1      18.557  29.308  13.650  1.00  0.00    -0.351 OA
HETATM   30  C15 UNL     1      18.108  28.045  14.091  1.00  0.00     0.210 C 
ENDBRANCH  25  29
BRANCH  26  31
HETATM   31  O5  UNL     1      19.671  30.762  15.599  1.00  0.00    -0.352 OA
HETATM   32  C17 UNL     1      19.543  30.020  16.821  1.00  0.00     0.210 C 
ENDBRANCH  26  31
ENDBRANCH  18  21
ENDBRANCH  16  18
ENDBRANCH  15  16
ENDBRANCH   1  15
BRANCH   1  33
HETATM   33  N2  UNL     1      20.400  33.971  17.733  1.00  0.00    -0.300 N 
ATOM     34  H2  UNL     1      20.297  32.966  17.869  1.00  0.00     0.173 HD
BRANCH  33  35
HETATM   35  S1  UNL     1      19.133  34.869  18.245  1.00  0.00     0.260 S 
HETATM   36  O6  UNL     1      19.024  34.841  19.786  1.00  0.00    -0.200 OA
HETATM   37  O7  UNL     1      19.197  36.354  17.883  1.00  0.00    -0.200 OA
BRANCH  35  38
HETATM   38  C18 UNL     1      17.590  34.356  17.629  1.00  0.00     0.086 A 
HETATM   39  C19 UNL     1      17.556  33.219  16.825  1.00  0.00     0.032 A 
HETATM   40  C20 UNL     1      16.401  32.717  16.260  1.00  0.00    -0.060 A 
HETATM   41  C21 UNL     1      16.399  31.496  15.405  1.00  0.00     0.048 C 
HETATM   42  C22 UNL     1      15.220  33.357  16.488  1.00  0.00     0.014 A 
HETATM   43  C23 UNL     1      15.215  34.467  17.266  1.00  0.00    -0.054 A 
HETATM   44  C24 UNL     1      13.931  35.172  17.517  1.00  0.00     0.049 C 
HETATM   45  C25 UNL     1      16.399  34.971  17.841  1.00  0.00    -0.033 A 
HETATM   46  C26 UNL     1      16.286  36.169  18.698  1.00  0.00     0.050 C 
ENDBRANCH  35  38
ENDBRANCH  33  35
ENDBRANCH   1  33
TORSDOF 15
ENDMDL
MODEL 4
REMARK VINA RESULT: -8.460107719      1.602      2.815
REMARK  15 active torsions:
REMARK  status: ('A' for Active; 'I' for Inactive)
REMARK    1  A    between atoms: O1_2  and  C2_3 
REMARK    2  A    between atoms: C4_5  and  C5_6 
REMARK    3  A    between atoms: C5_6  and  C7_8 
REMARK    4  A    between atoms: C5_6  and  N2_26 
REMARK    5  A    between atoms: C7_8  and  N1_9 
REMARK    6  A    between atoms: N1_9  and  C8_11 
REMARK    7  A    between atoms: C8_11  and  O2_12 
REMARK    8  A    between atoms: C8_11  and  C9_14 
REMARK    9  A    between atoms: C12_17  and  O3_18 
REMARK   10  A    between atoms: C14_20  and  O4_21 
REMARK   11  A    between atoms: C16_23  and  O5_24 
REMARK   12  A    between atoms: N2_26  and  S1_28 
REMARK   13  A    between atoms: S1_28  and  C18_31 
REMARK   14  A    between atoms: C28_41  and  O8_42 
REMARK   15  A    between atoms: C30_44  and  O9_45 
ROOT
HETATM    1  C5  UNL     1      21.112  33.720  16.392  1.00  0.00     0.080 C 
HETATM    2  C6  UNL     1      22.371  33.479  15.564  1.00  0.00     0.046 C 
ENDROOT
BRANCH   1   3
HETATM    3  C4  UNL     1      21.467  34.832  17.373  1.00  0.00    -0.023 A 
HETATM    4  C3  UNL     1      21.530  36.131  16.867  1.00  0.00     0.049 A 
HETATM    5  C2  UNL     1      21.839  37.209  17.644  1.00  0.00     0.104 A 
HETATM    6  C30 UNL     1      22.099  36.995  18.987  1.00  0.00     0.135 A 
HETATM    7  C28 UNL     1      22.049  35.742  19.526  1.00  0.00     0.104 A 
HETATM    8  C27 UNL     1      21.725  34.664  18.689  1.00  0.00     0.049 A 
BRANCH   5   9
HETATM    9  O1  UNL     1      21.897  38.512  17.123  1.00  0.00    -0.353 OA
HETATM   10  C1  UNL     1      20.893  38.899  16.176  1.00  0.00     0.210 C 
ENDBRANCH   5   9
BRANCH   6  11
HETATM   11  O9  UNL     1      22.415  38.139  19.752  1.00  0.00    -0.351 OA
HETATM   12  C31 UNL     1      23.796  38.532  19.693  1.00  0.00     0.210 C 
ENDBRANCH   6  11
BRANCH   7  13
HETATM   13  O8  UNL     1      22.310  35.535  20.860  1.00  0.00    -0.353 OA
HETATM   14  C29 UNL     1      23.645  35.413  21.291  1.00  0.00     0.210 C 
ENDBRANCH   7  13
ENDBRANCH   1   3
BRANCH   1  15
HETATM   15  C7  UNL     1      20.894  32.466  17.182  1.00  0.00     0.158 C 
BRANCH  15  16
HETATM   16  N1  UNL     1      21.374  31.244  16.560  1.00  0.00    -0.367 N 
ATOM     17  H1  UNL     1      22.368  31.081  16.404  1.00  0.00     0.161 HD
BRANCH  16  18
HETATM   18  C8  UNL     1      20.409  30.298  16.185  1.00  0.00     0.149 C 
BRANCH  18  19
HETATM   19  O2  UNL     1      19.851  29.612  17.161  1.00  0.00    -0.346 OA
ATOM     20  H2  UNL     1      19.039  29.167  16.952  1.00  0.00     0.219 HD
ENDBRANCH  18  19
BRANCH  18  21
HETATM   21  C9  UNL     1      19.913  29.949  14.872  1.00  0.00     0.051 A 
HETATM   22  C10 UNL     1      18.501  29.984  14.696  1.00  0.00     0.021 A 
HETATM   23  C11 UNL     1      17.981  29.547  13.503  1.00  0.00     0.041 A 
HETATM   24  C12 UNL     1      18.784  29.079  12.478  1.00  0.00     0.104 A 
HETATM   25  C14 UNL     1      20.153  29.046  12.644  1.00  0.00     0.136 A 
HETATM   26  C16 UNL     1      20.690  29.487  13.842  1.00  0.00     0.118 A 
BRANCH  24  27
HETATM   27  O3  UNL     1      18.173  28.655  11.302  1.00  0.00    -0.353 OA
HETATM   28  C13 UNL     1      16.767  28.686  11.158  1.00  0.00     0.210 C 
ENDBRANCH  24  27
BRANCH  25  29
HETATM   29  O4  UNL     1      20.969  28.586  11.648  1.00  0.00    -0.351 OA
HETATM   30  C15 UNL     1      21.236  27.204  11.541  1.00  0.00     0.210 C 
ENDBRANCH  25  29
BRANCH  26  31
HETATM   31  O5  UNL     1      22.060  29.445  13.935  1.00  0.00    -0.352 OA
HETATM   32  C17 UNL     1      22.866  30.571  13.558  1.00  0.00     0.210 C 
ENDBRANCH  26  31
ENDBRANCH  18  21
ENDBRANCH  16  18
ENDBRANCH  15  16
ENDBRANCH   1  15
BRANCH   1  33
HETATM   33  N2  UNL     1      19.937  34.027  15.718  1.00  0.00    -0.300 N 
ATOM     34  H2  UNL     1      20.048  34.658  14.925  1.00  0.00     0.173 HD
BRANCH  33  35
HETATM   35  S1  UNL     1      18.404  33.533  15.996  1.00  0.00     0.260 S 
HETATM   36  O6  UNL     1      17.710  33.119  14.679  1.00  0.00    -0.200 OA
HETATM   37  O7  UNL     1      18.267  32.315  16.912  1.00  0.00    -0.200 OA
BRANCH  35  38
HETATM   38  C18 UNL     1      17.384  34.729  16.739  1.00  0.00     0.086 A 
HETATM   39  C19 UNL     1      17.989  35.881  17.237  1.00  0.00     0.032 A 
HETATM   40  C20 UNL     1      17.298  36.897  17.865  1.00  0.00    -0.060 A 
HETATM   41  C21 UNL     1      17.976  38.119  18.384  1.00  0.00     0.048 C 
HETATM   42  C22 UNL     1      15.949  36.785  18.016  1.00  0.00     0.014 A 
HETATM   43  C23 UNL     1      15.326  35.677  17.544  1.00  0.00    -0.054 A 
HETATM   44  C24 UNL     1      13.854  35.547  17.708  1.00  0.00     0.049 C 
HETATM   45  C25 UNL     1      16.040  34.646  16.903  1.00  0.00    -0.033 A 
HETATM   46  C26 UNL     1      15.267  33.493  16.395  1.00  0.00     0.050 C 
ENDBRANCH  35  38
ENDBRANCH  33  35
ENDBRANCH   1  33
TORSDOF 15
ENDMDL
MODEL 5
REMARK VINA RESULT: -8.306191154      1.139      2.014
REMARK  15 active torsions:
REMARK  status: ('A' for Active; 'I' for Inactive)
REMARK    1  A    between atoms: O1_2  and  C2_3 
REMARK    2  A    between atoms: C4_5  and  C5_6 
REMARK    3  A    between atoms: C5_6  and  C7_8 
REMARK    4  A    between atoms: C5_6  and  N2_26 
REMARK    5  A    between atoms: C7_8  and  N1_9 
REMARK    6  A    between atoms: N1_9  and  C8_11 
REMARK    7  A    between atoms: C8_11  and  O2_12 
REMARK    8  A    between atoms: C8_11  and  C9_14 
REMARK    9  A    between atoms: C12_17  and  O3_18 
REMARK   10  A    between atoms: C14_20  and  O4_21 
REMARK   11  A    between atoms: C16_23  and  O5_24 
REMARK   12  A    between atoms: N2_26  and  S1_28 
REMARK   13  A    between atoms: S1_28  and  C18_31 
REMARK   14  A    between atoms: C28_41  and  O8_42 
REMARK   15  A    between atoms: C30_44  and  O9_45 
ROOT
HETATM    1  C5  UNL     1      21.347  34.252  17.059  1.00  0.00     0.080 C 
HETATM    2  C6  UNL     1      21.327  34.854  15.657  1.00  0.00     0.046 C 
ENDROOT
BRANCH   1   3
HETATM    3  C4  UNL     1      21.950  35.322  17.963  1.00  0.00    -0.023 A 
HETATM    4  C3  UNL     1      22.205  36.569  17.389  1.00  0.00     0.049 A 
HETATM    5  C2  UNL     1      22.744  37.606  18.093  1.00  0.00     0.104 A 
HETATM    6  C30 UNL     1      23.049  37.402  19.429  1.00  0.00     0.135 A 
HETATM    7  C28 UNL     1      22.817  36.199  20.032  1.00  0.00     0.104 A 
HETATM    8  C27 UNL     1      22.259  35.163  19.269  1.00  0.00     0.049 A 
BRANCH   5   9
HETATM    9  O1  UNL     1      22.994  38.857  17.506  1.00  0.00    -0.353 OA
HETATM   10  C1  UNL     1      21.985  39.405  16.647  1.00  0.00     0.210 C 
ENDBRANCH   5   9
BRANCH   6  11
HETATM   11  O9  UNL     1      23.606  38.502  20.117  1.00  0.00    -0.351 OA
HETATM   12  C31 UNL     1      25.038  38.592  20.036  1.00  0.00     0.210 C 
ENDBRANCH   6  11
BRANCH   7  13
HETATM   13  O8  UNL     1      23.123  36.002  21.357  1.00  0.00    -0.353 OA
HETATM   14  C29 UNL     1      24.372  35.451  21.702  1.00  0.00     0.210 C 
ENDBRANCH   7  13
ENDBRANCH   1   3
BRANCH   1  15
HETATM   15  C7  UNL     1      22.311  33.107  17.001  1.00  0.00     0.158 C 
BRANCH  15  16
HETATM   16  N1  UNL     1      22.388  32.418  15.724  1.00  0.00    -0.367 N 
ATOM     17  H1  UNL     1      22.978  32.763  14.967  1.00  0.00     0.161 HD
BRANCH  16  18
HETATM   18  C8  UNL     1      21.616  31.257  15.579  1.00  0.00     0.149 C 
BRANCH  18  19
HETATM   19  O2  UNL     1      20.875  30.914  16.612  1.00  0.00    -0.346 OA
ATOM     20  H2  UNL     1      21.185  30.179  17.128  1.00  0.00     0.219 HD
ENDBRANCH  18  19
BRANCH  18  21
HETATM   21  C9  UNL     1      21.493  30.359  14.452  1.00  0.00     0.051 A 
HETATM   22  C10 UNL     1      22.678  29.679  14.049  1.00  0.00     0.021 A 
HETATM   23  C11 UNL     1      22.634  28.909  12.915  1.00  0.00     0.041 A 
HETATM   24  C12 UNL     1      21.482  28.777  12.158  1.00  0.00     0.104 A 
HETATM   25  C14 UNL     1      20.333  29.433  12.546  1.00  0.00     0.136 A 
HETATM   26  C16 UNL     1      20.363  30.211  13.692  1.00  0.00     0.118 A 
BRANCH  24  27
HETATM   27  O3  UNL     1      21.527  27.977  11.021  1.00  0.00    -0.353 OA
HETATM   28  C13 UNL     1      21.805  26.594  11.112  1.00  0.00     0.210 C 
ENDBRANCH  24  27
BRANCH  25  29
HETATM   29  O4  UNL     1      19.181  29.323  11.816  1.00  0.00    -0.351 OA
HETATM   30  C15 UNL     1      18.440  28.122  11.852  1.00  0.00     0.210 C 
ENDBRANCH  25  29
BRANCH  26  31
HETATM   31  O5  UNL     1      19.180  30.822  14.031  1.00  0.00    -0.352 OA
HETATM   32  C17 UNL     1      18.154  30.113  14.742  1.00  0.00     0.210 C 
ENDBRANCH  26  31
ENDBRANCH  18  21
ENDBRANCH  16  18
ENDBRANCH  15  16
ENDBRANCH   1  15
BRANCH   1  33
HETATM   33  N2  UNL     1      20.148  33.792  17.588  1.00  0.00    -0.300 N 
ATOM     34  H2  UNL     1      20.175  33.562  18.581  1.00  0.00     0.173 HD
BRANCH  33  35
HETATM   35  S1  UNL     1      18.699  33.562  16.867  1.00  0.00     0.260 S 
HETATM   36  O6  UNL     1      18.837  33.601  15.328  1.00  0.00    -0.200 OA
HETATM   37  O7  UNL     1      18.027  32.221  17.167  1.00  0.00    -0.200 OA
BRANCH  35  38
HETATM   38  C18 UNL     1      17.489  34.738  17.286  1.00  0.00     0.086 A 
HETATM   39  C19 UNL     1      17.921  35.996  17.700  1.00  0.00     0.032 A 
HETATM   40  C20 UNL     1      17.066  37.012  18.077  1.00  0.00    -0.060 A 
HETATM   41  C21 UNL     1      17.561  38.348  18.514  1.00  0.00     0.048 C 
HETATM   42  C22 UNL     1      15.722  36.790  18.051  1.00  0.00     0.014 A 
HETATM   43  C23 UNL     1      15.266  35.577  17.653  1.00  0.00    -0.054 A 
HETATM   44  C24 UNL     1      13.801  35.327  17.625  1.00  0.00     0.049 C 
HETATM   45  C25 UNL     1      16.146  34.547  17.268  1.00  0.00    -0.033 A 
HETATM   46  C26 UNL     1      15.550  33.270  16.821  1.00  0.00     0.050 C 
ENDBRANCH  35  38
ENDBRANCH  33  35
ENDBRANCH   1  33
TORSDOF 15
ENDMDL
