MODEL 1
REMARK VINA RESULT: -8.969983572      0.000      0.000
REMARK  14 active torsions:
REMARK  status: ('A' for Active; 'I' for Inactive)
REMARK    1  A    between atoms: N2_5  and  C4_6 
REMARK    2  A    between atoms: C6_8  and  O1_9 
REMARK    3  A    between atoms: O1_9  and  C7_10 
REMARK    4  A    between atoms: C7_10  and  C8_11 
REMARK    5  A    between atoms: C8_11  and  C9_12 
REMARK    6  A    between atoms: C9_12  and  C10_13 
REMARK    7  A    between atoms: C11_14  and  C12_15 
REMARK    8  A    between atoms: C12_15  and  C13_16 
REMARK    9  A    between atoms: C13_16  and  C14_17 
REMARK   10  A    between atoms: C14_17  and  O2_18 
REMARK   11  A    between atoms: O2_18  and  C15_19 
REMARK   12  A    between atoms: C15_19  and  O3_20 
REMARK   13  A    between atoms: C15_19  and  C16_22 
REMARK   14  A    between atoms: C25_34  and  C26_35 
ROOT
HETATM    1  N1  UNL     1      14.325  34.633  17.888  1.00  0.00    -0.190 NA
HETATM    2  C1  UNL     1      15.184  34.257  17.190  1.00  0.00     0.119 C 
HETATM    3  C2  UNL     1      16.240  33.819  16.326  1.00  0.00     0.130 A 
HETATM    4  C3  UNL     1      17.194  32.852  16.601  1.00  0.00     0.133 A 
HETATM    5  N2  UNL     1      18.004  32.732  15.539  1.00  0.00    -0.343 N 
HETATM    6  C34 UNL     1      17.581  33.607  14.591  1.00  0.00     0.184 A 
HETATM    7  N5  UNL     1      16.518  34.254  15.081  1.00  0.00    -0.343 N 
ATOM      8  H5  UNL     1      15.993  34.974  14.585  1.00  0.00     0.167 HD
ENDROOT
BRANCH   5   9
HETATM    9  C4  UNL     1      19.142  31.862  15.340  1.00  0.00     0.118 C 
HETATM   10  C5  UNL     1      20.441  32.656  15.274  1.00  0.00     0.069 C 
HETATM   11  C6  UNL     1      21.564  31.627  15.511  1.00  0.00     0.215 C 
HETATM   12  C23 UNL     1      21.419  30.603  14.461  1.00  0.00     0.256 C 
HETATM   13  O4  UNL     1      22.439  30.055  13.937  1.00  0.00    -0.270 OA
HETATM   14  N3  UNL     1      20.151  30.179  13.980  1.00  0.00    -0.276 N 
HETATM   15  C24 UNL     1      20.010  28.868  13.431  1.00  0.00     0.258 C 
HETATM   16  C33 UNL     1      19.045  31.091  14.053  1.00  0.00     0.145 C 
HETATM   17  O5  UNL     1      21.022  28.162  13.216  1.00  0.00    -0.271 OA
HETATM   18  C25 UNL     1      18.675  28.384  13.132  1.00  0.00     0.281 C 
HETATM   19  N4  UNL     1      17.830  29.531  12.748  1.00  0.00    -0.060 N 
HETATM   20  C32 UNL     1      17.716  30.371  13.921  1.00  0.00     0.261 C 
ATOM     21  H42 UNL     1      18.176  30.029  11.927  1.00  0.00     0.278 HD
ATOM     22  H41 UNL     1      16.928  29.255  12.359  1.00  0.00     0.278 HD
BRANCH  11  23
HETATM   23  O1  UNL     1      22.782  32.139  15.570  1.00  0.00    -0.376 OA
BRANCH  23  24
HETATM   24  C7  UNL     1      23.074  33.412  15.838  1.00  0.00     0.169 C 
BRANCH  24  25
HETATM   25  C8  UNL     1      22.620  34.116  17.038  1.00  0.00     0.030 C 
BRANCH  25  26
HETATM   26  C9  UNL     1      22.092  35.523  16.715  1.00  0.00     0.029 C 
BRANCH  26  27
HETATM   27  C10 UNL     1      22.522  36.364  17.871  1.00  0.00    -0.031 C 
HETATM   28  C11 UNL     1      22.082  36.130  19.229  1.00  0.00    -0.031 C 
BRANCH  28  29
HETATM   29  C12 UNL     1      20.695  36.223  19.660  1.00  0.00     0.029 C 
BRANCH  29  30
HETATM   30  C13 UNL     1      19.825  35.057  19.421  1.00  0.00     0.030 C 
BRANCH  30  31
HETATM   31  C14 UNL     1      18.574  35.504  18.652  1.00  0.00     0.171 C 
BRANCH  31  32
HETATM   32  O2  UNL     1      18.726  36.573  17.850  1.00  0.00    -0.360 OA
BRANCH  32  33
HETATM   33  C15 UNL     1      17.672  37.388  17.595  1.00  0.00     0.273 C 
BRANCH  33  34
HETATM   34  O3  UNL     1      17.170  37.216  16.286  1.00  0.00    -0.370 OA
ATOM     35  H3  UNL     1      17.082  36.299  16.055  1.00  0.00     0.212 HD
ENDBRANCH  33  34
BRANCH  33  36
HETATM   36  C16 UNL     1      17.912  38.870  17.742  1.00  0.00     0.051 A 
HETATM   37  C17 UNL     1      17.924  39.393  19.107  1.00  0.00    -0.004 A 
HETATM   38  C18 UNL     1      19.070  39.360  18.440  1.00  0.00    -0.065 A 
HETATM   39  C19 UNL     1      20.390  39.330  17.699  1.00  0.00     0.035 C 
HETATM   40  C20 UNL     1      20.080  39.413  16.206  1.00  0.00     0.004 C 
HETATM   41  C21 UNL     1      18.941  40.431  16.096  1.00  0.00     0.002 C 
HETATM   42  C22 UNL     1      17.640  39.796  16.571  1.00  0.00     0.023 C 
ENDBRANCH  33  36
ENDBRANCH  32  33
ENDBRANCH  31  32
ENDBRANCH  30  31
ENDBRANCH  29  30
ENDBRANCH  28  29
ENDBRANCH  26  27
ENDBRANCH  25  26
ENDBRANCH  24  25
ENDBRANCH  23  24
ENDBRANCH  11  23
BRANCH  18  43
HETATM   43  C26 UNL     1      18.539  27.384  12.028  1.00  0.00     0.026 C 
HETATM   44  C27 UNL     1      17.768  28.073  10.876  1.00  0.00     0.007 C 
HETATM   45  C28 UNL     1      17.749  27.205   9.663  1.00  0.00     0.000 C 
HETATM   46  C29 UNL     1      17.273  25.798   9.963  1.00  0.00     0.000 C 
HETATM   47  C30 UNL     1      17.991  25.200  11.141  1.00  0.00     0.000 C 
HETATM   48  C31 UNL     1      17.779  26.146  12.340  1.00  0.00     0.007 C 
ENDBRANCH  18  43
ENDBRANCH   5   9
TORSDOF 14
ENDMDL
MODEL 2
REMARK VINA RESULT: -8.867879428      2.609     10.572
REMARK  14 active torsions:
REMARK  status: ('A' for Active; 'I' for Inactive)
REMARK    1  A    between atoms: N2_5  and  C4_6 
REMARK    2  A    between atoms: C6_8  and  O1_9 
REMARK    3  A    between atoms: O1_9  and  C7_10 
REMARK    4  A    between atoms: C7_10  and  C8_11 
REMARK    5  A    between atoms: C8_11  and  C9_12 
REMARK    6  A    between atoms: C9_12  and  C10_13 
REMARK    7  A    between atoms: C11_14  and  C12_15 
REMARK    8  A    between atoms: C12_15  and  C13_16 
REMARK    9  A    between atoms: C13_16  and  C14_17 
REMARK   10  A    between atoms: C14_17  and  O2_18 
REMARK   11  A    between atoms: O2_18  and  C15_19 
REMARK   12  A    between atoms: C15_19  and  O3_20 
REMARK   13  A    between atoms: C15_19  and  C16_22 
REMARK   14  A    between atoms: C25_34  and  C26_35 
ROOT
HETATM    1  N1  UNL     1      22.280  30.507  13.190  1.00  0.00    -0.190 NA
HETATM    2  C1  UNL     1      22.088  31.112  14.172  1.00  0.00     0.119 C 
HETATM    3  C2  UNL     1      21.875  31.848  15.382  1.00  0.00     0.130 A 
HETATM    4  C3  UNL     1      21.050  32.949  15.553  1.00  0.00     0.133 A 
HETATM    5  N2  UNL     1      21.126  33.351  16.831  1.00  0.00    -0.343 N 
HETATM    6  C34 UNL     1      21.987  32.523  17.477  1.00  0.00     0.184 A 
HETATM    7  N5  UNL     1      22.429  31.624  16.590  1.00  0.00    -0.343 N 
ATOM      8  H5  UNL     1      23.091  30.877  16.798  1.00  0.00     0.167 HD
ENDROOT
BRANCH   5   9
HETATM    9  C4  UNL     1      20.457  34.447  17.495  1.00  0.00     0.118 C 
HETATM   10  C5  UNL     1      19.030  34.614  16.985  1.00  0.00     0.069 C 
HETATM   11  C6  UNL     1      18.313  35.473  18.046  1.00  0.00     0.215 C 
HETATM   12  C23 UNL     1      19.076  36.729  18.151  1.00  0.00     0.256 C 
HETATM   13  O4  UNL     1      18.487  37.837  18.350  1.00  0.00    -0.270 OA
HETATM   14  N3  UNL     1      20.492  36.772  18.034  1.00  0.00    -0.276 N 
HETATM   15  C24 UNL     1      21.218  37.821  18.676  1.00  0.00     0.258 C 
HETATM   16  C33 UNL     1      21.152  35.758  17.261  1.00  0.00     0.145 C 
HETATM   17  O5  UNL     1      20.609  38.787  19.191  1.00  0.00    -0.271 OA
HETATM   18  C25 UNL     1      22.666  37.737  18.713  1.00  0.00     0.281 C 
HETATM   19  N4  UNL     1      23.131  37.039  17.499  1.00  0.00    -0.060 N 
HETATM   20  C32 UNL     1      22.632  35.683  17.585  1.00  0.00     0.261 C 
ATOM     21  H42 UNL     1      22.865  37.513  16.635  1.00  0.00     0.278 HD
ATOM     22  H41 UNL     1      24.142  37.090  17.366  1.00  0.00     0.278 HD
BRANCH  11  23
HETATM   23  O1  UNL     1      17.024  35.667  17.823  1.00  0.00    -0.376 OA
BRANCH  23  24
HETATM   24  C7  UNL     1      16.027  35.065  18.473  1.00  0.00     0.169 C 
BRANCH  24  25
HETATM   25  C8  UNL     1      15.304  33.903  17.957  1.00  0.00     0.030 C 
BRANCH  25  26
HETATM   26  C9  UNL     1      15.372  33.817  16.424  1.00  0.00     0.029 C 
BRANCH  26  27
HETATM   27  C10 UNL     1      15.597  32.369  16.135  1.00  0.00    -0.031 C 
HETATM   28  C11 UNL     1      16.877  31.830  15.734  1.00  0.00    -0.031 C 
BRANCH  28  29
HETATM   29  C12 UNL     1      17.562  32.195  14.503  1.00  0.00     0.029 C 
BRANCH  29  30
HETATM   30  C13 UNL     1      18.325  31.142  13.807  1.00  0.00     0.030 C 
BRANCH  30  31
HETATM   31  C14 UNL     1      18.666  30.021  14.799  1.00  0.00     0.171 C 
BRANCH  31  32
HETATM   32  O2  UNL     1      18.901  28.810  14.263  1.00  0.00    -0.360 OA
BRANCH  32  33
HETATM   33  C15 UNL     1      17.866  27.989  13.953  1.00  0.00     0.273 C 
BRANCH  33  34
HETATM   34  O3  UNL     1      17.888  26.797  14.710  1.00  0.00    -0.370 OA
ATOM     35  H3  UNL     1      17.505  26.066  14.238  1.00  0.00     0.212 HD
ENDBRANCH  33  34
BRANCH  33  36
HETATM   36  C16 UNL     1      17.757  27.551  12.515  1.00  0.00     0.051 A 
HETATM   37  C17 UNL     1      17.088  28.478  11.603  1.00  0.00    -0.004 A 
HETATM   38  C18 UNL     1      18.396  28.302  11.469  1.00  0.00    -0.065 A 
HETATM   39  C19 UNL     1      19.889  28.119  11.297  1.00  0.00     0.035 C 
HETATM   40  C20 UNL     1      20.243  26.727  11.813  1.00  0.00     0.004 C 
HETATM   41  C21 UNL     1      19.105  25.825  11.327  1.00  0.00     0.002 C 
HETATM   42  C22 UNL     1      17.859  26.077  12.167  1.00  0.00     0.023 C 
ENDBRANCH  33  36
ENDBRANCH  32  33
ENDBRANCH  31  32
ENDBRANCH  30  31
ENDBRANCH  29  30
ENDBRANCH  28  29
ENDBRANCH  26  27
ENDBRANCH  25  26
ENDBRANCH  24  25
ENDBRANCH  23  24
ENDBRANCH  11  23
BRANCH  18  43
HETATM   43  C26 UNL     1      23.428  39.023  18.766  1.00  0.00     0.026 C 
HETATM   44  C27 UNL     1      23.625  39.501  17.307  1.00  0.00     0.007 C 
HETATM   45  C28 UNL     1      24.216  40.870  17.278  1.00  0.00     0.000 C 
HETATM   46  C29 UNL     1      25.461  40.985  18.134  1.00  0.00     0.000 C 
HETATM   47  C30 UNL     1      25.247  40.432  19.515  1.00  0.00     0.000 C 
HETATM   48  C31 UNL     1      24.788  38.969  19.362  1.00  0.00     0.007 C 
ENDBRANCH  18  43
ENDBRANCH   5   9
TORSDOF 14
ENDMDL
MODEL 3
REMARK VINA RESULT: -8.832530691      2.546     10.502
REMARK  14 active torsions:
REMARK  status: ('A' for Active; 'I' for Inactive)
REMARK    1  A    between atoms: N2_5  and  C4_6 
REMARK    2  A    between atoms: C6_8  and  O1_9 
REMARK    3  A    between atoms: O1_9  and  C7_10 
REMARK    4  A    between atoms: C7_10  and  C8_11 
REMARK    5  A    between atoms: C8_11  and  C9_12 
REMARK    6  A    between atoms: C9_12  and  C10_13 
REMARK    7  A    between atoms: C11_14  and  C12_15 
REMARK    8  A    between atoms: C12_15  and  C13_16 
REMARK    9  A    between atoms: C13_16  and  C14_17 
REMARK   10  A    between atoms: C14_17  and  O2_18 
REMARK   11  A    between atoms: O2_18  and  C15_19 
REMARK   12  A    between atoms: C15_19  and  O3_20 
REMARK   13  A    between atoms: C15_19  and  C16_22 
REMARK   14  A    between atoms: C25_34  and  C26_35 
ROOT
HETATM    1  N1  UNL     1      22.738  30.355  13.391  1.00  0.00    -0.190 NA
HETATM    2  C1  UNL     1      22.470  30.984  14.339  1.00  0.00     0.119 C 
HETATM    3  C2  UNL     1      22.164  31.752  15.510  1.00  0.00     0.130 A 
HETATM    4  C3  UNL     1      21.256  32.795  15.608  1.00  0.00     0.133 A 
HETATM    5  N2  UNL     1      21.261  33.253  16.868  1.00  0.00    -0.343 N 
HETATM    6  C34 UNL     1      22.157  32.518  17.575  1.00  0.00     0.184 A 
HETATM    7  N5  UNL     1      22.693  31.619  16.742  1.00  0.00    -0.343 N 
ATOM      8  H5  UNL     1      23.400  30.932  17.002  1.00  0.00     0.167 HD
ENDROOT
BRANCH   5   9
HETATM    9  C4  UNL     1      20.491  34.323  17.464  1.00  0.00     0.118 C 
HETATM   10  C5  UNL     1      19.103  34.418  16.843  1.00  0.00     0.069 C 
HETATM   11  C6  UNL     1      18.267  35.252  17.834  1.00  0.00     0.215 C 
HETATM   12  C23 UNL     1      18.960  36.544  17.981  1.00  0.00     0.256 C 
HETATM   13  O4  UNL     1      18.307  37.624  18.119  1.00  0.00    -0.270 OA
HETATM   14  N3  UNL     1      20.377  36.652  17.974  1.00  0.00    -0.276 N 
HETATM   15  C24 UNL     1      21.002  37.740  18.656  1.00  0.00     0.258 C 
HETATM   16  C33 UNL     1      21.142  35.663  17.267  1.00  0.00     0.145 C 
HETATM   17  O5  UNL     1      20.311  38.681  19.110  1.00  0.00    -0.271 OA
HETATM   18  C25 UNL     1      22.446  37.724  18.807  1.00  0.00     0.281 C 
HETATM   19  N4  UNL     1      23.035  37.037  17.642  1.00  0.00    -0.060 N 
HETATM   20  C32 UNL     1      22.594  35.660  17.707  1.00  0.00     0.261 C 
ATOM     21  H42 UNL     1      22.816  37.490  16.754  1.00  0.00     0.278 HD
ATOM     22  H41 UNL     1      24.050  37.134  17.587  1.00  0.00     0.278 HD
BRANCH  11  23
HETATM   23  O1  UNL     1      16.991  35.383  17.508  1.00  0.00    -0.376 OA
BRANCH  23  24
HETATM   24  C7  UNL     1      15.968  34.806  18.140  1.00  0.00     0.169 C 
BRANCH  24  25
HETATM   25  C8  UNL     1      15.234  33.655  17.616  1.00  0.00     0.030 C 
BRANCH  25  26
HETATM   26  C9  UNL     1      15.587  33.366  16.148  1.00  0.00     0.029 C 
BRANCH  26  27
HETATM   27  C10 UNL     1      15.632  31.877  16.055  1.00  0.00    -0.031 C 
HETATM   28  C11 UNL     1      16.846  31.109  16.225  1.00  0.00    -0.031 C 
BRANCH  28  29
HETATM   29  C12 UNL     1      18.002  31.212  15.348  1.00  0.00     0.029 C 
BRANCH  29  30
HETATM   30  C13 UNL     1      17.757  31.532  13.929  1.00  0.00     0.030 C 
BRANCH  30  31
HETATM   31  C14 UNL     1      19.053  31.335  13.131  1.00  0.00     0.171 C 
BRANCH  31  32
HETATM   32  O2  UNL     1      19.071  30.290  12.284  1.00  0.00    -0.360 OA
BRANCH  32  33
HETATM   33  C15 UNL     1      19.569  29.095  12.689  1.00  0.00     0.273 C 
BRANCH  33  34
HETATM   34  O3  UNL     1      20.677  28.689  11.912  1.00  0.00    -0.370 OA
ATOM     35  H3  UNL     1      20.888  27.772  12.040  1.00  0.00     0.212 HD
ENDBRANCH  33  34
BRANCH  33  36
HETATM   36  C16 UNL     1      18.618  27.925  12.673  1.00  0.00     0.051 A 
HETATM   37  C17 UNL     1      17.756  27.774  13.845  1.00  0.00    -0.004 A 
HETATM   38  C18 UNL     1      17.196  28.136  12.698  1.00  0.00    -0.065 A 
HETATM   39  C19 UNL     1      16.534  28.551  11.401  1.00  0.00     0.035 C 
HETATM   40  C20 UNL     1      17.391  28.016  10.256  1.00  0.00     0.004 C 
HETATM   41  C21 UNL     1      17.821  26.617  10.707  1.00  0.00     0.002 C 
HETATM   42  C22 UNL     1      18.903  26.735  11.775  1.00  0.00     0.023 C 
ENDBRANCH  33  36
ENDBRANCH  32  33
ENDBRANCH  31  32
ENDBRANCH  30  31
ENDBRANCH  29  30
ENDBRANCH  28  29
ENDBRANCH  26  27
ENDBRANCH  25  26
ENDBRANCH  24  25
ENDBRANCH  23  24
ENDBRANCH  11  23
BRANCH  18  43
HETATM   43  C26 UNL     1      23.141  39.045  18.902  1.00  0.00     0.026 C 
HETATM   44  C27 UNL     1      23.453  39.504  17.457  1.00  0.00     0.007 C 
HETATM   45  C28 UNL     1      23.983  40.899  17.453  1.00  0.00     0.000 C 
HETATM   46  C29 UNL     1      25.135  41.087  18.419  1.00  0.00     0.000 C 
HETATM   47  C30 UNL     1      24.816  40.550  19.786  1.00  0.00     0.000 C 
HETATM   48  C31 UNL     1      24.440  39.065  19.623  1.00  0.00     0.007 C 
ENDBRANCH  18  43
ENDBRANCH   5   9
TORSDOF 14
ENDMDL
MODEL 4
REMARK VINA RESULT: -8.800181789      2.317     10.371
REMARK  14 active torsions:
REMARK  status: ('A' for Active; 'I' for Inactive)
REMARK    1  A    between atoms: N2_5  and  C4_6 
REMARK    2  A    between atoms: C6_8  and  O1_9 
REMARK    3  A    between atoms: O1_9  and  C7_10 
REMARK    4  A    between atoms: C7_10  and  C8_11 
REMARK    5  A    between atoms: C8_11  and  C9_12 
REMARK    6  A    between atoms: C9_12  and  C10_13 
REMARK    7  A    between atoms: C11_14  and  C12_15 
REMARK    8  A    between atoms: C12_15  and  C13_16 
REMARK    9  A    between atoms: C13_16  and  C14_17 
REMARK   10  A    between atoms: C14_17  and  O2_18 
REMARK   11  A    between atoms: O2_18  and  C15_19 
REMARK   12  A    between atoms: C15_19  and  O3_20 
REMARK   13  A    between atoms: C15_19  and  C16_22 
REMARK   14  A    between atoms: C25_34  and  C26_35 
ROOT
HETATM    1  N1  UNL     1      22.744  30.718  13.731  1.00  0.00    -0.190 NA
HETATM    2  C1  UNL     1      22.466  31.364  14.666  1.00  0.00     0.119 C 
HETATM    3  C2  UNL     1      22.149  32.155  15.818  1.00  0.00     0.130 A 
HETATM    4  C3  UNL     1      21.136  33.095  15.930  1.00  0.00     0.133 A 
HETATM    5  N2  UNL     1      21.168  33.618  17.164  1.00  0.00    -0.343 N 
HETATM    6  C34 UNL     1      22.185  33.025  17.841  1.00  0.00     0.184 A 
HETATM    7  N5  UNL     1      22.766  32.148  17.015  1.00  0.00    -0.343 N 
ATOM      8  H5  UNL     1      23.562  31.558  17.257  1.00  0.00     0.167 HD
ENDROOT
BRANCH   5   9
HETATM    9  C4  UNL     1      20.321  34.626  17.761  1.00  0.00     0.118 C 
HETATM   10  C5  UNL     1      18.847  34.256  17.635  1.00  0.00     0.069 C 
HETATM   11  C6  UNL     1      18.114  35.138  18.665  1.00  0.00     0.215 C 
HETATM   12  C23 UNL     1      18.425  36.535  18.315  1.00  0.00     0.256 C 
HETATM   13  O4  UNL     1      17.556  37.452  18.449  1.00  0.00    -0.270 OA
HETATM   14  N3  UNL     1      19.695  36.929  17.812  1.00  0.00    -0.276 N 
HETATM   15  C24 UNL     1      20.148  38.268  18.019  1.00  0.00     0.258 C 
HETATM   16  C33 UNL     1      20.485  35.965  17.099  1.00  0.00     0.145 C 
HETATM   17  O5  UNL     1      19.369  39.132  18.484  1.00  0.00    -0.271 OA
HETATM   18  C25 UNL     1      21.520  38.594  17.677  1.00  0.00     0.281 C 
HETATM   19  N4  UNL     1      21.938  37.751  16.541  1.00  0.00    -0.060 N 
HETATM   20  C32 UNL     1      21.940  36.385  17.018  1.00  0.00     0.261 C 
ATOM     21  H42 UNL     1      21.365  37.886  15.707  1.00  0.00     0.278 HD
ATOM     22  H41 UNL     1      22.828  38.038  16.132  1.00  0.00     0.278 HD
BRANCH  11  23
HETATM   23  O1  UNL     1      16.815  34.907  18.766  1.00  0.00    -0.376 OA
BRANCH  23  24
HETATM   24  C7  UNL     1      15.970  34.777  17.743  1.00  0.00     0.169 C 
BRANCH  24  25
HETATM   25  C8  UNL     1      15.292  33.526  17.402  1.00  0.00     0.030 C 
BRANCH  25  26
HETATM   26  C9  UNL     1      15.582  33.091  15.957  1.00  0.00     0.029 C 
BRANCH  26  27
HETATM   27  C10 UNL     1      15.836  31.622  16.047  1.00  0.00    -0.031 C 
HETATM   28  C11 UNL     1      17.149  31.058  16.268  1.00  0.00    -0.031 C 
BRANCH  28  29
HETATM   29  C12 UNL     1      18.263  31.207  15.342  1.00  0.00     0.029 C 
BRANCH  29  30
HETATM   30  C13 UNL     1      17.949  31.571  13.948  1.00  0.00     0.030 C 
BRANCH  30  31
HETATM   31  C14 UNL     1      19.202  31.394  13.081  1.00  0.00     0.171 C 
BRANCH  31  32
HETATM   32  O2  UNL     1      19.217  30.314  12.278  1.00  0.00    -0.360 OA
BRANCH  32  33
HETATM   33  C15 UNL     1      19.702  29.132  12.735  1.00  0.00     0.273 C 
BRANCH  33  34
HETATM   34  O3  UNL     1      20.839  28.709  12.014  1.00  0.00    -0.370 OA
ATOM     35  H3  UNL     1      21.498  28.322  12.579  1.00  0.00     0.212 HD
ENDBRANCH  33  34
BRANCH  33  36
HETATM   36  C16 UNL     1      18.753  27.960  12.716  1.00  0.00     0.051 A 
HETATM   37  C17 UNL     1      17.911  27.788  13.899  1.00  0.00    -0.004 A 
HETATM   38  C18 UNL     1      17.332  28.166  12.767  1.00  0.00    -0.065 A 
HETATM   39  C19 UNL     1      16.648  28.600  11.487  1.00  0.00     0.035 C 
HETATM   40  C20 UNL     1      17.488  28.085  10.321  1.00  0.00     0.004 C 
HETATM   41  C21 UNL     1      17.930  26.681  10.743  1.00  0.00     0.002 C 
HETATM   42  C22 UNL     1      19.028  26.785  11.795  1.00  0.00     0.023 C 
ENDBRANCH  33  36
ENDBRANCH  32  33
ENDBRANCH  31  32
ENDBRANCH  30  31
ENDBRANCH  29  30
ENDBRANCH  28  29
ENDBRANCH  26  27
ENDBRANCH  25  26
ENDBRANCH  24  25
ENDBRANCH  23  24
ENDBRANCH  11  23
BRANCH  18  43
HETATM   43  C26 UNL     1      21.810  40.004  17.273  1.00  0.00     0.026 C 
HETATM   44  C27 UNL     1      21.497  40.123  15.762  1.00  0.00     0.007 C 
HETATM   45  C28 UNL     1      21.585  41.544  15.317  1.00  0.00     0.000 C 
HETATM   46  C29 UNL     1      22.887  42.202  15.727  1.00  0.00     0.000 C 
HETATM   47  C30 UNL     1      23.191  41.990  17.183  1.00  0.00     0.000 C 
HETATM   48  C31 UNL     1      23.213  40.469  17.434  1.00  0.00     0.007 C 
ENDBRANCH  18  43
ENDBRANCH   5   9
TORSDOF 14
ENDMDL
MODEL 5
REMARK VINA RESULT: -8.757874436      0.858      1.336
REMARK  14 active torsions:
REMARK  status: ('A' for Active; 'I' for Inactive)
REMARK    1  A    between atoms: N2_5  and  C4_6 
REMARK    2  A    between atoms: C6_8  and  O1_9 
REMARK    3  A    between atoms: O1_9  and  C7_10 
REMARK    4  A    between atoms: C7_10  and  C8_11 
REMARK    5  A    between atoms: C8_11  and  C9_12 
REMARK    6  A    between atoms: C9_12  and  C10_13 
REMARK    7  A    between atoms: C11_14  and  C12_15 
REMARK    8  A    between atoms: C12_15  and  C13_16 
REMARK    9  A    between atoms: C13_16  and  C14_17 
REMARK   10  A    between atoms: C14_17  and  O2_18 
REMARK   11  A    between atoms: O2_18  and  C15_19 
REMARK   12  A    between atoms: C15_19  and  O3_20 
REMARK   13  A    between atoms: C15_19  and  C16_22 
REMARK   14  A    between atoms: C25_34  and  C26_35 
ROOT
HETATM    1  N1  UNL     1      14.467  34.274  17.918  1.00  0.00    -0.190 NA
HETATM    2  C1  UNL     1      15.326  33.952  17.192  1.00  0.00     0.119 C 
HETATM    3  C2  UNL     1      16.380  33.581  16.295  1.00  0.00     0.130 A 
HETATM    4  C3  UNL     1      17.344  32.606  16.500  1.00  0.00     0.133 A 
HETATM    5  N2  UNL     1      18.148  32.564  15.428  1.00  0.00    -0.343 N 
HETATM    6  C34 UNL     1      17.712  33.496  14.542  1.00  0.00     0.184 A 
HETATM    7  N5  UNL     1      16.647  34.100  15.081  1.00  0.00    -0.343 N 
ATOM      8  H5  UNL     1      16.113  34.847  14.636  1.00  0.00     0.167 HD
ENDROOT
BRANCH   5   9
HETATM    9  C4  UNL     1      19.292  31.718  15.165  1.00  0.00     0.118 C 
HETATM   10  C5  UNL     1      20.568  32.541  15.026  1.00  0.00     0.069 C 
HETATM   11  C6  UNL     1      21.724  31.536  15.200  1.00  0.00     0.215 C 
HETATM   12  C23 UNL     1      21.543  30.508  14.160  1.00  0.00     0.256 C 
HETATM   13  O4  UNL     1      22.543  29.982  13.580  1.00  0.00    -0.270 OA
HETATM   14  N3  UNL     1      20.259  30.056  13.752  1.00  0.00    -0.276 N 
HETATM   15  C24 UNL     1      20.116  28.741  13.212  1.00  0.00     0.258 C 
HETATM   16  C33 UNL     1      19.139  30.944  13.886  1.00  0.00     0.145 C 
HETATM   17  O5  UNL     1      21.129  28.057  12.940  1.00  0.00    -0.271 OA
HETATM   18  C25 UNL     1      18.777  28.227  12.989  1.00  0.00     0.281 C 
HETATM   19  N4  UNL     1      17.887  29.355  12.652  1.00  0.00    -0.060 N 
HETATM   20  C32 UNL     1      17.821  30.194  13.830  1.00  0.00     0.261 C 
ATOM     21  H42 UNL     1      18.175  29.859  11.813  1.00  0.00     0.278 HD
ATOM     22  H41 UNL     1      16.971  29.059  12.315  1.00  0.00     0.278 HD
BRANCH  11  23
HETATM   23  O1  UNL     1      22.932  32.075  15.190  1.00  0.00    -0.376 OA
BRANCH  23  24
HETATM   24  C7  UNL     1      23.280  33.205  15.808  1.00  0.00     0.169 C 
BRANCH  24  25
HETATM   25  C8  UNL     1      22.663  33.678  17.046  1.00  0.00     0.030 C 
BRANCH  25  26
HETATM   26  C9  UNL     1      22.283  35.166  16.967  1.00  0.00     0.029 C 
BRANCH  26  27
HETATM   27  C10 UNL     1      21.496  35.422  18.209  1.00  0.00    -0.031 C 
HETATM   28  C11 UNL     1      20.085  35.128  18.328  1.00  0.00    -0.031 C 
BRANCH  28  29
HETATM   29  C12 UNL     1      19.052  35.767  17.526  1.00  0.00     0.029 C 
BRANCH  29  30
HETATM   30  C13 UNL     1      17.938  36.420  18.241  1.00  0.00     0.030 C 
BRANCH  30  31
HETATM   31  C14 UNL     1      17.163  37.316  17.265  1.00  0.00     0.171 C 
BRANCH  31  32
HETATM   32  O2  UNL     1      17.895  38.213  16.580  1.00  0.00    -0.360 OA
BRANCH  32  33
HETATM   33  C15 UNL     1      17.920  39.512  16.968  1.00  0.00     0.273 C 
BRANCH  33  34
HETATM   34  O3  UNL     1      17.372  40.371  15.990  1.00  0.00    -0.370 OA
ATOM     35  H3  UNL     1      17.450  41.286  16.233  1.00  0.00     0.212 HD
ENDBRANCH  33  34
BRANCH  33  36
HETATM   36  C16 UNL     1      19.271  40.092  17.302  1.00  0.00     0.051 A 
HETATM   37  C17 UNL     1      19.853  39.689  18.582  1.00  0.00    -0.004 A 
HETATM   38  C18 UNL     1      20.416  39.239  17.468  1.00  0.00    -0.065 A 
HETATM   39  C19 UNL     1      21.075  38.713  16.210  1.00  0.00     0.035 C 
HETATM   40  C20 UNL     1      20.794  39.713  15.092  1.00  0.00     0.004 C 
HETATM   41  C21 UNL     1      20.943  41.089  15.747  1.00  0.00     0.002 C 
HETATM   42  C22 UNL     1      19.729  41.371  16.624  1.00  0.00     0.023 C 
ENDBRANCH  33  36
ENDBRANCH  32  33
ENDBRANCH  31  32
ENDBRANCH  30  31
ENDBRANCH  29  30
ENDBRANCH  28  29
ENDBRANCH  26  27
ENDBRANCH  25  26
ENDBRANCH  24  25
ENDBRANCH  23  24
ENDBRANCH  11  23
BRANCH  18  43
HETATM   43  C26 UNL     1      18.601  27.223  11.894  1.00  0.00     0.026 C 
HETATM   44  C27 UNL     1      17.774  27.902  10.776  1.00  0.00     0.007 C 
HETATM   45  C28 UNL     1      17.708  27.030   9.568  1.00  0.00     0.000 C 
HETATM   46  C29 UNL     1      17.259  25.620   9.892  1.00  0.00     0.000 C 
HETATM   47  C30 UNL     1      18.033  25.032  11.038  1.00  0.00     0.000 C 
HETATM   48  C31 UNL     1      17.866  25.979  12.243  1.00  0.00     0.007 C 
ENDBRANCH  18  43
ENDBRANCH   5   9
TORSDOF 14
ENDMDL
