MODEL 1
REMARK VINA RESULT: -8.090213428      0.000      0.000
REMARK  14 active torsions:
REMARK  status: ('A' for Active; 'I' for Inactive)
REMARK    1  A    between atoms: N3_5  and  C3_6 
REMARK    2  A    between atoms: C3_6  and  N4_7 
REMARK    3  A    between atoms: N4_7  and  N5_9 
REMARK    4  A    between atoms: N6_12  and  C4_13 
REMARK    5  A    between atoms: C4_13  and  C5_14 
REMARK    6  A    between atoms: C5_14  and  C6_15 
REMARK    7  A    between atoms: C6_15  and  C7_16 
REMARK    8  A    between atoms: C7_16  and  C8_17 
REMARK    9  A    between atoms: C8_17  and  C9_18 
REMARK   10  A    between atoms: C9_18  and  S1_19 
REMARK   11  A    between atoms: S1_19  and  C11_21 
REMARK   12  A    between atoms: C11_21  and  C12_22 
REMARK   13  A    between atoms: C12_22  and  N7_23 
REMARK   14  A    between atoms: C14_28  and  C15_29 
ROOT
HETATM    1  C1  UNL     1      11.194  62.291  44.052  1.00  0.00     0.161 C 
HETATM    2  N1  UNL     1      12.102  61.615  43.104  1.00  0.00    -0.305 N 
HETATM    3  C2  UNL     1      12.121  60.296  42.932  1.00  0.00     0.218 A 
HETATM    4  N2  UNL     1      11.326  59.306  43.575  1.00  0.00    -0.061 NA
HETATM    5  N3  UNL     1      13.089  60.049  41.977  1.00  0.00    -0.217 N 
HETATM    6  N6  UNL     1      13.614  61.193  41.608  1.00  0.00    -0.262 N 
HETATM    7  C14 UNL     1      13.017  62.206  42.299  1.00  0.00     0.193 A 
ENDROOT
BRANCH   6   8
HETATM    8  C4  UNL     1      14.692  61.527  40.683  1.00  0.00     0.152 C 
BRANCH   8   9
HETATM    9  C5  UNL     1      14.313  61.935  39.314  1.00  0.00     0.022 C 
BRANCH   9  10
HETATM   10  C6  UNL     1      14.776  63.201  38.765  1.00  0.00     0.002 C 
BRANCH  10  11
HETATM   11  C7  UNL     1      14.002  64.105  37.905  1.00  0.00     0.001 C 
BRANCH  11  12
HETATM   12  C8  UNL     1      13.757  63.773  36.494  1.00  0.00     0.009 C 
BRANCH  12  13
HETATM   13  C9  UNL     1      14.360  64.490  35.366  1.00  0.00     0.063 C 
BRANCH  13  14
HETATM   14  S1  UNL     1      16.004  65.004  35.449  1.00  0.00    -0.222 SA
HETATM   15  C10 UNL     1      17.171  64.223  34.496  1.00  0.00     0.078 C 
BRANCH  14  16
HETATM   16  C11 UNL     1      16.122  66.765  35.491  1.00  0.00     0.082 C 
BRANCH  16  17
HETATM   17  C12 UNL     1      14.762  67.371  35.224  1.00  0.00     0.131 C 
BRANCH  17  18
HETATM   18  N7  UNL     1      14.886  68.274  34.106  1.00  0.00    -0.366 N 
HETATM   19  C13 UNL     1      14.379  69.446  34.180  1.00  0.00     0.196 C 
HETATM   20  N8  UNL     1      13.702  69.851  35.354  1.00  0.00    -0.067 NA
HETATM   21  N9  UNL     1      14.503  70.325  33.084  1.00  0.00    -0.067 NA
ATOM     22  H7  UNL     1      15.375  67.979  33.261  1.00  0.00     0.161 HD
ENDBRANCH  17  18
ENDBRANCH  16  17
ENDBRANCH  14  16
ENDBRANCH  13  14
ENDBRANCH  12  13
ENDBRANCH  11  12
ENDBRANCH  10  11
ENDBRANCH   9  10
ENDBRANCH   8   9
ENDBRANCH   6   8
BRANCH   5  23
HETATM   23  C3  UNL     1      13.470  58.735  41.574  1.00  0.00     0.225 C 
BRANCH  23  24
HETATM   24  N4  UNL     1      12.479  57.904  41.020  1.00  0.00    -0.301 N 
ATOM     25  H4  UNL     1      12.094  58.087  40.093  1.00  0.00     0.187 HD
BRANCH  24  26
HETATM   26  N5  UNL     1      12.053  56.852  41.759  1.00  0.00    -0.344 N 
ATOM     27  H52 UNL     1      11.974  55.927  41.338  1.00  0.00     0.176 HD
ATOM     28  H51 UNL     1      11.821  57.024  42.738  1.00  0.00     0.176 HD
ENDBRANCH  24  26
ENDBRANCH  23  24
ENDBRANCH   5  23
BRANCH   7  29
HETATM   29  C15 UNL     1      13.241  63.641  42.283  1.00  0.00     0.300 C 
HETATM   30  N10 UNL     1      13.923  64.409  43.227  1.00  0.00    -0.054 NA
HETATM   31  O1  UNL     1      12.766  64.327  41.296  1.00  0.00    -0.268 OA
ENDBRANCH   7  29
TORSDOF 14
ENDMDL
MODEL 2
REMARK VINA RESULT: -7.972326960      1.165      1.362
REMARK  14 active torsions:
REMARK  status: ('A' for Active; 'I' for Inactive)
REMARK    1  A    between atoms: N3_5  and  C3_6 
REMARK    2  A    between atoms: C3_6  and  N4_7 
REMARK    3  A    between atoms: N4_7  and  N5_9 
REMARK    4  A    between atoms: N6_12  and  C4_13 
REMARK    5  A    between atoms: C4_13  and  C5_14 
REMARK    6  A    between atoms: C5_14  and  C6_15 
REMARK    7  A    between atoms: C6_15  and  C7_16 
REMARK    8  A    between atoms: C7_16  and  C8_17 
REMARK    9  A    between atoms: C8_17  and  C9_18 
REMARK   10  A    between atoms: C9_18  and  S1_19 
REMARK   11  A    between atoms: S1_19  and  C11_21 
REMARK   12  A    between atoms: C11_21  and  C12_22 
REMARK   13  A    between atoms: C12_22  and  N7_23 
REMARK   14  A    between atoms: C14_28  and  C15_29 
ROOT
HETATM    1  C1  UNL     1      11.390  62.730  44.094  1.00  0.00     0.161 C 
HETATM    2  N1  UNL     1      12.128  61.928  43.098  1.00  0.00    -0.305 N 
HETATM    3  C2  UNL     1      12.005  60.608  42.991  1.00  0.00     0.218 A 
HETATM    4  N2  UNL     1      11.189  59.729  43.759  1.00  0.00    -0.061 NA
HETATM    5  N3  UNL     1      12.843  60.228  41.960  1.00  0.00    -0.217 N 
HETATM    6  N6  UNL     1      13.433  61.298  41.486  1.00  0.00    -0.262 N 
HETATM    7  C14 UNL     1      13.009  62.392  42.179  1.00  0.00     0.193 A 
ENDROOT
BRANCH   6   8
HETATM    8  C4  UNL     1      14.438  61.484  40.444  1.00  0.00     0.152 C 
BRANCH   8   9
HETATM    9  C5  UNL     1      13.957  61.660  39.057  1.00  0.00     0.022 C 
BRANCH   9  10
HETATM   10  C6  UNL     1      14.198  62.904  38.343  1.00  0.00     0.002 C 
BRANCH  10  11
HETATM   11  C7  UNL     1      13.354  63.471  37.283  1.00  0.00     0.001 C 
BRANCH  11  12
HETATM   12  C8  UNL     1      13.905  63.742  35.948  1.00  0.00     0.009 C 
BRANCH  12  13
HETATM   13  C9  UNL     1      15.319  64.030  35.688  1.00  0.00     0.063 C 
BRANCH  13  14
HETATM   14  S1  UNL     1      15.837  65.654  35.428  1.00  0.00    -0.222 SA
HETATM   15  C10 UNL     1      16.263  66.152  33.863  1.00  0.00     0.078 C 
BRANCH  14  16
HETATM   16  C11 UNL     1      14.845  66.795  36.338  1.00  0.00     0.082 C 
BRANCH  16  17
HETATM   17  C12 UNL     1      14.986  68.178  35.742  1.00  0.00     0.131 C 
BRANCH  17  18
HETATM   18  N7  UNL     1      13.677  68.782  35.698  1.00  0.00    -0.366 N 
HETATM   19  C13 UNL     1      13.383  69.713  36.524  1.00  0.00     0.196 C 
HETATM   20  N8  UNL     1      14.338  70.146  37.473  1.00  0.00    -0.067 NA
HETATM   21  N9  UNL     1      12.101  70.301  36.478  1.00  0.00    -0.067 NA
ATOM     22  H7  UNL     1      12.990  68.469  35.013  1.00  0.00     0.161 HD
ENDBRANCH  17  18
ENDBRANCH  16  17
ENDBRANCH  14  16
ENDBRANCH  13  14
ENDBRANCH  12  13
ENDBRANCH  11  12
ENDBRANCH  10  11
ENDBRANCH   9  10
ENDBRANCH   8   9
ENDBRANCH   6   8
BRANCH   5  23
HETATM   23  C3  UNL     1      13.054  58.867  41.589  1.00  0.00     0.225 C 
BRANCH  23  24
HETATM   24  N4  UNL     1      12.922  57.885  42.589  1.00  0.00    -0.301 N 
ATOM     25  H4  UNL     1      13.528  57.882  43.410  1.00  0.00     0.187 HD
BRANCH  24  26
HETATM   26  N5  UNL     1      11.963  56.943  42.423  1.00  0.00    -0.344 N 
ATOM     27  H52 UNL     1      11.012  57.117  42.748  1.00  0.00     0.176 HD
ATOM     28  H51 UNL     1      12.229  56.070  41.968  1.00  0.00     0.176 HD
ENDBRANCH  24  26
ENDBRANCH  23  24
ENDBRANCH   5  23
BRANCH   7  29
HETATM   29  C15 UNL     1      13.365  63.796  42.069  1.00  0.00     0.300 C 
HETATM   30  N10 UNL     1      14.216  64.528  42.896  1.00  0.00    -0.054 NA
HETATM   31  O1  UNL     1      12.852  64.488  41.105  1.00  0.00    -0.268 OA
ENDBRANCH   7  29
TORSDOF 14
ENDMDL
MODEL 3
REMARK VINA RESULT: -7.873574104      1.008      1.057
REMARK  14 active torsions:
REMARK  status: ('A' for Active; 'I' for Inactive)
REMARK    1  A    between atoms: N3_5  and  C3_6 
REMARK    2  A    between atoms: C3_6  and  N4_7 
REMARK    3  A    between atoms: N4_7  and  N5_9 
REMARK    4  A    between atoms: N6_12  and  C4_13 
REMARK    5  A    between atoms: C4_13  and  C5_14 
REMARK    6  A    between atoms: C5_14  and  C6_15 
REMARK    7  A    between atoms: C6_15  and  C7_16 
REMARK    8  A    between atoms: C7_16  and  C8_17 
REMARK    9  A    between atoms: C8_17  and  C9_18 
REMARK   10  A    between atoms: C9_18  and  S1_19 
REMARK   11  A    between atoms: S1_19  and  C11_21 
REMARK   12  A    between atoms: C11_21  and  C12_22 
REMARK   13  A    between atoms: C12_22  and  N7_23 
REMARK   14  A    between atoms: C14_28  and  C15_29 
ROOT
HETATM    1  C1  UNL     1      11.759  62.710  43.719  1.00  0.00     0.161 C 
HETATM    2  N1  UNL     1      12.697  62.162  42.719  1.00  0.00    -0.305 N 
HETATM    3  C2  UNL     1      12.688  60.888  42.335  1.00  0.00     0.218 A 
HETATM    4  N2  UNL     1      11.831  59.838  42.769  1.00  0.00    -0.061 NA
HETATM    5  N3  UNL     1      13.699  60.763  41.402  1.00  0.00    -0.217 N 
HETATM    6  N6  UNL     1      14.276  61.931  41.251  1.00  0.00    -0.262 N 
HETATM    7  C14 UNL     1      13.672  62.841  42.068  1.00  0.00     0.193 A 
ENDROOT
BRANCH   6   8
HETATM    8  C4  UNL     1      15.412  62.369  40.447  1.00  0.00     0.152 C 
BRANCH   8   9
HETATM    9  C5  UNL     1      15.121  62.985  39.135  1.00  0.00     0.022 C 
BRANCH   9  10
HETATM   10  C6  UNL     1      13.851  62.740  38.470  1.00  0.00     0.002 C 
BRANCH  10  11
HETATM   11  C7  UNL     1      13.303  63.505  37.341  1.00  0.00     0.001 C 
BRANCH  11  12
HETATM   12  C8  UNL     1      14.006  63.546  36.050  1.00  0.00     0.009 C 
BRANCH  12  13
HETATM   13  C9  UNL     1      14.440  64.782  35.392  1.00  0.00     0.063 C 
BRANCH  13  14
HETATM   14  S1  UNL     1      16.113  65.197  35.350  1.00  0.00    -0.222 SA
HETATM   15  C10 UNL     1      17.183  64.253  34.432  1.00  0.00     0.078 C 
BRANCH  14  16
HETATM   16  C11 UNL     1      16.336  66.942  35.206  1.00  0.00     0.082 C 
BRANCH  16  17
HETATM   17  C12 UNL     1      14.989  67.631  35.242  1.00  0.00     0.131 C 
BRANCH  17  18
HETATM   18  N7  UNL     1      14.845  68.396  34.029  1.00  0.00    -0.366 N 
HETATM   19  C13 UNL     1      14.239  69.522  34.060  1.00  0.00     0.196 C 
HETATM   20  N8  UNL     1      13.717  70.011  35.280  1.00  0.00    -0.067 NA
HETATM   21  N9  UNL     1      14.100  70.268  32.871  1.00  0.00    -0.067 NA
ATOM     22  H7  UNL     1      15.223  68.042  33.151  1.00  0.00     0.161 HD
ENDBRANCH  17  18
ENDBRANCH  16  17
ENDBRANCH  14  16
ENDBRANCH  13  14
ENDBRANCH  12  13
ENDBRANCH  11  12
ENDBRANCH  10  11
ENDBRANCH   9  10
ENDBRANCH   8   9
ENDBRANCH   6   8
BRANCH   5  23
HETATM   23  C3  UNL     1      14.064  59.518  40.809  1.00  0.00     0.225 C 
BRANCH  23  24
HETATM   24  N4  UNL     1      13.029  58.643  40.428  1.00  0.00    -0.301 N 
ATOM     25  H4  UNL     1      12.358  58.903  39.705  1.00  0.00     0.187 HD
BRANCH  24  26
HETATM   26  N5  UNL     1      12.955  57.444  41.055  1.00  0.00    -0.344 N 
ATOM     27  H52 UNL     1      12.289  57.303  41.815  1.00  0.00     0.176 HD
ATOM     28  H51 UNL     1      13.582  56.705  40.740  1.00  0.00     0.176 HD
ENDBRANCH  24  26
ENDBRANCH  23  24
ENDBRANCH   5  23
BRANCH   7  29
HETATM   29  C15 UNL     1      13.937  64.250  42.297  1.00  0.00     0.300 C 
HETATM   30  N10 UNL     1      13.558  65.330  41.500  1.00  0.00    -0.054 NA
HETATM   31  O1  UNL     1      14.604  64.588  43.351  1.00  0.00    -0.268 OA
ENDBRANCH   7  29
TORSDOF 14
ENDMDL
MODEL 4
REMARK VINA RESULT: -7.854943287      1.250      1.631
REMARK  14 active torsions:
REMARK  status: ('A' for Active; 'I' for Inactive)
REMARK    1  A    between atoms: N3_5  and  C3_6 
REMARK    2  A    between atoms: C3_6  and  N4_7 
REMARK    3  A    between atoms: N4_7  and  N5_9 
REMARK    4  A    between atoms: N6_12  and  C4_13 
REMARK    5  A    between atoms: C4_13  and  C5_14 
REMARK    6  A    between atoms: C5_14  and  C6_15 
REMARK    7  A    between atoms: C6_15  and  C7_16 
REMARK    8  A    between atoms: C7_16  and  C8_17 
REMARK    9  A    between atoms: C8_17  and  C9_18 
REMARK   10  A    between atoms: C9_18  and  S1_19 
REMARK   11  A    between atoms: S1_19  and  C11_21 
REMARK   12  A    between atoms: C11_21  and  C12_22 
REMARK   13  A    between atoms: C12_22  and  N7_23 
REMARK   14  A    between atoms: C14_28  and  C15_29 
ROOT
HETATM    1  C1  UNL     1      11.444  62.189  43.949  1.00  0.00     0.161 C 
HETATM    2  N1  UNL     1      12.293  61.636  42.876  1.00  0.00    -0.305 N 
HETATM    3  C2  UNL     1      12.301  60.347  42.546  1.00  0.00     0.218 A 
HETATM    4  N2  UNL     1      11.546  59.283  43.113  1.00  0.00    -0.061 NA
HETATM    5  N3  UNL     1      13.211  60.222  41.513  1.00  0.00    -0.217 N 
HETATM    6  N6  UNL     1      13.714  61.405  41.254  1.00  0.00    -0.262 N 
HETATM    7  C14 UNL     1      13.160  62.325  42.095  1.00  0.00     0.193 A 
ENDROOT
BRANCH   6   8
HETATM    8  C4  UNL     1      14.735  61.854  40.313  1.00  0.00     0.152 C 
BRANCH   8   9
HETATM    9  C5  UNL     1      14.285  62.289  38.974  1.00  0.00     0.022 C 
BRANCH   9  10
HETATM   10  C6  UNL     1      14.732  63.558  38.420  1.00  0.00     0.002 C 
BRANCH  10  11
HETATM   11  C7  UNL     1      14.263  64.168  37.169  1.00  0.00     0.001 C 
BRANCH  11  12
HETATM   12  C8  UNL     1      15.211  64.806  36.243  1.00  0.00     0.009 C 
BRANCH  12  13
HETATM   13  C9  UNL     1      14.825  65.780  35.218  1.00  0.00     0.063 C 
BRANCH  13  14
HETATM   14  S1  UNL     1      15.959  66.963  34.679  1.00  0.00    -0.222 SA
HETATM   15  C10 UNL     1      17.239  66.491  33.670  1.00  0.00     0.078 C 
BRANCH  14  16
HETATM   16  C11 UNL     1      15.150  68.461  34.217  1.00  0.00     0.082 C 
BRANCH  16  17
HETATM   17  C12 UNL     1      13.901  68.643  35.052  1.00  0.00     0.131 C 
BRANCH  17  18
HETATM   18  N7  UNL     1      14.281  69.271  36.294  1.00  0.00    -0.366 N 
HETATM   19  C13 UNL     1      13.425  69.972  36.935  1.00  0.00     0.196 C 
HETATM   20  N8  UNL     1      12.114  70.127  36.427  1.00  0.00    -0.067 NA
HETATM   21  N9  UNL     1      13.800  70.584  38.149  1.00  0.00    -0.067 NA
ATOM     22  H7  UNL     1      15.226  69.157  36.658  1.00  0.00     0.161 HD
ENDBRANCH  17  18
ENDBRANCH  16  17
ENDBRANCH  14  16
ENDBRANCH  13  14
ENDBRANCH  12  13
ENDBRANCH  11  12
ENDBRANCH  10  11
ENDBRANCH   9  10
ENDBRANCH   8   9
ENDBRANCH   6   8
BRANCH   5  23
HETATM   23  C3  UNL     1      13.567  58.968  40.935  1.00  0.00     0.225 C 
BRANCH  23  24
HETATM   24  N4  UNL     1      12.528  58.080  40.601  1.00  0.00    -0.301 N 
ATOM     25  H4  UNL     1      11.858  58.303  39.865  1.00  0.00     0.187 HD
BRANCH  24  26
HETATM   26  N5  UNL     1      12.448  56.917  41.292  1.00  0.00    -0.344 N 
ATOM     27  H52 UNL     1      11.548  56.591  41.646  1.00  0.00     0.176 HD
ATOM     28  H51 UNL     1      13.310  56.392  41.438  1.00  0.00     0.176 HD
ENDBRANCH  24  26
ENDBRANCH  23  24
ENDBRANCH   5  23
BRANCH   7  29
HETATM   29  C15 UNL     1      13.383  63.753  42.236  1.00  0.00     0.300 C 
HETATM   30  N10 UNL     1      14.056  64.414  43.264  1.00  0.00    -0.054 NA
HETATM   31  O1  UNL     1      12.916  64.543  41.326  1.00  0.00    -0.268 OA
ENDBRANCH   7  29
TORSDOF 14
ENDMDL
MODEL 5
REMARK VINA RESULT: -7.789062536      2.037      3.902
REMARK  14 active torsions:
REMARK  status: ('A' for Active; 'I' for Inactive)
REMARK    1  A    between atoms: N3_5  and  C3_6 
REMARK    2  A    between atoms: C3_6  and  N4_7 
REMARK    3  A    between atoms: N4_7  and  N5_9 
REMARK    4  A    between atoms: N6_12  and  C4_13 
REMARK    5  A    between atoms: C4_13  and  C5_14 
REMARK    6  A    between atoms: C5_14  and  C6_15 
REMARK    7  A    between atoms: C6_15  and  C7_16 
REMARK    8  A    between atoms: C7_16  and  C8_17 
REMARK    9  A    between atoms: C8_17  and  C9_18 
REMARK   10  A    between atoms: C9_18  and  S1_19 
REMARK   11  A    between atoms: S1_19  and  C11_21 
REMARK   12  A    between atoms: C11_21  and  C12_22 
REMARK   13  A    between atoms: C12_22  and  N7_23 
REMARK   14  A    between atoms: C14_28  and  C15_29 
ROOT
HETATM    1  C1  UNL     1      12.196  61.215  42.939  1.00  0.00     0.161 C 
HETATM    2  N1  UNL     1      13.106  62.116  42.203  1.00  0.00    -0.305 N 
HETATM    3  C2  UNL     1      13.459  63.318  42.653  1.00  0.00     0.218 A 
HETATM    4  N2  UNL     1      13.068  63.963  43.859  1.00  0.00    -0.061 NA
HETATM    5  N3  UNL     1      14.307  63.848  41.699  1.00  0.00    -0.217 N 
HETATM    6  N6  UNL     1      14.440  62.977  40.728  1.00  0.00    -0.262 N 
HETATM    7  C14 UNL     1      13.695  61.870  41.009  1.00  0.00     0.193 A 
ENDROOT
BRANCH   6   8
HETATM    8  C4  UNL     1      15.164  63.022  39.461  1.00  0.00     0.152 C 
BRANCH   8   9
HETATM    9  C5  UNL     1      14.598  63.860  38.382  1.00  0.00     0.022 C 
BRANCH   9  10
HETATM   10  C6  UNL     1      13.894  63.249  37.265  1.00  0.00     0.002 C 
BRANCH  10  11
HETATM   11  C7  UNL     1      13.869  63.747  35.883  1.00  0.00     0.001 C 
BRANCH  11  12
HETATM   12  C8  UNL     1      14.895  64.684  35.403  1.00  0.00     0.009 C 
BRANCH  12  13
HETATM   13  C9  UNL     1      14.598  65.939  34.707  1.00  0.00     0.063 C 
BRANCH  13  14
HETATM   14  S1  UNL     1      15.834  67.122  34.491  1.00  0.00    -0.222 SA
HETATM   15  C10 UNL     1      17.261  66.696  33.678  1.00  0.00     0.078 C 
BRANCH  14  16
HETATM   16  C11 UNL     1      15.151  68.687  34.043  1.00  0.00     0.082 C 
BRANCH  16  17
HETATM   17  C12 UNL     1      13.859  68.912  34.797  1.00  0.00     0.131 C 
BRANCH  17  18
HETATM   18  N7  UNL     1      14.189  69.353  36.130  1.00  0.00    -0.366 N 
HETATM   19  C13 UNL     1      13.300  69.936  36.841  1.00  0.00     0.196 C 
HETATM   20  N8  UNL     1      12.002  70.144  36.321  1.00  0.00    -0.067 NA
HETATM   21  N9  UNL     1      13.628  70.366  38.144  1.00  0.00    -0.067 NA
ATOM     22  H7  UNL     1      15.126  69.201  36.503  1.00  0.00     0.161 HD
ENDBRANCH  17  18
ENDBRANCH  16  17
ENDBRANCH  14  16
ENDBRANCH  13  14
ENDBRANCH  12  13
ENDBRANCH  11  12
ENDBRANCH  10  11
ENDBRANCH   9  10
ENDBRANCH   8   9
ENDBRANCH   6   8
BRANCH   5  23
HETATM   23  C3  UNL     1      14.839  65.169  41.777  1.00  0.00     0.225 C 
BRANCH  23  24
HETATM   24  N4  UNL     1      15.854  65.415  42.721  1.00  0.00    -0.301 N 
ATOM     25  H4  UNL     1      15.921  66.312  43.202  1.00  0.00     0.187 HD
BRANCH  24  26
HETATM   26  N5  UNL     1      16.737  64.418  42.969  1.00  0.00    -0.344 N 
ATOM     27  H52 UNL     1      16.850  64.057  43.916  1.00  0.00     0.176 HD
ATOM     28  H51 UNL     1      17.273  64.053  42.182  1.00  0.00     0.176 HD
ENDBRANCH  24  26
ENDBRANCH  23  24
ENDBRANCH   5  23
BRANCH   7  29
HETATM   29  C15 UNL     1      13.481  60.643  40.263  1.00  0.00     0.300 C 
HETATM   30  N10 UNL     1      14.253  59.482  40.290  1.00  0.00    -0.054 NA
HETATM   31  O1  UNL     1      12.467  60.577  39.464  1.00  0.00    -0.268 OA
ENDBRANCH   7  29
TORSDOF 14
ENDMDL
