MODEL 1
REMARK VINA RESULT: -8.415570901      0.000      0.000
REMARK  15 active torsions:
REMARK  status: ('A' for Active; 'I' for Inactive)
REMARK    1  A    between atoms: C2_3  and  C3_4 
REMARK    2  A    between atoms: C3_4  and  N2_5 
REMARK       I    between atoms: N2_5  and  C4_7 
REMARK       I    between atoms: C4_7  and  N4_11 
REMARK    3  A    between atoms: N4_11  and  C5_12 
REMARK    4  A    between atoms: N4_11  and  C7_16 
REMARK    5  A    between atoms: C5_12  and  C6_13 
REMARK    6  A    between atoms: C6_13  and  O1_14 
REMARK    7  A    between atoms: C7_16  and  C8_17 
REMARK    8  A    between atoms: C8_17  and  C9_18 
REMARK    9  A    between atoms: C9_18  and  C10_19 
REMARK   10  A    between atoms: C10_19  and  C11_20 
REMARK   11  A    between atoms: C11_20  and  C12_21 
REMARK   12  A    between atoms: C12_21  and  N5_22 
REMARK       I    between atoms: N5_22  and  C13_24 
REMARK   13  A    between atoms: C15_31  and  N9_32 
REMARK   14  A    between atoms: N9_32  and  C16_33 
REMARK   15  A    between atoms: C16_33  and  O3_34 
ROOT
HETATM    1  N2  UNL     1      14.296  60.902  40.227  1.00  0.00    -0.198 N 
ATOM      2  H2  UNL     1      14.830  60.698  39.383  1.00  0.00     0.183 HD
HETATM    3  C4  UNL     1      14.835  61.926  41.073  1.00  0.00     0.681 C 
HETATM    4  N3  UNL     1      15.354  61.640  42.148  1.00  0.00    -0.234 N 
ATOM      5  H31 UNL     1      15.737  62.370  42.750  1.00  0.00     0.174 HD
ATOM      6  H32 UNL     1      15.463  60.688  42.497  1.00  0.00     0.174 HD
HETATM    7  N4  UNL     1      14.673  63.337  40.557  1.00  0.00    -0.175 N 
ENDROOT
BRANCH   1   8
HETATM    8  C3  UNL     1      13.132  60.145  40.408  1.00  0.00     0.154 C 
BRANCH   8   9
HETATM    9  C2  UNL     1      12.427  60.181  41.692  1.00  0.00     0.124 C 
HETATM   10  N1  UNL     1      12.072  58.976  42.348  1.00  0.00    -0.331 N 
HETATM   11  C1  UNL     1      11.998  57.605  41.897  1.00  0.00     0.155 C 
HETATM   12  C15 UNL     1      11.701  59.337  43.728  1.00  0.00     0.360 C 
HETATM   13  C14 UNL     1      11.299  60.748  43.520  1.00  0.00     0.279 C 
HETATM   14  N8  UNL     1      12.004  61.192  42.340  1.00  0.00    -0.308 N 
HETATM   15  O2  UNL     1      10.504  61.421  44.228  1.00  0.00    -0.267 OA
ATOM     16  H8  UNL     1      12.142  62.166  42.068  1.00  0.00     0.170 HD
BRANCH  12  17
HETATM   17  N9  UNL     1      10.463  58.514  44.003  1.00  0.00    -0.401 NA
BRANCH  17  18
HETATM   18  C16 UNL     1       9.491  57.867  44.221  1.00  0.00     0.312 C 
BRANCH  18  19
HETATM   19  O3  UNL     1       9.088  57.143  45.246  1.00  0.00    -0.346 OA
ATOM     20  H3  UNL     1       8.632  56.314  45.326  1.00  0.00     0.219 HD
ENDBRANCH  18  19
ENDBRANCH  17  18
ENDBRANCH  12  17
ENDBRANCH   8   9
ENDBRANCH   1   8
BRANCH   7  21
HETATM   21  C5  UNL     1      15.195  64.313  41.425  1.00  0.00     0.113 C 
BRANCH  21  22
HETATM   22  C6  UNL     1      14.255  65.184  42.195  1.00  0.00     0.209 C 
BRANCH  22  23
HETATM   23  O1  UNL     1      13.846  64.401  43.320  1.00  0.00    -0.396 OA
ATOM     24  H1  UNL     1      13.135  63.855  43.003  1.00  0.00     0.209 HD
ENDBRANCH  22  23
ENDBRANCH  21  22
ENDBRANCH   7  21
BRANCH   7  25
HETATM   25  C7  UNL     1      14.057  63.407  39.308  1.00  0.00     0.087 C 
BRANCH  25  26
HETATM   26  C8  UNL     1      14.575  63.810  38.020  1.00  0.00     0.046 C 
BRANCH  26  27
HETATM   27  C9  UNL     1      13.681  63.740  36.846  1.00  0.00     0.005 C 
BRANCH  27  28
HETATM   28  C10 UNL     1      14.466  64.197  35.586  1.00  0.00     0.005 C 
BRANCH  28  29
HETATM   29  C11 UNL     1      15.013  65.576  35.937  1.00  0.00     0.044 C 
BRANCH  29  30
HETATM   30  C12 UNL     1      14.846  66.490  34.737  1.00  0.00     0.063 C 
BRANCH  30  31
HETATM   31  N5  UNL     1      14.413  67.747  35.048  1.00  0.00    -0.347 N 
HETATM   32  C13 UNL     1      14.368  68.931  34.731  1.00  0.00     0.200 C 
HETATM   33  N6  UNL     1      14.959  69.521  33.547  1.00  0.00    -0.067 NA
HETATM   34  N7  UNL     1      13.686  69.847  35.605  1.00  0.00    -0.067 NA
ATOM     35  H5  UNL     1      13.904  67.666  35.928  1.00  0.00     0.167 HD
ENDBRANCH  30  31
ENDBRANCH  29  30
ENDBRANCH  28  29
ENDBRANCH  27  28
ENDBRANCH  26  27
ENDBRANCH  25  26
ENDBRANCH   7  25
TORSDOF 15
ENDMDL
MODEL 2
REMARK VINA RESULT: -8.281058867      3.206      9.023
REMARK  15 active torsions:
REMARK  status: ('A' for Active; 'I' for Inactive)
REMARK    1  A    between atoms: C2_3  and  C3_4 
REMARK    2  A    between atoms: C3_4  and  N2_5 
REMARK       I    between atoms: N2_5  and  C4_7 
REMARK       I    between atoms: C4_7  and  N4_11 
REMARK    3  A    between atoms: N4_11  and  C5_12 
REMARK    4  A    between atoms: N4_11  and  C7_16 
REMARK    5  A    between atoms: C5_12  and  C6_13 
REMARK    6  A    between atoms: C6_13  and  O1_14 
REMARK    7  A    between atoms: C7_16  and  C8_17 
REMARK    8  A    between atoms: C8_17  and  C9_18 
REMARK    9  A    between atoms: C9_18  and  C10_19 
REMARK   10  A    between atoms: C10_19  and  C11_20 
REMARK   11  A    between atoms: C11_20  and  C12_21 
REMARK   12  A    between atoms: C12_21  and  N5_22 
REMARK       I    between atoms: N5_22  and  C13_24 
REMARK   13  A    between atoms: C15_31  and  N9_32 
REMARK   14  A    between atoms: N9_32  and  C16_33 
REMARK   15  A    between atoms: C16_33  and  O3_34 
ROOT
HETATM    1  N2  UNL     1      12.908  63.680  38.570  1.00  0.00    -0.198 N 
ATOM      2  H2  UNL     1      12.244  62.990  38.919  1.00  0.00     0.183 HD
HETATM    3  C4  UNL     1      13.659  64.383  39.568  1.00  0.00     0.681 C 
HETATM    4  N3  UNL     1      13.423  65.563  39.814  1.00  0.00    -0.234 N 
ATOM      5  H31 UNL     1      13.958  66.063  40.524  1.00  0.00     0.174 HD
ATOM      6  H32 UNL     1      12.686  66.105  39.364  1.00  0.00     0.174 HD
HETATM    7  N4  UNL     1      14.752  63.579  40.235  1.00  0.00    -0.175 N 
ENDROOT
BRANCH   1   8
HETATM    8  C3  UNL     1      12.967  63.818  37.178  1.00  0.00     0.154 C 
BRANCH   8   9
HETATM    9  C2  UNL     1      14.259  64.007  36.514  1.00  0.00     0.124 C 
HETATM   10  N1  UNL     1      14.842  65.296  36.433  1.00  0.00    -0.331 N 
HETATM   11  C1  UNL     1      14.305  66.622  36.633  1.00  0.00     0.155 C 
HETATM   12  C15 UNL     1      16.246  65.103  36.032  1.00  0.00     0.360 C 
HETATM   13  C14 UNL     1      16.135  63.796  35.341  1.00  0.00     0.279 C 
HETATM   14  N8  UNL     1      14.977  63.145  35.908  1.00  0.00    -0.308 N 
HETATM   15  O2  UNL     1      16.894  63.347  34.442  1.00  0.00    -0.267 OA
ATOM     16  H8  UNL     1      14.766  62.150  35.834  1.00  0.00     0.170 HD
BRANCH  12  17
HETATM   17  N9  UNL     1      16.484  66.181  34.998  1.00  0.00    -0.401 NA
BRANCH  17  18
HETATM   18  C16 UNL     1      16.672  67.028  34.187  1.00  0.00     0.312 C 
BRANCH  18  19
HETATM   19  O3  UNL     1      15.877  67.764  33.436  1.00  0.00    -0.346 OA
ATOM     20  H3  UNL     1      16.004  68.268  32.641  1.00  0.00     0.219 HD
ENDBRANCH  18  19
ENDBRANCH  17  18
ENDBRANCH  12  17
ENDBRANCH   8   9
ENDBRANCH   1   8
BRANCH   7  21
HETATM   21  C5  UNL     1      15.479  64.311  41.192  1.00  0.00     0.113 C 
BRANCH  21  22
HETATM   22  C6  UNL     1      15.171  64.124  42.643  1.00  0.00     0.209 C 
BRANCH  22  23
HETATM   23  O1  UNL     1      14.060  64.985  42.910  1.00  0.00    -0.396 OA
ATOM     24  H1  UNL     1      13.304  64.412  42.971  1.00  0.00     0.209 HD
ENDBRANCH  22  23
ENDBRANCH  21  22
ENDBRANCH   7  21
BRANCH   7  25
HETATM   25  C7  UNL     1      14.822  62.260  39.793  1.00  0.00     0.087 C 
BRANCH  25  26
HETATM   26  C8  UNL     1      14.440  61.024  40.440  1.00  0.00     0.046 C 
BRANCH  26  27
HETATM   27  C9  UNL     1      13.720  60.006  39.650  1.00  0.00     0.005 C 
BRANCH  27  28
HETATM   28  C10 UNL     1      12.382  59.666  40.363  1.00  0.00     0.005 C 
BRANCH  28  29
HETATM   29  C11 UNL     1      12.768  58.740  41.511  1.00  0.00     0.044 C 
BRANCH  29  30
HETATM   30  C12 UNL     1      12.196  59.296  42.802  1.00  0.00     0.063 C 
BRANCH  30  31
HETATM   31  N5  UNL     1      12.014  60.649  42.795  1.00  0.00    -0.347 N 
HETATM   32  C13 UNL     1      11.443  61.617  43.289  1.00  0.00     0.200 C 
HETATM   33  N6  UNL     1      10.486  61.580  44.375  1.00  0.00    -0.067 NA
HETATM   34  N7  UNL     1      11.716  62.921  42.747  1.00  0.00    -0.067 NA
ATOM     35  H5  UNL     1      12.614  61.017  42.057  1.00  0.00     0.167 HD
ENDBRANCH  30  31
ENDBRANCH  29  30
ENDBRANCH  28  29
ENDBRANCH  27  28
ENDBRANCH  26  27
ENDBRANCH  25  26
ENDBRANCH   7  25
TORSDOF 15
ENDMDL
MODEL 3
REMARK VINA RESULT: -8.141420636      3.809      8.790
REMARK  15 active torsions:
REMARK  status: ('A' for Active; 'I' for Inactive)
REMARK    1  A    between atoms: C2_3  and  C3_4 
REMARK    2  A    between atoms: C3_4  and  N2_5 
REMARK       I    between atoms: N2_5  and  C4_7 
REMARK       I    between atoms: C4_7  and  N4_11 
REMARK    3  A    between atoms: N4_11  and  C5_12 
REMARK    4  A    between atoms: N4_11  and  C7_16 
REMARK    5  A    between atoms: C5_12  and  C6_13 
REMARK    6  A    between atoms: C6_13  and  O1_14 
REMARK    7  A    between atoms: C7_16  and  C8_17 
REMARK    8  A    between atoms: C8_17  and  C9_18 
REMARK    9  A    between atoms: C9_18  and  C10_19 
REMARK   10  A    between atoms: C10_19  and  C11_20 
REMARK   11  A    between atoms: C11_20  and  C12_21 
REMARK   12  A    between atoms: C12_21  and  N5_22 
REMARK       I    between atoms: N5_22  and  C13_24 
REMARK   13  A    between atoms: C15_31  and  N9_32 
REMARK   14  A    between atoms: N9_32  and  C16_33 
REMARK   15  A    between atoms: C16_33  and  O3_34 
ROOT
HETATM    1  N2  UNL     1      12.579  60.083  40.086  1.00  0.00    -0.198 N 
ATOM      2  H2  UNL     1      11.860  59.801  39.420  1.00  0.00     0.183 HD
HETATM    3  C4  UNL     1      12.262  59.878  41.468  1.00  0.00     0.681 C 
HETATM    4  N3  UNL     1      12.007  60.832  42.200  1.00  0.00    -0.234 N 
ATOM      5  H31 UNL     1      11.782  60.686  43.184  1.00  0.00     0.174 HD
ATOM      6  H32 UNL     1      11.975  61.802  41.886  1.00  0.00     0.174 HD
HETATM    7  N4  UNL     1      12.309  58.442  41.933  1.00  0.00    -0.175 N 
ENDROOT
BRANCH   1   8
HETATM    8  C3  UNL     1      13.746  60.619  39.530  1.00  0.00     0.154 C 
BRANCH   8   9
HETATM    9  C2  UNL     1      13.975  62.066  39.557  1.00  0.00     0.124 C 
HETATM   10  N1  UNL     1      14.865  62.633  40.503  1.00  0.00    -0.331 N 
HETATM   11  C1  UNL     1      15.453  62.119  41.718  1.00  0.00     0.155 C 
HETATM   12  C15 UNL     1      15.132  64.012  40.060  1.00  0.00     0.360 C 
HETATM   13  C14 UNL     1      13.902  64.268  39.273  1.00  0.00     0.279 C 
HETATM   14  N8  UNL     1      13.426  62.972  38.850  1.00  0.00    -0.308 N 
HETATM   15  O2  UNL     1      13.380  65.387  39.025  1.00  0.00    -0.267 OA
ATOM     16  H8  UNL     1      12.753  62.808  38.101  1.00  0.00     0.170 HD
BRANCH  12  17
HETATM   17  N9  UNL     1      15.072  64.825  41.334  1.00  0.00    -0.401 NA
BRANCH  17  18
HETATM   18  C16 UNL     1      15.024  65.465  42.334  1.00  0.00     0.312 C 
BRANCH  18  19
HETATM   19  O3  UNL     1      15.735  66.468  42.809  1.00  0.00    -0.346 OA
ATOM     20  H3  UNL     1      15.585  67.118  43.485  1.00  0.00     0.219 HD
ENDBRANCH  18  19
ENDBRANCH  17  18
ENDBRANCH  12  17
ENDBRANCH   8   9
ENDBRANCH   1   8
BRANCH   7  21
HETATM   21  C5  UNL     1      12.014  58.286  43.300  1.00  0.00     0.113 C 
BRANCH  21  22
HETATM   22  C6  UNL     1      10.648  57.833  43.705  1.00  0.00     0.209 C 
BRANCH  22  23
HETATM   23  O1  UNL     1       9.933  59.028  44.035  1.00  0.00    -0.396 OA
ATOM     24  H1  UNL     1       9.371  58.794  44.764  1.00  0.00     0.209 HD
ENDBRANCH  22  23
ENDBRANCH  21  22
ENDBRANCH   7  21
BRANCH   7  25
HETATM   25  C7  UNL     1      12.616  57.537  40.919  1.00  0.00     0.087 C 
BRANCH  25  26
HETATM   26  C8  UNL     1      11.762  56.686  40.120  1.00  0.00     0.046 C 
BRANCH  26  27
HETATM   27  C9  UNL     1      12.146  55.273  39.935  1.00  0.00     0.005 C 
BRANCH  27  28
HETATM   28  C10 UNL     1      13.695  55.177  39.856  1.00  0.00     0.005 C 
BRANCH  28  29
HETATM   29  C11 UNL     1      14.040  55.506  38.408  1.00  0.00     0.044 C 
BRANCH  29  30
HETATM   30  C12 UNL     1      15.324  54.786  38.034  1.00  0.00     0.063 C 
BRANCH  30  31
HETATM   31  N5  UNL     1      15.291  54.186  36.808  1.00  0.00    -0.347 N 
HETATM   32  C13 UNL     1      15.253  54.328  35.590  1.00  0.00     0.200 C 
HETATM   33  N6  UNL     1      15.221  55.589  34.879  1.00  0.00    -0.067 NA
HETATM   34  N7  UNL     1      15.219  53.150  34.765  1.00  0.00    -0.067 NA
ATOM     35  H5  UNL     1      15.302  53.181  36.980  1.00  0.00     0.167 HD
ENDBRANCH  30  31
ENDBRANCH  29  30
ENDBRANCH  28  29
ENDBRANCH  27  28
ENDBRANCH  26  27
ENDBRANCH  25  26
ENDBRANCH   7  25
TORSDOF 15
ENDMDL
MODEL 4
REMARK VINA RESULT: -8.105893386      1.089      1.357
REMARK  15 active torsions:
REMARK  status: ('A' for Active; 'I' for Inactive)
REMARK    1  A    between atoms: C2_3  and  C3_4 
REMARK    2  A    between atoms: C3_4  and  N2_5 
REMARK       I    between atoms: N2_5  and  C4_7 
REMARK       I    between atoms: C4_7  and  N4_11 
REMARK    3  A    between atoms: N4_11  and  C5_12 
REMARK    4  A    between atoms: N4_11  and  C7_16 
REMARK    5  A    between atoms: C5_12  and  C6_13 
REMARK    6  A    between atoms: C6_13  and  O1_14 
REMARK    7  A    between atoms: C7_16  and  C8_17 
REMARK    8  A    between atoms: C8_17  and  C9_18 
REMARK    9  A    between atoms: C9_18  and  C10_19 
REMARK   10  A    between atoms: C10_19  and  C11_20 
REMARK   11  A    between atoms: C11_20  and  C12_21 
REMARK   12  A    between atoms: C12_21  and  N5_22 
REMARK       I    between atoms: N5_22  and  C13_24 
REMARK   13  A    between atoms: C15_31  and  N9_32 
REMARK   14  A    between atoms: N9_32  and  C16_33 
REMARK   15  A    between atoms: C16_33  and  O3_34 
ROOT
HETATM    1  N2  UNL     1      14.243  60.988  40.116  1.00  0.00    -0.198 N 
ATOM      2  H2  UNL     1      14.694  60.884  39.207  1.00  0.00     0.183 HD
HETATM    3  C4  UNL     1      14.854  61.927  41.010  1.00  0.00     0.681 C 
HETATM    4  N3  UNL     1      15.478  61.539  41.994  1.00  0.00    -0.234 N 
ATOM      5  H31 UNL     1      15.913  62.208  42.630  1.00  0.00     0.174 HD
ATOM      6  H32 UNL     1      15.628  60.557  42.227  1.00  0.00     0.174 HD
HETATM    7  N4  UNL     1      14.632  63.381  40.665  1.00  0.00    -0.175 N 
ENDROOT
BRANCH   1   8
HETATM    8  C3  UNL     1      13.109  60.195  40.326  1.00  0.00     0.154 C 
BRANCH   8   9
HETATM    9  C2  UNL     1      12.434  60.212  41.626  1.00  0.00     0.124 C 
HETATM   10  N1  UNL     1      12.133  58.998  42.294  1.00  0.00    -0.331 N 
HETATM   11  C1  UNL     1      12.092  57.625  41.847  1.00  0.00     0.155 C 
HETATM   12  C15 UNL     1      11.784  59.351  43.681  1.00  0.00     0.360 C 
HETATM   13  C14 UNL     1      11.333  60.749  43.480  1.00  0.00     0.279 C 
HETATM   14  N8  UNL     1      11.995  61.211  42.283  1.00  0.00    -0.308 N 
HETATM   15  O2  UNL     1      10.534  61.398  44.206  1.00  0.00    -0.267 OA
ATOM     16  H8  UNL     1      12.096  62.188  42.006  1.00  0.00     0.170 HD
BRANCH  12  17
HETATM   17  N9  UNL     1      10.579  58.490  43.987  1.00  0.00    -0.401 NA
BRANCH  17  18
HETATM   18  C16 UNL     1       9.634  57.813  44.227  1.00  0.00     0.312 C 
BRANCH  18  19
HETATM   19  O3  UNL     1       9.302  57.034  45.237  1.00  0.00    -0.346 OA
ATOM     20  H3  UNL     1       8.474  56.766  45.617  1.00  0.00     0.219 HD
ENDBRANCH  18  19
ENDBRANCH  17  18
ENDBRANCH  12  17
ENDBRANCH   8   9
ENDBRANCH   1   8
BRANCH   7  21
HETATM   21  C5  UNL     1      15.228  64.270  41.578  1.00  0.00     0.113 C 
BRANCH  21  22
HETATM   22  C6  UNL     1      14.384  65.308  42.244  1.00  0.00     0.209 C 
BRANCH  22  23
HETATM   23  O1  UNL     1      13.651  64.611  43.256  1.00  0.00    -0.396 OA
ATOM     24  H1  UNL     1      12.765  64.536  42.920  1.00  0.00     0.209 HD
ENDBRANCH  22  23
ENDBRANCH  21  22
ENDBRANCH   7  21
BRANCH   7  25
HETATM   25  C7  UNL     1      13.896  63.571  39.496  1.00  0.00     0.087 C 
BRANCH  25  26
HETATM   26  C8  UNL     1      14.312  63.978  38.173  1.00  0.00     0.046 C 
BRANCH  26  27
HETATM   27  C9  UNL     1      13.524  63.519  37.012  1.00  0.00     0.005 C 
BRANCH  27  28
HETATM   28  C10 UNL     1      14.196  64.034  35.709  1.00  0.00     0.005 C 
BRANCH  28  29
HETATM   29  C11 UNL     1      15.693  63.996  35.993  1.00  0.00     0.044 C 
BRANCH  29  30
HETATM   30  C12 UNL     1      16.441  64.405  34.737  1.00  0.00     0.063 C 
BRANCH  30  31
HETATM   31  N5  UNL     1      16.247  65.706  34.371  1.00  0.00    -0.347 N 
HETATM   32  C13 UNL     1      16.202  66.881  34.721  1.00  0.00     0.200 C 
HETATM   33  N6  UNL     1      16.407  67.380  36.065  1.00  0.00    -0.067 NA
HETATM   34  N7  UNL     1      15.901  67.878  33.729  1.00  0.00    -0.067 NA
ATOM     35  H5  UNL     1      16.058  65.697  33.369  1.00  0.00     0.167 HD
ENDBRANCH  30  31
ENDBRANCH  29  30
ENDBRANCH  28  29
ENDBRANCH  27  28
ENDBRANCH  26  27
ENDBRANCH  25  26
ENDBRANCH   7  25
TORSDOF 15
ENDMDL
MODEL 5
REMARK VINA RESULT: -7.937805988      3.112      9.886
REMARK  15 active torsions:
REMARK  status: ('A' for Active; 'I' for Inactive)
REMARK    1  A    between atoms: C2_3  and  C3_4 
REMARK    2  A    between atoms: C3_4  and  N2_5 
REMARK       I    between atoms: N2_5  and  C4_7 
REMARK       I    between atoms: C4_7  and  N4_11 
REMARK    3  A    between atoms: N4_11  and  C5_12 
REMARK    4  A    between atoms: N4_11  and  C7_16 
REMARK    5  A    between atoms: C5_12  and  C6_13 
REMARK    6  A    between atoms: C6_13  and  O1_14 
REMARK    7  A    between atoms: C7_16  and  C8_17 
REMARK    8  A    between atoms: C8_17  and  C9_18 
REMARK    9  A    between atoms: C9_18  and  C10_19 
REMARK   10  A    between atoms: C10_19  and  C11_20 
REMARK   11  A    between atoms: C11_20  and  C12_21 
REMARK   12  A    between atoms: C12_21  and  N5_22 
REMARK       I    between atoms: N5_22  and  C13_24 
REMARK   13  A    between atoms: C15_31  and  N9_32 
REMARK   14  A    between atoms: N9_32  and  C16_33 
REMARK   15  A    between atoms: C16_33  and  O3_34 
ROOT
HETATM    1  N2  UNL     1      13.771  63.858  38.924  1.00  0.00    -0.198 N 
ATOM      2  H2  UNL     1      12.877  63.409  38.725  1.00  0.00     0.183 HD
HETATM    3  C4  UNL     1      13.930  64.366  40.255  1.00  0.00     0.681 C 
HETATM    4  N3  UNL     1      13.916  65.575  40.469  1.00  0.00    -0.234 N 
ATOM      5  H31 UNL     1      14.029  65.936  41.416  1.00  0.00     0.174 HD
ATOM      6  H32 UNL     1      13.767  66.282  39.749  1.00  0.00     0.174 HD
HETATM    7  N4  UNL     1      14.150  63.318  41.321  1.00  0.00    -0.175 N 
ENDROOT
BRANCH   1   8
HETATM    8  C3  UNL     1      14.681  63.897  37.861  1.00  0.00     0.154 C 
BRANCH   8   9
HETATM    9  C2  UNL     1      14.715  65.057  36.967  1.00  0.00     0.124 C 
HETATM   10  N1  UNL     1      15.288  64.950  35.675  1.00  0.00    -0.331 N 
HETATM   11  C1  UNL     1      16.154  63.963  35.072  1.00  0.00     0.155 C 
HETATM   12  C15 UNL     1      14.868  66.145  34.924  1.00  0.00     0.360 C 
HETATM   13  C14 UNL     1      14.623  67.079  36.049  1.00  0.00     0.279 C 
HETATM   14  N8  UNL     1      14.329  66.250  37.195  1.00  0.00    -0.308 N 
HETATM   15  O2  UNL     1      14.665  68.337  36.013  1.00  0.00    -0.267 OA
ATOM     16  H8  UNL     1      13.881  66.570  38.054  1.00  0.00     0.170 HD
BRANCH  12  17
HETATM   17  N9  UNL     1      16.119  66.580  34.195  1.00  0.00    -0.401 NA
BRANCH  17  18
HETATM   18  C16 UNL     1      17.102  66.920  33.622  1.00  0.00     0.312 C 
BRANCH  18  19
HETATM   19  O3  UNL     1      18.153  66.279  33.153  1.00  0.00    -0.346 OA
ATOM     20  H3  UNL     1      19.081  66.478  33.112  1.00  0.00     0.219 HD
ENDBRANCH  18  19
ENDBRANCH  17  18
ENDBRANCH  12  17
ENDBRANCH   8   9
ENDBRANCH   1   8
BRANCH   7  21
HETATM   21  C5  UNL     1      14.324  63.858  42.608  1.00  0.00     0.113 C 
BRANCH  21  22
HETATM   22  C6  UNL     1      15.703  64.182  43.085  1.00  0.00     0.209 C 
BRANCH  22  23
HETATM   23  O1  UNL     1      15.803  65.608  43.022  1.00  0.00    -0.396 OA
ATOM     24  H1  UNL     1      15.005  65.898  42.595  1.00  0.00     0.209 HD
ENDBRANCH  22  23
ENDBRANCH  21  22
ENDBRANCH   7  21
BRANCH   7  25
HETATM   25  C7  UNL     1      14.119  62.012  40.834  1.00  0.00     0.087 C 
BRANCH  25  26
HETATM   26  C8  UNL     1      13.999  60.748  41.526  1.00  0.00     0.046 C 
BRANCH  26  27
HETATM   27  C9  UNL     1      13.659  59.544  40.742  1.00  0.00     0.005 C 
BRANCH  27  28
HETATM   28  C10 UNL     1      12.134  59.549  40.444  1.00  0.00     0.005 C 
BRANCH  28  29
HETATM   29  C11 UNL     1      11.720  58.083  40.470  1.00  0.00     0.044 C 
BRANCH  29  30
HETATM   30  C12 UNL     1      12.533  57.363  41.530  1.00  0.00     0.063 C 
BRANCH  30  31
HETATM   31  N5  UNL     1      11.854  57.127  42.691  1.00  0.00    -0.347 N 
HETATM   32  C13 UNL     1      11.402  57.588  43.735  1.00  0.00     0.200 C 
HETATM   33  N6  UNL     1      11.497  58.965  44.171  1.00  0.00    -0.067 NA
HETATM   34  N7  UNL     1      10.725  56.697  44.639  1.00  0.00    -0.067 NA
ATOM     35  H5  UNL     1      11.619  56.134  42.691  1.00  0.00     0.167 HD
ENDBRANCH  30  31
ENDBRANCH  29  30
ENDBRANCH  28  29
ENDBRANCH  27  28
ENDBRANCH  26  27
ENDBRANCH  25  26
ENDBRANCH   7  25
TORSDOF 15
ENDMDL
