MODEL 1
REMARK VINA RESULT: -8.751126863      0.000      0.000
REMARK  14 active torsions:
REMARK  status: ('A' for Active; 'I' for Inactive)
REMARK    1  A    between atoms: N2_4  and  N3_6 
REMARK       I    between atoms: C1_8  and  N5_10 
REMARK    2  A    between atoms: N5_10  and  C2_12 
REMARK    3  A    between atoms: C2_12  and  C3_13 
REMARK    4  A    between atoms: C3_13  and  C4_14 
REMARK    5  A    between atoms: C4_14  and  C5_15 
REMARK    6  A    between atoms: C5_15  and  O1_16 
REMARK    7  A    between atoms: O1_16  and  C6_17 
REMARK    8  A    between atoms: C6_17  and  C7_18 
REMARK    9  A    between atoms: C7_18  and  C8_19 
REMARK   10  A    between atoms: C8_19  and  N6_20 
REMARK       I    between atoms: N6_20  and  C9_22 
REMARK   11  A    between atoms: C9_22  and  C10_24 
REMARK   12  A    between atoms: C12_26  and  N7_27 
REMARK   13  A    between atoms: C14_32  and  C15_33 
REMARK   14  A    between atoms: C15_33  and  N8_34 
REMARK       I    between atoms: N8_34  and  C16_35 
ROOT
HETATM    1  C8  UNL     1      15.923  63.543  37.845  1.00  0.00     0.124 C 
ENDROOT
BRANCH   1   2
HETATM    2  C7  UNL     1      14.913  63.835  36.772  1.00  0.00     0.046 C 
BRANCH   2   3
HETATM    3  C6  UNL     1      15.614  63.867  35.439  1.00  0.00     0.169 C 
BRANCH   3   4
HETATM    4  O1  UNL     1      16.514  64.890  35.284  1.00  0.00    -0.391 OA
BRANCH   4   5
HETATM    5  C5  UNL     1      16.355  65.605  34.116  1.00  0.00     0.167 C 
BRANCH   5   6
HETATM    6  C4  UNL     1      16.170  67.081  34.358  1.00  0.00     0.028 C 
BRANCH   6   7
HETATM    7  C3  UNL     1      16.130  67.438  35.815  1.00  0.00     0.022 C 
BRANCH   7   8
HETATM    8  C2  UNL     1      14.688  67.823  36.136  1.00  0.00     0.122 C 
BRANCH   8   9
HETATM    9  N5  UNL     1      14.416  69.181  35.714  1.00  0.00    -0.363 N 
HETATM   10  C1  UNL     1      13.375  69.889  36.351  1.00  0.00     0.204 C 
HETATM   11  N3  UNL     1      13.613  70.575  37.401  1.00  0.00    -0.260 N 
HETATM   12  N4  UNL     1      12.069  69.836  35.823  1.00  0.00    -0.062 NA
ATOM     13  H3  UNL     1      12.829  71.069  37.826  1.00  0.00     0.191 HD
ATOM     14  H5  UNL     1      14.964  69.616  34.972  1.00  0.00     0.162 HD
BRANCH  11  15
HETATM   15  N2  UNL     1      14.850  70.703  38.010  1.00  0.00    -0.247 N 
HETATM   16  N1  UNL     1      14.968  71.016  39.236  1.00  0.00    -0.331 N 
ATOM     17  H12 UNL     1      14.116  71.174  39.773  1.00  0.00     0.178 HD
ATOM     18  H11 UNL     1      15.879  71.111  39.684  1.00  0.00     0.178 HD
ATOM     19  H2  UNL     1      15.692  70.542  37.458  1.00  0.00     0.207 HD
ENDBRANCH  11  15
ENDBRANCH   8   9
ENDBRANCH   7   8
ENDBRANCH   6   7
ENDBRANCH   5   6
ENDBRANCH   4   5
ENDBRANCH   3   4
ENDBRANCH   2   3
ENDBRANCH   1   2
BRANCH   1  20
HETATM   20  N6  UNL     1      15.299  63.023  39.047  1.00  0.00    -0.361 N 
HETATM   21  C9  UNL     1      16.066  62.981  40.259  1.00  0.00     0.222 C 
HETATM   22  O2  UNL     1      17.240  63.406  40.188  1.00  0.00    -0.273 OA
ATOM     23  H6  UNL     1      14.334  62.693  39.031  1.00  0.00     0.162 HD
BRANCH  21  24
HETATM   24  C10 UNL     1      15.398  62.451  41.437  1.00  0.00     0.090 C 
HETATM   25  C11 UNL     1      14.245  61.565  40.907  1.00  0.00     0.047 C 
HETATM   26  C12 UNL     1      13.358  61.512  42.158  1.00  0.00     0.185 C 
HETATM   27  C13 UNL     1      13.359  62.974  42.523  1.00  0.00     0.044 C 
HETATM   28  C14 UNL     1      14.819  63.342  42.432  1.00  0.00     0.053 C 
BRANCH  26  29
HETATM   29  N7  UNL     1      12.047  60.998  41.864  1.00  0.00    -0.075 N 
ATOM     30  H73 UNL     1      11.580  61.560  41.152  1.00  0.00     0.274 HD
ATOM     31  H72 UNL     1      12.100  60.113  41.360  1.00  0.00     0.274 HD
ATOM     32  H71 UNL     1      11.476  60.913  42.704  1.00  0.00     0.274 HD
ENDBRANCH  26  29
BRANCH  28  33
HETATM   33  C15 UNL     1      14.998  64.836  42.250  1.00  0.00     0.164 C 
BRANCH  33  34
HETATM   34  N8  UNL     1      14.212  65.279  41.233  1.00  0.00    -0.393 NA
HETATM   35  C16 UNL     1      13.521  65.591  40.339  1.00  0.00     0.274 C 
HETATM   36  N9  UNL     1      13.280  66.973  39.989  1.00  0.00    -0.052 NA
HETATM   37  N10 UNL     1      12.833  64.647  39.492  1.00  0.00    -0.052 NA
ENDBRANCH  33  34
ENDBRANCH  28  33
ENDBRANCH  21  24
ENDBRANCH   1  20
TORSDOF 14
ENDMDL
MODEL 2
REMARK VINA RESULT: -8.661419896      0.963      1.855
REMARK  14 active torsions:
REMARK  status: ('A' for Active; 'I' for Inactive)
REMARK    1  A    between atoms: N2_4  and  N3_6 
REMARK       I    between atoms: C1_8  and  N5_10 
REMARK    2  A    between atoms: N5_10  and  C2_12 
REMARK    3  A    between atoms: C2_12  and  C3_13 
REMARK    4  A    between atoms: C3_13  and  C4_14 
REMARK    5  A    between atoms: C4_14  and  C5_15 
REMARK    6  A    between atoms: C5_15  and  O1_16 
REMARK    7  A    between atoms: O1_16  and  C6_17 
REMARK    8  A    between atoms: C6_17  and  C7_18 
REMARK    9  A    between atoms: C7_18  and  C8_19 
REMARK   10  A    between atoms: C8_19  and  N6_20 
REMARK       I    between atoms: N6_20  and  C9_22 
REMARK   11  A    between atoms: C9_22  and  C10_24 
REMARK   12  A    between atoms: C12_26  and  N7_27 
REMARK   13  A    between atoms: C14_32  and  C15_33 
REMARK   14  A    between atoms: C15_33  and  N8_34 
REMARK       I    between atoms: N8_34  and  C16_35 
ROOT
HETATM    1  C8  UNL     1      15.841  63.544  37.833  1.00  0.00     0.124 C 
ENDROOT
BRANCH   1   2
HETATM    2  C7  UNL     1      14.806  64.020  36.853  1.00  0.00     0.046 C 
BRANCH   2   3
HETATM    3  C6  UNL     1      15.318  63.790  35.455  1.00  0.00     0.169 C 
BRANCH   3   4
HETATM    4  O1  UNL     1      16.682  63.814  35.328  1.00  0.00    -0.391 OA
BRANCH   4   5
HETATM    5  C5  UNL     1      17.135  64.580  34.275  1.00  0.00     0.167 C 
BRANCH   5   6
HETATM    6  C4  UNL     1      16.170  65.674  33.894  1.00  0.00     0.028 C 
BRANCH   6   7
HETATM    7  C3  UNL     1      16.703  67.050  34.169  1.00  0.00     0.022 C 
BRANCH   7   8
HETATM    8  C2  UNL     1      16.206  67.448  35.557  1.00  0.00     0.122 C 
BRANCH   8   9
HETATM    9  N5  UNL     1      14.762  67.547  35.573  1.00  0.00    -0.363 N 
HETATM   10  C1  UNL     1      14.176  68.792  35.885  1.00  0.00     0.204 C 
HETATM   11  N3  UNL     1      13.931  69.637  34.959  1.00  0.00    -0.260 N 
HETATM   12  N4  UNL     1      13.861  69.101  37.223  1.00  0.00    -0.062 NA
ATOM     13  H3  UNL     1      13.507  70.523  35.233  1.00  0.00     0.191 HD
ATOM     14  H5  UNL     1      14.181  66.735  35.365  1.00  0.00     0.162 HD
BRANCH  11  15
HETATM   15  N2  UNL     1      14.193  69.448  33.613  1.00  0.00    -0.247 N 
HETATM   16  N1  UNL     1      13.422  69.893  32.707  1.00  0.00    -0.331 N 
ATOM     17  H12 UNL     1      12.588  70.403  32.997  1.00  0.00     0.178 HD
ATOM     18  H11 UNL     1      13.615  69.754  31.716  1.00  0.00     0.178 HD
ATOM     19  H2  UNL     1      15.032  68.936  33.340  1.00  0.00     0.207 HD
ENDBRANCH  11  15
ENDBRANCH   8   9
ENDBRANCH   7   8
ENDBRANCH   6   7
ENDBRANCH   5   6
ENDBRANCH   4   5
ENDBRANCH   3   4
ENDBRANCH   2   3
ENDBRANCH   1   2
BRANCH   1  20
HETATM   20  N6  UNL     1      15.237  63.007  39.038  1.00  0.00    -0.361 N 
HETATM   21  C9  UNL     1      16.023  62.951  40.237  1.00  0.00     0.222 C 
HETATM   22  O2  UNL     1      17.195  63.379  40.153  1.00  0.00    -0.273 OA
ATOM     23  H6  UNL     1      14.272  62.676  39.032  1.00  0.00     0.162 HD
BRANCH  21  24
HETATM   24  C10 UNL     1      15.375  62.405  41.418  1.00  0.00     0.090 C 
HETATM   25  C11 UNL     1      14.215  61.523  40.895  1.00  0.00     0.047 C 
HETATM   26  C12 UNL     1      13.348  61.452  42.159  1.00  0.00     0.185 C 
HETATM   27  C13 UNL     1      13.352  62.910  42.542  1.00  0.00     0.044 C 
HETATM   28  C14 UNL     1      14.810  63.282  42.433  1.00  0.00     0.053 C 
BRANCH  26  29
HETATM   29  N7  UNL     1      12.034  60.939  41.879  1.00  0.00    -0.075 N 
ATOM     30  H73 UNL     1      11.338  61.341  42.507  1.00  0.00     0.274 HD
ATOM     31  H72 UNL     1      11.677  61.298  40.994  1.00  0.00     0.274 HD
ATOM     32  H71 UNL     1      12.012  59.920  41.902  1.00  0.00     0.274 HD
ENDBRANCH  26  29
BRANCH  28  33
HETATM   33  C15 UNL     1      14.983  64.778  42.267  1.00  0.00     0.164 C 
BRANCH  33  34
HETATM   34  N8  UNL     1      14.195  65.229  41.255  1.00  0.00    -0.393 NA
HETATM   35  C16 UNL     1      13.500  65.548  40.366  1.00  0.00     0.274 C 
HETATM   36  N9  UNL     1      13.289  66.932  40.004  1.00  0.00    -0.052 NA
HETATM   37  N10 UNL     1      12.778  64.612  39.540  1.00  0.00    -0.052 NA
ENDBRANCH  33  34
ENDBRANCH  28  33
ENDBRANCH  21  24
ENDBRANCH   1  20
TORSDOF 14
ENDMDL
MODEL 3
REMARK VINA RESULT: -8.476474094      1.739      2.737
REMARK  14 active torsions:
REMARK  status: ('A' for Active; 'I' for Inactive)
REMARK    1  A    between atoms: N2_4  and  N3_6 
REMARK       I    between atoms: C1_8  and  N5_10 
REMARK    2  A    between atoms: N5_10  and  C2_12 
REMARK    3  A    between atoms: C2_12  and  C3_13 
REMARK    4  A    between atoms: C3_13  and  C4_14 
REMARK    5  A    between atoms: C4_14  and  C5_15 
REMARK    6  A    between atoms: C5_15  and  O1_16 
REMARK    7  A    between atoms: O1_16  and  C6_17 
REMARK    8  A    between atoms: C6_17  and  C7_18 
REMARK    9  A    between atoms: C7_18  and  C8_19 
REMARK   10  A    between atoms: C8_19  and  N6_20 
REMARK       I    between atoms: N6_20  and  C9_22 
REMARK   11  A    between atoms: C9_22  and  C10_24 
REMARK   12  A    between atoms: C12_26  and  N7_27 
REMARK   13  A    between atoms: C14_32  and  C15_33 
REMARK   14  A    between atoms: C15_33  and  N8_34 
REMARK       I    between atoms: N8_34  and  C16_35 
ROOT
HETATM    1  C8  UNL     1      13.606  64.067  37.776  1.00  0.00     0.124 C 
ENDROOT
BRANCH   1   2
HETATM    2  C7  UNL     1      13.468  63.429  36.423  1.00  0.00     0.046 C 
BRANCH   2   3
HETATM    3  C6  UNL     1      14.382  64.137  35.456  1.00  0.00     0.169 C 
BRANCH   3   4
HETATM    4  O1  UNL     1      15.545  63.471  35.168  1.00  0.00    -0.391 OA
BRANCH   4   5
HETATM    5  C5  UNL     1      16.583  64.294  34.788  1.00  0.00     0.167 C 
BRANCH   5   6
HETATM    6  C4  UNL     1      16.272  65.755  34.990  1.00  0.00     0.028 C 
BRANCH   6   7
HETATM    7  C3  UNL     1      16.477  66.577  33.752  1.00  0.00     0.022 C 
BRANCH   7   8
HETATM    8  C2  UNL     1      15.750  67.901  33.974  1.00  0.00     0.122 C 
BRANCH   8   9
HETATM    9  N5  UNL     1      14.560  67.702  34.772  1.00  0.00    -0.363 N 
HETATM   10  C1  UNL     1      13.979  68.820  35.407  1.00  0.00     0.204 C 
HETATM   11  N3  UNL     1      13.100  69.520  34.800  1.00  0.00    -0.260 N 
HETATM   12  N4  UNL     1      14.375  69.164  36.716  1.00  0.00    -0.062 NA
ATOM     13  H3  UNL     1      12.710  70.319  35.300  1.00  0.00     0.191 HD
ATOM     14  H5  UNL     1      14.149  66.774  34.875  1.00  0.00     0.162 HD
BRANCH  11  15
HETATM   15  N2  UNL     1      12.632  69.281  33.519  1.00  0.00    -0.247 N 
HETATM   16  N1  UNL     1      13.020  69.967  32.523  1.00  0.00    -0.331 N 
ATOM     17  H12 UNL     1      13.697  70.711  32.689  1.00  0.00     0.178 HD
ATOM     18  H11 UNL     1      12.676  69.792  31.579  1.00  0.00     0.178 HD
ATOM     19  H2  UNL     1      11.956  68.533  33.371  1.00  0.00     0.207 HD
ENDBRANCH  11  15
ENDBRANCH   8   9
ENDBRANCH   7   8
ENDBRANCH   6   7
ENDBRANCH   5   6
ENDBRANCH   4   5
ENDBRANCH   3   4
ENDBRANCH   2   3
ENDBRANCH   1   2
BRANCH   1  20
HETATM   20  N6  UNL     1      13.530  63.087  38.844  1.00  0.00    -0.361 N 
HETATM   21  C9  UNL     1      14.728  62.755  39.561  1.00  0.00     0.222 C 
HETATM   22  O2  UNL     1      15.770  63.346  39.205  1.00  0.00    -0.273 OA
ATOM     23  H6  UNL     1      12.642  62.643  39.081  1.00  0.00     0.162 HD
BRANCH  21  24
HETATM   24  C10 UNL     1      14.603  61.768  40.622  1.00  0.00     0.090 C 
HETATM   25  C11 UNL     1      13.703  60.644  40.051  1.00  0.00     0.047 C 
HETATM   26  C12 UNL     1      13.243  59.987  41.358  1.00  0.00     0.185 C 
HETATM   27  C13 UNL     1      12.864  61.221  42.136  1.00  0.00     0.044 C 
HETATM   28  C14 UNL     1      14.048  62.131  41.918  1.00  0.00     0.053 C 
BRANCH  26  29
HETATM   29  N7  UNL     1      12.142  59.087  41.146  1.00  0.00    -0.075 N 
ATOM     30  H73 UNL     1      11.750  59.194  40.210  1.00  0.00     0.274 HD
ATOM     31  H72 UNL     1      12.460  58.120  41.076  1.00  0.00     0.274 HD
ATOM     32  H71 UNL     1      11.424  59.190  41.863  1.00  0.00     0.274 HD
ENDBRANCH  26  29
BRANCH  28  33
HETATM   33  C15 UNL     1      13.679  63.580  42.161  1.00  0.00     0.164 C 
BRANCH  33  34
HETATM   34  N8  UNL     1      14.802  64.345  42.216  1.00  0.00    -0.393 NA
HETATM   35  C16 UNL     1      15.727  65.063  42.277  1.00  0.00     0.274 C 
HETATM   36  N9  UNL     1      17.083  64.598  42.092  1.00  0.00    -0.052 NA
HETATM   37  N10 UNL     1      15.626  66.477  42.541  1.00  0.00    -0.052 NA
ENDBRANCH  33  34
ENDBRANCH  28  33
ENDBRANCH  21  24
ENDBRANCH   1  20
TORSDOF 14
ENDMDL
MODEL 4
REMARK VINA RESULT: -8.433614068      1.405      1.786
REMARK  14 active torsions:
REMARK  status: ('A' for Active; 'I' for Inactive)
REMARK    1  A    between atoms: N2_4  and  N3_6 
REMARK       I    between atoms: C1_8  and  N5_10 
REMARK    2  A    between atoms: N5_10  and  C2_12 
REMARK    3  A    between atoms: C2_12  and  C3_13 
REMARK    4  A    between atoms: C3_13  and  C4_14 
REMARK    5  A    between atoms: C4_14  and  C5_15 
REMARK    6  A    between atoms: C5_15  and  O1_16 
REMARK    7  A    between atoms: O1_16  and  C6_17 
REMARK    8  A    between atoms: C6_17  and  C7_18 
REMARK    9  A    between atoms: C7_18  and  C8_19 
REMARK   10  A    between atoms: C8_19  and  N6_20 
REMARK       I    between atoms: N6_20  and  C9_22 
REMARK   11  A    between atoms: C9_22  and  C10_24 
REMARK   12  A    between atoms: C12_26  and  N7_27 
REMARK   13  A    between atoms: C14_32  and  C15_33 
REMARK   14  A    between atoms: C15_33  and  N8_34 
REMARK       I    between atoms: N8_34  and  C16_35 
ROOT
HETATM    1  C8  UNL     1      13.645  64.091  37.825  1.00  0.00     0.124 C 
ENDROOT
BRANCH   1   2
HETATM    2  C7  UNL     1      13.383  63.436  36.498  1.00  0.00     0.046 C 
BRANCH   2   3
HETATM    3  C6  UNL     1      14.121  64.196  35.427  1.00  0.00     0.169 C 
BRANCH   3   4
HETATM    4  O1  UNL     1      15.426  63.817  35.245  1.00  0.00    -0.391 OA
BRANCH   4   5
HETATM    5  C5  UNL     1      16.292  64.868  35.032  1.00  0.00     0.167 C 
BRANCH   5   6
HETATM    6  C4  UNL     1      15.576  66.160  34.733  1.00  0.00     0.028 C 
BRANCH   6   7
HETATM    7  C3  UNL     1      15.963  67.275  35.660  1.00  0.00     0.022 C 
BRANCH   7   8
HETATM    8  C2  UNL     1      14.670  67.824  36.257  1.00  0.00     0.122 C 
BRANCH   8   9
HETATM    9  N5  UNL     1      14.421  69.169  35.784  1.00  0.00    -0.363 N 
HETATM   10  C1  UNL     1      13.399  69.921  36.401  1.00  0.00     0.204 C 
HETATM   11  N3  UNL     1      13.658  70.642  37.423  1.00  0.00    -0.260 N 
HETATM   12  N4  UNL     1      12.088  69.874  35.885  1.00  0.00    -0.062 NA
ATOM     13  H3  UNL     1      12.886  71.167  37.834  1.00  0.00     0.191 HD
ATOM     14  H5  UNL     1      14.971  69.565  35.022  1.00  0.00     0.162 HD
BRANCH  11  15
HETATM   15  N2  UNL     1      14.901  70.769  38.018  1.00  0.00    -0.247 N 
HETATM   16  N1  UNL     1      15.032  70.998  39.261  1.00  0.00    -0.331 N 
ATOM     17  H12 UNL     1      14.186  71.089  39.822  1.00  0.00     0.178 HD
ATOM     18  H11 UNL     1      15.948  71.092  39.699  1.00  0.00     0.178 HD
ATOM     19  H2  UNL     1      15.737  70.676  37.441  1.00  0.00     0.207 HD
ENDBRANCH  11  15
ENDBRANCH   8   9
ENDBRANCH   7   8
ENDBRANCH   6   7
ENDBRANCH   5   6
ENDBRANCH   4   5
ENDBRANCH   3   4
ENDBRANCH   2   3
ENDBRANCH   1   2
BRANCH   1  20
HETATM   20  N6  UNL     1      13.626  63.131  38.913  1.00  0.00    -0.361 N 
HETATM   21  C9  UNL     1      14.856  62.829  39.587  1.00  0.00     0.222 C 
HETATM   22  O2  UNL     1      15.874  63.429  39.179  1.00  0.00    -0.273 OA
ATOM     23  H6  UNL     1      12.755  62.679  39.193  1.00  0.00     0.162 HD
BRANCH  21  24
HETATM   24  C10 UNL     1      14.788  61.862  40.670  1.00  0.00     0.090 C 
HETATM   25  C11 UNL     1      14.007  60.649  40.106  1.00  0.00     0.047 C 
HETATM   26  C12 UNL     1      13.569  59.985  41.418  1.00  0.00     0.185 C 
HETATM   27  C13 UNL     1      13.062  61.200  42.152  1.00  0.00     0.044 C 
HETATM   28  C14 UNL     1      14.167  62.205  41.941  1.00  0.00     0.053 C 
BRANCH  26  29
HETATM   29  N7  UNL     1      12.557  58.986  41.201  1.00  0.00    -0.075 N 
ATOM     30  H73 UNL     1      11.844  59.316  40.551  1.00  0.00     0.274 HD
ATOM     31  H72 UNL     1      12.919  58.203  40.657  1.00  0.00     0.274 HD
ATOM     32  H71 UNL     1      12.144  58.669  42.078  1.00  0.00     0.274 HD
ENDBRANCH  26  29
BRANCH  28  33
HETATM   33  C15 UNL     1      13.665  63.621  42.136  1.00  0.00     0.164 C 
BRANCH  33  34
HETATM   34  N8  UNL     1      14.715  64.480  42.226  1.00  0.00    -0.393 NA
HETATM   35  C16 UNL     1      15.665  65.164  42.293  1.00  0.00     0.274 C 
HETATM   36  N9  UNL     1      15.583  66.585  42.542  1.00  0.00    -0.052 NA
HETATM   37  N10 UNL     1      17.014  64.676  42.134  1.00  0.00    -0.052 NA
ENDBRANCH  33  34
ENDBRANCH  28  33
ENDBRANCH  21  24
ENDBRANCH   1  20
TORSDOF 14
ENDMDL
MODEL 5
REMARK VINA RESULT: -8.431283114      2.180      8.626
REMARK  14 active torsions:
REMARK  status: ('A' for Active; 'I' for Inactive)
REMARK    1  A    between atoms: N2_4  and  N3_6 
REMARK       I    between atoms: C1_8  and  N5_10 
REMARK    2  A    between atoms: N5_10  and  C2_12 
REMARK    3  A    between atoms: C2_12  and  C3_13 
REMARK    4  A    between atoms: C3_13  and  C4_14 
REMARK    5  A    between atoms: C4_14  and  C5_15 
REMARK    6  A    between atoms: C5_15  and  O1_16 
REMARK    7  A    between atoms: O1_16  and  C6_17 
REMARK    8  A    between atoms: C6_17  and  C7_18 
REMARK    9  A    between atoms: C7_18  and  C8_19 
REMARK   10  A    between atoms: C8_19  and  N6_20 
REMARK       I    between atoms: N6_20  and  C9_22 
REMARK   11  A    between atoms: C9_22  and  C10_24 
REMARK   12  A    between atoms: C12_26  and  N7_27 
REMARK   13  A    between atoms: C14_32  and  C15_33 
REMARK   14  A    between atoms: C15_33  and  N8_34 
REMARK       I    between atoms: N8_34  and  C16_35 
ROOT
HETATM    1  C8  UNL     1      15.177  63.563  37.941  1.00  0.00     0.124 C 
ENDROOT
BRANCH   1   2
HETATM    2  C7  UNL     1      14.107  64.019  38.893  1.00  0.00     0.046 C 
BRANCH   2   3
HETATM    3  C6  UNL     1      14.435  63.510  40.273  1.00  0.00     0.169 C 
BRANCH   3   4
HETATM    4  O1  UNL     1      13.635  62.490  40.718  1.00  0.00    -0.391 OA
BRANCH   4   5
HETATM    5  C5  UNL     1      14.284  61.280  40.840  1.00  0.00     0.167 C 
BRANCH   5   6
HETATM    6  C4  UNL     1      13.883  60.293  39.774  1.00  0.00     0.028 C 
BRANCH   6   7
HETATM    7  C3  UNL     1      12.540  59.673  40.022  1.00  0.00     0.022 C 
BRANCH   7   8
HETATM    8  C2  UNL     1      12.699  58.731  41.213  1.00  0.00     0.122 C 
BRANCH   8   9
HETATM    9  N5  UNL     1      11.517  58.761  42.048  1.00  0.00    -0.363 N 
HETATM   10  C1  UNL     1      11.655  59.155  43.395  1.00  0.00     0.204 C 
HETATM   11  N3  UNL     1      11.556  60.387  43.718  1.00  0.00    -0.260 N 
HETATM   12  N4  UNL     1      11.903  58.184  44.386  1.00  0.00    -0.062 NA
ATOM     13  H3  UNL     1      11.664  60.623  44.705  1.00  0.00     0.191 HD
ATOM     14  H5  UNL     1      10.606  58.502  41.672  1.00  0.00     0.162 HD
BRANCH  11  15
HETATM   15  N2  UNL     1      11.316  61.428  42.838  1.00  0.00    -0.247 N 
HETATM   16  N1  UNL     1      11.762  62.600  43.042  1.00  0.00    -0.331 N 
ATOM     17  H12 UNL     1      12.313  62.761  43.885  1.00  0.00     0.178 HD
ATOM     18  H11 UNL     1      11.585  63.366  42.394  1.00  0.00     0.178 HD
ATOM     19  H2  UNL     1      10.762  61.249  42.000  1.00  0.00     0.207 HD
ENDBRANCH  11  15
ENDBRANCH   8   9
ENDBRANCH   7   8
ENDBRANCH   6   7
ENDBRANCH   5   6
ENDBRANCH   4   5
ENDBRANCH   3   4
ENDBRANCH   2   3
ENDBRANCH   1   2
BRANCH   1  20
HETATM   20  N6  UNL     1      15.437  64.551  36.910  1.00  0.00    -0.361 N 
HETATM   21  C9  UNL     1      14.522  64.653  35.809  1.00  0.00     0.222 C 
HETATM   22  O2  UNL     1      13.549  63.869  35.820  1.00  0.00    -0.273 OA
ATOM     23  H6  UNL     1      16.254  65.159  36.966  1.00  0.00     0.162 HD
BRANCH  21  24
HETATM   24  C10 UNL     1      14.824  65.656  34.800  1.00  0.00     0.090 C 
HETATM   25  C11 UNL     1      16.205  65.267  34.217  1.00  0.00     0.047 C 
HETATM   26  C12 UNL     1      16.617  66.610  33.599  1.00  0.00     0.185 C 
HETATM   27  C13 UNL     1      16.281  67.524  34.750  1.00  0.00     0.044 C 
HETATM   28  C14 UNL     1      14.899  67.067  35.148  1.00  0.00     0.053 C 
BRANCH  26  29
HETATM   29  N7  UNL     1      18.010  66.631  33.243  1.00  0.00    -0.075 N 
ATOM     30  H73 UNL     1      18.501  67.396  33.708  1.00  0.00     0.274 HD
ATOM     31  H72 UNL     1      18.511  65.845  33.658  1.00  0.00     0.274 HD
ATOM     32  H71 UNL     1      18.143  66.664  32.233  1.00  0.00     0.274 HD
ENDBRANCH  26  29
BRANCH  28  33
HETATM   33  C15 UNL     1      14.576  67.474  36.571  1.00  0.00     0.164 C 
BRANCH  33  34
HETATM   34  N8  UNL     1      13.932  68.672  36.579  1.00  0.00    -0.393 NA
HETATM   35  C16 UNL     1      13.328  69.676  36.541  1.00  0.00     0.274 C 
HETATM   36  N9  UNL     1      13.742  70.860  37.259  1.00  0.00    -0.052 NA
HETATM   37  N10 UNL     1      12.111  69.848  35.784  1.00  0.00    -0.052 NA
ENDBRANCH  33  34
ENDBRANCH  28  33
ENDBRANCH  21  24
ENDBRANCH   1  20
TORSDOF 14
ENDMDL
