MODEL 1
REMARK VINA RESULT: -6.776605749      0.000      0.000
REMARK  8 active torsions:
REMARK  status: ('A' for Active; 'I' for Inactive)
REMARK    1  A    between atoms: C2_2  and  N1_5 
REMARK    2  A    between atoms: N1_5  and  C4_7 
REMARK    3  A    between atoms: C8_12  and  O1_13 
REMARK    4  A    between atoms: N2_15  and  C9_16 
REMARK    5  A    between atoms: C9_16  and  C10_17 
REMARK    6  A    between atoms: C10_17  and  C11_18 
REMARK    7  A    between atoms: C11_18  and  O2_19 
REMARK    8  A    between atoms: C12_21  and  O3_22 
ROOT
HETATM    1  C4  UNL     1      -2.900 -16.564   0.181  1.00  0.00     0.082 C 
HETATM    2  S1  UNL     1      -3.158 -15.974   1.871  1.00  0.00    -0.107 SA
HETATM    3  C5  UNL     1      -4.877 -16.581   1.992  1.00  0.00     0.125 C 
HETATM    4  C6  UNL     1      -4.932 -17.564   0.898  1.00  0.00     0.020 A 
HETATM    5  C7  UNL     1      -3.945 -17.550   0.001  1.00  0.00     0.059 A 
HETATM    6  C8  UNL     1      -4.211 -18.564  -0.934  1.00  0.00     0.158 A 
HETATM    7  N2  UNL     1      -5.355 -19.188  -0.602  1.00  0.00    -0.307 N 
HETATM    8  C12 UNL     1      -5.810 -18.591   0.514  1.00  0.00     0.152 A 
ENDROOT
BRANCH   1   9
HETATM    9  N1  UNL     1      -1.983 -16.138  -0.575  1.00  0.00    -0.362 N 
ATOM     10  H1  UNL     1      -1.049 -16.513  -0.410  1.00  0.00     0.162 HD
BRANCH   9  11
HETATM   11  C2  UNL     1      -2.107 -15.197  -1.626  1.00  0.00     0.101 C 
HETATM   12  C1  UNL     1      -2.864 -13.948  -1.170  1.00  0.00     0.056 C 
HETATM   13  C3  UNL     1      -2.724 -15.691  -2.885  1.00  0.00     0.056 C 
HETATM   14 CL1  UNL     1      -0.452 -14.626  -2.035  1.00  0.00    -0.096 Cl
ENDBRANCH   9  11
ENDBRANCH   1   9
BRANCH   6  15
HETATM   15  O1  UNL     1      -3.468 -18.930  -2.046  1.00  0.00    -0.345 OA
ATOM     16  H1  UNL     1      -3.744 -19.431  -2.804  1.00  0.00     0.219 HD
ENDBRANCH   6  15
BRANCH   8  17
HETATM   17  O3  UNL     1      -6.969 -18.946   1.175  1.00  0.00    -0.345 OA
ATOM     18  H3  UNL     1      -7.017 -19.304   2.053  1.00  0.00     0.219 HD
ENDBRANCH   8  17
BRANCH   7  19
HETATM   19  C9  UNL     1      -5.991 -20.292  -1.297  1.00  0.00     0.135 C 
BRANCH  19  20
HETATM   20  C10 UNL     1      -6.806 -19.821  -2.477  1.00  0.00     0.046 C 
BRANCH  20  21
HETATM   21  C11 UNL     1      -6.389 -20.656  -3.672  1.00  0.00     0.165 C 
BRANCH  21  22
HETATM   22  O2  UNL     1      -5.136 -20.290  -4.145  1.00  0.00    -0.401 OA
ATOM     23  H2  UNL     1      -4.888 -20.792  -4.913  1.00  0.00     0.209 HD
ENDBRANCH  21  22
ENDBRANCH  20  21
ENDBRANCH  19  20
ENDBRANCH   7  19
TORSDOF 8
ENDMDL
MODEL 2
REMARK VINA RESULT: -6.496059386      2.432      3.848
REMARK  8 active torsions:
REMARK  status: ('A' for Active; 'I' for Inactive)
REMARK    1  A    between atoms: C2_2  and  N1_5 
REMARK    2  A    between atoms: N1_5  and  C4_7 
REMARK    3  A    between atoms: C8_12  and  O1_13 
REMARK    4  A    between atoms: N2_15  and  C9_16 
REMARK    5  A    between atoms: C9_16  and  C10_17 
REMARK    6  A    between atoms: C10_17  and  C11_18 
REMARK    7  A    between atoms: C11_18  and  O2_19 
REMARK    8  A    between atoms: C12_21  and  O3_22 
ROOT
HETATM    1  C4  UNL     1      -3.759 -17.200  -0.833  1.00  0.00     0.082 C 
HETATM    2  S1  UNL     1      -3.901 -15.439  -1.223  1.00  0.00    -0.107 SA
HETATM    3  C5  UNL     1      -4.277 -15.699  -2.993  1.00  0.00     0.125 C 
HETATM    4  C6  UNL     1      -4.697 -17.109  -3.013  1.00  0.00     0.020 A 
HETATM    5  C7  UNL     1      -4.436 -17.849  -1.935  1.00  0.00     0.059 A 
HETATM    6  C8  UNL     1      -4.923 -19.143  -2.185  1.00  0.00     0.158 A 
HETATM    7  N2  UNL     1      -5.476 -19.183  -3.410  1.00  0.00    -0.307 N 
HETATM    8  C12 UNL     1      -5.347 -17.950  -3.931  1.00  0.00     0.152 A 
ENDROOT
BRANCH   1   9
HETATM    9  N1  UNL     1      -3.177 -17.641   0.197  1.00  0.00    -0.362 N 
ATOM     10  H1  UNL     1      -2.245 -18.031   0.058  1.00  0.00     0.162 HD
BRANCH   9  11
HETATM   11  C2  UNL     1      -3.675 -17.655   1.523  1.00  0.00     0.101 C 
HETATM   12  C1  UNL     1      -3.170 -18.878   2.293  1.00  0.00     0.056 C 
HETATM   13  C3  UNL     1      -5.152 -17.577   1.674  1.00  0.00     0.056 C 
HETATM   14 CL1  UNL     1      -2.977 -16.235   2.375  1.00  0.00    -0.096 Cl
ENDBRANCH   9  11
ENDBRANCH   1   9
BRANCH   6  15
HETATM   15  O1  UNL     1      -4.883 -20.256  -1.359  1.00  0.00    -0.345 OA
ATOM     16  H1  UNL     1      -5.125 -20.322  -0.443  1.00  0.00     0.219 HD
ENDBRANCH   6  15
BRANCH   8  17
HETATM   17  O3  UNL     1      -5.793 -17.578  -5.185  1.00  0.00    -0.345 OA
ATOM     18  H3  UNL     1      -5.514 -17.963  -6.007  1.00  0.00     0.219 HD
ENDBRANCH   8  17
BRANCH   7  19
HETATM   19  C9  UNL     1      -6.096 -20.321  -4.062  1.00  0.00     0.135 C 
BRANCH  19  20
HETATM   20  C10 UNL     1      -7.602 -20.217  -4.069  1.00  0.00     0.046 C 
BRANCH  20  21
HETATM   21  C11 UNL     1      -8.059 -20.428  -5.499  1.00  0.00     0.165 C 
BRANCH  21  22
HETATM   22  O2  UNL     1      -7.195 -19.834  -6.410  1.00  0.00    -0.401 OA
ATOM     23  H2  UNL     1      -7.620 -19.136  -6.895  1.00  0.00     0.209 HD
ENDBRANCH  21  22
ENDBRANCH  20  21
ENDBRANCH  19  20
ENDBRANCH   7  19
TORSDOF 8
ENDMDL
MODEL 3
REMARK VINA RESULT: -6.491664256      2.652      3.880
REMARK  8 active torsions:
REMARK  status: ('A' for Active; 'I' for Inactive)
REMARK    1  A    between atoms: C2_2  and  N1_5 
REMARK    2  A    between atoms: N1_5  and  C4_7 
REMARK    3  A    between atoms: C8_12  and  O1_13 
REMARK    4  A    between atoms: N2_15  and  C9_16 
REMARK    5  A    between atoms: C9_16  and  C10_17 
REMARK    6  A    between atoms: C10_17  and  C11_18 
REMARK    7  A    between atoms: C11_18  and  O2_19 
REMARK    8  A    between atoms: C12_21  and  O3_22 
ROOT
HETATM    1  C4  UNL     1      -3.666 -17.151  -0.892  1.00  0.00     0.082 C 
HETATM    2  S1  UNL     1      -3.877 -15.389  -1.243  1.00  0.00    -0.107 SA
HETATM    3  C5  UNL     1      -4.325 -15.630  -2.999  1.00  0.00     0.125 C 
HETATM    4  C6  UNL     1      -4.704 -17.051  -3.026  1.00  0.00     0.020 A 
HETATM    5  C7  UNL     1      -4.373 -17.802  -1.975  1.00  0.00     0.059 A 
HETATM    6  C8  UNL     1      -4.834 -19.105  -2.226  1.00  0.00     0.158 A 
HETATM    7  N2  UNL     1      -5.441 -19.140  -3.426  1.00  0.00    -0.307 N 
HETATM    8  C12 UNL     1      -5.371 -17.895  -3.930  1.00  0.00     0.152 A 
ENDROOT
BRANCH   1   9
HETATM    9  N1  UNL     1      -3.026 -17.593   0.102  1.00  0.00    -0.362 N 
ATOM     10  H1  UNL     1      -2.041 -17.806  -0.052  1.00  0.00     0.162 HD
BRANCH   9  11
HETATM   11  C2  UNL     1      -3.523 -17.824   1.408  1.00  0.00     0.101 C 
HETATM   12  C1  UNL     1      -3.118 -16.700   2.365  1.00  0.00     0.056 C 
HETATM   13  C3  UNL     1      -3.166 -19.127   2.029  1.00  0.00     0.056 C 
HETATM   14 CL1  UNL     1      -5.318 -17.751   1.322  1.00  0.00    -0.096 Cl
ENDBRANCH   9  11
ENDBRANCH   1   9
BRANCH   6  15
HETATM   15  O1  UNL     1      -4.724 -20.230  -1.423  1.00  0.00    -0.345 OA
ATOM     16  H1  UNL     1      -4.126 -20.387  -0.702  1.00  0.00     0.219 HD
ENDBRANCH   6  15
BRANCH   8  17
HETATM   17  O3  UNL     1      -5.884 -17.516  -5.155  1.00  0.00    -0.345 OA
ATOM     18  H3  UNL     1      -6.581 -17.959  -5.623  1.00  0.00     0.219 HD
ENDBRANCH   8  17
BRANCH   7  19
HETATM   19  C9  UNL     1      -6.056 -20.285  -4.070  1.00  0.00     0.135 C 
BRANCH  19  20
HETATM   20  C10 UNL     1      -7.562 -20.177  -4.097  1.00  0.00     0.046 C 
BRANCH  20  21
HETATM   21  C11 UNL     1      -8.005 -20.445  -5.522  1.00  0.00     0.165 C 
BRANCH  21  22
HETATM   22  O2  UNL     1      -7.198 -19.792  -6.445  1.00  0.00    -0.401 OA
ATOM     23  H2  UNL     1      -7.520 -18.919  -6.638  1.00  0.00     0.209 HD
ENDBRANCH  21  22
ENDBRANCH  20  21
ENDBRANCH  19  20
ENDBRANCH   7  19
TORSDOF 8
ENDMDL
MODEL 4
REMARK VINA RESULT: -6.408782778      3.091      4.699
REMARK  8 active torsions:
REMARK  status: ('A' for Active; 'I' for Inactive)
REMARK    1  A    between atoms: C2_2  and  N1_5 
REMARK    2  A    between atoms: N1_5  and  C4_7 
REMARK    3  A    between atoms: C8_12  and  O1_13 
REMARK    4  A    between atoms: N2_15  and  C9_16 
REMARK    5  A    between atoms: C9_16  and  C10_17 
REMARK    6  A    between atoms: C10_17  and  C11_18 
REMARK    7  A    between atoms: C11_18  and  O2_19 
REMARK    8  A    between atoms: C12_21  and  O3_22 
ROOT
HETATM    1  C4  UNL     1      -1.992 -15.797  -1.709  1.00  0.00     0.082 C 
HETATM    2  S1  UNL     1      -2.033 -16.608  -3.326  1.00  0.00    -0.107 SA
HETATM    3  C5  UNL     1      -2.016 -18.307  -2.652  1.00  0.00     0.125 C 
HETATM    4  C6  UNL     1      -2.432 -18.087  -1.258  1.00  0.00     0.020 A 
HETATM    5  C7  UNL     1      -2.417 -16.837  -0.795  1.00  0.00     0.059 A 
HETATM    6  C8  UNL     1      -2.848 -16.876   0.541  1.00  0.00     0.158 A 
HETATM    7  N2  UNL     1      -3.121 -18.148   0.884  1.00  0.00    -0.307 N 
HETATM    8  C12 UNL     1      -2.872 -18.902  -0.201  1.00  0.00     0.152 A 
ENDROOT
BRANCH   1   9
HETATM    9  N1  UNL     1      -1.652 -14.593  -1.541  1.00  0.00    -0.362 N 
ATOM     10  H1  UNL     1      -0.698 -14.433  -1.217  1.00  0.00     0.162 HD
BRANCH   9  11
HETATM   11  C2  UNL     1      -2.447 -13.441  -1.752  1.00  0.00     0.101 C 
HETATM   12  C1  UNL     1      -1.585 -12.228  -2.113  1.00  0.00     0.056 C 
HETATM   13  C3  UNL     1      -3.362 -13.057  -0.644  1.00  0.00     0.056 C 
HETATM   14 CL1  UNL     1      -3.467 -13.747  -3.201  1.00  0.00    -0.096 Cl
ENDBRANCH   9  11
ENDBRANCH   1   9
BRANCH   6  15
HETATM   15  O1  UNL     1      -2.997 -15.825   1.432  1.00  0.00    -0.345 OA
ATOM     16  H1  UNL     1      -2.952 -14.892   1.260  1.00  0.00     0.219 HD
ENDBRANCH   6  15
BRANCH   8  17
HETATM   17  O3  UNL     1      -3.032 -20.273  -0.257  1.00  0.00    -0.345 OA
ATOM     18  H3  UNL     1      -2.844 -20.879   0.450  1.00  0.00     0.219 HD
ENDBRANCH   8  17
BRANCH   7  19
HETATM   19  C9  UNL     1      -3.592 -18.634   2.167  1.00  0.00     0.135 C 
BRANCH  19  20
HETATM   20  C10 UNL     1      -2.568 -19.506   2.852  1.00  0.00     0.046 C 
BRANCH  20  21
HETATM   21  C11 UNL     1      -2.500 -19.064   4.301  1.00  0.00     0.165 C 
BRANCH  21  22
HETATM   22  O2  UNL     1      -3.368 -19.793   5.104  1.00  0.00    -0.401 OA
ATOM     23  H2  UNL     1      -3.024 -19.906   5.982  1.00  0.00     0.209 HD
ENDBRANCH  21  22
ENDBRANCH  20  21
ENDBRANCH  19  20
ENDBRANCH   7  19
TORSDOF 8
ENDMDL
MODEL 5
REMARK VINA RESULT: -6.404322882      3.518      5.556
REMARK  8 active torsions:
REMARK  status: ('A' for Active; 'I' for Inactive)
REMARK    1  A    between atoms: C2_2  and  N1_5 
REMARK    2  A    between atoms: N1_5  and  C4_7 
REMARK    3  A    between atoms: C8_12  and  O1_13 
REMARK    4  A    between atoms: N2_15  and  C9_16 
REMARK    5  A    between atoms: C9_16  and  C10_17 
REMARK    6  A    between atoms: C10_17  and  C11_18 
REMARK    7  A    between atoms: C11_18  and  O2_19 
REMARK    8  A    between atoms: C12_21  and  O3_22 
ROOT
HETATM    1  C4  UNL     1      -3.874 -18.332  -2.185  1.00  0.00     0.082 C 
HETATM    2  S1  UNL     1      -2.815 -17.121  -3.014  1.00  0.00    -0.107 SA
HETATM    3  C5  UNL     1      -2.663 -16.023  -1.561  1.00  0.00     0.125 C 
HETATM    4  C6  UNL     1      -3.065 -16.914  -0.461  1.00  0.00     0.020 A 
HETATM    5  C7  UNL     1      -3.667 -18.060  -0.779  1.00  0.00     0.059 A 
HETATM    6  C8  UNL     1      -3.953 -18.733   0.421  1.00  0.00     0.158 A 
HETATM    7  N2  UNL     1      -3.525 -17.993   1.460  1.00  0.00    -0.307 N 
HETATM    8  C12 UNL     1      -2.981 -16.879   0.941  1.00  0.00     0.152 A 
ENDROOT
BRANCH   1   9
HETATM    9  N1  UNL     1      -4.587 -19.173  -2.801  1.00  0.00    -0.362 N 
ATOM     10  H1  UNL     1      -4.103 -19.991  -3.172  1.00  0.00     0.162 HD
BRANCH   9  11
HETATM   11  C2  UNL     1      -5.982 -19.107  -3.034  1.00  0.00     0.101 C 
HETATM   12  C1  UNL     1      -6.334 -19.582  -4.446  1.00  0.00     0.056 C 
HETATM   13  C3  UNL     1      -6.629 -17.788  -2.804  1.00  0.00     0.056 C 
HETATM   14 CL1  UNL     1      -6.769 -20.285  -1.927  1.00  0.00    -0.096 Cl
ENDBRANCH   9  11
ENDBRANCH   1   9
BRANCH   6  15
HETATM   15  O1  UNL     1      -4.572 -19.961   0.596  1.00  0.00    -0.345 OA
ATOM     16  H1  UNL     1      -5.383 -20.276   0.213  1.00  0.00     0.219 HD
ENDBRANCH   6  15
BRANCH   8  17
HETATM   17  O3  UNL     1      -2.423 -15.859   1.687  1.00  0.00    -0.345 OA
ATOM     18  H3  UNL     1      -2.517 -15.746   2.625  1.00  0.00     0.219 HD
ENDBRANCH   8  17
BRANCH   7  19
HETATM   19  C9  UNL     1      -3.622 -18.316   2.871  1.00  0.00     0.135 C 
BRANCH  19  20
HETATM   20  C10 UNL     1      -2.670 -19.420   3.265  1.00  0.00     0.046 C 
BRANCH  20  21
HETATM   21  C11 UNL     1      -2.291 -19.187   4.715  1.00  0.00     0.165 C 
BRANCH  21  22
HETATM   22  O2  UNL     1      -2.822 -20.161   5.550  1.00  0.00    -0.401 OA
ATOM     23  H2  UNL     1      -2.338 -20.230   6.365  1.00  0.00     0.209 HD
ENDBRANCH  21  22
ENDBRANCH  20  21
ENDBRANCH  19  20
ENDBRANCH   7  19
TORSDOF 8
ENDMDL
