MODEL 1
REMARK VINA RESULT: -7.761512745      0.000      0.000
REMARK  7 active torsions:
REMARK  status: ('A' for Active; 'I' for Inactive)
REMARK    1  A    between atoms: C2_2  and  C5_5 
REMARK    2  A    between atoms: C5_5  and  N1_6 
REMARK       I    between atoms: N1_6  and  C6_8 
REMARK    3  A    between atoms: C6_8  and  C7_10 
REMARK    4  A    between atoms: C8_11  and  O2_12 
REMARK    5  A    between atoms: N2_15  and  S1_16 
REMARK    6  A    between atoms: S1_16  and  C10_17 
REMARK    7  A    between atoms: C13_23  and  O3_24 
ROOT
HETATM    1  C7  UNL     1      -5.475 -18.089  -3.384  1.00  0.00     0.120 A 
HETATM    2  C8  UNL     1      -5.016 -18.890  -2.339  1.00  0.00     0.131 A 
HETATM    3  C9  UNL     1      -4.544 -18.022  -1.327  1.00  0.00     0.161 A 
HETATM    4  N2  UNL     1      -3.993 -17.973  -0.109  1.00  0.00    -0.273 N 
HETATM    5  C11 UNL     1      -3.817 -16.692   0.234  1.00  0.00     0.124 A 
HETATM    6  C12 UNL     1      -4.271 -15.917  -0.797  1.00  0.00     0.119 A 
HETATM    7  N3  UNL     1      -4.710 -16.765  -1.738  1.00  0.00    -0.283 N 
HETATM    8  C13 UNL     1      -5.276 -16.801  -2.990  1.00  0.00     0.167 A 
ENDROOT
BRANCH   1   9
HETATM    9  C6  UNL     1      -6.049 -18.609  -4.626  1.00  0.00     0.258 C 
HETATM   10  N1  UNL     1      -6.613 -17.824  -5.649  1.00  0.00    -0.356 N 
ATOM     11  H1  UNL     1      -6.613 -16.820  -5.471  1.00  0.00     0.162 HD
HETATM   12  O1  UNL     1      -6.055 -19.868  -4.836  1.00  0.00    -0.267 OA
BRANCH  10  13
HETATM   13  C5  UNL     1      -7.180 -18.208  -6.882  1.00  0.00     0.131 C 
BRANCH  13  14
HETATM   14  C2  UNL     1      -8.597 -18.585  -6.986  1.00  0.00    -0.035 C 
HETATM   15  C1  UNL     1      -8.805 -20.098  -7.057  1.00  0.00     0.016 C 
HETATM   16  C3  UNL     1      -9.621 -17.929  -6.150  1.00  0.00     0.016 C 
HETATM   17  C4  UNL     1      -8.992 -18.149  -8.457  1.00  0.00     0.016 C 
ENDBRANCH  13  14
ENDBRANCH  10  13
ENDBRANCH   1   9
BRANCH   2  18
HETATM   18  O2  UNL     1      -4.975 -20.236  -2.201  1.00  0.00    -0.356 OA
ATOM     19  H2  UNL     1      -4.389 -20.884  -2.574  1.00  0.00     0.218 HD
ENDBRANCH   2  18
BRANCH   8  20
HETATM   20  O3  UNL     1      -5.584 -15.656  -3.714  1.00  0.00    -0.345 OA
ATOM     21  H3  UNL     1      -5.786 -14.799  -3.359  1.00  0.00     0.219 HD
ENDBRANCH   8  20
BRANCH   4  22
HETATM   22  S1  UNL     1      -3.580 -19.404   0.859  1.00  0.00     0.024 SA
BRANCH  22  23
HETATM   23  C10 UNL     1      -2.995 -18.861   2.477  1.00  0.00     0.436 C 
HETATM   24  F1  UNL     1      -4.020 -18.367   3.237  1.00  0.00    -0.201 F 
HETATM   25  F2  UNL     1      -2.442 -19.923   3.197  1.00  0.00    -0.201 F 
ENDBRANCH  22  23
ENDBRANCH   4  22
TORSDOF 7
ENDMDL
MODEL 2
REMARK VINA RESULT: -7.523921064      2.888      3.600
REMARK  7 active torsions:
REMARK  status: ('A' for Active; 'I' for Inactive)
REMARK    1  A    between atoms: C2_2  and  C5_5 
REMARK    2  A    between atoms: C5_5  and  N1_6 
REMARK       I    between atoms: N1_6  and  C6_8 
REMARK    3  A    between atoms: C6_8  and  C7_10 
REMARK    4  A    between atoms: C8_11  and  O2_12 
REMARK    5  A    between atoms: N2_15  and  S1_16 
REMARK    6  A    between atoms: S1_16  and  C10_17 
REMARK    7  A    between atoms: C13_23  and  O3_24 
ROOT
HETATM    1  C7  UNL     1      -4.757 -18.320  -2.936  1.00  0.00     0.120 A 
HETATM    2  C8  UNL     1      -4.135 -17.077  -2.821  1.00  0.00     0.131 A 
HETATM    3  C9  UNL     1      -3.510 -17.042  -1.554  1.00  0.00     0.161 A 
HETATM    4  N2  UNL     1      -2.771 -16.291  -0.728  1.00  0.00    -0.273 N 
HETATM    5  C11 UNL     1      -2.544 -16.980   0.396  1.00  0.00     0.124 A 
HETATM    6  C12 UNL     1      -3.159 -18.196   0.271  1.00  0.00     0.119 A 
HETATM    7  N3  UNL     1      -3.741 -18.200  -0.936  1.00  0.00    -0.283 N 
HETATM    8  C13 UNL     1      -4.500 -18.981  -1.775  1.00  0.00     0.167 A 
ENDROOT
BRANCH   1   9
HETATM    9  C6  UNL     1      -5.514 -18.753  -4.111  1.00  0.00     0.258 C 
HETATM   10  N1  UNL     1      -6.223 -17.899  -4.978  1.00  0.00    -0.356 N 
ATOM     11  H1  UNL     1      -6.190 -16.910  -4.730  1.00  0.00     0.162 HD
HETATM   12  O1  UNL     1      -5.559 -19.993  -4.408  1.00  0.00    -0.267 OA
BRANCH  10  13
HETATM   13  C5  UNL     1      -6.972 -18.196  -6.136  1.00  0.00     0.131 C 
BRANCH  13  14
HETATM   14  C2  UNL     1      -8.408 -18.498  -6.059  1.00  0.00    -0.035 C 
HETATM   15  C1  UNL     1      -9.076 -18.555  -7.434  1.00  0.00     0.016 C 
HETATM   16  C3  UNL     1      -8.916 -19.550  -5.158  1.00  0.00     0.016 C 
HETATM   17  C4  UNL     1      -9.037 -17.172  -5.464  1.00  0.00     0.016 C 
ENDBRANCH  13  14
ENDBRANCH  10  13
ENDBRANCH   1   9
BRANCH   2  18
HETATM   18  O2  UNL     1      -4.071 -16.031  -3.679  1.00  0.00    -0.356 OA
ATOM     19  H2  UNL     1      -4.386 -15.139  -3.600  1.00  0.00     0.218 HD
ENDBRANCH   2  18
BRANCH   8  20
HETATM   20  O3  UNL     1      -4.923 -20.261  -1.439  1.00  0.00    -0.345 OA
ATOM     21  H3  UNL     1      -5.819 -20.542  -1.297  1.00  0.00     0.219 HD
ENDBRANCH   8  20
BRANCH   4  22
HETATM   22  S1  UNL     1      -2.203 -14.651  -1.107  1.00  0.00     0.024 SA
BRANCH  22  23
HETATM   23  C10 UNL     1      -0.859 -14.764  -2.304  1.00  0.00     0.436 C 
HETATM   24  F1  UNL     1       0.257 -14.108  -1.862  1.00  0.00    -0.201 F 
HETATM   25  F2  UNL     1      -0.482 -16.093  -2.518  1.00  0.00    -0.201 F 
ENDBRANCH  22  23
ENDBRANCH   4  22
TORSDOF 7
ENDMDL
MODEL 3
REMARK VINA RESULT: -7.519327113      2.725      3.486
REMARK  7 active torsions:
REMARK  status: ('A' for Active; 'I' for Inactive)
REMARK    1  A    between atoms: C2_2  and  C5_5 
REMARK    2  A    between atoms: C5_5  and  N1_6 
REMARK       I    between atoms: N1_6  and  C6_8 
REMARK    3  A    between atoms: C6_8  and  C7_10 
REMARK    4  A    between atoms: C8_11  and  O2_12 
REMARK    5  A    between atoms: N2_15  and  S1_16 
REMARK    6  A    between atoms: S1_16  and  C10_17 
REMARK    7  A    between atoms: C13_23  and  O3_24 
ROOT
HETATM    1  C7  UNL     1      -6.230 -17.673  -2.898  1.00  0.00     0.120 A 
HETATM    2  C8  UNL     1      -5.090 -16.887  -2.727  1.00  0.00     0.131 A 
HETATM    3  C9  UNL     1      -4.426 -17.364  -1.574  1.00  0.00     0.161 A 
HETATM    4  N2  UNL     1      -3.360 -17.189  -0.784  1.00  0.00    -0.273 N 
HETATM    5  C11 UNL     1      -3.399 -18.094   0.200  1.00  0.00     0.124 A 
HETATM    6  C12 UNL     1      -4.520 -18.858   0.022  1.00  0.00     0.119 A 
HETATM    7  N3  UNL     1      -5.126 -18.383  -1.075  1.00  0.00    -0.283 N 
HETATM    8  C13 UNL     1      -6.225 -18.574  -1.878  1.00  0.00     0.167 A 
ENDROOT
BRANCH   1   9
HETATM    9  C6  UNL     1      -7.189 -17.500  -3.989  1.00  0.00     0.258 C 
HETATM   10  N1  UNL     1      -8.125 -18.465  -4.406  1.00  0.00    -0.356 N 
ATOM     11  H1  UNL     1      -8.095 -19.344  -3.889  1.00  0.00     0.162 HD
HETATM   12  O1  UNL     1      -7.212 -16.400  -4.638  1.00  0.00    -0.267 OA
BRANCH  10  13
HETATM   13  C5  UNL     1      -9.098 -18.409  -5.426  1.00  0.00     0.131 C 
BRANCH  13  14
HETATM   14  C2  UNL     1      -8.815 -18.908  -6.778  1.00  0.00    -0.035 C 
HETATM   15  C1  UNL     1     -10.035 -18.852  -7.699  1.00  0.00     0.016 C 
HETATM   16  C3  UNL     1      -7.577 -18.527  -7.485  1.00  0.00     0.016 C 
HETATM   17  C4  UNL     1      -8.652 -20.470  -6.575  1.00  0.00     0.016 C 
ENDBRANCH  13  14
ENDBRANCH  10  13
ENDBRANCH   1   9
BRANCH   2  18
HETATM   18  O2  UNL     1      -4.608 -15.849  -3.450  1.00  0.00    -0.356 OA
ATOM     19  H2  UNL     1      -3.736 -15.478  -3.505  1.00  0.00     0.218 HD
ENDBRANCH   2  18
BRANCH   8  20
HETATM   20  O3  UNL     1      -7.172 -19.562  -1.641  1.00  0.00    -0.345 OA
ATOM     21  H3  UNL     1      -7.030 -20.500  -1.667  1.00  0.00     0.219 HD
ENDBRANCH   8  20
BRANCH   4  22
HETATM   22  S1  UNL     1      -2.120 -15.944  -1.041  1.00  0.00     0.024 SA
BRANCH  22  23
HETATM   23  C10 UNL     1      -1.226 -16.320  -2.561  1.00  0.00     0.436 C 
HETATM   24  F1  UNL     1      -0.032 -15.654  -2.614  1.00  0.00    -0.201 F 
HETATM   25  F2  UNL     1      -0.926 -17.682  -2.648  1.00  0.00    -0.201 F 
ENDBRANCH  22  23
ENDBRANCH   4  22
TORSDOF 7
ENDMDL
MODEL 4
REMARK VINA RESULT: -7.489224096      3.097      3.940
REMARK  7 active torsions:
REMARK  status: ('A' for Active; 'I' for Inactive)
REMARK    1  A    between atoms: C2_2  and  C5_5 
REMARK    2  A    between atoms: C5_5  and  N1_6 
REMARK       I    between atoms: N1_6  and  C6_8 
REMARK    3  A    between atoms: C6_8  and  C7_10 
REMARK    4  A    between atoms: C8_11  and  O2_12 
REMARK    5  A    between atoms: N2_15  and  S1_16 
REMARK    6  A    between atoms: S1_16  and  C10_17 
REMARK    7  A    between atoms: C13_23  and  O3_24 
ROOT
HETATM    1  C7  UNL     1      -4.649 -17.924  -2.882  1.00  0.00     0.120 A 
HETATM    2  C8  UNL     1      -4.310 -16.575  -2.774  1.00  0.00     0.131 A 
HETATM    3  C9  UNL     1      -3.577 -16.427  -1.574  1.00  0.00     0.161 A 
HETATM    4  N2  UNL     1      -2.940 -15.546  -0.793  1.00  0.00    -0.273 N 
HETATM    5  C11 UNL     1      -2.448 -16.190   0.271  1.00  0.00     0.124 A 
HETATM    6  C12 UNL     1      -2.787 -17.511   0.154  1.00  0.00     0.119 A 
HETATM    7  N3  UNL     1      -3.478 -17.620  -0.989  1.00  0.00    -0.283 N 
HETATM    8  C13 UNL     1      -4.129 -18.535  -1.782  1.00  0.00     0.167 A 
ENDROOT
BRANCH   1   9
HETATM    9  C6  UNL     1      -5.411 -18.492  -3.995  1.00  0.00     0.258 C 
HETATM   10  N1  UNL     1      -6.197 -17.752  -4.899  1.00  0.00    -0.356 N 
ATOM     11  H1  UNL     1      -6.219 -16.747  -4.728  1.00  0.00     0.162 HD
HETATM   12  O1  UNL     1      -5.387 -19.752  -4.195  1.00  0.00    -0.267 OA
BRANCH  10  13
HETATM   13  C5  UNL     1      -6.959 -18.183  -6.005  1.00  0.00     0.131 C 
BRANCH  13  14
HETATM   14  C2  UNL     1      -8.427 -18.140  -5.983  1.00  0.00    -0.035 C 
HETATM   15  C1  UNL     1      -8.975 -16.964  -5.174  1.00  0.00     0.016 C 
HETATM   16  C3  UNL     1      -9.213 -18.374  -7.211  1.00  0.00     0.016 C 
HETATM   17  C4  UNL     1      -8.824 -19.363  -5.058  1.00  0.00     0.016 C 
ENDBRANCH  13  14
ENDBRANCH  10  13
ENDBRANCH   1   9
BRANCH   2  18
HETATM   18  O2  UNL     1      -4.571 -15.524  -3.587  1.00  0.00    -0.356 OA
ATOM     19  H2  UNL     1      -4.611 -14.592  -3.409  1.00  0.00     0.218 HD
ENDBRANCH   2  18
BRANCH   8  20
HETATM   20  O3  UNL     1      -4.219 -19.883  -1.463  1.00  0.00    -0.345 OA
ATOM     21  H3  UNL     1      -3.681 -20.584  -1.810  1.00  0.00     0.219 HD
ENDBRANCH   8  20
BRANCH   4  22
HETATM   22  S1  UNL     1      -2.795 -13.813  -1.153  1.00  0.00     0.024 SA
BRANCH  22  23
HETATM   23  C10 UNL     1      -1.391 -13.565  -2.258  1.00  0.00     0.436 C 
HETATM   24  F1  UNL     1      -0.888 -12.298  -2.146  1.00  0.00    -0.201 F 
HETATM   25  F2  UNL     1      -0.344 -14.438  -1.949  1.00  0.00    -0.201 F 
ENDBRANCH  22  23
ENDBRANCH   4  22
TORSDOF 7
ENDMDL
MODEL 5
REMARK VINA RESULT: -7.480782730      1.888      2.706
REMARK  7 active torsions:
REMARK  status: ('A' for Active; 'I' for Inactive)
REMARK    1  A    between atoms: C2_2  and  C5_5 
REMARK    2  A    between atoms: C5_5  and  N1_6 
REMARK       I    between atoms: N1_6  and  C6_8 
REMARK    3  A    between atoms: C6_8  and  C7_10 
REMARK    4  A    between atoms: C8_11  and  O2_12 
REMARK    5  A    between atoms: N2_15  and  S1_16 
REMARK    6  A    between atoms: S1_16  and  C10_17 
REMARK    7  A    between atoms: C13_23  and  O3_24 
ROOT
HETATM    1  C7  UNL     1      -5.892 -18.864  -3.379  1.00  0.00     0.120 A 
HETATM    2  C8  UNL     1      -5.429 -17.647  -2.880  1.00  0.00     0.131 A 
HETATM    3  C9  UNL     1      -5.091 -17.856  -1.523  1.00  0.00     0.161 A 
HETATM    4  N2  UNL     1      -4.618 -17.267  -0.419  1.00  0.00    -0.273 N 
HETATM    5  C11 UNL     1      -4.568 -18.172   0.566  1.00  0.00     0.124 A 
HETATM    6  C12 UNL     1      -5.024 -19.360   0.065  1.00  0.00     0.119 A 
HETATM    7  N3  UNL     1      -5.336 -19.131  -1.219  1.00  0.00    -0.283 N 
HETATM    8  C13 UNL     1      -5.824 -19.748  -2.346  1.00  0.00     0.167 A 
ENDROOT
BRANCH   1   9
HETATM    9  C6  UNL     1      -6.340 -19.069  -4.757  1.00  0.00     0.258 C 
HETATM   10  N1  UNL     1      -6.712 -18.045  -5.649  1.00  0.00    -0.356 N 
ATOM     11  H1  UNL     1      -6.660 -17.101  -5.265  1.00  0.00     0.162 HD
HETATM   12  O1  UNL     1      -6.411 -20.254  -5.225  1.00  0.00    -0.267 OA
BRANCH  10  13
HETATM   13  C5  UNL     1      -7.144 -18.118  -6.989  1.00  0.00     0.131 C 
BRANCH  13  14
HETATM   14  C2  UNL     1      -8.537 -18.444  -7.325  1.00  0.00    -0.035 C 
HETATM   15  C1  UNL     1      -8.712 -19.889  -7.796  1.00  0.00     0.016 C 
HETATM   16  C3  UNL     1      -9.649 -18.014  -6.455  1.00  0.00     0.016 C 
HETATM   17  C4  UNL     1      -8.795 -17.647  -8.669  1.00  0.00     0.016 C 
ENDBRANCH  13  14
ENDBRANCH  10  13
ENDBRANCH   1   9
BRANCH   2  18
HETATM   18  O2  UNL     1      -5.285 -16.439  -3.474  1.00  0.00    -0.356 OA
ATOM     19  H2  UNL     1      -5.930 -15.794  -3.742  1.00  0.00     0.218 HD
ENDBRANCH   2  18
BRANCH   8  20
HETATM   20  O3  UNL     1      -6.184 -21.089  -2.378  1.00  0.00    -0.345 OA
ATOM     21  H3  UNL     1      -6.583 -21.585  -1.673  1.00  0.00     0.219 HD
ENDBRANCH   8  20
BRANCH   4  22
HETATM   22  S1  UNL     1      -4.142 -15.559  -0.323  1.00  0.00     0.024 SA
BRANCH  22  23
HETATM   23  C10 UNL     1      -2.388 -15.466   0.088  1.00  0.00     0.436 C 
HETATM   24  F1  UNL     1      -2.171 -15.748   1.409  1.00  0.00    -0.201 F 
HETATM   25  F2  UNL     1      -1.647 -16.398  -0.645  1.00  0.00    -0.201 F 
ENDBRANCH  22  23
ENDBRANCH   4  22
TORSDOF 7
ENDMDL
