MODEL 1
REMARK VINA RESULT: -8.438588668      0.000      0.000
REMARK  6 active torsions:
REMARK  status: ('A' for Active; 'I' for Inactive)
REMARK    1  A    between atoms: C2_2  and  O1_3 
REMARK    2  A    between atoms: O1_3  and  C3_4 
REMARK    3  A    between atoms: C3_4  and  C4_6 
REMARK    4  A    between atoms: N1_8  and  N2_9 
REMARK    5  A    between atoms: C10_15  and  C11_16 
REMARK    6  A    between atoms: C12_21  and  N4_22 
ROOT
HETATM    1  C4  UNL     1      -6.349 -18.746  -3.188  1.00  0.00     0.142 A 
HETATM    2  C5  UNL     1      -5.361 -18.125  -2.436  1.00  0.00     0.171 A 
HETATM    3  N1  UNL     1      -5.599 -18.394  -1.142  1.00  0.00    -0.096 N 
HETATM    4  C12 UNL     1      -6.698 -19.160  -1.042  1.00  0.00     0.697 A 
HETATM    5  N5  UNL     1      -7.134 -19.360  -2.292  1.00  0.00    -0.183 N 
ATOM      6  H5  UNL     1      -7.959 -19.910  -2.532  1.00  0.00     0.184 HD
ENDROOT
BRANCH   3   7
HETATM    7  N2  UNL     1      -4.840 -17.957  -0.058  1.00  0.00    -0.287 N 
HETATM    8  C6  UNL     1      -3.617 -17.585  -0.148  1.00  0.00     0.015 C 
HETATM    9  C7  UNL     1      -2.701 -17.508  -1.317  1.00  0.00     0.055 C 
HETATM   10  C10 UNL     1      -2.784 -17.114   0.991  1.00  0.00     0.096 C 
HETATM   11  C8  UNL     1      -2.079 -16.139  -1.116  1.00  0.00     0.007 C 
HETATM   12  C9  UNL     1      -2.148 -15.862   0.372  1.00  0.00     0.018 C 
ATOM     13  H2  UNL     1      -5.283 -17.931   0.860  1.00  0.00     0.187 HD
BRANCH  10  14
HETATM   14  C11 UNL     1      -3.548 -16.814   2.191  1.00  0.00     0.100 C 
HETATM   15 CL1  UNL     1      -4.364 -15.281   2.365  1.00  0.00    -0.068 Cl
HETATM   16  N3  UNL     1      -3.638 -17.656   3.140  1.00  0.00    -0.291 N 
HETATM   17 CL2  UNL     1      -2.872 -19.205   3.079  1.00  0.00     0.011 Cl
ATOM     18  H3  UNL     1      -4.182 -17.409   3.967  1.00  0.00     0.181 HD
ENDBRANCH  10  14
ENDBRANCH   3   7
BRANCH   4  19
HETATM   19  N4  UNL     1      -7.238 -19.622   0.063  1.00  0.00    -0.233 N 
ATOM     20  H42 UNL     1      -7.465 -19.088   0.902  1.00  0.00     0.174 HD
ATOM     21  H41 UNL     1      -7.513 -20.586   0.252  1.00  0.00     0.174 HD
ENDBRANCH   4  19
BRANCH   1  22
HETATM   22  C3  UNL     1      -6.495 -18.728  -4.652  1.00  0.00     0.312 C 
HETATM   23  O2  UNL     1      -6.415 -19.818  -5.262  1.00  0.00    -0.258 OA
BRANCH  22  24
HETATM   24  O1  UNL     1      -6.713 -17.578  -5.380  1.00  0.00    -0.317 OA
BRANCH  24  25
HETATM   25  C2  UNL     1      -7.964 -16.911  -5.310  1.00  0.00     0.175 C 
HETATM   26  C1  UNL     1      -7.899 -15.725  -4.363  1.00  0.00     0.034 C 
ENDBRANCH  24  25
ENDBRANCH  22  24
ENDBRANCH   1  22
TORSDOF 6
ENDMDL
MODEL 2
REMARK VINA RESULT: -8.396937969      0.939      1.562
REMARK  6 active torsions:
REMARK  status: ('A' for Active; 'I' for Inactive)
REMARK    1  A    between atoms: C2_2  and  O1_3 
REMARK    2  A    between atoms: O1_3  and  C3_4 
REMARK    3  A    between atoms: C3_4  and  C4_6 
REMARK    4  A    between atoms: N1_8  and  N2_9 
REMARK    5  A    between atoms: C10_15  and  C11_16 
REMARK    6  A    between atoms: C12_21  and  N4_22 
ROOT
HETATM    1  C4  UNL     1      -6.247 -18.738  -3.287  1.00  0.00     0.142 A 
HETATM    2  C5  UNL     1      -5.274 -18.141  -2.497  1.00  0.00     0.171 A 
HETATM    3  N1  UNL     1      -5.572 -18.399  -1.213  1.00  0.00    -0.096 N 
HETATM    4  C12 UNL     1      -6.694 -19.135  -1.156  1.00  0.00     0.697 A 
HETATM    5  N5  UNL     1      -7.084 -19.328  -2.422  1.00  0.00    -0.183 N 
ATOM      6  H5  UNL     1      -7.913 -19.856  -2.694  1.00  0.00     0.184 HD
ENDROOT
BRANCH   3   7
HETATM    7  N2  UNL     1      -4.846 -17.978  -0.100  1.00  0.00    -0.287 N 
HETATM    8  C6  UNL     1      -3.622 -17.602  -0.147  1.00  0.00     0.015 C 
HETATM    9  C7  UNL     1      -2.673 -17.502  -1.288  1.00  0.00     0.055 C 
HETATM   10  C10 UNL     1      -2.824 -17.148   1.023  1.00  0.00     0.096 C 
HETATM   11  C8  UNL     1      -2.061 -16.135  -1.045  1.00  0.00     0.007 C 
HETATM   12  C9  UNL     1      -2.175 -15.884   0.444  1.00  0.00     0.018 C 
ATOM     13  H2  UNL     1      -5.316 -17.970   0.805  1.00  0.00     0.187 HD
BRANCH  10  14
HETATM   14  C11 UNL     1      -3.624 -16.870   2.205  1.00  0.00     0.100 C 
HETATM   15 CL1  UNL     1      -4.520 -15.378   2.342  1.00  0.00    -0.068 Cl
HETATM   16  N3  UNL     1      -3.688 -17.703   3.165  1.00  0.00    -0.291 N 
HETATM   17 CL2  UNL     1      -2.844 -19.211   3.140  1.00  0.00     0.011 Cl
ATOM     18  H3  UNL     1      -4.258 -17.472   3.978  1.00  0.00     0.181 HD
ENDBRANCH  10  14
ENDBRANCH   3   7
BRANCH   4  19
HETATM   19  N4  UNL     1      -7.291 -19.578  -0.073  1.00  0.00    -0.233 N 
ATOM     20  H42 UNL     1      -6.928 -20.268   0.586  1.00  0.00     0.174 HD
ATOM     21  H41 UNL     1      -8.207 -19.301   0.277  1.00  0.00     0.174 HD
ENDBRANCH   4  19
BRANCH   1  22
HETATM   22  C3  UNL     1      -6.332 -18.722  -4.755  1.00  0.00     0.312 C 
HETATM   23  O2  UNL     1      -6.126 -17.636  -5.342  1.00  0.00    -0.258 OA
BRANCH  22  24
HETATM   24  O1  UNL     1      -6.627 -19.836  -5.512  1.00  0.00    -0.317 OA
BRANCH  24  25
HETATM   25  C2  UNL     1      -7.796 -19.868  -6.316  1.00  0.00     0.175 C 
HETATM   26  C1  UNL     1      -8.692 -21.034  -5.932  1.00  0.00     0.034 C 
ENDBRANCH  24  25
ENDBRANCH  22  24
ENDBRANCH   1  22
TORSDOF 6
ENDMDL
MODEL 3
REMARK VINA RESULT: -8.353864537      1.213      1.672
REMARK  6 active torsions:
REMARK  status: ('A' for Active; 'I' for Inactive)
REMARK    1  A    between atoms: C2_2  and  O1_3 
REMARK    2  A    between atoms: O1_3  and  C3_4 
REMARK    3  A    between atoms: C3_4  and  C4_6 
REMARK    4  A    between atoms: N1_8  and  N2_9 
REMARK    5  A    between atoms: C10_15  and  C11_16 
REMARK    6  A    between atoms: C12_21  and  N4_22 
ROOT
HETATM    1  C4  UNL     1      -6.096 -18.090  -3.623  1.00  0.00     0.142 A 
HETATM    2  C5  UNL     1      -5.619 -17.396  -2.520  1.00  0.00     0.171 A 
HETATM    3  N1  UNL     1      -5.242 -18.298  -1.598  1.00  0.00    -0.096 N 
HETATM    4  C12 UNL     1      -5.461 -19.535  -2.071  1.00  0.00     0.697 A 
HETATM    5  N5  UNL     1      -5.977 -19.385  -3.297  1.00  0.00    -0.183 N 
ATOM      6  H5  UNL     1      -6.246 -20.158  -3.906  1.00  0.00     0.184 HD
ENDROOT
BRANCH   3   7
HETATM    7  N2  UNL     1      -4.707 -18.015  -0.342  1.00  0.00    -0.287 N 
HETATM    8  C6  UNL     1      -3.540 -17.519  -0.159  1.00  0.00     0.015 C 
HETATM    9  C7  UNL     1      -2.481 -17.126  -1.126  1.00  0.00     0.055 C 
HETATM   10  C10 UNL     1      -2.945 -17.207   1.168  1.00  0.00     0.096 C 
HETATM   11  C8  UNL     1      -2.069 -15.772  -0.581  1.00  0.00     0.007 C 
HETATM   12  C9  UNL     1      -2.387 -15.804   0.901  1.00  0.00     0.018 C 
ATOM     13  H2  UNL     1      -5.279 -18.213   0.479  1.00  0.00     0.187 HD
BRANCH  10  14
HETATM   14  C11 UNL     1      -3.906 -17.224   2.259  1.00  0.00     0.100 C 
HETATM   15 CL1  UNL     1      -5.157 -16.011   2.362  1.00  0.00    -0.068 Cl
HETATM   16  N3  UNL     1      -3.858 -18.119   3.163  1.00  0.00    -0.291 N 
HETATM   17 CL2  UNL     1      -2.664 -19.370   3.165  1.00  0.00     0.011 Cl
ATOM     18  H3  UNL     1      -4.548 -18.097   3.914  1.00  0.00     0.181 HD
ENDBRANCH  10  14
ENDBRANCH   3   7
BRANCH   4  19
HETATM   19  N4  UNL     1      -5.217 -20.669  -1.453  1.00  0.00    -0.233 N 
ATOM     20  H42 UNL     1      -5.757 -21.531  -1.522  1.00  0.00     0.174 HD
ATOM     21  H41 UNL     1      -4.448 -20.862  -0.811  1.00  0.00     0.174 HD
ENDBRANCH   4  19
BRANCH   1  22
HETATM   22  C3  UNL     1      -6.617 -17.520  -4.874  1.00  0.00     0.312 C 
HETATM   23  O2  UNL     1      -7.329 -16.494  -4.799  1.00  0.00    -0.258 OA
BRANCH  22  24
HETATM   24  O1  UNL     1      -6.362 -18.057  -6.119  1.00  0.00    -0.317 OA
BRANCH  24  25
HETATM   25  C2  UNL     1      -7.427 -18.536  -6.925  1.00  0.00     0.175 C 
HETATM   26  C1  UNL     1      -7.930 -19.880  -6.424  1.00  0.00     0.034 C 
ENDBRANCH  24  25
ENDBRANCH  22  24
ENDBRANCH   1  22
TORSDOF 6
ENDMDL
MODEL 4
REMARK VINA RESULT: -8.278725898      1.617      1.758
REMARK  6 active torsions:
REMARK  status: ('A' for Active; 'I' for Inactive)
REMARK    1  A    between atoms: C2_2  and  O1_3 
REMARK    2  A    between atoms: O1_3  and  C3_4 
REMARK    3  A    between atoms: C3_4  and  C4_6 
REMARK    4  A    between atoms: N1_8  and  N2_9 
REMARK    5  A    between atoms: C10_15  and  C11_16 
REMARK    6  A    between atoms: C12_21  and  N4_22 
ROOT
HETATM    1  C4  UNL     1      -5.849 -18.771  -3.946  1.00  0.00     0.142 A 
HETATM    2  C5  UNL     1      -5.342 -17.636  -3.329  1.00  0.00     0.171 A 
HETATM    3  N1  UNL     1      -4.782 -18.014  -2.169  1.00  0.00    -0.096 N 
HETATM    4  C12 UNL     1      -4.914 -19.342  -2.023  1.00  0.00     0.697 A 
HETATM    5  N5  UNL     1      -5.561 -19.779  -3.110  1.00  0.00    -0.183 N 
ATOM      6  H5  UNL     1      -5.806 -20.754  -3.280  1.00  0.00     0.184 HD
ENDROOT
BRANCH   3   7
HETATM    7  N2  UNL     1      -4.158 -17.176  -1.245  1.00  0.00    -0.287 N 
HETATM    8  C6  UNL     1      -2.907 -16.903  -1.261  1.00  0.00     0.015 C 
HETATM    9  C7  UNL     1      -1.820 -17.346  -2.175  1.00  0.00     0.055 C 
HETATM   10  C10 UNL     1      -2.216 -16.012  -0.290  1.00  0.00     0.096 C 
HETATM   11  C8  UNL     1      -1.110 -16.035  -2.449  1.00  0.00     0.007 C 
HETATM   12  C9  UNL     1      -1.379 -15.153  -1.246  1.00  0.00     0.018 C 
ATOM     13  H2  UNL     1      -4.732 -16.755  -0.514  1.00  0.00     0.187 HD
BRANCH  10  14
HETATM   14  C11 UNL     1      -3.122 -15.217   0.522  1.00  0.00     0.100 C 
HETATM   15 CL1  UNL     1      -3.684 -13.661  -0.037  1.00  0.00    -0.068 Cl
HETATM   16  N3  UNL     1      -3.525 -15.632   1.656  1.00  0.00    -0.291 N 
HETATM   17 CL2  UNL     1      -3.034 -17.155   2.311  1.00  0.00     0.011 Cl
ATOM     18  H3  UNL     1      -4.159 -15.045   2.197  1.00  0.00     0.181 HD
ENDBRANCH  10  14
ENDBRANCH   3   7
BRANCH   4  19
HETATM   19  N4  UNL     1      -4.490 -20.070  -1.014  1.00  0.00    -0.233 N 
ATOM     20  H42 UNL     1      -3.824 -20.841  -1.055  1.00  0.00     0.174 HD
ATOM     21  H41 UNL     1      -4.761 -19.974  -0.036  1.00  0.00     0.174 HD
ENDBRANCH   4  19
BRANCH   1  22
HETATM   22  C3  UNL     1      -6.549 -18.843  -5.237  1.00  0.00     0.312 C 
HETATM   23  O2  UNL     1      -6.848 -19.975  -5.679  1.00  0.00    -0.258 OA
BRANCH  22  24
HETATM   24  O1  UNL     1      -6.889 -17.733  -5.981  1.00  0.00    -0.317 OA
BRANCH  24  25
HETATM   25  C2  UNL     1      -8.243 -17.312  -6.062  1.00  0.00     0.175 C 
HETATM   26  C1  UNL     1      -8.647 -16.529  -4.824  1.00  0.00     0.034 C 
ENDBRANCH  24  25
ENDBRANCH  22  24
ENDBRANCH   1  22
TORSDOF 6
ENDMDL
MODEL 5
REMARK VINA RESULT: -8.272315767      1.842      2.133
REMARK  6 active torsions:
REMARK  status: ('A' for Active; 'I' for Inactive)
REMARK    1  A    between atoms: C2_2  and  O1_3 
REMARK    2  A    between atoms: O1_3  and  C3_4 
REMARK    3  A    between atoms: C3_4  and  C4_6 
REMARK    4  A    between atoms: N1_8  and  N2_9 
REMARK    5  A    between atoms: C10_15  and  C11_16 
REMARK    6  A    between atoms: C12_21  and  N4_22 
ROOT
HETATM    1  C4  UNL     1      -5.961 -19.366  -3.386  1.00  0.00     0.142 A 
HETATM    2  C5  UNL     1      -5.528 -18.128  -2.931  1.00  0.00     0.171 A 
HETATM    3  N1  UNL     1      -4.799 -18.331  -1.821  1.00  0.00    -0.096 N 
HETATM    4  C12 UNL     1      -4.752 -19.646  -1.553  1.00  0.00     0.697 A 
HETATM    5  N5  UNL     1      -5.461 -20.252  -2.512  1.00  0.00    -0.183 N 
ATOM      6  H5  UNL     1      -5.604 -21.260  -2.572  1.00  0.00     0.184 HD
ENDROOT
BRANCH   3   7
HETATM    7  N2  UNL     1      -4.181 -17.345  -1.052  1.00  0.00    -0.287 N 
HETATM    8  C6  UNL     1      -2.943 -17.031  -1.157  1.00  0.00     0.015 C 
HETATM    9  C7  UNL     1      -1.871 -17.561  -2.040  1.00  0.00     0.055 C 
HETATM   10  C10 UNL     1      -2.259 -15.984  -0.352  1.00  0.00     0.096 C 
HETATM   11  C8  UNL     1      -1.227 -16.277  -2.528  1.00  0.00     0.007 C 
HETATM   12  C9  UNL     1      -1.492 -15.242  -1.453  1.00  0.00     0.018 C 
ATOM     13  H2  UNL     1      -4.747 -16.845  -0.367  1.00  0.00     0.187 HD
BRANCH  10  14
HETATM   14  C11 UNL     1      -3.170 -15.114   0.374  1.00  0.00     0.100 C 
HETATM   15 CL1  UNL     1      -3.756 -13.638  -0.350  1.00  0.00    -0.068 Cl
HETATM   16  N3  UNL     1      -3.559 -15.405   1.550  1.00  0.00    -0.291 N 
HETATM   17 CL2  UNL     1      -3.044 -16.839   2.368  1.00  0.00     0.011 Cl
ATOM     18  H3  UNL     1      -4.197 -14.769   2.028  1.00  0.00     0.181 HD
ENDBRANCH  10  14
ENDBRANCH   3   7
BRANCH   4  19
HETATM   19  N4  UNL     1      -4.133 -20.223  -0.548  1.00  0.00    -0.233 N 
ATOM     20  H42 UNL     1      -4.297 -20.060   0.446  1.00  0.00     0.174 HD
ATOM     21  H41 UNL     1      -3.394 -20.923  -0.607  1.00  0.00     0.174 HD
ENDBRANCH   4  19
BRANCH   1  22
HETATM   22  C3  UNL     1      -6.788 -19.637  -4.571  1.00  0.00     0.312 C 
HETATM   23  O2  UNL     1      -7.837 -20.301  -4.414  1.00  0.00    -0.258 OA
BRANCH  22  24
HETATM   24  O1  UNL     1      -6.467 -19.200  -5.839  1.00  0.00    -0.317 OA
BRANCH  24  25
HETATM   25  C2  UNL     1      -7.193 -18.136  -6.435  1.00  0.00     0.175 C 
HETATM   26  C1  UNL     1      -7.817 -18.570  -7.751  1.00  0.00     0.034 C 
ENDBRANCH  24  25
ENDBRANCH  22  24
ENDBRANCH   1  22
TORSDOF 6
ENDMDL
