MODEL 1
REMARK VINA RESULT: -7.831310398      0.000      0.000
REMARK  4 active torsions:
REMARK  status: ('A' for Active; 'I' for Inactive)
REMARK    1  A    between atoms: C1_2  and  C2_4 
REMARK    2  A    between atoms: C2_4  and  O3_5 
REMARK    3  A    between atoms: C2_4  and  C3_7 
REMARK    4  A    between atoms: C3_7  and  N1_8 
ROOT
HETATM    1  N1  UNL     1      -7.192 -18.732  -4.224  1.00  0.00    -0.304 N 
HETATM    2  C4  UNL     1      -7.203 -17.396  -4.368  1.00  0.00     0.223 A 
HETATM    3  S1  UNL     1      -8.343 -16.643  -5.260  1.00  0.00    -0.032 SA
HETATM    4  O4  UNL     1      -6.295 -16.617  -3.799  1.00  0.00    -0.280 OA
HETATM    5  C5  UNL     1      -5.347 -17.102  -3.071  1.00  0.00     0.157 A 
HETATM    6  C6  UNL     1      -5.286 -18.480  -2.886  1.00  0.00     0.103 A 
HETATM    7  C7  UNL     1      -6.226 -19.288  -3.475  1.00  0.00     0.135 A 
HETATM    8  S2  UNL     1      -6.092 -20.895  -3.219  1.00  0.00    -0.058 SA
HETATM    9  N2  UNL     1      -4.335 -19.240  -2.127  1.00  0.00    -0.385 N 
ATOM     10  H2  UNL     1      -4.251 -20.239  -2.315  1.00  0.00     0.159 HD
HETATM   11  C8  UNL     1      -3.486 -18.657  -1.102  1.00  0.00     0.120 C 
HETATM   12  C9  UNL     1      -2.529 -17.670  -1.644  1.00  0.00     0.026 C 
HETATM   13  C10 UNL     1      -2.974 -16.615  -2.532  1.00  0.00     0.088 C 
HETATM   14  C11 UNL     1      -4.383 -16.138  -2.479  1.00  0.00     0.294 C 
HETATM   15  F1  UNL     1      -4.775 -15.734  -1.218  1.00  0.00    -0.199 F 
HETATM   16  F2  UNL     1      -4.459 -14.996  -3.275  1.00  0.00    -0.199 F 
ENDROOT
BRANCH   1  17
HETATM   17  C3  UNL     1      -8.174 -19.567  -4.843  1.00  0.00     0.175 C 
BRANCH  17  18
HETATM   18  C2  UNL     1      -7.684 -20.309  -6.065  1.00  0.00     0.237 C 
BRANCH  18  19
HETATM   19  C1  UNL     1      -8.831 -21.075  -6.593  1.00  0.00     0.204 C 
HETATM   20  O1  UNL     1      -9.131 -22.208  -6.163  1.00  0.00    -0.646 OA
HETATM   21  O2  UNL     1      -9.598 -20.522  -7.596  1.00  0.00    -0.646 OA
ENDBRANCH  18  19
BRANCH  18  22
HETATM   22  O3  UNL     1      -7.145 -19.496  -7.037  1.00  0.00    -0.383 OA
ATOM     23  H3  UNL     1      -7.613 -18.671  -7.087  1.00  0.00     0.210 HD
ENDBRANCH  18  22
ENDBRANCH  17  18
ENDBRANCH   1  17
TORSDOF 4
ENDMDL
MODEL 2
REMARK VINA RESULT: -7.621861618      1.206      1.384
REMARK  4 active torsions:
REMARK  status: ('A' for Active; 'I' for Inactive)
REMARK    1  A    between atoms: C1_2  and  C2_4 
REMARK    2  A    between atoms: C2_4  and  O3_5 
REMARK    3  A    between atoms: C2_4  and  C3_7 
REMARK    4  A    between atoms: C3_7  and  N1_8 
ROOT
HETATM    1  N1  UNL     1      -6.922 -18.381  -3.748  1.00  0.00    -0.304 N 
HETATM    2  C4  UNL     1      -6.796 -17.073  -3.462  1.00  0.00     0.223 A 
HETATM    3  S1  UNL     1      -7.707 -15.944  -4.208  1.00  0.00    -0.032 SA
HETATM    4  O4  UNL     1      -5.930 -16.627  -2.564  1.00  0.00    -0.280 OA
HETATM    5  C5  UNL     1      -5.158 -17.428  -1.912  1.00  0.00     0.157 A 
HETATM    6  C6  UNL     1      -5.244 -18.794  -2.166  1.00  0.00     0.103 A 
HETATM    7  C7  UNL     1      -6.140 -19.257  -3.097  1.00  0.00     0.135 A 
HETATM    8  S2  UNL     1      -6.187 -20.870  -3.347  1.00  0.00    -0.058 SA
HETATM    9  N2  UNL     1      -4.498 -19.865  -1.572  1.00  0.00    -0.385 N 
ATOM     10  H2  UNL     1      -4.469 -20.763  -2.054  1.00  0.00     0.159 HD
HETATM   11  C8  UNL     1      -3.781 -19.733  -0.315  1.00  0.00     0.120 C 
HETATM   12  C9  UNL     1      -2.667 -18.764  -0.389  1.00  0.00     0.026 C 
HETATM   13  C10 UNL     1      -2.871 -17.441  -0.947  1.00  0.00     0.088 C 
HETATM   14  C11 UNL     1      -4.224 -16.822  -0.927  1.00  0.00     0.294 C 
HETATM   15  F1  UNL     1      -4.781 -16.768   0.336  1.00  0.00    -0.199 F 
HETATM   16  F2  UNL     1      -4.073 -15.494  -1.323  1.00  0.00    -0.199 F 
ENDROOT
BRANCH   1  17
HETATM   17  C3  UNL     1      -7.857 -18.854  -4.720  1.00  0.00     0.175 C 
BRANCH  17  18
HETATM   18  C2  UNL     1      -7.290 -19.003  -6.113  1.00  0.00     0.237 C 
BRANCH  18  19
HETATM   19  C1  UNL     1      -7.848 -20.250  -6.675  1.00  0.00     0.204 C 
HETATM   20  O1  UNL     1      -8.723 -20.915  -6.084  1.00  0.00    -0.646 OA
HETATM   21  O2  UNL     1      -7.386 -20.696  -7.895  1.00  0.00    -0.646 OA
ENDBRANCH  18  19
BRANCH  18  22
HETATM   22  O3  UNL     1      -7.547 -17.932  -6.940  1.00  0.00    -0.383 OA
ATOM     23  H3  UNL     1      -8.459 -17.919  -7.207  1.00  0.00     0.210 HD
ENDBRANCH  18  22
ENDBRANCH  17  18
ENDBRANCH   1  17
TORSDOF 4
ENDMDL
MODEL 3
REMARK VINA RESULT: -7.535144971      2.552      3.621
REMARK  4 active torsions:
REMARK  status: ('A' for Active; 'I' for Inactive)
REMARK    1  A    between atoms: C1_2  and  C2_4 
REMARK    2  A    between atoms: C2_4  and  O3_5 
REMARK    3  A    between atoms: C2_4  and  C3_7 
REMARK    4  A    between atoms: C3_7  and  N1_8 
ROOT
HETATM    1  N1  UNL     1      -6.224 -17.829  -3.022  1.00  0.00    -0.304 N 
HETATM    2  C4  UNL     1      -5.693 -18.958  -2.522  1.00  0.00     0.223 A 
HETATM    3  S1  UNL     1      -6.430 -20.402  -2.706  1.00  0.00    -0.032 SA
HETATM    4  O4  UNL     1      -4.548 -18.966  -1.856  1.00  0.00    -0.280 OA
HETATM    5  C5  UNL     1      -3.877 -17.884  -1.650  1.00  0.00     0.157 A 
HETATM    6  C6  UNL     1      -4.378 -16.683  -2.145  1.00  0.00     0.103 A 
HETATM    7  C7  UNL     1      -5.564 -16.674  -2.835  1.00  0.00     0.135 A 
HETATM    8  S2  UNL     1      -6.096 -15.232  -3.385  1.00  0.00    -0.058 SA
HETATM    9  N2  UNL     1      -3.816 -15.368  -2.043  1.00  0.00    -0.385 N 
ATOM     10  H2  UNL     1      -4.425 -14.566  -2.200  1.00  0.00     0.159 HD
HETATM   11  C8  UNL     1      -2.420 -15.122  -1.726  1.00  0.00     0.120 C 
HETATM   12  C9  UNL     1      -2.051 -15.576  -0.368  1.00  0.00     0.026 C 
HETATM   13  C10 UNL     1      -2.403 -16.905   0.090  1.00  0.00     0.088 C 
HETATM   14  C11 UNL     1      -2.605 -18.006  -0.891  1.00  0.00     0.294 C 
HETATM   15  F1  UNL     1      -1.526 -18.191  -1.733  1.00  0.00    -0.199 F 
HETATM   16  F2  UNL     1      -2.715 -19.189  -0.163  1.00  0.00    -0.199 F 
ENDROOT
BRANCH   1  17
HETATM   17  C3  UNL     1      -7.461 -17.828  -3.738  1.00  0.00     0.175 C 
BRANCH  17  18
HETATM   18  C2  UNL     1      -7.335 -18.164  -5.206  1.00  0.00     0.237 C 
BRANCH  18  19
HETATM   19  C1  UNL     1      -8.272 -17.283  -5.932  1.00  0.00     0.204 C 
HETATM   20  O1  UNL     1      -8.306 -17.228  -7.178  1.00  0.00    -0.646 OA
HETATM   21  O2  UNL     1      -9.141 -16.494  -5.209  1.00  0.00    -0.646 OA
ENDBRANCH  18  19
BRANCH  18  22
HETATM   22  O3  UNL     1      -6.056 -18.038  -5.703  1.00  0.00    -0.383 OA
ATOM     23  H3  UNL     1      -5.942 -18.564  -6.485  1.00  0.00     0.210 HD
ENDBRANCH  18  22
ENDBRANCH  17  18
ENDBRANCH   1  17
TORSDOF 4
ENDMDL
MODEL 4
REMARK VINA RESULT: -7.457830021      2.774      3.988
REMARK  4 active torsions:
REMARK  status: ('A' for Active; 'I' for Inactive)
REMARK    1  A    between atoms: C1_2  and  C2_4 
REMARK    2  A    between atoms: C2_4  and  O3_5 
REMARK    3  A    between atoms: C2_4  and  C3_7 
REMARK    4  A    between atoms: C3_7  and  N1_8 
ROOT
HETATM    1  N1  UNL     1      -5.119 -18.556  -2.581  1.00  0.00    -0.304 N 
HETATM    2  C4  UNL     1      -5.563 -19.247  -1.518  1.00  0.00     0.223 A 
HETATM    3  S1  UNL     1      -6.595 -20.501  -1.686  1.00  0.00    -0.032 SA
HETATM    4  O4  UNL     1      -5.194 -18.955  -0.280  1.00  0.00    -0.280 OA
HETATM    5  C5  UNL     1      -4.383 -17.985  -0.027  1.00  0.00     0.157 A 
HETATM    6  C6  UNL     1      -3.888 -17.233  -1.089  1.00  0.00     0.103 A 
HETATM    7  C7  UNL     1      -4.270 -17.536  -2.372  1.00  0.00     0.135 A 
HETATM    8  S2  UNL     1      -3.656 -16.612  -3.570  1.00  0.00    -0.058 SA
HETATM    9  N2  UNL     1      -2.983 -16.121  -1.055  1.00  0.00    -0.385 N 
ATOM     10  H2  UNL     1      -2.940 -15.505  -1.867  1.00  0.00     0.159 HD
HETATM   11  C8  UNL     1      -2.125 -15.828   0.080  1.00  0.00     0.120 C 
HETATM   12  C9  UNL     1      -2.886 -15.473   1.297  1.00  0.00     0.026 C 
HETATM   13  C10 UNL     1      -3.987 -16.298   1.750  1.00  0.00     0.088 C 
HETATM   14  C11 UNL     1      -4.034 -17.744   1.398  1.00  0.00     0.294 C 
HETATM   15  F1  UNL     1      -2.895 -18.432   1.767  1.00  0.00    -0.199 F 
HETATM   16  F2  UNL     1      -5.068 -18.313   2.138  1.00  0.00    -0.199 F 
ENDROOT
BRANCH   1  17
HETATM   17  C3  UNL     1      -5.523 -18.876  -3.914  1.00  0.00     0.175 C 
BRANCH  17  18
HETATM   18  C2  UNL     1      -6.596 -17.973  -4.477  1.00  0.00     0.237 C 
BRANCH  18  19
HETATM   19  C1  UNL     1      -6.891 -18.452  -5.843  1.00  0.00     0.204 C 
HETATM   20  O1  UNL     1      -6.999 -17.675  -6.813  1.00  0.00    -0.646 OA
HETATM   21  O2  UNL     1      -7.052 -19.805  -6.055  1.00  0.00    -0.646 OA
ENDBRANCH  18  19
BRANCH  18  22
HETATM   22  O3  UNL     1      -7.742 -17.921  -3.715  1.00  0.00    -0.383 OA
ATOM     23  H3  UNL     1      -7.577 -18.225  -2.831  1.00  0.00     0.210 HD
ENDBRANCH  18  22
ENDBRANCH  17  18
ENDBRANCH   1  17
TORSDOF 4
ENDMDL
MODEL 5
REMARK VINA RESULT: -7.452491059      2.925      4.170
REMARK  4 active torsions:
REMARK  status: ('A' for Active; 'I' for Inactive)
REMARK    1  A    between atoms: C1_2  and  C2_4 
REMARK    2  A    between atoms: C2_4  and  O3_5 
REMARK    3  A    between atoms: C2_4  and  C3_7 
REMARK    4  A    between atoms: C3_7  and  N1_8 
ROOT
HETATM    1  N1  UNL     1      -5.557 -18.375  -3.084  1.00  0.00    -0.304 N 
HETATM    2  C4  UNL     1      -5.475 -19.620  -2.583  1.00  0.00     0.223 A 
HETATM    3  S1  UNL     1      -6.189 -20.886  -3.326  1.00  0.00    -0.032 SA
HETATM    4  O4  UNL     1      -4.818 -19.891  -1.466  1.00  0.00    -0.280 OA
HETATM    5  C5  UNL     1      -4.215 -18.969  -0.795  1.00  0.00     0.157 A 
HETATM    6  C6  UNL     1      -4.264 -17.659  -1.266  1.00  0.00     0.103 A 
HETATM    7  C7  UNL     1      -4.946 -17.378  -2.423  1.00  0.00     0.135 A 
HETATM    8  S2  UNL     1      -4.966 -15.821  -2.916  1.00  0.00    -0.058 SA
HETATM    9  N2  UNL     1      -3.677 -16.480  -0.697  1.00  0.00    -0.385 N 
ATOM     10  H2  UNL     1      -4.032 -15.571  -0.991  1.00  0.00     0.159 HD
HETATM   11  C8  UNL     1      -2.601 -16.518   0.277  1.00  0.00     0.120 C 
HETATM   12  C9  UNL     1      -3.004 -17.146   1.554  1.00  0.00     0.026 C 
HETATM   13  C10 UNL     1      -3.687 -18.424   1.568  1.00  0.00     0.088 C 
HETATM   14  C11 UNL     1      -3.506 -19.382   0.444  1.00  0.00     0.294 C 
HETATM   15  F1  UNL     1      -2.181 -19.686   0.195  1.00  0.00    -0.199 F 
HETATM   16  F2  UNL     1      -4.096 -20.584   0.830  1.00  0.00    -0.199 F 
ENDROOT
BRANCH   1  17
HETATM   17  C3  UNL     1      -6.271 -18.090  -4.289  1.00  0.00     0.175 C 
BRANCH  17  18
HETATM   18  C2  UNL     1      -7.725 -17.734  -4.085  1.00  0.00     0.237 C 
BRANCH  18  19
HETATM   19  C1  UNL     1      -8.024 -16.605  -4.990  1.00  0.00     0.204 C 
HETATM   20  O1  UNL     1      -8.006 -15.418  -4.604  1.00  0.00    -0.646 OA
HETATM   21  O2  UNL     1      -8.333 -16.869  -6.307  1.00  0.00    -0.646 OA
ENDBRANCH  18  19
BRANCH  18  22
HETATM   22  O3  UNL     1      -8.594 -18.780  -4.300  1.00  0.00    -0.383 OA
ATOM     23  H3  UNL     1      -8.434 -19.487  -3.686  1.00  0.00     0.210 HD
ENDBRANCH  18  22
ENDBRANCH  17  18
ENDBRANCH   1  17
TORSDOF 4
ENDMDL
