MODEL 1
REMARK VINA RESULT: -8.777757992      0.000      0.000
REMARK  4 active torsions:
REMARK  status: ('A' for Active; 'I' for Inactive)
REMARK    1  A    between atoms: C7_7  and  N1_8 
REMARK    2  A    between atoms: N1_8  and  N2_10 
REMARK    3  A    between atoms: C8_12  and  C10_15 
REMARK    4  A    between atoms: C12_22  and  C13_23 
ROOT
HETATM    1  N2  UNL     1      -7.315 -19.410  -5.134  1.00  0.00    -0.287 N 
ATOM      2  H2  UNL     1      -6.832 -20.209  -5.545  1.00  0.00     0.188 HD
HETATM    3  C8  UNL     1      -7.788 -18.473  -5.919  1.00  0.00     0.169 C 
HETATM    4  C9  UNL     1      -8.471 -17.337  -5.377  1.00  0.00     0.122 C 
HETATM    5  N3  UNL     1      -9.019 -16.435  -4.924  1.00  0.00    -0.190 NA
ENDROOT
BRANCH   3   6
HETATM    6  C10 UNL     1      -7.632 -18.561  -7.361  1.00  0.00     0.149 C 
HETATM    7  N4  UNL     1      -7.885 -17.548  -8.108  1.00  0.00    -0.385 N 
ATOM      8  H42 UNL     1      -8.198 -16.682  -7.672  1.00  0.00     0.157 HD
ATOM      9  H41 UNL     1      -7.775 -17.610  -9.121  1.00  0.00     0.157 HD
HETATM   10  N5  UNL     1      -7.198 -19.764  -7.966  1.00  0.00    -0.080 NA
ENDBRANCH   3   6
BRANCH   1  11
HETATM   11  N1  UNL     1      -7.456 -19.336  -3.767  1.00  0.00    -0.293 N 
ATOM     12  H1  UNL     1      -8.296 -19.712  -3.327  1.00  0.00     0.187 HD
BRANCH  11  13
HETATM   13  C7  UNL     1      -6.429 -18.734  -2.947  1.00  0.00     0.089 A 
HETATM   14  C6  UNL     1      -6.363 -18.684  -1.583  1.00  0.00     0.047 A 
HETATM   15  C5  UNL     1      -5.304 -18.065  -1.040  1.00  0.00    -0.036 A 
HETATM   16  C4  UNL     1      -4.980 -17.865   0.433  1.00  0.00     0.077 C 
HETATM   17  C11 UNL     1      -4.381 -17.537  -1.910  1.00  0.00     0.029 A 
HETATM   18  C2  UNL     1      -3.526 -18.046   0.646  1.00  0.00     0.059 C 
HETATM   19  C1  UNL     1      -3.292 -19.534   0.956  1.00  0.00     0.046 C 
HETATM   20  C3  UNL     1      -3.105 -17.310   1.925  1.00  0.00     0.046 C 
HETATM   21  O1  UNL     1      -2.691 -17.715  -0.374  1.00  0.00    -0.361 OA
HETATM   22  C12 UNL     1      -3.187 -16.840  -1.315  1.00  0.00     0.270 C 
HETATM   23  S1  UNL     1      -5.017 -17.918  -3.439  1.00  0.00    -0.072 SA
BRANCH  22  24
HETATM   24  C13 UNL     1      -2.155 -16.773  -2.448  1.00  0.00     0.418 C 
HETATM   25  F1  UNL     1      -1.061 -16.095  -1.896  1.00  0.00    -0.168 F 
HETATM   26  F2  UNL     1      -2.602 -16.007  -3.491  1.00  0.00    -0.168 F 
HETATM   27  F3  UNL     1      -1.724 -18.019  -2.818  1.00  0.00    -0.168 F 
ENDBRANCH  22  24
ENDBRANCH  11  13
ENDBRANCH   1  11
TORSDOF 4
ENDMDL
MODEL 2
REMARK VINA RESULT: -8.697053285      1.989      3.109
REMARK  4 active torsions:
REMARK  status: ('A' for Active; 'I' for Inactive)
REMARK    1  A    between atoms: C7_7  and  N1_8 
REMARK    2  A    between atoms: N1_8  and  N2_10 
REMARK    3  A    between atoms: C8_12  and  C10_15 
REMARK    4  A    between atoms: C12_22  and  C13_23 
ROOT
HETATM    1  N2  UNL     1      -6.660 -18.943  -5.103  1.00  0.00    -0.287 N 
ATOM      2  H2  UNL     1      -6.041 -19.629  -5.535  1.00  0.00     0.188 HD
HETATM    3  C8  UNL     1      -7.460 -18.232  -5.861  1.00  0.00     0.169 C 
HETATM    4  C9  UNL     1      -8.341 -17.260  -5.288  1.00  0.00     0.122 C 
HETATM    5  N3  UNL     1      -9.044 -16.487  -4.811  1.00  0.00    -0.190 NA
ENDROOT
BRANCH   3   6
HETATM    6  C10 UNL     1      -7.473 -18.412  -7.302  1.00  0.00     0.149 C 
HETATM    7  N4  UNL     1      -7.769 -17.433  -8.080  1.00  0.00    -0.385 N 
ATOM      8  H42 UNL     1      -7.995 -16.529  -7.667  1.00  0.00     0.157 HD
ATOM      9  H41 UNL     1      -7.778 -17.559  -9.093  1.00  0.00     0.157 HD
HETATM   10  N5  UNL     1      -7.160 -19.667  -7.875  1.00  0.00    -0.080 NA
ENDBRANCH   3   6
BRANCH   1  11
HETATM   11  N1  UNL     1      -6.639 -18.781  -3.736  1.00  0.00    -0.293 N 
ATOM     12  H1  UNL     1      -7.443 -19.074  -3.182  1.00  0.00     0.187 HD
BRANCH  11  13
HETATM   13  C7  UNL     1      -5.491 -18.200  -3.077  1.00  0.00     0.089 A 
HETATM   14  C6  UNL     1      -4.484 -17.463  -3.635  1.00  0.00     0.047 A 
HETATM   15  C5  UNL     1      -3.516 -17.025  -2.817  1.00  0.00    -0.036 A 
HETATM   16  C4  UNL     1      -2.290 -16.195  -3.164  1.00  0.00     0.077 C 
HETATM   17  C11 UNL     1      -3.627 -17.360  -1.488  1.00  0.00     0.029 A 
HETATM   18  C2  UNL     1      -2.050 -15.199  -2.094  1.00  0.00     0.059 C 
HETATM   19  C1  UNL     1      -2.828 -13.928  -2.471  1.00  0.00     0.046 C 
HETATM   20  C3  UNL     1      -0.575 -14.776  -2.116  1.00  0.00     0.046 C 
HETATM   21  O1  UNL     1      -2.417 -15.531  -0.828  1.00  0.00    -0.361 OA
HETATM   22  C12 UNL     1      -2.548 -16.875  -0.558  1.00  0.00     0.270 C 
HETATM   23  S1  UNL     1      -5.064 -18.265  -1.430  1.00  0.00    -0.072 SA
BRANCH  22  24
HETATM   24  C13 UNL     1      -3.148 -16.990   0.849  1.00  0.00     0.418 C 
HETATM   25  F1  UNL     1      -2.319 -16.204   1.658  1.00  0.00    -0.168 F 
HETATM   26  F2  UNL     1      -3.062 -18.269   1.329  1.00  0.00    -0.168 F 
HETATM   27  F3  UNL     1      -4.408 -16.457   0.909  1.00  0.00    -0.168 F 
ENDBRANCH  22  24
ENDBRANCH  11  13
ENDBRANCH   1  11
TORSDOF 4
ENDMDL
MODEL 3
REMARK VINA RESULT: -8.653109038      2.148      2.894
REMARK  4 active torsions:
REMARK  status: ('A' for Active; 'I' for Inactive)
REMARK    1  A    between atoms: C7_7  and  N1_8 
REMARK    2  A    between atoms: N1_8  and  N2_10 
REMARK    3  A    between atoms: C8_12  and  C10_15 
REMARK    4  A    between atoms: C12_22  and  C13_23 
ROOT
HETATM    1  N2  UNL     1      -5.913 -17.741  -4.889  1.00  0.00    -0.287 N 
ATOM      2  H2  UNL     1      -5.125 -18.350  -5.110  1.00  0.00     0.188 HD
HETATM    3  C8  UNL     1      -7.086 -17.988  -5.420  1.00  0.00     0.169 C 
HETATM    4  C9  UNL     1      -8.213 -17.153  -5.131  1.00  0.00     0.122 C 
HETATM    5  N3  UNL     1      -9.106 -16.475  -4.885  1.00  0.00    -0.190 NA
ENDROOT
BRANCH   3   6
HETATM    6  C10 UNL     1      -7.273 -19.114  -6.318  1.00  0.00     0.149 C 
HETATM    7  N4  UNL     1      -7.398 -20.305  -5.855  1.00  0.00    -0.385 N 
ATOM      8  H42 UNL     1      -7.363 -20.446  -4.845  1.00  0.00     0.157 HD
ATOM      9  H41 UNL     1      -7.530 -21.096  -6.486  1.00  0.00     0.157 HD
HETATM   10  N5  UNL     1      -7.321 -18.918  -7.719  1.00  0.00    -0.080 NA
ENDBRANCH   3   6
BRANCH   1  11
HETATM   11  N1  UNL     1      -5.724 -16.676  -4.037  1.00  0.00    -0.293 N 
ATOM     12  H1  UNL     1      -6.094 -15.759  -4.287  1.00  0.00     0.187 HD
BRANCH  11  13
HETATM   13  C7  UNL     1      -5.007 -16.841  -2.792  1.00  0.00     0.089 A 
HETATM   14  C6  UNL     1      -4.768 -15.903  -1.828  1.00  0.00     0.047 A 
HETATM   15  C5  UNL     1      -4.073 -16.292  -0.749  1.00  0.00    -0.036 A 
HETATM   16  C4  UNL     1      -3.668 -15.465   0.462  1.00  0.00     0.077 C 
HETATM   17  C11 UNL     1      -3.665 -17.604  -0.713  1.00  0.00     0.029 A 
HETATM   18  C2  UNL     1      -3.809 -16.286   1.687  1.00  0.00     0.059 C 
HETATM   19  C1  UNL     1      -5.238 -16.076   2.215  1.00  0.00     0.046 C 
HETATM   20  C3  UNL     1      -2.900 -15.717   2.785  1.00  0.00     0.046 C 
HETATM   21  O1  UNL     1      -3.617 -17.626   1.576  1.00  0.00    -0.361 OA
HETATM   22  C12 UNL     1      -2.885 -18.055   0.492  1.00  0.00     0.270 C 
HETATM   23  S1  UNL     1      -4.259 -18.240  -2.173  1.00  0.00    -0.072 SA
BRANCH  22  24
HETATM   24  C13 UNL     1      -2.969 -19.586   0.475  1.00  0.00     0.418 C 
HETATM   25  F1  UNL     1      -2.493 -19.985   1.729  1.00  0.00    -0.168 F 
HETATM   26  F2  UNL     1      -2.120 -20.126  -0.453  1.00  0.00    -0.168 F 
HETATM   27  F3  UNL     1      -4.262 -20.023   0.366  1.00  0.00    -0.168 F 
ENDBRANCH  22  24
ENDBRANCH  11  13
ENDBRANCH   1  11
TORSDOF 4
ENDMDL
MODEL 4
REMARK VINA RESULT: -8.418460578      0.912      1.758
REMARK  4 active torsions:
REMARK  status: ('A' for Active; 'I' for Inactive)
REMARK    1  A    between atoms: C7_7  and  N1_8 
REMARK    2  A    between atoms: N1_8  and  N2_10 
REMARK    3  A    between atoms: C8_12  and  C10_15 
REMARK    4  A    between atoms: C12_22  and  C13_23 
ROOT
HETATM    1  N2  UNL     1      -8.608 -18.766  -4.313  1.00  0.00    -0.287 N 
ATOM      2  H2  UNL     1      -9.210 -18.158  -3.756  1.00  0.00     0.188 HD
HETATM    3  C8  UNL     1      -8.768 -18.811  -5.613  1.00  0.00     0.169 C 
HETATM    4  C9  UNL     1      -7.941 -19.653  -6.425  1.00  0.00     0.122 C 
HETATM    5  N3  UNL     1      -7.266 -20.331  -7.060  1.00  0.00    -0.190 NA
ENDROOT
BRANCH   3   6
HETATM    6  C10 UNL     1      -9.788 -18.009  -6.265  1.00  0.00     0.149 C 
HETATM    7  N4  UNL     1     -10.190 -18.301  -7.450  1.00  0.00    -0.385 N 
ATOM      8  H42 UNL     1      -9.780 -19.105  -7.924  1.00  0.00     0.157 HD
ATOM      9  H41 UNL     1     -10.907 -17.737  -7.908  1.00  0.00     0.157 HD
HETATM   10  N5  UNL     1     -10.357 -16.893  -5.608  1.00  0.00    -0.080 NA
ENDBRANCH   3   6
BRANCH   1  11
HETATM   11  N1  UNL     1      -7.645 -19.522  -3.683  1.00  0.00    -0.293 N 
ATOM     12  H1  UNL     1      -7.690 -20.539  -3.735  1.00  0.00     0.187 HD
BRANCH  11  13
HETATM   13  C7  UNL     1      -6.570 -18.891  -2.950  1.00  0.00     0.089 A 
HETATM   14  C6  UNL     1      -6.443 -18.755  -1.596  1.00  0.00     0.047 A 
HETATM   15  C5  UNL     1      -5.349 -18.127  -1.141  1.00  0.00    -0.036 A 
HETATM   16  C4  UNL     1      -4.955 -17.838   0.300  1.00  0.00     0.077 C 
HETATM   17  C11 UNL     1      -4.454 -17.678  -2.083  1.00  0.00     0.029 A 
HETATM   18  C2  UNL     1      -3.497 -18.039   0.461  1.00  0.00     0.059 C 
HETATM   19  C1  UNL     1      -3.281 -19.509   0.858  1.00  0.00     0.046 C 
HETATM   20  C3  UNL     1      -3.005 -17.231   1.669  1.00  0.00     0.046 C 
HETATM   21  O1  UNL     1      -2.702 -17.795  -0.613  1.00  0.00    -0.361 OA
HETATM   22  C12 UNL     1      -3.221 -16.972  -1.588  1.00  0.00     0.270 C 
HETATM   23  S1  UNL     1      -5.166 -18.143  -3.555  1.00  0.00    -0.072 SA
BRANCH  22  24
HETATM   24  C13 UNL     1      -2.239 -17.002  -2.766  1.00  0.00     0.418 C 
HETATM   25  F1  UNL     1      -1.099 -16.338  -2.299  1.00  0.00    -0.168 F 
HETATM   26  F2  UNL     1      -2.706 -16.277  -3.828  1.00  0.00    -0.168 F 
HETATM   27  F3  UNL     1      -1.869 -18.281  -3.086  1.00  0.00    -0.168 F 
ENDBRANCH  22  24
ENDBRANCH  11  13
ENDBRANCH   1  11
TORSDOF 4
ENDMDL
MODEL 5
REMARK VINA RESULT: -8.395034395      2.057      2.882
REMARK  4 active torsions:
REMARK  status: ('A' for Active; 'I' for Inactive)
REMARK    1  A    between atoms: C7_7  and  N1_8 
REMARK    2  A    between atoms: N1_8  and  N2_10 
REMARK    3  A    between atoms: C8_12  and  C10_15 
REMARK    4  A    between atoms: C12_22  and  C13_23 
ROOT
HETATM    1  N2  UNL     1      -7.018 -19.571  -5.293  1.00  0.00    -0.287 N 
ATOM      2  H2  UNL     1      -6.482 -20.301  -5.763  1.00  0.00     0.188 HD
HETATM    3  C8  UNL     1      -7.634 -18.663  -6.009  1.00  0.00     0.169 C 
HETATM    4  C9  UNL     1      -8.394 -17.624  -5.381  1.00  0.00     0.122 C 
HETATM    5  N3  UNL     1      -9.002 -16.801  -4.860  1.00  0.00    -0.190 NA
ENDROOT
BRANCH   3   6
HETATM    6  C10 UNL     1      -7.562 -18.684  -7.459  1.00  0.00     0.149 C 
HETATM    7  N4  UNL     1      -7.827 -17.630  -8.143  1.00  0.00    -0.385 N 
ATOM      8  H42 UNL     1      -8.090 -16.778  -7.648  1.00  0.00     0.157 HD
ATOM      9  H41 UNL     1      -7.776 -17.645  -9.162  1.00  0.00     0.157 HD
HETATM   10  N5  UNL     1      -7.197 -19.867  -8.145  1.00  0.00    -0.080 NA
ENDBRANCH   3   6
BRANCH   1  11
HETATM   11  N1  UNL     1      -7.079 -19.560  -3.917  1.00  0.00    -0.293 N 
ATOM     12  H1  UNL     1      -7.897 -19.944  -3.446  1.00  0.00     0.187 HD
BRANCH  11  13
HETATM   13  C7  UNL     1      -5.996 -19.010  -3.132  1.00  0.00     0.089 A 
HETATM   14  C6  UNL     1      -5.162 -17.977  -3.456  1.00  0.00     0.047 A 
HETATM   15  C5  UNL     1      -4.223 -17.640  -2.561  1.00  0.00    -0.036 A 
HETATM   16  C4  UNL     1      -3.173 -16.543  -2.659  1.00  0.00     0.077 C 
HETATM   17  C11 UNL     1      -4.187 -18.368  -1.395  1.00  0.00     0.029 A 
HETATM   18  C2  UNL     1      -3.023 -15.885  -1.341  1.00  0.00     0.059 C 
HETATM   19  C1  UNL     1      -4.020 -14.715  -1.300  1.00  0.00     0.046 C 
HETATM   20  C3  UNL     1      -1.641 -15.224  -1.259  1.00  0.00     0.046 C 
HETATM   21  O1  UNL     1      -3.243 -16.636  -0.231  1.00  0.00    -0.361 OA
HETATM   22  C12 UNL     1      -3.138 -18.001  -0.381  1.00  0.00     0.270 C 
HETATM   23  S1  UNL     1      -5.452 -19.486  -1.590  1.00  0.00    -0.072 SA
BRANCH  22  24
HETATM   24  C13 UNL     1      -3.613 -18.632   0.935  1.00  0.00     0.418 C 
HETATM   25  F1  UNL     1      -2.798 -18.062   1.920  1.00  0.00    -0.168 F 
HETATM   26  F2  UNL     1      -3.373 -19.979   0.962  1.00  0.00    -0.168 F 
HETATM   27  F3  UNL     1      -4.907 -18.291   1.223  1.00  0.00    -0.168 F 
ENDBRANCH  22  24
ENDBRANCH  11  13
ENDBRANCH   1  11
TORSDOF 4
ENDMDL
