MODEL 1
REMARK VINA RESULT: -7.568259382      0.000      0.000
REMARK  2 active torsions:
REMARK  status: ('A' for Active; 'I' for Inactive)
REMARK    1  A    between atoms: N1_1  and  C1_4 
REMARK    2  A    between atoms: C3_9  and  N3_10 
ROOT
HETATM    1  C1  UNL     1      -2.332  35.938  28.249  1.00  0.00     0.183 A 
HETATM    2  S1  UNL     1      -2.614  34.820  26.992  1.00  0.00     0.026 SA
HETATM    3  N2  UNL     1      -2.172  35.794  25.690  1.00  0.00    -0.305 N 
ATOM      4  H2  UNL     1      -2.170  35.565  24.696  1.00  0.00     0.176 HD
HETATM    5  C2  UNL     1      -1.828  36.932  26.280  1.00  0.00     0.185 A 
HETATM    6  C3  UNL     1      -1.362  38.189  25.863  1.00  0.00     0.192 A 
HETATM    7  N7  UNL     1      -1.181  38.972  26.947  1.00  0.00    -0.266 N 
ATOM      8  H7  UNL     1      -0.850  39.937  26.958  1.00  0.00     0.190 HD
HETATM    9  N8  UNL     1      -1.515  38.248  27.971  1.00  0.00    -0.231 N 
ATOM     10  H8  UNL     1      -1.483  38.568  28.939  1.00  0.00     0.209 HD
HETATM   11  N9  UNL     1      -1.908  37.012  27.583  1.00  0.00    -0.197 N 
ENDROOT
BRANCH   6  12
HETATM   12  N3  UNL     1      -1.097  38.645  24.544  1.00  0.00    -0.214 N 
HETATM   13  N4  UNL     1      -1.960  39.318  23.798  1.00  0.00    -0.241 N 
HETATM   14  C4  UNL     1      -1.392  39.594  22.608  1.00  0.00     0.349 A 
ATOM     15  H4  UNL     1      -2.904  39.584  24.080  1.00  0.00     0.192 HD
HETATM   16  O1  UNL     1      -1.873  40.206  21.639  1.00  0.00    -0.244 OA
HETATM   17  N5  UNL     1      -0.128  39.080  22.599  1.00  0.00    -0.221 N 
HETATM   18  C5  UNL     1       0.835  39.088  21.657  1.00  0.00     0.191 A 
HETATM   19  C8  UNL     1       0.021  38.506  23.798  1.00  0.00     0.147 A 
HETATM   20  S2  UNL     1       0.621  39.799  20.201  1.00  0.00    -0.040 SA
HETATM   21  N6  UNL     1       2.004  38.499  21.912  1.00  0.00    -0.299 N 
HETATM   22  C6  UNL     1       2.198  37.909  23.104  1.00  0.00     0.251 A 
ATOM     23  H6  UNL     1       2.744  38.497  21.208  1.00  0.00     0.171 HD
HETATM   24  O2  UNL     1       3.297  37.340  23.380  1.00  0.00    -0.268 OA
HETATM   25  C7  UNL     1       1.220  37.892  24.084  1.00  0.00     0.125 A 
ENDBRANCH   6  12
BRANCH   1  26
HETATM   26  N1  UNL     1      -2.501  35.754  29.540  1.00  0.00    -0.377 N 
ATOM     27  H12 UNL     1      -3.218  35.229  30.040  1.00  0.00     0.158 HD
ATOM     28  H11 UNL     1      -1.926  36.115  30.300  1.00  0.00     0.158 HD
ENDBRANCH   1  26
TORSDOF 2
ENDMDL
MODEL 2
REMARK VINA RESULT: -7.349749132      1.494      1.498
REMARK  2 active torsions:
REMARK  status: ('A' for Active; 'I' for Inactive)
REMARK    1  A    between atoms: N1_1  and  C1_4 
REMARK    2  A    between atoms: C3_9  and  N3_10 
ROOT
HETATM    1  C1  UNL     1      -2.307  35.887  28.191  1.00  0.00     0.183 A 
HETATM    2  S1  UNL     1      -2.510  34.918  26.801  1.00  0.00     0.026 SA
HETATM    3  N2  UNL     1      -2.080  36.059  25.638  1.00  0.00    -0.305 N 
ATOM      4  H2  UNL     1      -2.043  35.952  24.625  1.00  0.00     0.176 HD
HETATM    5  C2  UNL     1      -1.800  37.131  26.369  1.00  0.00     0.185 A 
HETATM    6  C3  UNL     1      -1.379  38.447  26.120  1.00  0.00     0.192 A 
HETATM    7  N7  UNL     1      -1.259  39.100  27.294  1.00  0.00    -0.266 N 
ATOM      8  H7  UNL     1      -0.971  40.070  27.431  1.00  0.00     0.190 HD
HETATM    9  N8  UNL     1      -1.585  38.245  28.215  1.00  0.00    -0.231 N 
ATOM     10  H8  UNL     1      -1.591  38.446  29.215  1.00  0.00     0.209 HD
HETATM   11  N9  UNL     1      -1.915  37.050  27.671  1.00  0.00    -0.197 N 
ENDROOT
BRANCH   6  12
HETATM   12  N3  UNL     1      -1.103  39.069  24.873  1.00  0.00    -0.214 N 
HETATM   13  N4  UNL     1      -1.962  39.143  23.868  1.00  0.00    -0.241 N 
HETATM   14  C4  UNL     1      -1.383  39.794  22.841  1.00  0.00     0.349 A 
ATOM     15  H4  UNL     1      -2.911  38.767  23.872  1.00  0.00     0.192 HD
HETATM   16  O1  UNL     1      -1.858  40.067  21.725  1.00  0.00    -0.244 OA
HETATM   17  N5  UNL     1      -0.116  40.144  23.205  1.00  0.00    -0.221 N 
HETATM   18  C5  UNL     1       0.857  40.800  22.544  1.00  0.00     0.191 A 
HETATM   19  C8  UNL     1       0.024  39.686  24.455  1.00  0.00     0.147 A 
HETATM   20  S2  UNL     1       0.653  41.349  21.018  1.00  0.00    -0.040 SA
HETATM   21  N6  UNL     1       2.027  41.014  23.146  1.00  0.00    -0.299 N 
HETATM   22  C6  UNL     1       2.213  40.571  24.401  1.00  0.00     0.251 A 
ATOM     23  H6  UNL     1       2.774  41.510  22.659  1.00  0.00     0.171 HD
HETATM   24  O2  UNL     1       3.313  40.757  25.005  1.00  0.00    -0.268 OA
HETATM   25  C7  UNL     1       1.224  39.895  25.097  1.00  0.00     0.125 A 
ENDBRANCH   6  12
BRANCH   1  26
HETATM   26  N1  UNL     1      -2.499  35.542  29.444  1.00  0.00    -0.377 N 
ATOM     27  H12 UNL     1      -2.826  36.096  30.236  1.00  0.00     0.158 HD
ATOM     28  H11 UNL     1      -2.351  34.626  29.867  1.00  0.00     0.158 HD
ENDBRANCH   1  26
TORSDOF 2
ENDMDL
MODEL 3
REMARK VINA RESULT: -6.988541056      3.053      4.726
REMARK  2 active torsions:
REMARK  status: ('A' for Active; 'I' for Inactive)
REMARK    1  A    between atoms: N1_1  and  C1_4 
REMARK    2  A    between atoms: C3_9  and  N3_10 
ROOT
HETATM    1  C1  UNL     1      -1.094  38.471  26.494  1.00  0.00     0.183 A 
HETATM    2  S1  UNL     1       0.419  39.157  26.886  1.00  0.00     0.026 SA
HETATM    3  N2  UNL     1       0.703  39.973  25.439  1.00  0.00    -0.305 N 
ATOM      4  H2  UNL     1       1.504  40.548  25.179  1.00  0.00     0.176 HD
HETATM    5  C2  UNL     1      -0.376  39.682  24.722  1.00  0.00     0.185 A 
HETATM    6  C3  UNL     1      -0.854  39.990  23.438  1.00  0.00     0.192 A 
HETATM    7  N7  UNL     1      -2.048  39.390  23.258  1.00  0.00    -0.266 N 
ATOM      8  H7  UNL     1      -2.636  39.431  22.425  1.00  0.00     0.190 HD
HETATM    9  N8  UNL     1      -2.297  38.750  24.360  1.00  0.00    -0.231 N 
ATOM     10  H8  UNL     1      -3.136  38.195  24.529  1.00  0.00     0.209 HD
HETATM   11  N9  UNL     1      -1.294  38.917  25.254  1.00  0.00    -0.197 N 
ENDROOT
BRANCH   6  12
HETATM   12  N3  UNL     1      -0.246  40.790  22.434  1.00  0.00    -0.214 N 
HETATM   13  N4  UNL     1       1.051  41.046  22.366  1.00  0.00    -0.241 N 
HETATM   14  C4  UNL     1       1.289  41.832  21.297  1.00  0.00     0.349 A 
ATOM     15  H4  UNL     1       1.757  40.704  23.018  1.00  0.00     0.192 HD
HETATM   16  O1  UNL     1       2.372  42.288  20.892  1.00  0.00    -0.244 OA
HETATM   17  N5  UNL     1       0.105  42.082  20.667  1.00  0.00    -0.221 N 
HETATM   18  C5  UNL     1      -0.191  42.803  19.569  1.00  0.00     0.191 A 
HETATM   19  C8  UNL     1      -0.815  41.430  21.388  1.00  0.00     0.147 A 
HETATM   20  S2  UNL     1       0.957  43.587  18.710  1.00  0.00    -0.040 SA
HETATM   21  N6  UNL     1      -1.457  42.885  19.161  1.00  0.00    -0.299 N 
HETATM   22  C6  UNL     1      -2.415  42.246  19.855  1.00  0.00     0.251 A 
ATOM     23  H6  UNL     1      -1.697  43.427  18.330  1.00  0.00     0.171 HD
HETATM   24  O2  UNL     1      -3.630  42.302  19.496  1.00  0.00    -0.268 OA
HETATM   25  C7  UNL     1      -2.130  41.500  20.987  1.00  0.00     0.125 A 
ENDBRANCH   6  12
BRANCH   1  26
HETATM   26  N1  UNL     1      -1.845  37.702  27.249  1.00  0.00    -0.377 N 
ATOM     27  H12 UNL     1      -2.089  37.786  28.236  1.00  0.00     0.158 HD
ATOM     28  H11 UNL     1      -2.337  36.851  26.976  1.00  0.00     0.158 HD
ENDBRANCH   1  26
TORSDOF 2
ENDMDL
MODEL 4
REMARK VINA RESULT: -6.629119803      2.741      3.538
REMARK  2 active torsions:
REMARK  status: ('A' for Active; 'I' for Inactive)
REMARK    1  A    between atoms: N1_1  and  C1_4 
REMARK    2  A    between atoms: C3_9  and  N3_10 
ROOT
HETATM    1  C1  UNL     1       0.106  36.767  26.639  1.00  0.00     0.183 A 
HETATM    2  S1  UNL     1       1.759  36.871  26.228  1.00  0.00     0.026 SA
HETATM    3  N2  UNL     1       1.610  37.808  24.836  1.00  0.00    -0.305 N 
ATOM      4  H2  UNL     1       2.345  38.145  24.214  1.00  0.00     0.176 HD
HETATM    5  C2  UNL     1       0.299  37.999  24.750  1.00  0.00     0.185 A 
HETATM    6  C3  UNL     1      -0.574  38.667  23.877  1.00  0.00     0.192 A 
HETATM    7  N7  UNL     1      -1.840  38.507  24.313  1.00  0.00    -0.266 N 
ATOM      8  H7  UNL     1      -2.688  38.878  23.883  1.00  0.00     0.190 HD
HETATM    9  N8  UNL     1      -1.760  37.786  25.389  1.00  0.00    -0.231 N 
ATOM     10  H8  UNL     1      -2.560  37.496  25.951  1.00  0.00     0.209 HD
HETATM   11  N9  UNL     1      -0.472  37.471  25.666  1.00  0.00    -0.197 N 
ENDROOT
BRANCH   6  12
HETATM   12  N3  UNL     1      -0.260  39.410  22.706  1.00  0.00    -0.214 N 
HETATM   13  N4  UNL     1      -0.348  38.935  21.474  1.00  0.00    -0.241 N 
HETATM   14  C4  UNL     1       0.020  39.896  20.605  1.00  0.00     0.349 A 
ATOM     15  H4  UNL     1      -0.646  37.992  21.223  1.00  0.00     0.192 HD
HETATM   16  O1  UNL     1       0.072  39.845  19.363  1.00  0.00    -0.244 OA
HETATM   17  N5  UNL     1       0.351  41.017  21.308  1.00  0.00    -0.221 N 
HETATM   18  C5  UNL     1       0.776  42.231  20.910  1.00  0.00     0.191 A 
HETATM   19  C8  UNL     1       0.169  40.686  22.592  1.00  0.00     0.147 A 
HETATM   20  S2  UNL     1       0.988  42.604  19.333  1.00  0.00    -0.040 SA
HETATM   21  N6  UNL     1       1.034  43.167  21.825  1.00  0.00    -0.299 N 
HETATM   22  C6  UNL     1       0.865  42.878  23.127  1.00  0.00     0.251 A 
ATOM     23  H6  UNL     1       1.357  44.092  21.539  1.00  0.00     0.171 HD
HETATM   24  O2  UNL     1       1.101  43.743  24.024  1.00  0.00    -0.268 OA
HETATM   25  C7  UNL     1       0.429  41.635  23.554  1.00  0.00     0.125 A 
ENDBRANCH   6  12
BRANCH   1  26
HETATM   26  N1  UNL     1      -0.428  36.143  27.665  1.00  0.00    -0.377 N 
ATOM     27  H12 UNL     1      -0.491  36.422  28.644  1.00  0.00     0.158 HD
ATOM     28  H11 UNL     1      -0.893  35.235  27.667  1.00  0.00     0.158 HD
ENDBRANCH   1  26
TORSDOF 2
ENDMDL
MODEL 5
REMARK VINA RESULT: -6.604762282      1.474      1.674
REMARK  2 active torsions:
REMARK  status: ('A' for Active; 'I' for Inactive)
REMARK    1  A    between atoms: N1_1  and  C1_4 
REMARK    2  A    between atoms: C3_9  and  N3_10 
ROOT
HETATM    1  C1  UNL     1      -1.283  37.240  27.532  1.00  0.00     0.183 A 
HETATM    2  S1  UNL     1      -1.930  36.127  26.412  1.00  0.00     0.026 SA
HETATM    3  N2  UNL     1      -1.675  37.016  25.003  1.00  0.00    -0.305 N 
ATOM      4  H2  UNL     1      -1.902  36.763  24.042  1.00  0.00     0.176 HD
HETATM    5  C2  UNL     1      -1.105  38.126  25.457  1.00  0.00     0.185 A 
HETATM    6  C3  UNL     1      -0.614  39.316  24.896  1.00  0.00     0.192 A 
HETATM    7  N7  UNL     1      -0.135  40.102  25.882  1.00  0.00    -0.266 N 
ATOM      8  H7  UNL     1       0.285  41.026  25.781  1.00  0.00     0.190 HD
HETATM    9  N8  UNL     1      -0.317  39.443  26.986  1.00  0.00    -0.231 N 
ATOM     10  H8  UNL     1      -0.054  39.781  27.911  1.00  0.00     0.209 HD
HETATM   11  N9  UNL     1      -0.904  38.246  26.745  1.00  0.00    -0.197 N 
ENDROOT
BRANCH   6  12
HETATM   12  N3  UNL     1      -0.586  39.707  23.531  1.00  0.00    -0.214 N 
HETATM   13  N4  UNL     1      -1.536  40.413  22.936  1.00  0.00    -0.241 N 
HETATM   14  C4  UNL     1      -1.196  40.609  21.647  1.00  0.00     0.349 A 
ATOM     15  H4  UNL     1      -2.388  40.753  23.383  1.00  0.00     0.192 HD
HETATM   16  O1  UNL     1      -1.820  41.221  20.763  1.00  0.00    -0.244 OA
HETATM   17  N5  UNL     1       0.007  40.009  21.417  1.00  0.00    -0.221 N 
HETATM   18  C5  UNL     1       0.765  39.919  20.307  1.00  0.00     0.191 A 
HETATM   19  C8  UNL     1       0.354  39.466  22.590  1.00  0.00     0.147 A 
HETATM   20  S2  UNL     1       0.313  40.595  18.889  1.00  0.00    -0.040 SA
HETATM   21  N6  UNL     1       1.923  39.260  20.357  1.00  0.00    -0.299 N 
HETATM   22  C6  UNL     1       2.311  38.698  21.515  1.00  0.00     0.251 A 
ATOM     23  H6  UNL     1       2.508  39.183  19.525  1.00  0.00     0.171 HD
HETATM   24  O2  UNL     1       3.406  38.064  21.599  1.00  0.00    -0.268 OA
HETATM   25  C7  UNL     1       1.545  38.781  22.666  1.00  0.00     0.125 A 
ENDBRANCH   6  12
BRANCH   1  26
HETATM   26  N1  UNL     1      -1.197  37.107  28.837  1.00  0.00    -0.377 N 
ATOM     27  H12 UNL     1      -0.504  37.471  29.490  1.00  0.00     0.158 HD
ATOM     28  H11 UNL     1      -1.830  36.599  29.454  1.00  0.00     0.158 HD
ENDBRANCH   1  26
TORSDOF 2
ENDMDL
