MODEL 1
REMARK VINA RESULT: -7.511718168      0.000      0.000
REMARK  3 active torsions:
REMARK  status: ('A' for Active; 'I' for Inactive)
REMARK    1  A    between atoms: C2_2  and  N1_3 
REMARK    2  A    between atoms: C7_17  and  N6_18 
REMARK    3  A    between atoms: C8_21  and  O1_22 
ROOT
HETATM    1  N1  UNL     1      -2.505  35.932  27.258  1.00  0.00    -0.325 N 
HETATM    2  C3  UNL     1      -2.755  35.859  28.663  1.00  0.00     0.201 C 
HETATM    3  N2  UNL     1      -1.728  36.391  29.501  1.00  0.00    -0.294 N 
ATOM      4  H2  UNL     1      -1.635  36.126  30.481  1.00  0.00     0.187 HD
HETATM    5  N3  UNL     1      -0.871  37.287  28.899  1.00  0.00    -0.281 N 
ATOM      6  H3  UNL     1      -0.051  37.587  29.426  1.00  0.00     0.188 HD
HETATM    7  C4  UNL     1      -1.051  37.822  27.593  1.00  0.00     0.167 A 
HETATM    8  N4  UNL     1      -0.427  38.957  27.194  1.00  0.00    -0.321 N 
ATOM      9  H4  UNL     1       0.194  39.477  27.813  1.00  0.00     0.169 HD
HETATM   10  C5  UNL     1      -0.674  39.360  25.936  1.00  0.00     0.154 A 
HETATM   11  N5  UNL     1       0.004  40.504  25.605  1.00  0.00    -0.319 N 
ATOM     12  H5  UNL     1       0.155  41.187  26.347  1.00  0.00     0.169 HD
HETATM   13  C6  UNL     1       0.500  40.810  24.359  1.00  0.00     0.165 A 
HETATM   14  S1  UNL     1       1.912  41.690  23.981  1.00  0.00    -0.032 SA
HETATM   15  C7  UNL     1       1.822  41.629  22.278  1.00  0.00     0.123 A 
HETATM   16  C8  UNL     1       0.681  40.917  22.042  1.00  0.00     0.187 A 
HETATM   17  N7  UNL     1      -0.006  40.492  23.083  1.00  0.00    -0.220 N 
HETATM   18  C9  UNL     1      -1.165  39.767  22.914  1.00  0.00     0.336 C 
HETATM   19  O2  UNL     1      -1.694  39.830  21.759  1.00  0.00    -0.246 OA
HETATM   20  N8  UNL     1      -1.827  38.995  23.800  1.00  0.00    -0.291 N 
ATOM     21  H8  UNL     1      -2.697  38.590  23.455  1.00  0.00     0.172 HD
HETATM   22  C10 UNL     1      -1.514  38.677  25.070  1.00  0.00     0.156 A 
HETATM   23  N9  UNL     1      -2.128  37.543  25.494  1.00  0.00    -0.322 N 
ATOM     24  H9  UNL     1      -2.751  37.022  24.876  1.00  0.00     0.169 HD
HETATM   25  C11 UNL     1      -1.892  37.125  26.751  1.00  0.00     0.156 A 
ENDROOT
BRANCH  15  26
HETATM   26  N6  UNL     1       2.641  42.136  21.379  1.00  0.00    -0.390 N 
ATOM     27  H62 UNL     1       2.392  42.509  20.463  1.00  0.00     0.157 HD
ATOM     28  H61 UNL     1       3.654  42.251  21.418  1.00  0.00     0.157 HD
ENDBRANCH  15  26
BRANCH  16  29
HETATM   29  O1  UNL     1       0.331  40.696  20.809  1.00  0.00    -0.344 OA
ATOM     30  H1  UNL     1       1.014  40.605  20.154  1.00  0.00     0.219 HD
ENDBRANCH  16  29
BRANCH   1  31
HETATM   31  C2  UNL     1      -2.835  34.871  26.318  1.00  0.00     0.127 C 
HETATM   32  C1  UNL     1      -3.273  33.617  26.988  1.00  0.00     0.027 C 
ENDBRANCH   1  31
TORSDOF 3
ENDMDL
MODEL 2
REMARK VINA RESULT: -7.338268908      2.496      3.427
REMARK  3 active torsions:
REMARK  status: ('A' for Active; 'I' for Inactive)
REMARK    1  A    between atoms: C2_2  and  N1_3 
REMARK    2  A    between atoms: C7_17  and  N6_18 
REMARK    3  A    between atoms: C8_21  and  O1_22 
ROOT
HETATM    1  N1  UNL     1       0.608  37.510  26.837  1.00  0.00    -0.325 N 
HETATM    2  C3  UNL     1      -0.303  36.940  27.779  1.00  0.00     0.201 C 
HETATM    3  N2  UNL     1      -1.511  37.673  27.990  1.00  0.00    -0.294 N 
ATOM      4  H2  UNL     1      -2.077  37.558  28.831  1.00  0.00     0.187 HD
HETATM    5  N3  UNL     1      -1.861  38.548  26.984  1.00  0.00    -0.281 N 
ATOM      6  H3  UNL     1      -2.643  39.181  27.156  1.00  0.00     0.188 HD
HETATM    7  C4  UNL     1      -1.210  38.629  25.723  1.00  0.00     0.167 A 
HETATM    8  N4  UNL     1      -1.802  39.203  24.647  1.00  0.00    -0.321 N 
ATOM      9  H4  UNL     1      -2.741  39.599  24.697  1.00  0.00     0.169 HD
HETATM   10  C5  UNL     1      -1.083  39.222  23.512  1.00  0.00     0.154 A 
HETATM   11  N5  UNL     1      -1.745  39.832  22.478  1.00  0.00    -0.319 N 
ATOM     12  H5  UNL     1      -2.758  39.727  22.447  1.00  0.00     0.169 HD
HETATM   13  C6  UNL     1      -1.159  40.576  21.480  1.00  0.00     0.165 A 
HETATM   14  S1  UNL     1      -1.802  41.933  20.672  1.00  0.00    -0.032 SA
HETATM   15  C7  UNL     1      -0.504  42.260  19.614  1.00  0.00     0.123 A 
HETATM   16  C8  UNL     1       0.410  41.292  19.920  1.00  0.00     0.187 A 
HETATM   17  N7  UNL     1       0.098  40.427  20.863  1.00  0.00    -0.220 N 
HETATM   18  C9  UNL     1       0.976  39.426  21.219  1.00  0.00     0.336 C 
HETATM   19  O2  UNL     1       1.908  39.186  20.388  1.00  0.00    -0.246 OA
HETATM   20  N8  UNL     1       0.993  38.659  22.329  1.00  0.00    -0.291 N 
ATOM     21  H8  UNL     1       1.721  37.946  22.350  1.00  0.00     0.172 HD
HETATM   22  C10 UNL     1       0.194  38.693  23.412  1.00  0.00     0.156 A 
HETATM   23  N9  UNL     1       0.766  38.121  24.503  1.00  0.00    -0.322 N 
ATOM     24  H9  UNL     1       1.704  37.724  24.455  1.00  0.00     0.169 HD
HETATM   25  C11 UNL     1       0.060  38.094  25.648  1.00  0.00     0.156 A 
ENDROOT
BRANCH  15  26
HETATM   26  N6  UNL     1      -0.381  43.211  18.710  1.00  0.00    -0.390 N 
ATOM     27  H62 UNL     1      -0.690  44.180  18.791  1.00  0.00     0.157 HD
ATOM     28  H61 UNL     1       0.033  43.169  17.779  1.00  0.00     0.157 HD
ENDBRANCH  15  26
BRANCH  16  29
HETATM   29  O1  UNL     1       1.535  41.274  19.267  1.00  0.00    -0.344 OA
ATOM     30  H1  UNL     1       1.927  42.102  19.016  1.00  0.00     0.219 HD
ENDBRANCH  16  29
BRANCH   1  31
HETATM   31  C2  UNL     1       2.052  37.530  27.015  1.00  0.00     0.127 C 
HETATM   32  C1  UNL     1       2.665  36.176  26.951  1.00  0.00     0.027 C 
ENDBRANCH   1  31
TORSDOF 3
ENDMDL
MODEL 3
REMARK VINA RESULT: -7.190137846      3.129      7.174
REMARK  3 active torsions:
REMARK  status: ('A' for Active; 'I' for Inactive)
REMARK    1  A    between atoms: C2_2  and  N1_3 
REMARK    2  A    between atoms: C7_17  and  N6_18 
REMARK    3  A    between atoms: C8_21  and  O1_22 
ROOT
HETATM    1  N1  UNL     1       0.649  41.215  20.596  1.00  0.00    -0.325 N 
HETATM    2  C3  UNL     1      -0.070  42.288  19.985  1.00  0.00     0.201 C 
HETATM    3  N2  UNL     1      -1.493  42.204  20.071  1.00  0.00    -0.294 N 
ATOM      4  H2  UNL     1      -2.106  42.709  19.432  1.00  0.00     0.187 HD
HETATM    5  N3  UNL     1      -1.984  41.396  21.075  1.00  0.00    -0.281 N 
ATOM      6  H3  UNL     1      -2.987  41.208  21.085  1.00  0.00     0.188 HD
HETATM    7  C4  UNL     1      -1.189  40.806  22.095  1.00  0.00     0.167 A 
HETATM    8  N4  UNL     1      -1.732  40.354  23.252  1.00  0.00    -0.321 N 
ATOM      9  H4  UNL     1      -2.732  40.421  23.440  1.00  0.00     0.169 HD
HETATM   10  C5  UNL     1      -0.878  39.813  24.138  1.00  0.00     0.154 A 
HETATM   11  N5  UNL     1      -1.506  39.367  25.272  1.00  0.00    -0.319 N 
ATOM     12  H5  UNL     1      -2.319  39.894  25.592  1.00  0.00     0.169 HD
HETATM   13  C6  UNL     1      -1.135  38.271  26.016  1.00  0.00     0.165 A 
HETATM   14  S1  UNL     1      -2.145  37.201  26.878  1.00  0.00    -0.032 SA
HETATM   15  C7  UNL     1      -0.955  36.152  27.507  1.00  0.00     0.123 A 
HETATM   16  C8  UNL     1       0.214  36.666  27.024  1.00  0.00     0.187 A 
HETATM   17  N7  UNL     1       0.147  37.742  26.266  1.00  0.00    -0.220 N 
HETATM   18  C9  UNL     1       1.289  38.310  25.746  1.00  0.00     0.336 C 
HETATM   19  O2  UNL     1       2.381  37.963  26.298  1.00  0.00    -0.246 OA
HETATM   20  N8  UNL     1       1.421  39.188  24.730  1.00  0.00    -0.291 N 
ATOM     21  H8  UNL     1       2.373  39.506  24.554  1.00  0.00     0.172 HD
HETATM   22  C10 UNL     1       0.485  39.708  23.913  1.00  0.00     0.156 A 
HETATM   23  N9  UNL     1       1.006  40.169  22.747  1.00  0.00    -0.322 N 
ATOM     24  H9  UNL     1       2.006  40.103  22.557  1.00  0.00     0.169 HD
HETATM   25  C11 UNL     1       0.165  40.714  21.848  1.00  0.00     0.156 A 
ENDROOT
BRANCH  15  26
HETATM   26  N6  UNL     1      -1.098  35.090  28.275  1.00  0.00    -0.390 N 
ATOM     27  H62 UNL     1      -1.632  35.027  29.142  1.00  0.00     0.157 HD
ATOM     28  H61 UNL     1      -0.713  34.153  28.161  1.00  0.00     0.157 HD
ENDBRANCH  15  26
BRANCH  16  29
HETATM   29  O1  UNL     1       1.329  36.073  27.337  1.00  0.00    -0.344 OA
ATOM     30  H1  UNL     1       2.147  36.492  27.098  1.00  0.00     0.219 HD
ENDBRANCH  16  29
BRANCH   1  31
HETATM   31  C2  UNL     1       1.839  40.605  20.020  1.00  0.00     0.127 C 
HETATM   32  C1  UNL     1       1.540  39.385  19.222  1.00  0.00     0.027 C 
ENDBRANCH   1  31
TORSDOF 3
ENDMDL
MODEL 4
REMARK VINA RESULT: -7.063779838      3.061      7.568
REMARK  3 active torsions:
REMARK  status: ('A' for Active; 'I' for Inactive)
REMARK    1  A    between atoms: C2_2  and  N1_3 
REMARK    2  A    between atoms: C7_17  and  N6_18 
REMARK    3  A    between atoms: C8_21  and  O1_22 
ROOT
HETATM    1  N1  UNL     1       0.848  42.391  20.307  1.00  0.00    -0.325 N 
HETATM    2  C3  UNL     1      -0.018  43.113  19.428  1.00  0.00     0.201 C 
HETATM    3  N2  UNL     1      -1.255  42.470  19.117  1.00  0.00    -0.294 N 
ATOM      4  H2  UNL     1      -1.800  42.713  18.290  1.00  0.00     0.187 HD
HETATM    5  N3  UNL     1      -1.665  41.501  20.008  1.00  0.00    -0.281 N 
ATOM      6  H3  UNL     1      -2.473  40.932  19.751  1.00  0.00     0.188 HD
HETATM    7  C4  UNL     1      -1.040  41.239  21.258  1.00  0.00     0.167 A 
HETATM    8  N4  UNL     1      -1.678  40.571  22.249  1.00  0.00    -0.321 N 
ATOM      9  H4  UNL     1      -2.634  40.231  22.142  1.00  0.00     0.169 HD
HETATM   10  C5  UNL     1      -0.982  40.382  23.383  1.00  0.00     0.154 A 
HETATM   11  N5  UNL     1      -1.690  39.687  24.328  1.00  0.00    -0.319 N 
ATOM     12  H5  UNL     1      -2.698  39.838  24.359  1.00  0.00     0.169 HD
HETATM   13  C6  UNL     1      -1.159  38.802  25.238  1.00  0.00     0.165 A 
HETATM   14  S1  UNL     1      -1.880  37.392  25.870  1.00  0.00    -0.032 SA
HETATM   15  C7  UNL     1      -0.618  36.878  26.897  1.00  0.00     0.123 A 
HETATM   16  C8  UNL     1       0.347  37.828  26.720  1.00  0.00     0.187 A 
HETATM   17  N7  UNL     1       0.093  38.814  25.883  1.00  0.00    -0.220 N 
HETATM   18  C9  UNL     1       1.024  39.805  25.660  1.00  0.00     0.336 C 
HETATM   19  O2  UNL     1       1.952  39.899  26.524  1.00  0.00    -0.246 OA
HETATM   20  N8  UNL     1       1.097  40.696  24.650  1.00  0.00    -0.291 N 
ATOM     21  H8  UNL     1       1.859  41.370  24.722  1.00  0.00     0.172 HD
HETATM   22  C10 UNL     1       0.317  40.832  23.560  1.00  0.00     0.156 A 
HETATM   23  N9  UNL     1       0.935  41.499  22.553  1.00  0.00    -0.322 N 
ATOM     24  H9  UNL     1       1.890  41.841  22.659  1.00  0.00     0.169 HD
HETATM   25  C11 UNL     1       0.252  41.698  21.410  1.00  0.00     0.156 A 
ENDROOT
BRANCH  15  26
HETATM   26  N6  UNL     1      -0.556  35.821  27.682  1.00  0.00    -0.390 N 
ATOM     27  H62 UNL     1      -0.568  35.813  28.702  1.00  0.00     0.157 HD
ATOM     28  H61 UNL     1      -0.485  34.834  27.435  1.00  0.00     0.157 HD
ENDBRANCH  15  26
BRANCH  16  29
HETATM   29  O1  UNL     1       1.460  37.713  27.384  1.00  0.00    -0.344 OA
ATOM     30  H1  UNL     1       1.704  38.410  27.982  1.00  0.00     0.219 HD
ENDBRANCH  16  29
BRANCH   1  31
HETATM   31  C2  UNL     1       2.293  42.320  20.145  1.00  0.00     0.127 C 
HETATM   32  C1  UNL     1       2.713  42.180  18.724  1.00  0.00     0.027 C 
ENDBRANCH   1  31
TORSDOF 3
ENDMDL
MODEL 5
REMARK VINA RESULT: -6.876735681      1.702      1.890
REMARK  3 active torsions:
REMARK  status: ('A' for Active; 'I' for Inactive)
REMARK    1  A    between atoms: C2_2  and  N1_3 
REMARK    2  A    between atoms: C7_17  and  N6_18 
REMARK    3  A    between atoms: C8_21  and  O1_22 
ROOT
HETATM    1  N1  UNL     1      -1.458  36.353  26.574  1.00  0.00    -0.325 N 
HETATM    2  C3  UNL     1      -0.988  36.166  27.911  1.00  0.00     0.201 C 
HETATM    3  N2  UNL     1       0.425  36.278  28.088  1.00  0.00    -0.294 N 
ATOM      4  H2  UNL     1       0.905  35.869  28.890  1.00  0.00     0.187 HD
HETATM    5  N3  UNL     1       1.097  36.973  27.106  1.00  0.00    -0.281 N 
ATOM      6  H3  UNL     1       2.117  36.962  27.129  1.00  0.00     0.188 HD
HETATM    7  C4  UNL     1       0.467  37.705  26.062  1.00  0.00     0.167 A 
HETATM    8  N4  UNL     1       1.123  38.665  25.366  1.00  0.00    -0.321 N 
ATOM      9  H4  UNL     1       2.094  38.906  25.564  1.00  0.00     0.169 HD
HETATM   10  C5  UNL     1       0.422  39.284  24.401  1.00  0.00     0.154 A 
HETATM   11  N5  UNL     1       1.159  40.229  23.736  1.00  0.00    -0.319 N 
ATOM     12  H5  UNL     1       1.858  40.739  24.275  1.00  0.00     0.169 HD
HETATM   13  C6  UNL     1       1.038  40.548  22.403  1.00  0.00     0.165 A 
HETATM   14  S1  UNL     1       2.268  41.044  21.330  1.00  0.00    -0.032 SA
HETATM   15  C7  UNL     1       1.332  41.237  19.916  1.00  0.00     0.123 A 
HETATM   16  C8  UNL     1       0.070  40.906  20.318  1.00  0.00     0.187 A 
HETATM   17  N7  UNL     1      -0.103  40.554  21.576  1.00  0.00    -0.220 N 
HETATM   18  C9  UNL     1      -1.350  40.208  22.046  1.00  0.00     0.336 C 
HETATM   19  O2  UNL     1      -2.333  40.567  21.323  1.00  0.00    -0.246 OA
HETATM   20  N8  UNL     1      -1.686  39.539  23.168  1.00  0.00    -0.291 N 
ATOM     21  H8  UNL     1      -2.687  39.440  23.330  1.00  0.00     0.172 HD
HETATM   22  C10 UNL     1      -0.898  38.981  24.108  1.00  0.00     0.156 A 
HETATM   23  N9  UNL     1      -1.534  38.015  24.819  1.00  0.00    -0.322 N 
ATOM     24  H9  UNL     1      -2.506  37.774  24.623  1.00  0.00     0.169 HD
HETATM   25  C11 UNL     1      -0.847  37.386  25.790  1.00  0.00     0.156 A 
ENDROOT
BRANCH  15  26
HETATM   26  N6  UNL     1       1.708  41.612  18.710  1.00  0.00    -0.390 N 
ATOM     27  H62 UNL     1       2.398  41.157  18.112  1.00  0.00     0.157 HD
ATOM     28  H61 UNL     1       1.395  42.407  18.152  1.00  0.00     0.157 HD
ENDBRANCH  15  26
BRANCH  16  29
HETATM   29  O1  UNL     1      -0.893  40.957  19.445  1.00  0.00    -0.344 OA
ATOM     30  H1  UNL     1      -1.789  40.971  19.759  1.00  0.00     0.219 HD
ENDBRANCH  16  29
BRANCH   1  31
HETATM   31  C2  UNL     1      -2.517  35.559  25.968  1.00  0.00     0.127 C 
HETATM   32  C1  UNL     1      -2.901  34.379  26.788  1.00  0.00     0.027 C 
ENDBRANCH   1  31
TORSDOF 3
ENDMDL
