MODEL 1
REMARK VINA RESULT: -8.027316748      0.000      0.000
REMARK  3 active torsions:
REMARK  status: ('A' for Active; 'I' for Inactive)
REMARK    1  A    between atoms: N1_1  and  C1_4 
REMARK    2  A    between atoms: C2_7  and  N3_8 
REMARK    3  A    between atoms: C4_13  and  N4_14 
ROOT
HETATM    1  C1  UNL     1      -2.815  33.922  27.576  1.00  0.00     0.679 A 
HETATM    2  N2  UNL     1      -2.763  34.452  28.810  1.00  0.00    -0.176 N 
ATOM      3  H2  UNL     1      -2.965  33.896  29.641  1.00  0.00     0.186 HD
HETATM    4  C2  UNL     1      -2.434  35.747  28.891  1.00  0.00     0.135 A 
HETATM    5  C3  UNL     1      -2.160  36.506  27.748  1.00  0.00     0.097 A 
HETATM    6  S1  UNL     1      -1.718  38.115  27.382  1.00  0.00    -0.044 SA
HETATM    7  C4  UNL     1      -1.634  37.982  25.668  1.00  0.00     0.177 A 
HETATM    8  N7  UNL     1      -1.948  36.722  25.484  1.00  0.00    -0.319 N 
ATOM      9  H7  UNL     1      -1.981  36.344  24.538  1.00  0.00     0.169 HD
HETATM   10  C9  UNL     1      -2.217  35.949  26.494  1.00  0.00     0.144 A 
HETATM   11  N8  UNL     1      -2.559  34.617  26.466  1.00  0.00    -0.175 N 
ATOM     12  H8  UNL     1      -2.618  34.143  25.564  1.00  0.00     0.186 HD
ENDROOT
BRANCH   7  13
HETATM   13  N4  UNL     1      -1.306  38.998  24.695  1.00  0.00    -0.179 N 
HETATM   14  N5  UNL     1      -1.906  39.267  23.551  1.00  0.00    -0.266 N 
HETATM   15  C5  UNL     1      -1.286  40.292  22.941  1.00  0.00     0.173 A 
ATOM     16  H5  UNL     1      -2.719  38.772  23.185  1.00  0.00     0.190 HD
HETATM   17  N6  UNL     1      -0.267  40.701  23.694  1.00  0.00    -0.209 N 
HETATM   18  S2  UNL     1      -1.278  41.342  21.486  1.00  0.00    -0.083 SA
HETATM   19  C6  UNL     1      -0.297  39.876  24.789  1.00  0.00     0.359 A 
HETATM   20  C7  UNL     1       0.489  41.766  23.221  1.00  0.00     0.243 C 
HETATM   21  O1  UNL     1       0.504  39.905  25.784  1.00  0.00    -0.244 OA
HETATM   22  O2  UNL     1       1.206  42.561  23.927  1.00  0.00    -0.272 OA
HETATM   23  C8  UNL     1       0.438  41.971  21.750  1.00  0.00     0.186 C 
ENDBRANCH   7  13
BRANCH   4  24
HETATM   24  N3  UNL     1      -2.359  36.339  30.020  1.00  0.00    -0.384 N 
ATOM     25  H32 UNL     1      -2.474  35.768  30.858  1.00  0.00     0.157 HD
ATOM     26  H31 UNL     1      -2.190  37.343  30.078  1.00  0.00     0.157 HD
ENDBRANCH   4  24
BRANCH   1  27
HETATM   27  N1  UNL     1      -3.138  32.645  27.470  1.00  0.00    -0.234 N 
ATOM     28  H12 UNL     1      -2.870  32.005  28.218  1.00  0.00     0.174 HD
ATOM     29  H11 UNL     1      -3.647  32.353  26.636  1.00  0.00     0.174 HD
ENDBRANCH   1  27
TORSDOF 3
ENDMDL
MODEL 2
REMARK VINA RESULT: -7.890177593      2.432      7.428
REMARK  3 active torsions:
REMARK  status: ('A' for Active; 'I' for Inactive)
REMARK    1  A    between atoms: N1_1  and  C1_4 
REMARK    2  A    between atoms: C2_7  and  N3_8 
REMARK    3  A    between atoms: C4_13  and  N4_14 
ROOT
HETATM    1  C1  UNL     1      -1.206  41.658  21.242  1.00  0.00     0.679 A 
HETATM    2  N2  UNL     1      -0.110  42.262  21.732  1.00  0.00    -0.176 N 
ATOM      3  H2  UNL     1       0.329  43.048  21.252  1.00  0.00     0.186 HD
HETATM    4  C2  UNL     1       0.375  41.779  22.882  1.00  0.00     0.135 A 
HETATM    5  C3  UNL     1      -0.229  40.700  23.537  1.00  0.00     0.097 A 
HETATM    6  S1  UNL     1       0.026  39.788  24.959  1.00  0.00    -0.044 SA
HETATM    7  C4  UNL     1      -1.298  38.698  24.814  1.00  0.00     0.177 A 
HETATM    8  N7  UNL     1      -1.849  39.099  23.693  1.00  0.00    -0.319 N 
ATOM      9  H7  UNL     1      -2.680  38.623  23.343  1.00  0.00     0.169 HD
HETATM   10  C9  UNL     1      -1.348  40.094  23.024  1.00  0.00     0.144 A 
HETATM   11  N8  UNL     1      -1.807  40.628  21.842  1.00  0.00    -0.175 N 
ATOM     12  H8  UNL     1      -2.637  40.222  21.408  1.00  0.00     0.186 HD
ENDROOT
BRANCH   7  13
HETATM   13  N4  UNL     1      -1.691  37.627  25.699  1.00  0.00    -0.179 N 
HETATM   14  N5  UNL     1      -1.944  36.366  25.404  1.00  0.00    -0.266 N 
HETATM   15  C5  UNL     1      -2.278  35.694  26.519  1.00  0.00     0.173 A 
ATOM     16  H5  UNL     1      -1.892  35.961  24.469  1.00  0.00     0.190 HD
HETATM   17  N6  UNL     1      -2.244  36.524  27.559  1.00  0.00    -0.209 N 
HETATM   18  S2  UNL     1      -2.769  34.098  27.176  1.00  0.00    -0.083 SA
HETATM   19  C6  UNL     1      -1.874  37.731  27.024  1.00  0.00     0.359 A 
HETATM   20  C7  UNL     1      -2.556  35.998  28.806  1.00  0.00     0.243 C 
HETATM   21  O1  UNL     1      -1.713  38.828  27.659  1.00  0.00    -0.244 OA
HETATM   22  O2  UNL     1      -2.196  36.471  29.943  1.00  0.00    -0.272 OA
HETATM   23  C8  UNL     1      -3.390  34.769  28.780  1.00  0.00     0.186 C 
ENDBRANCH   7  13
BRANCH   4  24
HETATM   24  N3  UNL     1       1.414  42.288  23.425  1.00  0.00    -0.384 N 
ATOM     25  H32 UNL     1       1.483  43.306  23.442  1.00  0.00     0.157 HD
ATOM     26  H31 UNL     1       2.142  41.697  23.825  1.00  0.00     0.157 HD
ENDBRANCH   4  24
BRANCH   1  27
HETATM   27  N1  UNL     1      -1.705  42.117  20.108  1.00  0.00    -0.234 N 
ATOM     28  H12 UNL     1      -2.705  42.311  20.052  1.00  0.00     0.174 HD
ATOM     29  H11 UNL     1      -1.060  42.259  19.330  1.00  0.00     0.174 HD
ENDBRANCH   1  27
TORSDOF 3
ENDMDL
MODEL 3
REMARK VINA RESULT: -7.710310789      1.371      1.391
REMARK  3 active torsions:
REMARK  status: ('A' for Active; 'I' for Inactive)
REMARK    1  A    between atoms: N1_1  and  C1_4 
REMARK    2  A    between atoms: C2_7  and  N3_8 
REMARK    3  A    between atoms: C4_13  and  N4_14 
ROOT
HETATM    1  C1  UNL     1      -2.909  33.877  27.630  1.00  0.00     0.679 A 
HETATM    2  N2  UNL     1      -2.781  34.471  28.829  1.00  0.00    -0.176 N 
ATOM      3  H2  UNL     1      -2.995  33.979  29.696  1.00  0.00     0.186 HD
HETATM    4  C2  UNL     1      -2.359  35.742  28.825  1.00  0.00     0.135 A 
HETATM    5  C3  UNL     1      -2.068  36.413  27.633  1.00  0.00     0.097 A 
HETATM    6  S1  UNL     1      -1.526  37.964  27.162  1.00  0.00    -0.044 SA
HETATM    7  C4  UNL     1      -1.505  37.729  25.457  1.00  0.00     0.177 A 
HETATM    8  N7  UNL     1      -1.912  36.486  25.356  1.00  0.00    -0.319 N 
ATOM      9  H7  UNL     1      -2.001  36.059  24.435  1.00  0.00     0.169 HD
HETATM   10  C9  UNL     1      -2.203  35.792  26.416  1.00  0.00     0.144 A 
HETATM   11  N8  UNL     1      -2.639  34.489  26.475  1.00  0.00    -0.175 N 
ATOM     12  H8  UNL     1      -2.760  33.971  25.604  1.00  0.00     0.186 HD
ENDROOT
BRANCH   7  13
HETATM   13  N4  UNL     1      -1.136  38.662  24.418  1.00  0.00    -0.179 N 
HETATM   14  N5  UNL     1      -1.714  39.802  24.093  1.00  0.00    -0.266 N 
HETATM   15  C5  UNL     1      -1.059  40.370  23.065  1.00  0.00     0.173 A 
ATOM     16  H5  UNL     1      -2.535  40.195  24.552  1.00  0.00     0.190 HD
HETATM   17  N6  UNL     1      -0.038  39.592  22.713  1.00  0.00    -0.209 N 
HETATM   18  S2  UNL     1      -1.015  41.777  21.954  1.00  0.00    -0.083 SA
HETATM   19  C6  UNL     1      -0.104  38.526  23.573  1.00  0.00     0.359 A 
HETATM   20  C7  UNL     1       0.763  40.027  21.663  1.00  0.00     0.243 C 
HETATM   21  O1  UNL     1       0.686  37.523  23.602  1.00  0.00    -0.244 OA
HETATM   22  O2  UNL     1       1.979  39.682  21.443  1.00  0.00    -0.272 OA
HETATM   23  C8  UNL     1       0.113  40.981  20.729  1.00  0.00     0.186 C 
ENDBRANCH   7  13
BRANCH   4  24
HETATM   24  N3  UNL     1      -2.208  36.389  29.916  1.00  0.00    -0.384 N 
ATOM     25  H32 UNL     1      -2.193  37.408  29.858  1.00  0.00     0.157 HD
ATOM     26  H31 UNL     1      -2.107  35.903  30.807  1.00  0.00     0.157 HD
ENDBRANCH   4  24
BRANCH   1  27
HETATM   27  N1  UNL     1      -3.324  32.623  27.607  1.00  0.00    -0.234 N 
ATOM     28  H12 UNL     1      -3.204  32.049  28.442  1.00  0.00     0.174 HD
ATOM     29  H11 UNL     1      -3.750  32.281  26.746  1.00  0.00     0.174 HD
ENDBRANCH   1  27
TORSDOF 3
ENDMDL
MODEL 4
REMARK VINA RESULT: -7.444380460      3.375      7.960
REMARK  3 active torsions:
REMARK  status: ('A' for Active; 'I' for Inactive)
REMARK    1  A    between atoms: N1_1  and  C1_4 
REMARK    2  A    between atoms: C2_7  and  N3_8 
REMARK    3  A    between atoms: C4_13  and  N4_14 
ROOT
HETATM    1  C1  UNL     1      -2.666  42.357  19.619  1.00  0.00     0.679 A 
HETATM    2  N2  UNL     1      -1.568  42.539  18.866  1.00  0.00    -0.176 N 
ATOM      3  H2  UNL     1      -1.608  43.021  17.968  1.00  0.00     0.186 HD
HETATM    4  C2  UNL     1      -0.420  42.054  19.355  1.00  0.00     0.135 A 
HETATM    5  C3  UNL     1      -0.370  41.393  20.587  1.00  0.00     0.097 A 
HETATM    6  S1  UNL     1       0.813  40.642  21.565  1.00  0.00    -0.044 SA
HETATM    7  C4  UNL     1      -0.197  40.152  22.870  1.00  0.00     0.177 A 
HETATM    8  N7  UNL     1      -1.369  40.590  22.477  1.00  0.00    -0.319 N 
ATOM      9  H7  UNL     1      -2.187  40.439  23.066  1.00  0.00     0.169 HD
HETATM   10  C9  UNL     1      -1.501  41.215  21.344  1.00  0.00     0.144 A 
HETATM   11  N8  UNL     1      -2.653  41.731  20.798  1.00  0.00    -0.175 N 
ATOM     12  H8  UNL     1      -3.529  41.632  21.312  1.00  0.00     0.186 HD
ENDROOT
BRANCH   7  13
HETATM   13  N4  UNL     1       0.161  39.442  24.076  1.00  0.00    -0.179 N 
HETATM   14  N5  UNL     1       1.364  39.188  24.555  1.00  0.00    -0.266 N 
HETATM   15  C5  UNL     1       1.261  38.500  25.705  1.00  0.00     0.173 A 
ATOM     16  H5  UNL     1       2.241  39.472  24.118  1.00  0.00     0.190 HD
HETATM   17  N6  UNL     1      -0.024  38.300  25.984  1.00  0.00    -0.209 N 
HETATM   18  S2  UNL     1       2.183  37.721  27.033  1.00  0.00    -0.083 SA
HETATM   19  C6  UNL     1      -0.698  38.899  24.950  1.00  0.00     0.359 A 
HETATM   20  C7  UNL     1      -0.324  37.606  27.150  1.00  0.00     0.243 C 
HETATM   21  O1  UNL     1      -1.965  38.956  24.800  1.00  0.00    -0.244 OA
HETATM   22  O2  UNL     1      -1.425  37.664  27.806  1.00  0.00    -0.272 OA
HETATM   23  C8  UNL     1       0.759  36.723  27.652  1.00  0.00     0.186 C 
ENDBRANCH   7  13
BRANCH   4  24
HETATM   24  N3  UNL     1       0.676  42.179  18.711  1.00  0.00    -0.384 N 
ATOM     25  H32 UNL     1       1.508  42.427  19.246  1.00  0.00     0.157 HD
ATOM     26  H31 UNL     1       0.712  42.035  17.702  1.00  0.00     0.157 HD
ENDBRANCH   4  24
BRANCH   1  27
HETATM   27  N1  UNL     1      -3.812  42.827  19.158  1.00  0.00    -0.234 N 
ATOM     28  H12 UNL     1      -4.205  43.669  19.579  1.00  0.00     0.174 HD
ATOM     29  H11 UNL     1      -4.257  42.320  18.392  1.00  0.00     0.174 HD
ENDBRANCH   1  27
TORSDOF 3
ENDMDL
MODEL 5
REMARK VINA RESULT: -7.414200167      1.595      1.742
REMARK  3 active torsions:
REMARK  status: ('A' for Active; 'I' for Inactive)
REMARK    1  A    between atoms: N1_1  and  C1_4 
REMARK    2  A    between atoms: C2_7  and  N3_8 
REMARK    3  A    between atoms: C4_13  and  N4_14 
ROOT
HETATM    1  C1  UNL     1      -3.020  34.235  27.299  1.00  0.00     0.679 A 
HETATM    2  N2  UNL     1      -2.951  34.582  28.595  1.00  0.00    -0.176 N 
ATOM      3  H2  UNL     1      -3.282  33.963  29.334  1.00  0.00     0.186 HD
HETATM    4  C2  UNL     1      -2.424  35.783  28.865  1.00  0.00     0.135 A 
HETATM    5  C3  UNL     1      -1.972  36.630  27.847  1.00  0.00     0.097 A 
HETATM    6  S1  UNL     1      -1.261  38.179  27.722  1.00  0.00    -0.044 SA
HETATM    7  C4  UNL     1      -1.107  38.261  26.010  1.00  0.00     0.177 A 
HETATM    8  N7  UNL     1      -1.607  37.105  25.644  1.00  0.00    -0.319 N 
ATOM      9  H7  UNL     1      -1.648  36.865  24.654  1.00  0.00     0.169 HD
HETATM   10  C9  UNL     1      -2.049  36.260  26.528  1.00  0.00     0.144 A 
HETATM   11  N8  UNL     1      -2.597  35.018  26.304  1.00  0.00    -0.175 N 
ATOM     12  H8  UNL     1      -2.682  34.684  25.344  1.00  0.00     0.186 HD
ENDROOT
BRANCH   7  13
HETATM   13  N4  UNL     1      -0.569  39.327  25.199  1.00  0.00    -0.179 N 
HETATM   14  N5  UNL     1       0.523  40.041  25.396  1.00  0.00    -0.266 N 
HETATM   15  C5  UNL     1       0.668  40.937  24.404  1.00  0.00     0.173 A 
ATOM     16  H5  UNL     1       1.162  39.929  26.182  1.00  0.00     0.190 HD
HETATM   17  N6  UNL     1      -0.342  40.810  23.546  1.00  0.00    -0.209 N 
HETATM   18  S2  UNL     1       1.692  42.266  23.769  1.00  0.00    -0.083 SA
HETATM   19  C6  UNL     1      -1.106  39.795  24.062  1.00  0.00     0.359 A 
HETATM   20  C7  UNL     1      -0.354  41.657  22.445  1.00  0.00     0.243 C 
HETATM   21  O1  UNL     1      -2.186  39.327  23.564  1.00  0.00    -0.244 OA
HETATM   22  O2  UNL     1      -0.951  41.444  21.330  1.00  0.00    -0.272 OA
HETATM   23  C8  UNL     1       0.409  42.920  22.613  1.00  0.00     0.186 C 
ENDBRANCH   7  13
BRANCH   4  24
HETATM   24  N3  UNL     1      -2.317  36.201  30.068  1.00  0.00    -0.384 N 
ATOM     25  H32 UNL     1      -2.578  35.555  30.813  1.00  0.00     0.157 HD
ATOM     26  H31 UNL     1      -1.982  37.142  30.270  1.00  0.00     0.157 HD
ENDBRANCH   4  24
BRANCH   1  27
HETATM   27  N1  UNL     1      -3.535  33.054  27.006  1.00  0.00    -0.234 N 
ATOM     28  H12 UNL     1      -3.846  32.874  26.051  1.00  0.00     0.174 HD
ATOM     29  H11 UNL     1      -3.599  32.366  27.757  1.00  0.00     0.174 HD
ENDBRANCH   1  27
TORSDOF 3
ENDMDL
