MODEL 1
REMARK VINA RESULT: -10.038615990      0.000      0.000
REMARK  6 active torsions:
REMARK  status: ('A' for Active; 'I' for Inactive)
REMARK    1  A    between atoms: C4_5  and  N2_6 
REMARK    2  A    between atoms: N2_6  and  N3_8 
REMARK    3  A    between atoms: C7_15  and  N6_16 
REMARK    4  A    between atoms: C8_19  and  N7_20 
REMARK    5  A    between atoms: N7_20  and  O3_22 
REMARK    6  A    between atoms: C10_28  and  N9_29 
ROOT
HETATM    1  N3  UNL     1      46.788 -12.916  -9.641  1.00  0.00    -0.280 N 
ATOM      2  H3  UNL     1      47.090 -11.989  -9.939  1.00  0.00     0.188 HD
HETATM    3  C5  UNL     1      45.583 -13.048  -9.819  1.00  0.00     0.191 C 
HETATM    4  N4  UNL     1      44.955 -11.940 -10.361  1.00  0.00    -0.323 N 
ATOM      5  H4  UNL     1      45.556 -11.147 -10.587  1.00  0.00     0.169 HD
HETATM    6  C6  UNL     1      43.640 -11.785 -10.624  1.00  0.00     0.155 C 
HETATM    7  N5  UNL     1      43.280 -10.902 -11.660  1.00  0.00    -0.080 NA
HETATM    8  C7  UNL     1      42.596 -12.411  -9.983  1.00  0.00     0.189 C 
HETATM    9  C8  UNL     1      42.654 -13.573  -9.189  1.00  0.00     0.165 C 
HETATM   10  N8  UNL     1      43.705 -14.405  -9.001  1.00  0.00    -0.303 N 
ATOM     11  H8  UNL     1      43.532 -15.242  -8.445  1.00  0.00     0.171 HD
HETATM   12  C9  UNL     1      44.980 -14.234  -9.484  1.00  0.00     0.292 C 
HETATM   13  O4  UNL     1      45.682 -15.256  -9.642  1.00  0.00    -0.264 OA
ENDROOT
BRANCH   1  14
HETATM   14  N2  UNL     1      47.851 -13.631  -9.166  1.00  0.00    -0.297 N 
ATOM     15  H2  UNL     1      48.124 -14.543  -9.533  1.00  0.00     0.187 HD
BRANCH  14  16
HETATM   16  C4  UNL     1      48.556 -12.963  -8.085  1.00  0.00     0.081 A 
HETATM   17  C3  UNL     1      48.378 -13.402  -6.783  1.00  0.00     0.035 A 
HETATM   18  C2  UNL     1      49.057 -12.858  -5.721  1.00  0.00     0.029 A 
HETATM   19  C1  UNL     1      49.963 -11.824  -5.949  1.00  0.00     0.048 A 
HETATM   20  N1  UNL     1      50.675 -11.286  -4.845  1.00  0.00    -0.102 NA
HETATM   21  C11 UNL     1      50.132 -11.395  -7.239  1.00  0.00     0.065 A 
HETATM   22  C10 UNL     1      49.436 -11.951  -8.325  1.00  0.00     0.132 A 
BRANCH  22  23
HETATM   23  N9  UNL     1      49.677 -11.430  -9.615  1.00  0.00    -0.113 N 
HETATM   24  O5  UNL     1      49.777 -12.187 -10.580  1.00  0.00    -0.532 OA
HETATM   25  O6  UNL     1      49.810 -10.082  -9.792  1.00  0.00    -0.532 OA
ENDBRANCH  22  23
ENDBRANCH  14  16
ENDBRANCH   1  14
BRANCH   8  26
HETATM   26  N6  UNL     1      41.337 -11.792 -10.156  1.00  0.00    -0.108 N 
HETATM   27  O1  UNL     1      40.642 -12.116 -11.133  1.00  0.00    -0.532 OA
HETATM   28  O2  UNL     1      40.857 -10.856  -9.289  1.00  0.00    -0.532 OA
ENDBRANCH   8  26
BRANCH   9  29
HETATM   29  N7  UNL     1      41.589 -13.881  -8.570  1.00  0.00    -0.251 N 
ATOM     30  H7  UNL     1      41.088 -13.165  -8.044  1.00  0.00     0.196 HD
BRANCH  29  31
HETATM   31  O3  UNL     1      41.110 -15.147  -8.601  1.00  0.00    -0.288 OA
ATOM     32  H3  UNL     1      41.047 -15.663  -7.807  1.00  0.00     0.244 HD
ENDBRANCH  29  31
ENDBRANCH   9  29
TORSDOF 6
ENDMDL
MODEL 2
REMARK VINA RESULT: -9.616646509      1.736      2.089
REMARK  6 active torsions:
REMARK  status: ('A' for Active; 'I' for Inactive)
REMARK    1  A    between atoms: C4_5  and  N2_6 
REMARK    2  A    between atoms: N2_6  and  N3_8 
REMARK    3  A    between atoms: C7_15  and  N6_16 
REMARK    4  A    between atoms: C8_19  and  N7_20 
REMARK    5  A    between atoms: N7_20  and  O3_22 
REMARK    6  A    between atoms: C10_28  and  N9_29 
ROOT
HETATM    1  N3  UNL     1      46.798 -12.649 -10.468  1.00  0.00    -0.280 N 
ATOM      2  H3  UNL     1      47.041 -11.701 -10.755  1.00  0.00     0.188 HD
HETATM    3  C5  UNL     1      45.584 -12.807 -10.512  1.00  0.00     0.191 C 
HETATM    4  N4  UNL     1      44.871 -11.694 -10.924  1.00  0.00    -0.323 N 
ATOM      5  H4  UNL     1      45.424 -10.876 -11.181  1.00  0.00     0.169 HD
HETATM    6  C6  UNL     1      43.532 -11.565 -11.027  1.00  0.00     0.155 C 
HETATM    7  N5  UNL     1      43.033 -10.647 -11.972  1.00  0.00    -0.080 NA
HETATM    8  C7  UNL     1      42.584 -12.247 -10.300  1.00  0.00     0.189 C 
HETATM    9  C8  UNL     1      42.761 -13.441  -9.574  1.00  0.00     0.165 C 
HETATM   10  N8  UNL     1      43.844 -14.251  -9.547  1.00  0.00    -0.303 N 
ATOM     11  H8  UNL     1      43.757 -15.117  -9.015  1.00  0.00     0.171 HD
HETATM   12  C9  UNL     1      45.051 -14.023 -10.166  1.00  0.00     0.292 C 
HETATM   13  O4  UNL     1      45.753 -15.017 -10.451  1.00  0.00    -0.264 OA
ENDROOT
BRANCH   1  14
HETATM   14  N2  UNL     1      47.925 -13.354 -10.152  1.00  0.00    -0.297 N 
ATOM     15  H2  UNL     1      48.289 -14.116 -10.725  1.00  0.00     0.187 HD
BRANCH  14  16
HETATM   16  C4  UNL     1      48.555 -12.911  -8.920  1.00  0.00     0.081 A 
HETATM   17  C3  UNL     1      49.517 -11.915  -8.967  1.00  0.00     0.035 A 
HETATM   18  C2  UNL     1      50.109 -11.406  -7.838  1.00  0.00     0.029 A 
HETATM   19  C1  UNL     1      49.736 -11.902  -6.591  1.00  0.00     0.048 A 
HETATM   20  N1  UNL     1      50.340 -11.351  -5.430  1.00  0.00    -0.102 NA
HETATM   21  C11 UNL     1      48.785 -12.887  -6.553  1.00  0.00     0.065 A 
HETATM   22  C10 UNL     1      48.180 -13.409  -7.709  1.00  0.00     0.132 A 
BRANCH  22  23
HETATM   23  N9  UNL     1      47.217 -14.430  -7.560  1.00  0.00    -0.113 N 
HETATM   24  O5  UNL     1      47.443 -15.562  -7.985  1.00  0.00    -0.532 OA
HETATM   25  O6  UNL     1      46.024 -14.159  -6.951  1.00  0.00    -0.532 OA
ENDBRANCH  22  23
ENDBRANCH  14  16
ENDBRANCH   1  14
BRANCH   8  26
HETATM   26  N6  UNL     1      41.300 -11.657 -10.298  1.00  0.00    -0.108 N 
HETATM   27  O1  UNL     1      40.519 -11.923 -11.226  1.00  0.00    -0.532 OA
HETATM   28  O2  UNL     1      40.886 -10.810  -9.312  1.00  0.00    -0.532 OA
ENDBRANCH   8  26
BRANCH   9  29
HETATM   29  N7  UNL     1      41.782 -13.806  -8.852  1.00  0.00    -0.251 N 
ATOM     30  H7  UNL     1      41.277 -13.112  -8.301  1.00  0.00     0.196 HD
BRANCH  29  31
HETATM   31  O3  UNL     1      41.401 -15.104  -8.804  1.00  0.00    -0.288 OA
ATOM     32  H3  UNL     1      40.771 -15.403  -8.159  1.00  0.00     0.244 HD
ENDBRANCH  29  31
ENDBRANCH   9  29
TORSDOF 6
ENDMDL
MODEL 3
REMARK VINA RESULT: -9.528165777      1.717      2.229
REMARK  6 active torsions:
REMARK  status: ('A' for Active; 'I' for Inactive)
REMARK    1  A    between atoms: C4_5  and  N2_6 
REMARK    2  A    between atoms: N2_6  and  N3_8 
REMARK    3  A    between atoms: C7_15  and  N6_16 
REMARK    4  A    between atoms: C8_19  and  N7_20 
REMARK    5  A    between atoms: N7_20  and  O3_22 
REMARK    6  A    between atoms: C10_28  and  N9_29 
ROOT
HETATM    1  N3  UNL     1      46.940 -12.651  -9.651  1.00  0.00    -0.280 N 
ATOM      2  H3  UNL     1      47.169 -11.723 -10.006  1.00  0.00     0.188 HD
HETATM    3  C5  UNL     1      45.746 -12.881  -9.800  1.00  0.00     0.191 C 
HETATM    4  N4  UNL     1      45.031 -11.854 -10.391  1.00  0.00    -0.323 N 
ATOM      5  H4  UNL     1      45.569 -11.034 -10.672  1.00  0.00     0.169 HD
HETATM    6  C6  UNL     1      43.704 -11.811 -10.640  1.00  0.00     0.155 C 
HETATM    7  N5  UNL     1      43.266 -11.017 -11.718  1.00  0.00    -0.080 NA
HETATM    8  C7  UNL     1      42.718 -12.473  -9.947  1.00  0.00     0.189 C 
HETATM    9  C8  UNL     1      42.873 -13.580  -9.090  1.00  0.00     0.165 C 
HETATM   10  N8  UNL     1      43.984 -14.321  -8.874  1.00  0.00    -0.303 N 
ATOM     11  H8  UNL     1      43.881 -15.136  -8.268  1.00  0.00     0.171 HD
HETATM   12  C9  UNL     1      45.237 -14.086  -9.388  1.00  0.00     0.292 C 
HETATM   13  O4  UNL     1      46.010 -15.061  -9.500  1.00  0.00    -0.264 OA
ENDROOT
BRANCH   1  14
HETATM   14  N2  UNL     1      48.060 -13.258  -9.154  1.00  0.00    -0.297 N 
ATOM     15  H2  UNL     1      48.156 -14.270  -9.064  1.00  0.00     0.187 HD
BRANCH  14  16
HETATM   16  C4  UNL     1      49.100 -12.320  -8.768  1.00  0.00     0.081 A 
HETATM   17  C3  UNL     1      49.740 -11.574  -9.744  1.00  0.00     0.035 A 
HETATM   18  C2  UNL     1      50.688 -10.627  -9.446  1.00  0.00     0.029 A 
HETATM   19  C1  UNL     1      51.027 -10.399  -8.114  1.00  0.00     0.048 A 
HETATM   20  N1  UNL     1      51.994  -9.401  -7.819  1.00  0.00    -0.102 NA
HETATM   21  C11 UNL     1      50.391 -11.141  -7.156  1.00  0.00     0.065 A 
HETATM   22  C10 UNL     1      49.421 -12.111  -7.461  1.00  0.00     0.132 A 
BRANCH  22  23
HETATM   23  N9  UNL     1      48.831 -12.828  -6.398  1.00  0.00    -0.113 N 
HETATM   24  O5  UNL     1      49.302 -12.756  -5.264  1.00  0.00    -0.532 OA
HETATM   25  O6  UNL     1      47.737 -13.614  -6.630  1.00  0.00    -0.532 OA
ENDBRANCH  22  23
ENDBRANCH  14  16
ENDBRANCH   1  14
BRANCH   8  26
HETATM   26  N6  UNL     1      41.415 -11.959 -10.132  1.00  0.00    -0.108 N 
HETATM   27  O1  UNL     1      40.743 -12.367 -11.094  1.00  0.00    -0.532 OA
HETATM   28  O2  UNL     1      40.868 -11.033  -9.293  1.00  0.00    -0.532 OA
ENDBRANCH   8  26
BRANCH   9  29
HETATM   29  N7  UNL     1      41.841 -13.929  -8.436  1.00  0.00    -0.251 N 
ATOM     30  H7  UNL     1      41.465 -13.307  -7.720  1.00  0.00     0.196 HD
BRANCH  29  31
HETATM   31  O3  UNL     1      41.234 -15.115  -8.678  1.00  0.00    -0.288 OA
ATOM     32  H3  UNL     1      40.736 -15.554  -7.999  1.00  0.00     0.244 HD
ENDBRANCH  29  31
ENDBRANCH   9  29
TORSDOF 6
ENDMDL
MODEL 4
REMARK VINA RESULT: -9.248243195      2.169      2.838
REMARK  6 active torsions:
REMARK  status: ('A' for Active; 'I' for Inactive)
REMARK    1  A    between atoms: C4_5  and  N2_6 
REMARK    2  A    between atoms: N2_6  and  N3_8 
REMARK    3  A    between atoms: C7_15  and  N6_16 
REMARK    4  A    between atoms: C8_19  and  N7_20 
REMARK    5  A    between atoms: N7_20  and  O3_22 
REMARK    6  A    between atoms: C10_28  and  N9_29 
ROOT
HETATM    1  N3  UNL     1      46.727 -13.111 -10.178  1.00  0.00    -0.280 N 
ATOM      2  H3  UNL     1      47.299 -12.985 -11.012  1.00  0.00     0.188 HD
HETATM    3  C5  UNL     1      45.543 -12.949 -10.446  1.00  0.00     0.191 C 
HETATM    4  N4  UNL     1      45.289 -12.642 -11.771  1.00  0.00    -0.323 N 
ATOM      5  H4  UNL     1      46.099 -12.617 -12.391  1.00  0.00     0.169 HD
HETATM    6  C6  UNL     1      44.094 -12.372 -12.340  1.00  0.00     0.155 C 
HETATM    7  N5  UNL     1      43.942 -12.661 -13.711  1.00  0.00    -0.080 NA
HETATM    8  C7  UNL     1      42.990 -11.842 -11.716  1.00  0.00     0.189 C 
HETATM    9  C8  UNL     1      42.732 -11.795 -10.332  1.00  0.00     0.165 C 
HETATM   10  N8  UNL     1      43.428 -12.381  -9.331  1.00  0.00    -0.303 N 
ATOM     11  H8  UNL     1      43.042 -12.294  -8.391  1.00  0.00     0.171 HD
HETATM   12  C9  UNL     1      44.605 -13.082  -9.454  1.00  0.00     0.292 C 
HETATM   13  O4  UNL     1      44.866 -13.935  -8.579  1.00  0.00    -0.264 OA
ENDROOT
BRANCH   1  14
HETATM   14  N2  UNL     1      47.516 -13.410  -9.102  1.00  0.00    -0.297 N 
ATOM     15  H2  UNL     1      47.342 -14.200  -8.481  1.00  0.00     0.187 HD
BRANCH  14  16
HETATM   16  C4  UNL     1      48.629 -12.492  -8.932  1.00  0.00     0.081 A 
HETATM   17  C3  UNL     1      49.128 -11.815 -10.033  1.00  0.00     0.035 A 
HETATM   18  C2  UNL     1      50.136 -10.889  -9.936  1.00  0.00     0.029 A 
HETATM   19  C1  UNL     1      50.686 -10.610  -8.687  1.00  0.00     0.048 A 
HETATM   20  N1  UNL     1      51.714  -9.633  -8.598  1.00  0.00    -0.102 NA
HETATM   21  C11 UNL     1      50.189 -11.284  -7.604  1.00  0.00     0.065 A 
HETATM   22  C10 UNL     1      49.158 -12.233  -7.703  1.00  0.00     0.132 A 
BRANCH  22  23
HETATM   23  N9  UNL     1      48.723 -12.878  -6.526  1.00  0.00    -0.113 N 
HETATM   24  O5  UNL     1      47.772 -13.657  -6.562  1.00  0.00    -0.532 OA
HETATM   25  O6  UNL     1      49.354 -12.632  -5.339  1.00  0.00    -0.532 OA
ENDBRANCH  22  23
ENDBRANCH  14  16
ENDBRANCH   1  14
BRANCH   8  26
HETATM   26  N6  UNL     1      42.026 -11.285 -12.586  1.00  0.00    -0.108 N 
HETATM   27  O1  UNL     1      40.907 -11.820 -12.659  1.00  0.00    -0.532 OA
HETATM   28  O2  UNL     1      42.278 -10.181 -13.347  1.00  0.00    -0.532 OA
ENDBRANCH   8  26
BRANCH   9  29
HETATM   29  N7  UNL     1      41.718 -11.118  -9.975  1.00  0.00    -0.251 N 
ATOM     30  H7  UNL     1      41.756 -10.099 -10.009  1.00  0.00     0.196 HD
BRANCH  29  31
HETATM   31  O3  UNL     1      40.588 -11.731  -9.550  1.00  0.00    -0.288 OA
ATOM     32  H3  UNL     1      40.035 -11.329  -8.891  1.00  0.00     0.244 HD
ENDBRANCH  29  31
ENDBRANCH   9  29
TORSDOF 6
ENDMDL
MODEL 5
REMARK VINA RESULT: -9.156587374      1.733      2.255
REMARK  6 active torsions:
REMARK  status: ('A' for Active; 'I' for Inactive)
REMARK    1  A    between atoms: C4_5  and  N2_6 
REMARK    2  A    between atoms: N2_6  and  N3_8 
REMARK    3  A    between atoms: C7_15  and  N6_16 
REMARK    4  A    between atoms: C8_19  and  N7_20 
REMARK    5  A    between atoms: N7_20  and  O3_22 
REMARK    6  A    between atoms: C10_28  and  N9_29 
ROOT
HETATM    1  N3  UNL     1      46.082 -13.895 -10.203  1.00  0.00    -0.280 N 
ATOM      2  H3  UNL     1      46.828 -13.672 -10.861  1.00  0.00     0.188 HD
HETATM    3  C5  UNL     1      44.995 -13.570 -10.666  1.00  0.00     0.191 C 
HETATM    4  N4  UNL     1      45.053 -12.998 -11.925  1.00  0.00    -0.323 N 
ATOM      5  H4  UNL     1      45.978 -12.937 -12.350  1.00  0.00     0.169 HD
HETATM    6  C6  UNL     1      44.028 -12.511 -12.657  1.00  0.00     0.155 C 
HETATM    7  N5  UNL     1      44.161 -12.523 -14.059  1.00  0.00    -0.080 NA
HETATM    8  C7  UNL     1      42.846 -12.000 -12.174  1.00  0.00     0.189 C 
HETATM    9  C8  UNL     1      42.296 -12.187 -10.891  1.00  0.00     0.165 C 
HETATM   10  N8  UNL     1      42.724 -13.014  -9.910  1.00  0.00    -0.303 N 
ATOM     11  H8  UNL     1      42.148 -13.067  -9.069  1.00  0.00     0.171 HD
HETATM   12  C9  UNL     1      43.857 -13.792  -9.932  1.00  0.00     0.292 C 
HETATM   13  O4  UNL     1      43.874 -14.815  -9.215  1.00  0.00    -0.264 OA
ENDROOT
BRANCH   1  14
HETATM   14  N2  UNL     1      46.600 -14.465  -9.074  1.00  0.00    -0.297 N 
ATOM     15  H2  UNL     1      46.338 -15.394  -8.744  1.00  0.00     0.187 HD
BRANCH  14  16
HETATM   16  C4  UNL     1      47.560 -13.616  -8.389  1.00  0.00     0.081 A 
HETATM   17  C3  UNL     1      47.702 -13.719  -7.015  1.00  0.00     0.035 A 
HETATM   18  C2  UNL     1      48.630 -12.992  -6.312  1.00  0.00     0.029 A 
HETATM   19  C1  UNL     1      49.468 -12.115  -6.996  1.00  0.00     0.048 A 
HETATM   20  N1  UNL     1      50.440 -11.386  -6.260  1.00  0.00    -0.102 NA
HETATM   21  C11 UNL     1      49.321 -12.018  -8.355  1.00  0.00     0.065 A 
HETATM   22  C10 UNL     1      48.370 -12.760  -9.074  1.00  0.00     0.132 A 
BRANCH  22  23
HETATM   23  N9  UNL     1      48.294 -12.580 -10.471  1.00  0.00    -0.113 N 
HETATM   24  O5  UNL     1      48.744 -13.436 -11.232  1.00  0.00    -0.532 OA
HETATM   25  O6  UNL     1      47.727 -11.447 -10.984  1.00  0.00    -0.532 OA
ENDBRANCH  22  23
ENDBRANCH  14  16
ENDBRANCH   1  14
BRANCH   8  26
HETATM   26  N6  UNL     1      42.127 -11.199 -13.090  1.00  0.00    -0.108 N 
HETATM   27  O1  UNL     1      42.566 -10.072 -13.371  1.00  0.00    -0.532 OA
HETATM   28  O2  UNL     1      40.970 -11.620 -13.678  1.00  0.00    -0.532 OA
ENDBRANCH   8  26
BRANCH   9  29
HETATM   29  N7  UNL     1      41.269 -11.492 -10.616  1.00  0.00    -0.251 N 
ATOM     30  H7  UNL     1      41.042 -10.681 -11.192  1.00  0.00     0.196 HD
BRANCH  29  31
HETATM   31  O3  UNL     1      40.473 -11.813  -9.570  1.00  0.00    -0.288 OA
ATOM     32  H3  UNL     1      39.792 -11.219  -9.276  1.00  0.00     0.244 HD
ENDBRANCH  29  31
ENDBRANCH   9  29
TORSDOF 6
ENDMDL
