MODEL 1
REMARK VINA RESULT: -8.878666237      0.000      0.000
REMARK  5 active torsions:
REMARK  status: ('A' for Active; 'I' for Inactive)
REMARK    1  A    between atoms: N1_2  and  N2_3 
REMARK    2  A    between atoms: N1_2  and  C9_21 
REMARK       I    between atoms: N2_3  and  C2_5 
REMARK    3  A    between atoms: C2_5  and  C3_7 
REMARK    4  A    between atoms: C5_9  and  N3_10 
REMARK    5  A    between atoms: C7_15  and  N5_16 
ROOT
HETATM    1  N2  UNL     1      45.651 -14.879  -9.833  1.00  0.00    -0.249 N 
ATOM      2  H2  UNL     1      44.731 -15.149  -9.484  1.00  0.00     0.191 HD
HETATM    3  C2  UNL     1      45.756 -13.790 -10.692  1.00  0.00     0.272 C 
HETATM    4  O1  UNL     1      46.926 -13.482 -11.111  1.00  0.00    -0.266 OA
ENDROOT
BRANCH   3   5
HETATM    5  C3  UNL     1      44.657 -12.967 -11.164  1.00  0.00     0.062 A 
HETATM    6  C4  UNL     1      44.565 -12.602 -12.482  1.00  0.00     0.057 A 
HETATM    7  C5  UNL     1      43.515 -11.810 -12.941  1.00  0.00     0.130 A 
HETATM    8  C6  UNL     1      42.529 -11.365 -12.089  1.00  0.00     0.114 A 
HETATM    9  N4  UNL     1      41.445 -10.548 -12.554  1.00  0.00    -0.097 NA
HETATM   10  C7  UNL     1      42.608 -11.724 -10.762  1.00  0.00     0.154 A 
HETATM   11  C8  UNL     1      43.669 -12.519 -10.319  1.00  0.00     0.097 A 
HETATM   12  N6  UNL     1      43.762 -12.896  -8.951  1.00  0.00    -0.099 NA
BRANCH   7  13
HETATM   13  N3  UNL     1      43.430 -11.429 -14.302  1.00  0.00    -0.114 N 
HETATM   14  O2  UNL     1      42.864 -12.200 -15.098  1.00  0.00    -0.532 OA
HETATM   15  O3  UNL     1      43.945 -10.254 -14.782  1.00  0.00    -0.532 OA
ENDBRANCH   7  13
BRANCH  10  16
HETATM   16  N5  UNL     1      41.634 -11.311  -9.810  1.00  0.00    -0.112 N 
HETATM   17  O4  UNL     1      40.634 -12.041  -9.686  1.00  0.00    -0.532 OA
HETATM   18  O5  UNL     1      41.763 -10.186  -9.066  1.00  0.00    -0.532 OA
ENDBRANCH  10  16
ENDBRANCH   3   5
BRANCH   1  19
HETATM   19  N1  UNL     1      46.761 -15.606  -9.438  1.00  0.00    -0.124 N 
HETATM   20  C1  UNL     1      47.613 -15.026  -8.392  1.00  0.00     0.197 C 
BRANCH  19  21
HETATM   21  C9  UNL     1      47.141 -16.875  -9.967  1.00  0.00     0.717 A 
HETATM   22  N7  UNL     1      46.287 -17.859  -9.856  1.00  0.00    -0.116 N 
HETATM   23  N8  UNL     1      46.549 -19.149 -10.337  1.00  0.00    -0.226 N 
ATOM     24  H7  UNL     1      45.392 -17.680  -9.401  1.00  0.00     0.207 HD
HETATM   25  N9  UNL     1      47.772 -19.403 -10.964  1.00  0.00    -0.258 N 
ATOM     26  H8  UNL     1      45.858 -19.892 -10.230  1.00  0.00     0.209 HD
HETATM   27  C10 UNL     1      48.687 -18.308 -11.072  1.00  0.00     0.222 A 
ATOM     28  H9  UNL     1      48.002 -20.328 -11.329  1.00  0.00     0.191 HD
HETATM   29  N10 UNL     1      49.925 -18.577 -11.709  1.00  0.00    -0.061 NA
HETATM   30  N11 UNL     1      48.368 -17.151 -10.602  1.00  0.00    -0.159 N 
ATOM     31  H11 UNL     1      49.042 -16.392 -10.695  1.00  0.00     0.187 HD
ENDBRANCH  19  21
ENDBRANCH   1  19
TORSDOF 5
ENDMDL
MODEL 2
REMARK VINA RESULT: -8.687185745      3.773      5.627
REMARK  5 active torsions:
REMARK  status: ('A' for Active; 'I' for Inactive)
REMARK    1  A    between atoms: N1_2  and  N2_3 
REMARK    2  A    between atoms: N1_2  and  C9_21 
REMARK       I    between atoms: N2_3  and  C2_5 
REMARK    3  A    between atoms: C2_5  and  C3_7 
REMARK    4  A    between atoms: C5_9  and  N3_10 
REMARK    5  A    between atoms: C7_15  and  N5_16 
ROOT
HETATM    1  N2  UNL     1      47.790 -11.473 -10.385  1.00  0.00    -0.249 N 
ATOM      2  H2  UNL     1      47.434 -10.575 -10.716  1.00  0.00     0.191 HD
HETATM    3  C2  UNL     1      46.915 -12.547 -10.273  1.00  0.00     0.272 C 
HETATM    4  O1  UNL     1      47.397 -13.657  -9.852  1.00  0.00    -0.266 OA
ENDROOT
BRANCH   3   5
HETATM    5  C3  UNL     1      45.498 -12.530 -10.588  1.00  0.00     0.062 A 
HETATM    6  C4  UNL     1      44.576 -13.051  -9.717  1.00  0.00     0.057 A 
HETATM    7  C5  UNL     1      43.215 -13.040 -10.014  1.00  0.00     0.130 A 
HETATM    8  C6  UNL     1      42.744 -12.505 -11.193  1.00  0.00     0.114 A 
HETATM    9  N4  UNL     1      41.344 -12.492 -11.506  1.00  0.00    -0.097 NA
HETATM   10  C7  UNL     1      43.659 -11.979 -12.077  1.00  0.00     0.154 A 
HETATM   11  C8  UNL     1      45.020 -11.999 -11.763  1.00  0.00     0.097 A 
HETATM   12  N6  UNL     1      45.974 -11.459 -12.668  1.00  0.00    -0.099 NA
BRANCH   7  13
HETATM   13  N3  UNL     1      42.268 -13.586  -9.115  1.00  0.00    -0.114 N 
HETATM   14  O2  UNL     1      41.853 -12.870  -8.185  1.00  0.00    -0.532 OA
HETATM   15  O3  UNL     1      41.791 -14.865  -9.218  1.00  0.00    -0.532 OA
ENDBRANCH   7  13
BRANCH  10  16
HETATM   16  N5  UNL     1      43.263 -11.406 -13.318  1.00  0.00    -0.112 N 
HETATM   17  O4  UNL     1      42.980 -10.193 -13.305  1.00  0.00    -0.532 OA
HETATM   18  O5  UNL     1      43.189 -12.118 -14.468  1.00  0.00    -0.532 OA
ENDBRANCH  10  16
ENDBRANCH   3   5
BRANCH   1  19
HETATM   19  N1  UNL     1      49.130 -11.587 -10.059  1.00  0.00    -0.124 N 
HETATM   20  C1  UNL     1      50.072 -11.862 -11.151  1.00  0.00     0.197 C 
BRANCH  19  21
HETATM   21  C9  UNL     1      49.669 -11.456  -8.744  1.00  0.00     0.717 A 
HETATM   22  N7  UNL     1      50.657 -10.617  -8.573  1.00  0.00    -0.116 N 
HETATM   23  N8  UNL     1      51.266 -10.405  -7.329  1.00  0.00    -0.226 N 
ATOM     24  H7  UNL     1      50.999 -10.095  -9.379  1.00  0.00     0.207 HD
HETATM   25  N9  UNL     1      50.802 -11.115  -6.218  1.00  0.00    -0.258 N 
ATOM     26  H8  UNL     1      52.037  -9.743  -7.235  1.00  0.00     0.209 HD
HETATM   27  C10 UNL     1      49.719 -12.025  -6.433  1.00  0.00     0.222 A 
ATOM     28  H9  UNL     1      51.217 -10.990  -5.294  1.00  0.00     0.191 HD
HETATM   29  N10 UNL     1      49.258 -12.741  -5.300  1.00  0.00    -0.061 NA
HETATM   30  N11 UNL     1      49.215 -12.162  -7.612  1.00  0.00    -0.159 N 
ATOM     31  H11 UNL     1      48.445 -12.819  -7.732  1.00  0.00     0.187 HD
ENDBRANCH  19  21
ENDBRANCH   1  19
TORSDOF 5
ENDMDL
MODEL 3
REMARK VINA RESULT: -8.677072348      1.543      1.773
REMARK  5 active torsions:
REMARK  status: ('A' for Active; 'I' for Inactive)
REMARK    1  A    between atoms: N1_2  and  N2_3 
REMARK    2  A    between atoms: N1_2  and  C9_21 
REMARK       I    between atoms: N2_3  and  C2_5 
REMARK    3  A    between atoms: C2_5  and  C3_7 
REMARK    4  A    between atoms: C5_9  and  N3_10 
REMARK    5  A    between atoms: C7_15  and  N5_16 
ROOT
HETATM    1  N2  UNL     1      46.834 -14.470 -11.162  1.00  0.00    -0.249 N 
ATOM      2  H2  UNL     1      46.951 -13.888 -10.332  1.00  0.00     0.191 HD
HETATM    3  C2  UNL     1      45.671 -14.349 -11.915  1.00  0.00     0.272 C 
HETATM    4  O1  UNL     1      45.559 -15.098 -12.947  1.00  0.00    -0.266 OA
ENDROOT
BRANCH   3   5
HETATM    5  C3  UNL     1      44.565 -13.450 -11.638  1.00  0.00     0.062 A 
HETATM    6  C4  UNL     1      44.019 -12.679 -12.631  1.00  0.00     0.057 A 
HETATM    7  C5  UNL     1      42.959 -11.812 -12.373  1.00  0.00     0.130 A 
HETATM    8  C6  UNL     1      42.420 -11.697 -11.111  1.00  0.00     0.114 A 
HETATM    9  N4  UNL     1      41.330 -10.805 -10.837  1.00  0.00    -0.097 NA
HETATM   10  C7  UNL     1      42.959 -12.466 -10.103  1.00  0.00     0.154 A 
HETATM   11  C8  UNL     1      44.022 -13.330 -10.381  1.00  0.00     0.097 A 
HETATM   12  N6  UNL     1      44.587 -14.128  -9.349  1.00  0.00    -0.099 NA
BRANCH   7  13
HETATM   13  N3  UNL     1      42.405 -11.012 -13.401  1.00  0.00    -0.114 N 
HETATM   14  O2  UNL     1      42.925  -9.906 -13.637  1.00  0.00    -0.532 OA
HETATM   15  O3  UNL     1      41.321 -11.398 -14.144  1.00  0.00    -0.532 OA
ENDBRANCH   7  13
BRANCH  10  16
HETATM   16  N5  UNL     1      42.466 -12.413  -8.769  1.00  0.00    -0.112 N 
HETATM   17  O4  UNL     1      41.620 -13.272  -8.456  1.00  0.00    -0.532 OA
HETATM   18  O5  UNL     1      42.875 -11.488  -7.869  1.00  0.00    -0.532 OA
ENDBRANCH  10  16
ENDBRANCH   3   5
BRANCH   1  19
HETATM   19  N1  UNL     1      47.837 -15.360 -11.507  1.00  0.00    -0.124 N 
HETATM   20  C1  UNL     1      48.974 -14.835 -12.273  1.00  0.00     0.197 C 
BRANCH  19  21
HETATM   21  C9  UNL     1      47.852 -16.747 -11.174  1.00  0.00     0.717 A 
HETATM   22  N7  UNL     1      46.715 -17.306 -10.848  1.00  0.00    -0.116 N 
HETATM   23  N8  UNL     1      46.607 -18.660 -10.502  1.00  0.00    -0.226 N 
ATOM     24  H7  UNL     1      45.872 -16.733 -10.846  1.00  0.00     0.207 HD
HETATM   25  N9  UNL     1      47.758 -19.454 -10.504  1.00  0.00    -0.258 N 
ATOM     26  H8  UNL     1      45.703 -19.060 -10.252  1.00  0.00     0.209 HD
HETATM   27  C10 UNL     1      48.988 -18.817 -10.865  1.00  0.00     0.222 A 
ATOM     28  H9  UNL     1      47.723 -20.443 -10.259  1.00  0.00     0.191 HD
HETATM   29  N10 UNL     1      50.148 -19.631 -10.862  1.00  0.00    -0.061 NA
HETATM   30  N11 UNL     1      49.001 -17.564 -11.170  1.00  0.00    -0.159 N 
ATOM     31  H11 UNL     1      49.892 -17.140 -11.423  1.00  0.00     0.187 HD
ENDBRANCH  19  21
ENDBRANCH   1  19
TORSDOF 5
ENDMDL
MODEL 4
REMARK VINA RESULT: -8.659034116      3.756      5.549
REMARK  5 active torsions:
REMARK  status: ('A' for Active; 'I' for Inactive)
REMARK    1  A    between atoms: N1_2  and  N2_3 
REMARK    2  A    between atoms: N1_2  and  C9_21 
REMARK       I    between atoms: N2_3  and  C2_5 
REMARK    3  A    between atoms: C2_5  and  C3_7 
REMARK    4  A    between atoms: C5_9  and  N3_10 
REMARK    5  A    between atoms: C7_15  and  N5_16 
ROOT
HETATM    1  N2  UNL     1      47.672 -11.609 -10.022  1.00  0.00    -0.249 N 
ATOM      2  H2  UNL     1      47.334 -10.688 -10.302  1.00  0.00     0.191 HD
HETATM    3  C2  UNL     1      46.790 -12.685 -10.033  1.00  0.00     0.272 C 
HETATM    4  O1  UNL     1      47.249 -13.825  -9.673  1.00  0.00    -0.266 OA
ENDROOT
BRANCH   3   5
HETATM    5  C3  UNL     1      45.390 -12.636 -10.413  1.00  0.00     0.062 A 
HETATM    6  C4  UNL     1      44.419 -13.146  -9.591  1.00  0.00     0.057 A 
HETATM    7  C5  UNL     1      43.073 -13.106  -9.951  1.00  0.00     0.130 A 
HETATM    8  C6  UNL     1      42.668 -12.551 -11.144  1.00  0.00     0.114 A 
HETATM    9  N4  UNL     1      41.285 -12.507 -11.522  1.00  0.00    -0.097 NA
HETATM   10  C7  UNL     1      43.634 -12.035 -11.981  1.00  0.00     0.154 A 
HETATM   11  C8  UNL     1      44.978 -12.084 -11.603  1.00  0.00     0.097 A 
HETATM   12  N6  UNL     1      45.984 -11.555 -12.458  1.00  0.00    -0.099 NA
BRANCH   7  13
HETATM   13  N3  UNL     1      42.075 -13.641  -9.102  1.00  0.00    -0.114 N 
HETATM   14  O2  UNL     1      41.663 -12.942  -8.158  1.00  0.00    -0.532 OA
HETATM   15  O3  UNL     1      41.545 -14.893  -9.270  1.00  0.00    -0.532 OA
ENDBRANCH   7  13
BRANCH  10  16
HETATM   16  N5  UNL     1      43.308 -11.442 -13.233  1.00  0.00    -0.112 N 
HETATM   17  O4  UNL     1      43.059 -10.222 -13.222  1.00  0.00    -0.532 OA
HETATM   18  O5  UNL     1      43.261 -12.145 -14.389  1.00  0.00    -0.532 OA
ENDBRANCH  10  16
ENDBRANCH   3   5
BRANCH   1  19
HETATM   19  N1  UNL     1      48.995 -11.755  -9.642  1.00  0.00    -0.124 N 
HETATM   20  C1  UNL     1      49.989 -11.944 -10.706  1.00  0.00     0.197 C 
BRANCH  19  21
HETATM   21  C9  UNL     1      49.468 -11.733  -8.296  1.00  0.00     0.717 A 
HETATM   22  N7  UNL     1      48.881 -12.521  -7.433  1.00  0.00    -0.116 N 
HETATM   23  N8  UNL     1      49.259 -12.585  -6.085  1.00  0.00    -0.226 N 
ATOM     24  H7  UNL     1      48.116 -13.113  -7.755  1.00  0.00     0.207 HD
HETATM   25  N9  UNL     1      50.308 -11.777  -5.636  1.00  0.00    -0.258 N 
ATOM     26  H8  UNL     1      48.775 -13.211  -5.441  1.00  0.00     0.209 HD
HETATM   27  C10 UNL     1      50.932 -10.925  -6.602  1.00  0.00     0.222 A 
ATOM     28  H9  UNL     1      50.614 -11.794  -4.663  1.00  0.00     0.191 HD
HETATM   29  N10 UNL     1      51.994 -10.110  -6.135  1.00  0.00    -0.061 NA
HETATM   30  N11 UNL     1      50.523 -10.926  -7.824  1.00  0.00    -0.159 N 
ATOM     31  H11 UNL     1      50.990 -10.308  -8.488  1.00  0.00     0.187 HD
ENDBRANCH  19  21
ENDBRANCH   1  19
TORSDOF 5
ENDMDL
MODEL 5
REMARK VINA RESULT: -8.510681459      2.515      3.953
REMARK  5 active torsions:
REMARK  status: ('A' for Active; 'I' for Inactive)
REMARK    1  A    between atoms: N1_2  and  N2_3 
REMARK    2  A    between atoms: N1_2  and  C9_21 
REMARK       I    between atoms: N2_3  and  C2_5 
REMARK    3  A    between atoms: C2_5  and  C3_7 
REMARK    4  A    between atoms: C5_9  and  N3_10 
REMARK    5  A    between atoms: C7_15  and  N5_16 
ROOT
HETATM    1  N2  UNL     1      46.053 -13.663  -9.158  1.00  0.00    -0.249 N 
ATOM      2  H2  UNL     1      45.199 -13.955  -8.682  1.00  0.00     0.191 HD
HETATM    3  C2  UNL     1      45.955 -12.853 -10.284  1.00  0.00     0.272 C 
HETATM    4  O1  UNL     1      47.048 -12.508 -10.856  1.00  0.00    -0.266 OA
ENDROOT
BRANCH   3   5
HETATM    5  C3  UNL     1      44.726 -12.358 -10.876  1.00  0.00     0.062 A 
HETATM    6  C4  UNL     1      44.676 -11.995 -12.197  1.00  0.00     0.057 A 
HETATM    7  C5  UNL     1      43.500 -11.517 -12.771  1.00  0.00     0.130 A 
HETATM    8  C6  UNL     1      42.343 -11.394 -12.035  1.00  0.00     0.114 A 
HETATM    9  N4  UNL     1      41.128 -10.902 -12.619  1.00  0.00    -0.097 NA
HETATM   10  C7  UNL     1      42.378 -11.755 -10.706  1.00  0.00     0.154 A 
HETATM   11  C8  UNL     1      43.567 -12.232 -10.147  1.00  0.00     0.097 A 
HETATM   12  N6  UNL     1      43.616 -12.608  -8.777  1.00  0.00    -0.099 NA
BRANCH   7  13
HETATM   13  N3  UNL     1      43.456 -11.136 -14.134  1.00  0.00    -0.114 N 
HETATM   14  O2  UNL     1      43.116 -11.987 -14.976  1.00  0.00    -0.532 OA
HETATM   15  O3  UNL     1      43.775  -9.877 -14.567  1.00  0.00    -0.532 OA
ENDBRANCH   7  13
BRANCH  10  16
HETATM   16  N5  UNL     1      41.231 -11.661  -9.869  1.00  0.00    -0.112 N 
HETATM   17  O4  UNL     1      40.535 -12.688  -9.763  1.00  0.00    -0.532 OA
HETATM   18  O5  UNL     1      40.891 -10.527  -9.212  1.00  0.00    -0.532 OA
ENDBRANCH  10  16
ENDBRANCH   3   5
BRANCH   1  19
HETATM   19  N1  UNL     1      47.276 -14.085  -8.666  1.00  0.00    -0.124 N 
HETATM   20  C1  UNL     1      47.663 -15.479  -8.918  1.00  0.00     0.197 C 
BRANCH  19  21
HETATM   21  C9  UNL     1      48.191 -13.270  -7.935  1.00  0.00     0.717 A 
HETATM   22  N7  UNL     1      48.947 -12.446  -8.614  1.00  0.00    -0.116 N 
HETATM   23  N8  UNL     1      49.882 -11.598  -8.006  1.00  0.00    -0.226 N 
ATOM     24  H7  UNL     1      48.852 -12.420  -9.629  1.00  0.00     0.207 HD
HETATM   25  N9  UNL     1      50.017 -11.626  -6.615  1.00  0.00    -0.258 N 
ATOM     26  H8  UNL     1      50.455 -10.970  -8.569  1.00  0.00     0.209 HD
HETATM   27  C10 UNL     1      49.178 -12.536  -5.897  1.00  0.00     0.222 A 
ATOM     28  H9  UNL     1      50.686 -11.024  -6.133  1.00  0.00     0.191 HD
HETATM   29  N10 UNL     1      49.325 -12.557  -4.487  1.00  0.00    -0.061 NA
HETATM   30  N11 UNL     1      48.343 -13.283  -6.534  1.00  0.00    -0.159 N 
ATOM     31  H11 UNL     1      47.759 -13.920  -5.994  1.00  0.00     0.187 HD
ENDBRANCH  19  21
ENDBRANCH   1  19
TORSDOF 5
ENDMDL
