MODEL 1
REMARK VINA RESULT: -8.720966430      0.000      0.000
REMARK  9 active torsions:
REMARK  status: ('A' for Active; 'I' for Inactive)
REMARK    1  A    between atoms: S1_2  and  C2_3 
REMARK    2  A    between atoms: C3_6  and  N2_7 
REMARK    3  A    between atoms: N2_7  and  N3_9 
REMARK    4  A    between atoms: C4_11  and  C5_12 
REMARK    5  A    between atoms: C6_13  and  S2_14 
REMARK    6  A    between atoms: S2_14  and  C7_15 
REMARK    7  A    between atoms: C10_24  and  N6_25 
REMARK    8  A    between atoms: N7_28  and  N8_29 
REMARK    9  A    between atoms: C11_34  and  C12_35 
ROOT
HETATM    1  N3  UNL     1      21.119 -28.090  10.769  1.00  0.00    -0.295 N 
ATOM      2  H3  UNL     1      21.949 -27.497  10.769  1.00  0.00     0.186 HD
HETATM    3  C4  UNL     1      20.884 -28.780   9.718  1.00  0.00     0.142 C 
ENDROOT
BRANCH   3   4
HETATM    4  C5  UNL     1      21.765 -28.724   8.559  1.00  0.00     0.125 A 
HETATM    5  C6  UNL     1      21.933 -29.688   7.575  1.00  0.00     0.118 A 
HETATM    6  N5  UNL     1      22.833 -29.233   6.701  1.00  0.00    -0.182 N 
HETATM    7  C10 UNL     1      23.228 -28.021   7.113  1.00  0.00     0.698 A 
ATOM      8  H5  UNL     1      23.162 -29.721   5.867  1.00  0.00     0.185 HD
HETATM    9  N7  UNL     1      22.583 -27.713   8.233  1.00  0.00    -0.089 N 
BRANCH   5  10
HETATM   10  S2  UNL     1      21.089 -31.234   7.503  1.00  0.00    -0.085 SA
BRANCH  10  11
HETATM   11  C7  UNL     1      20.509 -31.543   5.832  1.00  0.00     0.238 C 
HETATM   12  C8  UNL     1      20.109 -32.907   5.493  1.00  0.00     0.247 C 
HETATM   13  O1  UNL     1      19.481 -33.867   5.983  1.00  0.00    -0.271 OA
HETATM   14  N4  UNL     1      20.772 -32.776   4.218  1.00  0.00    -0.295 N 
HETATM   15  C9  UNL     1      21.565 -31.772   4.824  1.00  0.00     0.247 C 
ATOM     16  H4  UNL     1      20.702 -33.210   3.298  1.00  0.00     0.171 HD
HETATM   17  O2  UNL     1      22.694 -31.298   4.582  1.00  0.00    -0.271 OA
ENDBRANCH  10  11
ENDBRANCH   5  10
BRANCH   7  18
HETATM   18  N6  UNL     1      24.101 -27.299   6.485  1.00  0.00    -0.233 N 
ATOM     19  H62 UNL     1      24.755 -26.629   6.889  1.00  0.00     0.174 HD
ATOM     20  H61 UNL     1      24.231 -27.324   5.474  1.00  0.00     0.174 HD
ENDBRANCH   7  18
BRANCH   9  21
HETATM   21  N8  UNL     1      22.749 -26.508   8.953  1.00  0.00    -0.324 N 
ATOM     22  H82 UNL     1      22.247 -26.267   9.807  1.00  0.00     0.178 HD
ATOM     23  H81 UNL     1      23.379 -25.742   8.710  1.00  0.00     0.178 HD
ENDBRANCH   9  21
ENDBRANCH   3   4
BRANCH   1  24
HETATM   24  N2  UNL     1      20.336 -28.088  11.906  1.00  0.00    -0.132 N 
ATOM     25  H2  UNL     1      20.175 -27.192  12.366  1.00  0.00     0.205 HD
BRANCH  24  26
HETATM   26  C3  UNL     1      19.795 -29.125  12.425  1.00  0.00     0.700 A 
HETATM   27  N1  UNL     1      20.591 -30.038  13.009  1.00  0.00    -0.169 N 
HETATM   28  C2  UNL     1      20.093 -31.163  13.583  1.00  0.00     0.160 A 
ATOM     29  H1  UNL     1      21.599 -29.881  13.023  1.00  0.00     0.186 HD
HETATM   30  N10 UNL     1      18.749 -31.325  13.538  1.00  0.00    -0.321 N 
HETATM   31  C11 UNL     1      17.938 -30.431  12.962  1.00  0.00     0.140 A 
ATOM     32  H10 UNL     1      18.341 -32.159  13.959  1.00  0.00     0.169 HD
HETATM   33  N9  UNL     1      18.452 -29.331  12.405  1.00  0.00    -0.174 N 
ATOM     34  H9  UNL     1      17.837 -28.646  11.965  1.00  0.00     0.186 HD
BRANCH  28  35
HETATM   35  S1  UNL     1      21.156 -32.375  14.357  1.00  0.00    -0.098 SA
HETATM   36  C1  UNL     1      20.223 -33.955  14.345  1.00  0.00     0.099 C 
ENDBRANCH  28  35
BRANCH  31  37
HETATM   37  C12 UNL     1      16.475 -30.677  12.951  1.00  0.00     0.049 A 
HETATM   38  C13 UNL     1      15.796 -31.602  12.203  1.00  0.00     0.023 A 
HETATM   39  C14 UNL     1      14.467 -31.651  12.354  1.00  0.00     0.009 A 
HETATM   40  C15 UNL     1      13.897 -30.775  13.240  1.00  0.00     0.050 A 
HETATM   41  S3  UNL     1      15.240 -29.911  13.835  1.00  0.00    -0.098 SA
ENDBRANCH  31  37
ENDBRANCH  24  26
ENDBRANCH   1  24
TORSDOF 9
ENDMDL
MODEL 2
REMARK VINA RESULT: -8.635529307      1.751      1.922
REMARK  9 active torsions:
REMARK  status: ('A' for Active; 'I' for Inactive)
REMARK    1  A    between atoms: S1_2  and  C2_3 
REMARK    2  A    between atoms: C3_6  and  N2_7 
REMARK    3  A    between atoms: N2_7  and  N3_9 
REMARK    4  A    between atoms: C4_11  and  C5_12 
REMARK    5  A    between atoms: C6_13  and  S2_14 
REMARK    6  A    between atoms: S2_14  and  C7_15 
REMARK    7  A    between atoms: C10_24  and  N6_25 
REMARK    8  A    between atoms: N7_28  and  N8_29 
REMARK    9  A    between atoms: C11_34  and  C12_35 
ROOT
HETATM    1  N3  UNL     1      21.152 -28.102  10.784  1.00  0.00    -0.295 N 
ATOM      2  H3  UNL     1      21.991 -27.521  10.782  1.00  0.00     0.186 HD
HETATM    3  C4  UNL     1      20.900 -28.781   9.730  1.00  0.00     0.142 C 
ENDROOT
BRANCH   3   4
HETATM    4  C5  UNL     1      21.774 -28.731   8.566  1.00  0.00     0.125 A 
HETATM    5  C6  UNL     1      21.949 -29.708   7.595  1.00  0.00     0.118 A 
HETATM    6  N5  UNL     1      22.839 -29.254   6.709  1.00  0.00    -0.182 N 
HETATM    7  C10 UNL     1      23.219 -28.031   7.102  1.00  0.00     0.698 A 
ATOM      8  H5  UNL     1      23.170 -29.750   5.882  1.00  0.00     0.185 HD
HETATM    9  N7  UNL     1      22.577 -27.715   8.220  1.00  0.00    -0.089 N 
BRANCH   5  10
HETATM   10  S2  UNL     1      21.125 -31.266   7.552  1.00  0.00    -0.085 SA
BRANCH  10  11
HETATM   11  C7  UNL     1      22.255 -32.575   8.034  1.00  0.00     0.238 C 
HETATM   12  C8  UNL     1      21.938 -33.937   7.609  1.00  0.00     0.247 C 
HETATM   13  O1  UNL     1      21.514 -34.550   6.609  1.00  0.00    -0.271 OA
HETATM   14  N4  UNL     1      22.326 -34.425   8.910  1.00  0.00    -0.295 N 
HETATM   15  C9  UNL     1      22.053 -33.122   9.392  1.00  0.00     0.247 C 
ATOM     16  H4  UNL     1      22.651 -35.308   9.304  1.00  0.00     0.171 HD
HETATM   17  O2  UNL     1      21.761 -32.658  10.513  1.00  0.00    -0.271 OA
ENDBRANCH  10  11
ENDBRANCH   5  10
BRANCH   7  18
HETATM   18  N6  UNL     1      24.079 -27.307   6.458  1.00  0.00    -0.233 N 
ATOM     19  H62 UNL     1      24.444 -27.468   5.519  1.00  0.00     0.174 HD
ATOM     20  H61 UNL     1      24.505 -26.463   6.841  1.00  0.00     0.174 HD
ENDBRANCH   7  18
BRANCH   9  21
HETATM   21  N8  UNL     1      22.730 -26.496   8.921  1.00  0.00    -0.324 N 
ATOM     22  H82 UNL     1      22.791 -25.578   8.483  1.00  0.00     0.178 HD
ATOM     23  H81 UNL     1      22.799 -26.387   9.933  1.00  0.00     0.178 HD
ENDBRANCH   9  21
ENDBRANCH   3   4
BRANCH   1  24
HETATM   24  N2  UNL     1      20.376 -28.095  11.926  1.00  0.00    -0.132 N 
ATOM     25  H2  UNL     1      20.231 -27.200  12.391  1.00  0.00     0.205 HD
BRANCH  24  26
HETATM   26  C3  UNL     1      19.827 -29.128  12.444  1.00  0.00     0.700 A 
HETATM   27  N1  UNL     1      20.613 -30.047  13.031  1.00  0.00    -0.169 N 
HETATM   28  C2  UNL     1      20.105 -31.167  13.604  1.00  0.00     0.160 A 
ATOM     29  H1  UNL     1      21.622 -29.898  13.047  1.00  0.00     0.186 HD
HETATM   30  N10 UNL     1      18.759 -31.319  13.555  1.00  0.00    -0.321 N 
HETATM   31  C11 UNL     1      17.957 -30.418  12.976  1.00  0.00     0.140 A 
ATOM     32  H10 UNL     1      18.343 -32.150  13.975  1.00  0.00     0.169 HD
HETATM   33  N9  UNL     1      18.482 -29.323  12.420  1.00  0.00    -0.174 N 
ATOM     34  H9  UNL     1      17.874 -28.634  11.978  1.00  0.00     0.186 HD
BRANCH  28  35
HETATM   35  S1  UNL     1      21.155 -32.388  14.382  1.00  0.00    -0.098 SA
HETATM   36  C1  UNL     1      20.226 -33.969  14.333  1.00  0.00     0.099 C 
ENDBRANCH  28  35
BRANCH  31  37
HETATM   37  C12 UNL     1      16.492 -30.653  12.961  1.00  0.00     0.049 A 
HETATM   38  C13 UNL     1      15.809 -31.574  12.212  1.00  0.00     0.023 A 
HETATM   39  C14 UNL     1      14.478 -31.612  12.359  1.00  0.00     0.009 A 
HETATM   40  C15 UNL     1      13.913 -30.731  13.241  1.00  0.00     0.050 A 
HETATM   41  S3  UNL     1      15.261 -29.876  13.840  1.00  0.00    -0.098 SA
ENDBRANCH  31  37
ENDBRANCH  24  26
ENDBRANCH   1  24
TORSDOF 9
ENDMDL
MODEL 3
REMARK VINA RESULT: -8.483250441      3.313      9.080
REMARK  9 active torsions:
REMARK  status: ('A' for Active; 'I' for Inactive)
REMARK    1  A    between atoms: S1_2  and  C2_3 
REMARK    2  A    between atoms: C3_6  and  N2_7 
REMARK    3  A    between atoms: N2_7  and  N3_9 
REMARK    4  A    between atoms: C4_11  and  C5_12 
REMARK    5  A    between atoms: C6_13  and  S2_14 
REMARK    6  A    between atoms: S2_14  and  C7_15 
REMARK    7  A    between atoms: C10_24  and  N6_25 
REMARK    8  A    between atoms: N7_28  and  N8_29 
REMARK    9  A    between atoms: C11_34  and  C12_35 
ROOT
HETATM    1  N3  UNL     1      20.388 -30.265  10.029  1.00  0.00    -0.295 N 
ATOM      2  H3  UNL     1      20.602 -31.261   9.962  1.00  0.00     0.186 HD
HETATM    3  C4  UNL     1      19.854 -29.846  11.113  1.00  0.00     0.142 C 
ENDROOT
BRANCH   3   4
HETATM    4  C5  UNL     1      19.560 -30.752  12.215  1.00  0.00     0.125 A 
HETATM    5  C6  UNL     1      18.330 -31.298  12.557  1.00  0.00     0.118 A 
HETATM    6  N5  UNL     1      18.507 -32.073  13.630  1.00  0.00    -0.182 N 
HETATM    7  C10 UNL     1      19.804 -32.020  13.963  1.00  0.00     0.698 A 
ATOM      8  H5  UNL     1      17.784 -32.608  14.111  1.00  0.00     0.185 HD
HETATM    9  N7  UNL     1      20.439 -31.225  13.110  1.00  0.00    -0.089 N 
BRANCH   5  10
HETATM   10  S2  UNL     1      16.813 -31.016  11.705  1.00  0.00    -0.085 SA
BRANCH  10  11
HETATM   11  C7  UNL     1      15.428 -31.529  12.726  1.00  0.00     0.238 C 
HETATM   12  C8  UNL     1      14.087 -31.427  12.152  1.00  0.00     0.247 C 
HETATM   13  O1  UNL     1      13.490 -31.643  11.079  1.00  0.00    -0.271 OA
HETATM   14  N4  UNL     1      13.596 -30.920  13.410  1.00  0.00    -0.295 N 
HETATM   15  C9  UNL     1      14.925 -30.512  13.674  1.00  0.00     0.247 C 
ATOM     16  H4  UNL     1      12.697 -30.876  13.892  1.00  0.00     0.171 HD
HETATM   17  O2  UNL     1      15.433 -29.642  14.411  1.00  0.00    -0.271 OA
ENDBRANCH  10  11
ENDBRANCH   5  10
BRANCH   7  18
HETATM   18  N6  UNL     1      20.313 -32.663  14.966  1.00  0.00    -0.233 N 
ATOM     19  H62 UNL     1      20.940 -32.297  15.681  1.00  0.00     0.174 HD
ATOM     20  H61 UNL     1      20.133 -33.649  15.153  1.00  0.00     0.174 HD
ENDBRANCH   7  18
BRANCH   9  21
HETATM   21  N8  UNL     1      21.822 -30.935  13.155  1.00  0.00    -0.324 N 
ATOM     22  H82 UNL     1      22.236 -30.037  12.904  1.00  0.00     0.178 HD
ATOM     23  H81 UNL     1      22.563 -31.576  13.438  1.00  0.00     0.178 HD
ENDBRANCH   9  21
ENDBRANCH   3   4
BRANCH   1  24
HETATM   24  N2  UNL     1      20.698 -29.474   8.941  1.00  0.00    -0.132 N 
ATOM     25  H2  UNL     1      20.491 -28.478   9.009  1.00  0.00     0.205 HD
BRANCH  24  26
HETATM   26  C3  UNL     1      21.225 -29.896   7.854  1.00  0.00     0.700 A 
HETATM   27  N1  UNL     1      20.606 -30.883   7.183  1.00  0.00    -0.169 N 
HETATM   28  C2  UNL     1      21.102 -31.384   6.023  1.00  0.00     0.160 A 
ATOM     29  H1  UNL     1      19.738 -31.269   7.557  1.00  0.00     0.186 HD
HETATM   30  N10 UNL     1      22.257 -30.839   5.569  1.00  0.00    -0.321 N 
HETATM   31  C11 UNL     1      22.890 -29.856   6.221  1.00  0.00     0.140 A 
ATOM     32  H10 UNL     1      22.658 -31.191   4.701  1.00  0.00     0.169 HD
HETATM   33  N9  UNL     1      22.381 -29.380   7.361  1.00  0.00    -0.174 N 
ATOM     34  H9  UNL     1      22.860 -28.631   7.860  1.00  0.00     0.186 HD
BRANCH  28  35
HETATM   35  S1  UNL     1      20.277 -32.699   5.135  1.00  0.00    -0.098 SA
HETATM   36  C1  UNL     1      21.005 -32.714   3.451  1.00  0.00     0.099 C 
ENDBRANCH  28  35
BRANCH  31  37
HETATM   37  C12 UNL     1      24.151 -29.310   5.663  1.00  0.00     0.049 A 
HETATM   38  C13 UNL     1      24.471 -27.991   5.477  1.00  0.00     0.023 A 
HETATM   39  C14 UNL     1      25.675 -27.724   4.955  1.00  0.00     0.009 A 
HETATM   40  C15 UNL     1      26.483 -28.786   4.651  1.00  0.00     0.050 A 
HETATM   41  S3  UNL     1      25.535 -30.127   5.106  1.00  0.00    -0.098 SA
ENDBRANCH  31  37
ENDBRANCH  24  26
ENDBRANCH   1  24
TORSDOF 9
ENDMDL
MODEL 4
REMARK VINA RESULT: -8.460180134      1.127      1.668
REMARK  9 active torsions:
REMARK  status: ('A' for Active; 'I' for Inactive)
REMARK    1  A    between atoms: S1_2  and  C2_3 
REMARK    2  A    between atoms: C3_6  and  N2_7 
REMARK    3  A    between atoms: N2_7  and  N3_9 
REMARK    4  A    between atoms: C4_11  and  C5_12 
REMARK    5  A    between atoms: C6_13  and  S2_14 
REMARK    6  A    between atoms: S2_14  and  C7_15 
REMARK    7  A    between atoms: C10_24  and  N6_25 
REMARK    8  A    between atoms: N7_28  and  N8_29 
REMARK    9  A    between atoms: C11_34  and  C12_35 
ROOT
HETATM    1  N3  UNL     1      21.172 -28.015  10.771  1.00  0.00    -0.295 N 
ATOM      2  H3  UNL     1      21.982 -27.395  10.745  1.00  0.00     0.186 HD
HETATM    3  C4  UNL     1      20.949 -28.741   9.742  1.00  0.00     0.142 C 
ENDROOT
BRANCH   3   4
HETATM    4  C5  UNL     1      21.815 -28.689   8.573  1.00  0.00     0.125 A 
HETATM    5  C6  UNL     1      21.988 -29.666   7.602  1.00  0.00     0.118 A 
HETATM    6  N5  UNL     1      22.871 -29.210   6.710  1.00  0.00    -0.182 N 
HETATM    7  C10 UNL     1      23.250 -27.986   7.099  1.00  0.00     0.698 A 
ATOM      8  H5  UNL     1      23.198 -29.706   5.880  1.00  0.00     0.185 HD
HETATM    9  N7  UNL     1      22.614 -27.671   8.222  1.00  0.00    -0.089 N 
BRANCH   5  10
HETATM   10  S2  UNL     1      21.167 -31.226   7.564  1.00  0.00    -0.085 SA
BRANCH  10  11
HETATM   11  C7  UNL     1      22.373 -32.556   7.521  1.00  0.00     0.238 C 
HETATM   12  C8  UNL     1      23.329 -32.571   6.415  1.00  0.00     0.247 C 
HETATM   13  O1  UNL     1      24.041 -31.785   5.759  1.00  0.00    -0.271 OA
HETATM   14  N4  UNL     1      23.163 -34.000   6.302  1.00  0.00    -0.295 N 
HETATM   15  C9  UNL     1      21.902 -33.823   6.921  1.00  0.00     0.247 C 
ATOM     16  H4  UNL     1      23.707 -34.783   5.940  1.00  0.00     0.171 HD
HETATM   17  O2  UNL     1      20.845 -34.484   6.935  1.00  0.00    -0.271 OA
ENDBRANCH  10  11
ENDBRANCH   5  10
BRANCH   7  18
HETATM   18  N6  UNL     1      24.104 -27.261   6.450  1.00  0.00    -0.233 N 
ATOM     19  H62 UNL     1      24.095 -27.035   5.456  1.00  0.00     0.174 HD
ATOM     20  H61 UNL     1      24.915 -26.820   6.884  1.00  0.00     0.174 HD
ENDBRANCH   7  18
BRANCH   9  21
HETATM   21  N8  UNL     1      22.768 -26.452   8.920  1.00  0.00    -0.324 N 
ATOM     22  H82 UNL     1      22.499 -26.301   9.892  1.00  0.00     0.178 HD
ATOM     23  H81 UNL     1      23.160 -25.587   8.545  1.00  0.00     0.178 HD
ENDBRANCH   9  21
ENDBRANCH   3   4
BRANCH   1  24
HETATM   24  N2  UNL     1      20.401 -28.006  11.916  1.00  0.00    -0.132 N 
ATOM     25  H2  UNL     1      20.243 -27.107  12.371  1.00  0.00     0.205 HD
BRANCH  24  26
HETATM   26  C3  UNL     1      19.869 -29.040  12.449  1.00  0.00     0.700 A 
HETATM   27  N1  UNL     1      20.670 -29.935  13.052  1.00  0.00    -0.169 N 
HETATM   28  C2  UNL     1      20.181 -31.056  13.640  1.00  0.00     0.160 A 
ATOM     29  H1  UNL     1      21.676 -29.767  13.069  1.00  0.00     0.186 HD
HETATM   30  N10 UNL     1      18.839 -31.234  13.591  1.00  0.00    -0.321 N 
HETATM   31  C11 UNL     1      18.021 -30.357  12.995  1.00  0.00     0.140 A 
ATOM     32  H10 UNL     1      18.437 -32.065  14.023  1.00  0.00     0.169 HD
HETATM   33  N9  UNL     1      18.528 -29.261  12.424  1.00  0.00    -0.174 N 
ATOM     34  H9  UNL     1      17.908 -28.590  11.970  1.00  0.00     0.186 HD
BRANCH  28  35
HETATM   35  S1  UNL     1      21.252 -32.244  14.441  1.00  0.00    -0.098 SA
HETATM   36  C1  UNL     1      20.365 -33.850  14.385  1.00  0.00     0.099 C 
ENDBRANCH  28  35
BRANCH  31  37
HETATM   37  C12 UNL     1      16.562 -30.619  12.980  1.00  0.00     0.049 A 
HETATM   38  C13 UNL     1      15.895 -31.549  12.227  1.00  0.00     0.023 A 
HETATM   39  C14 UNL     1      14.565 -31.613  12.375  1.00  0.00     0.009 A 
HETATM   40  C15 UNL     1      13.984 -30.746  13.262  1.00  0.00     0.050 A 
HETATM   41  S3  UNL     1      15.316 -29.869  13.864  1.00  0.00    -0.098 SA
ENDBRANCH  31  37
ENDBRANCH  24  26
ENDBRANCH   1  24
TORSDOF 9
ENDMDL
MODEL 5
REMARK VINA RESULT: -8.381742410      3.356      8.481
REMARK  9 active torsions:
REMARK  status: ('A' for Active; 'I' for Inactive)
REMARK    1  A    between atoms: S1_2  and  C2_3 
REMARK    2  A    between atoms: C3_6  and  N2_7 
REMARK    3  A    between atoms: N2_7  and  N3_9 
REMARK    4  A    between atoms: C4_11  and  C5_12 
REMARK    5  A    between atoms: C6_13  and  S2_14 
REMARK    6  A    between atoms: S2_14  and  C7_15 
REMARK    7  A    between atoms: C10_24  and  N6_25 
REMARK    8  A    between atoms: N7_28  and  N8_29 
REMARK    9  A    between atoms: C11_34  and  C12_35 
ROOT
HETATM    1  N3  UNL     1      20.377 -30.386   9.822  1.00  0.00    -0.295 N 
ATOM      2  H3  UNL     1      20.606 -31.380   9.816  1.00  0.00     0.186 HD
HETATM    3  C4  UNL     1      19.844 -29.908  10.882  1.00  0.00     0.142 C 
ENDROOT
BRANCH   3   4
HETATM    4  C5  UNL     1      19.572 -30.746  12.041  1.00  0.00     0.125 A 
HETATM    5  C6  UNL     1      18.345 -31.250  12.452  1.00  0.00     0.118 A 
HETATM    6  N5  UNL     1      18.545 -31.968  13.560  1.00  0.00    -0.182 N 
HETATM    7  C10 UNL     1      19.853 -31.924  13.846  1.00  0.00     0.698 A 
ATOM      8  H5  UNL     1      17.829 -32.463  14.093  1.00  0.00     0.185 HD
HETATM    9  N7  UNL     1      20.473 -31.188  12.930  1.00  0.00    -0.089 N 
BRANCH   5  10
HETATM   10  S2  UNL     1      16.805 -30.984  11.637  1.00  0.00    -0.085 SA
BRANCH  10  11
HETATM   11  C7  UNL     1      15.451 -31.526  12.685  1.00  0.00     0.238 C 
HETATM   12  C8  UNL     1      14.096 -31.434  12.145  1.00  0.00     0.247 C 
HETATM   13  O1  UNL     1      13.475 -31.644  11.084  1.00  0.00    -0.271 OA
HETATM   14  N4  UNL     1      13.629 -30.948  13.420  1.00  0.00    -0.295 N 
HETATM   15  C9  UNL     1      14.959 -30.526  13.657  1.00  0.00     0.247 C 
ATOM     16  H4  UNL     1      12.742 -30.920  13.924  1.00  0.00     0.171 HD
HETATM   17  O2  UNL     1      15.474 -29.660  14.392  1.00  0.00    -0.271 OA
ENDBRANCH  10  11
ENDBRANCH   5  10
BRANCH   7  18
HETATM   18  N6  UNL     1      20.384 -32.521  14.865  1.00  0.00    -0.233 N 
ATOM     19  H62 UNL     1      20.412 -33.524  15.048  1.00  0.00     0.174 HD
ATOM     20  H61 UNL     1      20.850 -32.030  15.627  1.00  0.00     0.174 HD
ENDBRANCH   7  18
BRANCH   9  21
HETATM   21  N8  UNL     1      21.861 -30.923  12.914  1.00  0.00    -0.324 N 
ATOM     22  H82 UNL     1      22.287 -30.036  13.182  1.00  0.00     0.178 HD
ATOM     23  H81 UNL     1      22.596 -31.574  12.636  1.00  0.00     0.178 HD
ENDBRANCH   9  21
ENDBRANCH   3   4
BRANCH   1  24
HETATM   24  N2  UNL     1      20.667 -29.660   8.684  1.00  0.00    -0.132 N 
ATOM     25  H2  UNL     1      20.456 -28.662   8.695  1.00  0.00     0.205 HD
BRANCH  24  26
HETATM   26  C3  UNL     1      21.181 -30.144   7.617  1.00  0.00     0.700 A 
HETATM   27  N1  UNL     1      22.409 -29.736   7.254  1.00  0.00    -0.169 N 
HETATM   28  C2  UNL     1      23.020 -30.204   6.136  1.00  0.00     0.160 A 
ATOM     29  H1  UNL     1      22.896 -29.053   7.835  1.00  0.00     0.186 HD
HETATM   30  N10 UNL     1      22.331 -31.107   5.398  1.00  0.00    -0.321 N 
HETATM   31  C11 UNL     1      21.108 -31.527   5.740  1.00  0.00     0.140 A 
ATOM     32  H10 UNL     1      22.761 -31.479   4.552  1.00  0.00     0.169 HD
HETATM   33  N9  UNL     1      20.527 -31.052   6.845  1.00  0.00    -0.174 N 
ATOM     34  H9  UNL     1      19.595 -31.370   7.109  1.00  0.00     0.186 HD
BRANCH  28  35
HETATM   35  S1  UNL     1      24.654 -29.656   5.656  1.00  0.00    -0.098 SA
HETATM   36  C1  UNL     1      24.587 -27.823   5.613  1.00  0.00     0.099 C 
ENDBRANCH  28  35
BRANCH  31  37
HETATM   37  C12 UNL     1      20.414 -32.518   4.881  1.00  0.00     0.049 A 
HETATM   38  C13 UNL     1      19.399 -33.363   5.246  1.00  0.00     0.023 A 
HETATM   39  C14 UNL     1      18.917 -34.181   4.302  1.00  0.00     0.009 A 
HETATM   40  C15 UNL     1      19.476 -34.106   3.054  1.00  0.00     0.050 A 
HETATM   41  S3  UNL     1      20.659 -32.893   3.240  1.00  0.00    -0.098 SA
ENDBRANCH  31  37
ENDBRANCH  24  26
ENDBRANCH   1  24
TORSDOF 9
ENDMDL
