MODEL 1
REMARK VINA RESULT: -6.981868020      0.000      0.000
REMARK  11 active torsions:
REMARK  status: ('A' for Active; 'I' for Inactive)
REMARK    1  A    between atoms: C2_2  and  O2_7 
REMARK    2  A    between atoms: N1_3  and  O1_5 
REMARK    3  A    between atoms: O2_7  and  C3_8 
REMARK    4  A    between atoms: C5_10  and  O3_11 
REMARK    5  A    between atoms: C8_16  and  S1_17 
REMARK    6  A    between atoms: S1_17  and  C9_18 
REMARK    7  A    between atoms: C11_20  and  O5_21 
REMARK    8  A    between atoms: O5_21  and  C12_22 
REMARK    9  A    between atoms: C17_28  and  O7_29 
REMARK   10  A    between atoms: C18_31  and  C19_32 
REMARK   11  A    between atoms: C19_32  and  O8_33 
ROOT
HETATM    1  C9  UNL     1      21.926 -33.176  12.959  1.00  0.00     0.188 C 
HETATM    2  C10 UNL     1      23.225 -33.849  12.585  1.00  0.00     0.077 C 
HETATM    3  C11 UNL     1      23.259 -35.137  13.432  1.00  0.00     0.159 C 
HETATM    4  C17 UNL     1      22.044 -35.917  13.049  1.00  0.00     0.178 C 
HETATM    5  C18 UNL     1      20.769 -35.142  12.999  1.00  0.00     0.177 C 
HETATM    6  O9  UNL     1      20.849 -33.891  12.435  1.00  0.00    -0.365 OA
ENDROOT
BRANCH   1   7
HETATM    7  S1  UNL     1      21.855 -31.428  12.697  1.00  0.00    -0.103 SA
BRANCH   7   8
HETATM    8  C8  UNL     1      20.449 -30.566  13.346  1.00  0.00     0.215 C 
HETATM    9  C3  UNL     1      19.166 -30.936  12.639  1.00  0.00     0.171 C 
HETATM   10  C4  UNL     1      19.260 -30.678  11.158  1.00  0.00     0.070 C 
HETATM   11  C5  UNL     1      20.040 -29.482  10.779  1.00  0.00     0.149 C 
HETATM   12  C6  UNL     1      20.984 -28.964  11.810  1.00  0.00     0.147 C 
HETATM   13  C7  UNL     1      21.145 -27.445  11.645  1.00  0.00     0.042 C 
HETATM   14  O4  UNL     1      20.622 -29.189  13.104  1.00  0.00    -0.365 OA
BRANCH   9  15
HETATM   15  O2  UNL     1      18.162 -30.018  13.115  1.00  0.00    -0.329 OA
BRANCH  15  16
HETATM   16  C2  UNL     1      16.843 -30.379  13.291  1.00  0.00     0.133 C 
HETATM   17  C1  UNL     1      16.197 -31.385  12.419  1.00  0.00     0.099 C 
HETATM   18  N1  UNL     1      16.207 -29.802  14.243  1.00  0.00    -0.251 N 
ATOM     19  H1  UNL     1      16.669 -29.110  14.835  1.00  0.00     0.196 HD
BRANCH  18  20
HETATM   20  O1  UNL     1      14.892 -30.137  14.449  1.00  0.00    -0.288 OA
ATOM     21  H1  UNL     1      14.270 -29.442  14.625  1.00  0.00     0.244 HD
ENDBRANCH  18  20
ENDBRANCH  15  16
ENDBRANCH   9  15
BRANCH  11  22
HETATM   22  O3  UNL     1      20.766 -29.743   9.609  1.00  0.00    -0.393 OA
ATOM     23  H3  UNL     1      20.947 -28.929   9.156  1.00  0.00     0.210 HD
ENDBRANCH  11  22
ENDBRANCH   7   8
ENDBRANCH   1   7
BRANCH   3  24
HETATM   24  O5  UNL     1      23.176 -34.756  14.742  1.00  0.00    -0.353 OA
BRANCH  24  25
HETATM   25  C12 UNL     1      24.121 -35.289  15.571  1.00  0.00     0.260 C 
HETATM   26  C13 UNL     1      25.406 -35.510  14.806  1.00  0.00     0.061 C 
HETATM   27  C14 UNL     1      26.433 -36.058  15.766  1.00  0.00     0.007 C 
HETATM   28  C15 UNL     1      25.754 -36.462  17.050  1.00  0.00     0.026 C 
HETATM   29  C16 UNL     1      25.010 -35.308  17.695  1.00  0.00     0.171 C 
HETATM   30  O6  UNL     1      24.322 -34.559  16.738  1.00  0.00    -0.361 OA
ENDBRANCH  24  25
ENDBRANCH   3  24
BRANCH   5  31
HETATM   31  C19 UNL     1      20.051 -35.135  14.350  1.00  0.00     0.198 C 
BRANCH  31  32
HETATM   32  O8  UNL     1      20.488 -36.229  15.075  1.00  0.00    -0.398 OA
ATOM     33  H8  UNL     1      19.981 -36.273  15.878  1.00  0.00     0.209 HD
ENDBRANCH  31  32
ENDBRANCH   5  31
BRANCH   4  34
HETATM   34  O7  UNL     1      22.222 -36.558  11.825  1.00  0.00    -0.390 OA
ATOM     35  H7  UNL     1      21.435 -37.019  11.562  1.00  0.00     0.210 HD
ENDBRANCH   4  34
TORSDOF 11
ENDMDL
MODEL 2
REMARK VINA RESULT: -6.971526547      2.836      8.321
REMARK  11 active torsions:
REMARK  status: ('A' for Active; 'I' for Inactive)
REMARK    1  A    between atoms: C2_2  and  O2_7 
REMARK    2  A    between atoms: N1_3  and  O1_5 
REMARK    3  A    between atoms: O2_7  and  C3_8 
REMARK    4  A    between atoms: C5_10  and  O3_11 
REMARK    5  A    between atoms: C8_16  and  S1_17 
REMARK    6  A    between atoms: S1_17  and  C9_18 
REMARK    7  A    between atoms: C11_20  and  O5_21 
REMARK    8  A    between atoms: O5_21  and  C12_22 
REMARK    9  A    between atoms: C17_28  and  O7_29 
REMARK   10  A    between atoms: C18_31  and  C19_32 
REMARK   11  A    between atoms: C19_32  and  O8_33 
ROOT
HETATM    1  C9  UNL     1      20.945 -31.160  12.854  1.00  0.00     0.188 C 
HETATM    2  C10 UNL     1      19.951 -31.955  12.041  1.00  0.00     0.077 C 
HETATM    3  C11 UNL     1      18.839 -30.947  11.686  1.00  0.00     0.159 C 
HETATM    4  C17 UNL     1      19.503 -29.848  10.922  1.00  0.00     0.178 C 
HETATM    5  C18 UNL     1      20.766 -29.320  11.516  1.00  0.00     0.177 C 
HETATM    6  O9  UNL     1      21.625 -30.260  12.033  1.00  0.00    -0.365 OA
ENDROOT
BRANCH   1   7
HETATM    7  S1  UNL     1      21.976 -32.095  13.946  1.00  0.00    -0.103 SA
BRANCH   7   8
HETATM    8  C8  UNL     1      23.491 -32.733  13.282  1.00  0.00     0.215 C 
HETATM    9  C3  UNL     1      23.264 -33.838  12.277  1.00  0.00     0.171 C 
HETATM   10  C4  UNL     1      22.474 -34.971  12.875  1.00  0.00     0.070 C 
HETATM   11  C5  UNL     1      22.768 -35.260  14.294  1.00  0.00     0.149 C 
HETATM   12  C6  UNL     1      23.426 -34.162  15.061  1.00  0.00     0.147 C 
HETATM   13  C7  UNL     1      24.302 -34.762  16.170  1.00  0.00     0.042 C 
HETATM   14  O4  UNL     1      24.219 -33.330  14.331  1.00  0.00    -0.365 OA
BRANCH   9  15
HETATM   15  O2  UNL     1      24.560 -34.397  11.989  1.00  0.00    -0.329 OA
BRANCH  15  16
HETATM   16  C2  UNL     1      25.074 -34.473  10.712  1.00  0.00     0.133 C 
HETATM   17  C1  UNL     1      24.196 -34.682   9.539  1.00  0.00     0.099 C 
HETATM   18  N1  UNL     1      26.345 -34.354  10.592  1.00  0.00    -0.251 N 
ATOM     19  H1  UNL     1      26.936 -34.211  11.412  1.00  0.00     0.196 HD
BRANCH  18  20
HETATM   20  O1  UNL     1      26.894 -34.424   9.336  1.00  0.00    -0.288 OA
ATOM     21  H1  UNL     1      27.801 -34.692   9.251  1.00  0.00     0.244 HD
ENDBRANCH  18  20
ENDBRANCH  15  16
ENDBRANCH   9  15
BRANCH  11  22
HETATM   22  O3  UNL     1      21.586 -35.614  14.959  1.00  0.00    -0.393 OA
ATOM     23  H3  UNL     1      21.018 -34.856  15.027  1.00  0.00     0.210 HD
ENDBRANCH  11  22
ENDBRANCH   7   8
ENDBRANCH   1   7
BRANCH   3  24
HETATM   24  O5  UNL     1      18.346 -30.464  12.866  1.00  0.00    -0.353 OA
BRANCH  24  25
HETATM   25  C12 UNL     1      16.987 -30.363  12.940  1.00  0.00     0.260 C 
HETATM   26  C13 UNL     1      16.348 -31.493  12.165  1.00  0.00     0.061 C 
HETATM   27  C14 UNL     1      14.851 -31.371  12.307  1.00  0.00     0.007 C 
HETATM   28  C15 UNL     1      14.513 -30.030  12.909  1.00  0.00     0.026 C 
HETATM   29  C16 UNL     1      15.178 -29.821  14.257  1.00  0.00     0.171 C 
HETATM   30  O6  UNL     1      16.498 -30.274  14.239  1.00  0.00    -0.361 OA
ENDBRANCH  24  25
ENDBRANCH   3  24
BRANCH   5  31
HETATM   31  C19 UNL     1      20.502 -28.167  12.487  1.00  0.00     0.198 C 
BRANCH  31  32
HETATM   32  O8  UNL     1      20.619 -26.980  11.786  1.00  0.00    -0.398 OA
ATOM     33  H8  UNL     1      20.944 -27.182  10.916  1.00  0.00     0.209 HD
ENDBRANCH  31  32
ENDBRANCH   5  31
BRANCH   4  34
HETATM   34  O7  UNL     1      19.758 -30.233   9.607  1.00  0.00    -0.390 OA
ATOM     35  H7  UNL     1      20.685 -30.386   9.469  1.00  0.00     0.210 HD
ENDBRANCH   4  34
TORSDOF 11
ENDMDL
MODEL 3
REMARK VINA RESULT: -6.956321014      2.822      8.188
REMARK  11 active torsions:
REMARK  status: ('A' for Active; 'I' for Inactive)
REMARK    1  A    between atoms: C2_2  and  O2_7 
REMARK    2  A    between atoms: N1_3  and  O1_5 
REMARK    3  A    between atoms: O2_7  and  C3_8 
REMARK    4  A    between atoms: C5_10  and  O3_11 
REMARK    5  A    between atoms: C8_16  and  S1_17 
REMARK    6  A    between atoms: S1_17  and  C9_18 
REMARK    7  A    between atoms: C11_20  and  O5_21 
REMARK    8  A    between atoms: O5_21  and  C12_22 
REMARK    9  A    between atoms: C17_28  and  O7_29 
REMARK   10  A    between atoms: C18_31  and  C19_32 
REMARK   11  A    between atoms: C19_32  and  O8_33 
ROOT
HETATM    1  C9  UNL     1      20.432 -31.543  13.286  1.00  0.00     0.188 C 
HETATM    2  C10 UNL     1      19.423 -32.129  12.328  1.00  0.00     0.077 C 
HETATM    3  C11 UNL     1      18.650 -30.913  11.779  1.00  0.00     0.159 C 
HETATM    4  C17 UNL     1      19.667 -30.037  11.123  1.00  0.00     0.178 C 
HETATM    5  C18 UNL     1      20.907 -29.783  11.913  1.00  0.00     0.177 C 
HETATM    6  O9  UNL     1      21.428 -30.868  12.578  1.00  0.00    -0.365 OA
ENDROOT
BRANCH   1   7
HETATM    7  S1  UNL     1      21.027 -32.633  14.547  1.00  0.00    -0.103 SA
BRANCH   7   8
HETATM    8  C8  UNL     1      22.715 -33.164  14.430  1.00  0.00     0.215 C 
HETATM    9  C3  UNL     1      23.218 -33.184  13.006  1.00  0.00     0.171 C 
HETATM   10  C4  UNL     1      22.364 -34.065  12.133  1.00  0.00     0.070 C 
HETATM   11  C5  UNL     1      21.843 -35.281  12.791  1.00  0.00     0.149 C 
HETATM   12  C6  UNL     1      21.826 -35.261  14.282  1.00  0.00     0.147 C 
HETATM   13  C7  UNL     1      21.991 -36.691  14.818  1.00  0.00     0.042 C 
HETATM   14  O4  UNL     1      22.791 -34.501  14.869  1.00  0.00    -0.365 OA
BRANCH   9  15
HETATM   15  O2  UNL     1      24.507 -33.829  13.041  1.00  0.00    -0.329 OA
BRANCH  15  16
HETATM   16  C2  UNL     1      25.549 -33.460  12.217  1.00  0.00     0.133 C 
HETATM   17  C1  UNL     1      25.755 -34.103  10.900  1.00  0.00     0.099 C 
HETATM   18  N1  UNL     1      26.328 -32.537  12.648  1.00  0.00    -0.251 N 
ATOM     19  H1  UNL     1      26.172 -32.105  13.559  1.00  0.00     0.196 HD
BRANCH  18  20
HETATM   20  O1  UNL     1      27.377 -32.143  11.855  1.00  0.00    -0.288 OA
ATOM     21  H1  UNL     1      27.618 -31.225  11.846  1.00  0.00     0.244 HD
ENDBRANCH  18  20
ENDBRANCH  15  16
ENDBRANCH   9  15
BRANCH  11  22
HETATM   22  O3  UNL     1      20.541 -35.540  12.339  1.00  0.00    -0.393 OA
ATOM     23  H3  UNL     1      20.491 -36.425  11.999  1.00  0.00     0.210 HD
ENDBRANCH  11  22
ENDBRANCH   7   8
ENDBRANCH   1   7
BRANCH   3  24
HETATM   24  O5  UNL     1      18.103 -30.269  12.854  1.00  0.00    -0.353 OA
BRANCH  24  25
HETATM   25  C12 UNL     1      16.739 -30.269  12.909  1.00  0.00     0.260 C 
HETATM   26  C13 UNL     1      16.195 -31.442  12.126  1.00  0.00     0.061 C 
HETATM   27  C14 UNL     1      14.692 -31.430  12.247  1.00  0.00     0.007 C 
HETATM   28  C15 UNL     1      14.248 -30.118  12.843  1.00  0.00     0.026 C 
HETATM   29  C16 UNL     1      14.876 -29.862  14.200  1.00  0.00     0.171 C 
HETATM   30  O6  UNL     1      16.227 -30.216  14.201  1.00  0.00    -0.361 OA
ENDBRANCH  24  25
ENDBRANCH   3  24
BRANCH   5  31
HETATM   31  C19 UNL     1      20.770 -28.551  12.812  1.00  0.00     0.198 C 
BRANCH  31  32
HETATM   32  O8  UNL     1      20.426 -27.475  12.015  1.00  0.00    -0.398 OA
ATOM     33  H8  UNL     1      19.904 -27.799  11.290  1.00  0.00     0.209 HD
ENDBRANCH  31  32
ENDBRANCH   5  31
BRANCH   4  34
HETATM   34  O7  UNL     1      20.031 -30.538   9.875  1.00  0.00    -0.390 OA
ATOM     35  H7  UNL     1      20.942 -30.805   9.865  1.00  0.00     0.210 HD
ENDBRANCH   4  34
TORSDOF 11
ENDMDL
MODEL 4
REMARK VINA RESULT: -6.823882555      3.228      8.169
REMARK  11 active torsions:
REMARK  status: ('A' for Active; 'I' for Inactive)
REMARK    1  A    between atoms: C2_2  and  O2_7 
REMARK    2  A    between atoms: N1_3  and  O1_5 
REMARK    3  A    between atoms: O2_7  and  C3_8 
REMARK    4  A    between atoms: C5_10  and  O3_11 
REMARK    5  A    between atoms: C8_16  and  S1_17 
REMARK    6  A    between atoms: S1_17  and  C9_18 
REMARK    7  A    between atoms: C11_20  and  O5_21 
REMARK    8  A    between atoms: O5_21  and  C12_22 
REMARK    9  A    between atoms: C17_28  and  O7_29 
REMARK   10  A    between atoms: C18_31  and  C19_32 
REMARK   11  A    between atoms: C19_32  and  O8_33 
ROOT
HETATM    1  C9  UNL     1      20.970 -31.299  11.335  1.00  0.00     0.188 C 
HETATM    2  C10 UNL     1      20.093 -30.472  10.426  1.00  0.00     0.077 C 
HETATM    3  C11 UNL     1      19.052 -29.829  11.365  1.00  0.00     0.159 C 
HETATM    4  C17 UNL     1      19.828 -29.021  12.354  1.00  0.00     0.178 C 
HETATM    5  C18 UNL     1      21.000 -29.709  12.971  1.00  0.00     0.177 C 
HETATM    6  O9  UNL     1      21.769 -30.465  12.118  1.00  0.00    -0.365 OA
ENDROOT
BRANCH   1   7
HETATM    7  S1  UNL     1      21.829 -32.643  10.568  1.00  0.00    -0.103 SA
BRANCH   7   8
HETATM    8  C8  UNL     1      23.303 -33.223  11.363  1.00  0.00     0.215 C 
HETATM    9  C3  UNL     1      23.932 -34.390  10.639  1.00  0.00     0.171 C 
HETATM   10  C4  UNL     1      22.964 -35.536  10.500  1.00  0.00     0.070 C 
HETATM   11  C5  UNL     1      22.056 -35.732  11.648  1.00  0.00     0.149 C 
HETATM   12  C6  UNL     1      21.885 -34.559  12.553  1.00  0.00     0.147 C 
HETATM   13  C7  UNL     1      21.585 -35.047  13.978  1.00  0.00     0.042 C 
HETATM   14  O4  UNL     1      22.955 -33.720  12.635  1.00  0.00    -0.365 OA
BRANCH   9  15
HETATM   15  O2  UNL     1      24.977 -34.885  11.498  1.00  0.00    -0.329 OA
BRANCH  15  16
HETATM   16  C2  UNL     1      26.186 -34.241  11.652  1.00  0.00     0.133 C 
HETATM   17  C1  UNL     1      27.263 -34.374  10.647  1.00  0.00     0.099 C 
HETATM   18  N1  UNL     1      26.329 -33.523  12.705  1.00  0.00    -0.251 N 
ATOM     19  H1  UNL     1      25.575 -33.443  13.389  1.00  0.00     0.196 HD
BRANCH  18  20
HETATM   20  O1  UNL     1      27.519 -32.865  12.892  1.00  0.00    -0.288 OA
ATOM     21  H1  UNL     1      27.918 -32.887  13.754  1.00  0.00     0.244 HD
ENDBRANCH  18  20
ENDBRANCH  15  16
ENDBRANCH   9  15
BRANCH  11  22
HETATM   22  O3  UNL     1      20.790 -36.121  11.188  1.00  0.00    -0.393 OA
ATOM     23  H3  UNL     1      20.504 -36.895  11.657  1.00  0.00     0.210 HD
ENDBRANCH  11  22
ENDBRANCH   7   8
ENDBRANCH   1   7
BRANCH   3  24
HETATM   24  O5  UNL     1      18.403 -30.850  12.002  1.00  0.00    -0.353 OA
BRANCH  24  25
HETATM   25  C12 UNL     1      17.151 -30.558  12.460  1.00  0.00     0.260 C 
HETATM   26  C13 UNL     1      16.153 -31.533  11.875  1.00  0.00     0.061 C 
HETATM   27  C14 UNL     1      14.793 -31.204  12.438  1.00  0.00     0.007 C 
HETATM   28  C15 UNL     1      14.850 -29.869  13.137  1.00  0.00     0.026 C 
HETATM   29  C16 UNL     1      15.885 -29.844  14.245  1.00  0.00     0.171 C 
HETATM   30  O6  UNL     1      17.061 -30.482  13.846  1.00  0.00    -0.361 OA
ENDBRANCH  24  25
ENDBRANCH   3  24
BRANCH   5  31
HETATM   31  C19 UNL     1      20.615 -30.465  14.245  1.00  0.00     0.198 C 
BRANCH  31  32
HETATM   32  O8  UNL     1      21.511 -31.504  14.414  1.00  0.00    -0.398 OA
ATOM     33  H8  UNL     1      21.252 -31.995  15.186  1.00  0.00     0.209 HD
ENDBRANCH  31  32
ENDBRANCH   5  31
BRANCH   4  34
HETATM   34  O7  UNL     1      20.261 -27.821  11.794  1.00  0.00    -0.390 OA
ATOM     35  H7  UNL     1      20.858 -27.367  12.376  1.00  0.00     0.210 HD
ENDBRANCH   4  34
TORSDOF 11
ENDMDL
MODEL 5
REMARK VINA RESULT: -6.792962581      1.489      3.452
REMARK  11 active torsions:
REMARK  status: ('A' for Active; 'I' for Inactive)
REMARK    1  A    between atoms: C2_2  and  O2_7 
REMARK    2  A    between atoms: N1_3  and  O1_5 
REMARK    3  A    between atoms: O2_7  and  C3_8 
REMARK    4  A    between atoms: C5_10  and  O3_11 
REMARK    5  A    between atoms: C8_16  and  S1_17 
REMARK    6  A    between atoms: S1_17  and  C9_18 
REMARK    7  A    between atoms: C11_20  and  O5_21 
REMARK    8  A    between atoms: O5_21  and  C12_22 
REMARK    9  A    between atoms: C17_28  and  O7_29 
REMARK   10  A    between atoms: C18_31  and  C19_32 
REMARK   11  A    between atoms: C19_32  and  O8_33 
ROOT
HETATM    1  C9  UNL     1      22.303 -33.079  13.268  1.00  0.00     0.188 C 
HETATM    2  C10 UNL     1      21.705 -33.357  14.627  1.00  0.00     0.077 C 
HETATM    3  C11 UNL     1      21.736 -34.894  14.762  1.00  0.00     0.159 C 
HETATM    4  C17 UNL     1      23.170 -35.292  14.640  1.00  0.00     0.178 C 
HETATM    5  C18 UNL     1      23.919 -34.672  13.508  1.00  0.00     0.177 C 
HETATM    6  O9  UNL     1      23.674 -33.337  13.286  1.00  0.00    -0.365 OA
ENDROOT
BRANCH   1   7
HETATM    7  S1  UNL     1      21.847 -31.540  12.523  1.00  0.00    -0.103 SA
BRANCH   7   8
HETATM    8  C8  UNL     1      20.473 -30.671  13.231  1.00  0.00     0.215 C 
HETATM    9  C3  UNL     1      19.174 -30.959  12.515  1.00  0.00     0.171 C 
HETATM   10  C4  UNL     1      19.268 -30.622  11.050  1.00  0.00     0.070 C 
HETATM   11  C5  UNL     1      20.084 -29.431  10.732  1.00  0.00     0.149 C 
HETATM   12  C6  UNL     1      21.051 -29.003  11.783  1.00  0.00     0.147 C 
HETATM   13  C7  UNL     1      21.261 -27.484  11.702  1.00  0.00     0.042 C 
HETATM   14  O4  UNL     1      20.690 -29.289  13.065  1.00  0.00    -0.365 OA
BRANCH   9  15
HETATM   15  O2  UNL     1      18.204 -30.038  13.050  1.00  0.00    -0.329 OA
BRANCH  15  16
HETATM   16  C2  UNL     1      16.884 -30.378  13.254  1.00  0.00     0.133 C 
HETATM   17  C1  UNL     1      16.201 -31.366  12.389  1.00  0.00     0.099 C 
HETATM   18  N1  UNL     1      16.280 -29.798  14.225  1.00  0.00    -0.251 N 
ATOM     19  H1  UNL     1      16.767 -29.119  14.810  1.00  0.00     0.196 HD
BRANCH  18  20
HETATM   20  O1  UNL     1      14.965 -30.112  14.459  1.00  0.00    -0.288 OA
ATOM     21  H1  UNL     1      14.765 -30.943  14.874  1.00  0.00     0.244 HD
ENDBRANCH  18  20
ENDBRANCH  15  16
ENDBRANCH   9  15
BRANCH  11  22
HETATM   22  O3  UNL     1      20.794 -29.650   9.543  1.00  0.00    -0.393 OA
ATOM     23  H3  UNL     1      21.002 -28.817   9.137  1.00  0.00     0.210 HD
ENDBRANCH  11  22
ENDBRANCH   7   8
ENDBRANCH   1   7
BRANCH   3  24
HETATM   24  O5  UNL     1      21.019 -35.400  13.714  1.00  0.00    -0.353 OA
BRANCH  24  25
HETATM   25  C12 UNL     1      19.995 -36.239  14.051  1.00  0.00     0.260 C 
HETATM   26  C13 UNL     1      20.093 -37.514  13.245  1.00  0.00     0.061 C 
HETATM   27  C14 UNL     1      18.974 -38.428  13.678  1.00  0.00     0.007 C 
HETATM   28  C15 UNL     1      17.996 -37.655  14.527  1.00  0.00     0.026 C 
HETATM   29  C16 UNL     1      18.657 -37.037  15.745  1.00  0.00     0.171 C 
HETATM   30  O6  UNL     1      19.896 -36.485  15.416  1.00  0.00    -0.361 OA
ENDBRANCH  24  25
ENDBRANCH   3  24
BRANCH   5  31
HETATM   31  C19 UNL     1      23.822 -35.509  12.231  1.00  0.00     0.198 C 
BRANCH  31  32
HETATM   32  O8  UNL     1      23.546 -36.815  12.593  1.00  0.00    -0.398 OA
ATOM     33  H8  UNL     1      22.602 -36.911  12.657  1.00  0.00     0.209 HD
ENDBRANCH  31  32
ENDBRANCH   5  31
BRANCH   4  34
HETATM   34  O7  UNL     1      23.864 -35.041  15.822  1.00  0.00    -0.390 OA
ATOM     35  H7  UNL     1      24.718 -35.457  15.813  1.00  0.00     0.210 HD
ENDBRANCH   4  34
TORSDOF 11
ENDMDL
