MODEL 1
REMARK VINA RESULT: -9.774099874      0.000      0.000
REMARK  6 active torsions:
REMARK  status: ('A' for Active; 'I' for Inactive)
REMARK    1  A    between atoms: N1_2  and  C2_4 
REMARK    2  A    between atoms: N3_7  and  C3_8 
REMARK    3  A    between atoms: C5_10  and  N4_11 
REMARK    4  A    between atoms: N6_18  and  C10_19 
REMARK    5  A    between atoms: C14_23  and  O1_24 
REMARK    6  A    between atoms: O1_24  and  C15_25 
ROOT
HETATM    1  C15 UNL     1      11.990 -32.950  11.095  1.00  0.00     0.300 C 
HETATM    2  C16 UNL     1      10.661 -32.466  10.780  1.00  0.00     0.085 C 
HETATM    3  N7  UNL     1       9.588 -32.097  10.528  1.00  0.00    -0.195 NA
ENDROOT
BRANCH   1   4
HETATM    4  O1  UNL     1      12.967 -31.929  10.850  1.00  0.00    -0.321 OA
BRANCH   4   5
HETATM    5  C14 UNL     1      13.511 -31.316  11.985  1.00  0.00     0.155 A 
HETATM    6  C13 UNL     1      14.849 -31.060  12.190  1.00  0.00     0.032 A 
HETATM    7  C12 UNL     1      15.872 -31.388  11.294  1.00  0.00     0.021 C 
HETATM    8  C18 UNL     1      14.998 -30.442  13.428  1.00  0.00     0.063 A 
HETATM    9  C11 UNL     1      17.206 -31.539  11.668  1.00  0.00     0.051 C 
HETATM   10  C10 UNL     1      17.854 -31.232  12.842  1.00  0.00     0.130 C 
HETATM   11  N11 UNL     1      17.334 -30.655  13.938  1.00  0.00    -0.327 N 
HETATM   12  C19 UNL     1      16.138 -29.993  14.064  1.00  0.00     0.115 C 
ATOM     13  H11 UNL     1      17.900 -30.717  14.784  1.00  0.00     0.169 HD
HETATM   14  N10 UNL     1      16.112 -28.941  14.764  1.00  0.00    -0.385 N 
ATOM     15 2H10 UNL     1      15.224 -28.449  14.858  1.00  0.00     0.157 HD
ATOM     16 1H10 UNL     1      16.954 -28.608  15.234  1.00  0.00     0.157 HD
HETATM   17  C17 UNL     1      13.761 -30.327  13.968  1.00  0.00     0.133 A 
HETATM   18  N8  UNL     1      12.876 -30.859  13.083  1.00  0.00    -0.324 N 
HETATM   19  N9  UNL     1      13.419 -29.774  15.229  1.00  0.00    -0.082 NA
ATOM     20  H8  UNL     1      11.868 -30.905  13.230  1.00  0.00     0.169 HD
BRANCH  10  21
HETATM   21  N6  UNL     1      19.234 -31.543  12.959  1.00  0.00    -0.220 N 
HETATM   22  C3  UNL     1      20.298 -30.925  12.424  1.00  0.00     0.150 A 
HETATM   23  C4  UNL     1      21.449 -31.574  12.805  1.00  0.00     0.101 A 
HETATM   24  C5  UNL     1      21.043 -32.621  13.600  1.00  0.00     0.122 A 
HETATM   25  N5  UNL     1      19.714 -32.557  13.660  1.00  0.00    -0.276 N 
ATOM     26  H5  UNL     1      19.135 -33.213  14.184  1.00  0.00     0.189 HD
BRANCH  22  27
HETATM   27  N3  UNL     1      20.232 -29.777  11.589  1.00  0.00    -0.259 N 
HETATM   28  N2  UNL     1      20.245 -29.848  10.177  1.00  0.00    -0.129 N 
HETATM   29  C2  UNL     1      20.989 -28.971   9.547  1.00  0.00     0.688 C 
ATOM     30  H2  UNL     1      19.702 -30.548   9.672  1.00  0.00     0.206 HD
HETATM   31  N12 UNL     1      21.709 -28.038  10.345  1.00  0.00    -0.223 N 
HETATM   32  C21 UNL     1      21.338 -27.669  11.693  1.00  0.00     0.160 C 
ATOM     33  H12 UNL     1      22.538 -27.603   9.940  1.00  0.00     0.177 HD
HETATM   34  C20 UNL     1      20.149 -28.459  12.145  1.00  0.00     0.171 C 
BRANCH  29  35
HETATM   35  N1  UNL     1      21.057 -28.976   8.125  1.00  0.00    -0.229 N 
HETATM   36  C1  UNL     1      21.438 -30.173   7.409  1.00  0.00     0.165 C 
ATOM     37  H1  UNL     1      20.834 -28.126   7.607  1.00  0.00     0.177 HD
ENDBRANCH  29  35
ENDBRANCH  22  27
BRANCH  24  38
HETATM   38  N4  UNL     1      21.897 -33.585  14.238  1.00  0.00    -0.366 N 
HETATM   39  C6  UNL     1      21.651 -35.003  14.306  1.00  0.00     0.124 C 
HETATM   40  C7  UNL     1      22.979 -35.659  14.567  1.00  0.00     0.021 C 
HETATM   41  C8  UNL     1      23.978 -34.525  14.574  1.00  0.00     0.021 C 
HETATM   42  C9  UNL     1      23.137 -33.325  14.918  1.00  0.00     0.124 C 
ENDBRANCH  24  38
ENDBRANCH  10  21
ENDBRANCH   4   5
ENDBRANCH   1   4
TORSDOF 6
ENDMDL
MODEL 2
REMARK VINA RESULT: -8.687977582      2.819      7.912
REMARK  6 active torsions:
REMARK  status: ('A' for Active; 'I' for Inactive)
REMARK    1  A    between atoms: N1_2  and  C2_4 
REMARK    2  A    between atoms: N3_7  and  C3_8 
REMARK    3  A    between atoms: C5_10  and  N4_11 
REMARK    4  A    between atoms: N6_18  and  C10_19 
REMARK    5  A    between atoms: C14_23  and  O1_24 
REMARK    6  A    between atoms: O1_24  and  C15_25 
ROOT
HETATM    1  C15 UNL     1      23.730 -24.744  12.046  1.00  0.00     0.300 C 
HETATM    2  C16 UNL     1      23.704 -23.436  12.671  1.00  0.00     0.085 C 
HETATM    3  N7  UNL     1      23.705 -22.387  13.173  1.00  0.00    -0.195 NA
ENDROOT
BRANCH   1   4
HETATM    4  O1  UNL     1      22.413 -25.312  12.020  1.00  0.00    -0.321 OA
BRANCH   4   5
HETATM    5  C14 UNL     1      22.197 -26.315  11.067  1.00  0.00     0.155 A 
HETATM    6  C13 UNL     1      21.402 -27.426  11.243  1.00  0.00     0.032 A 
HETATM    7  C12 UNL     1      20.697 -27.726  12.414  1.00  0.00     0.021 C 
HETATM    8  C18 UNL     1      21.437 -28.186  10.078  1.00  0.00     0.063 A 
HETATM    9  C11 UNL     1      20.273 -29.010  12.751  1.00  0.00     0.051 C 
HETATM   10  C10 UNL     1      20.242 -30.172  12.014  1.00  0.00     0.130 C 
HETATM   11  N11 UNL     1      20.593 -30.337  10.729  1.00  0.00    -0.327 N 
HETATM   12  C19 UNL     1      20.800 -29.372   9.774  1.00  0.00     0.115 C 
ATOM     13  H11 UNL     1      20.722 -31.301  10.423  1.00  0.00     0.169 HD
HETATM   14  N10 UNL     1      20.371 -29.591   8.605  1.00  0.00    -0.385 N 
ATOM     15 2H10 UNL     1      20.525 -28.875   7.896  1.00  0.00     0.157 HD
ATOM     16 1H10 UNL     1      19.901 -30.468   8.380  1.00  0.00     0.157 HD
HETATM   17  C17 UNL     1      22.247 -27.541   9.206  1.00  0.00     0.133 A 
HETATM   18  N8  UNL     1      22.697 -26.414   9.818  1.00  0.00    -0.324 N 
HETATM   19  N9  UNL     1      22.597 -27.948   7.892  1.00  0.00    -0.082 NA
ATOM     20  H8  UNL     1      23.326 -25.735   9.391  1.00  0.00     0.169 HD
BRANCH  10  21
HETATM   21  N6  UNL     1      19.793 -31.363  12.642  1.00  0.00    -0.220 N 
HETATM   22  C3  UNL     1      18.545 -31.754  12.942  1.00  0.00     0.150 A 
HETATM   23  C4  UNL     1      18.580 -32.987  13.550  1.00  0.00     0.101 A 
HETATM   24  C5  UNL     1      19.910 -33.336  13.611  1.00  0.00     0.122 A 
HETATM   25  N5  UNL     1      20.589 -32.334  13.057  1.00  0.00    -0.276 N 
ATOM     26  H5  UNL     1      21.604 -32.318  12.963  1.00  0.00     0.189 HD
BRANCH  22  27
HETATM   27  N3  UNL     1      17.372 -30.999  12.669  1.00  0.00    -0.259 N 
HETATM   28  N2  UNL     1      16.731 -30.194  13.639  1.00  0.00    -0.129 N 
HETATM   29  C2  UNL     1      15.421 -30.247  13.680  1.00  0.00     0.688 C 
ATOM     30  H2  UNL     1      17.261 -29.599  14.275  1.00  0.00     0.206 HD
HETATM   31  N12 UNL     1      14.777 -31.109  12.749  1.00  0.00    -0.223 N 
HETATM   32  C21 UNL     1      15.367 -31.540  11.500  1.00  0.00     0.160 C 
ATOM     33  H12 UNL     1      13.840 -31.444  12.976  1.00  0.00     0.177 HD
HETATM   34  C20 UNL     1      16.764 -31.015  11.372  1.00  0.00     0.171 C 
BRANCH  29  35
HETATM   35  N1  UNL     1      14.700 -29.467  14.627  1.00  0.00    -0.229 N 
HETATM   36  C1  UNL     1      13.254 -29.460  14.629  1.00  0.00     0.165 C 
ATOM     37  H1  UNL     1      15.209 -28.907  15.311  1.00  0.00     0.177 HD
ENDBRANCH  29  35
ENDBRANCH  22  27
BRANCH  24  38
HETATM   38  N4  UNL     1      20.445 -34.549  14.165  1.00  0.00    -0.366 N 
HETATM   39  C6  UNL     1      19.670 -35.685  14.593  1.00  0.00     0.124 C 
HETATM   40  C7  UNL     1      20.600 -36.867  14.596  1.00  0.00     0.021 C 
HETATM   41  C8  UNL     1      21.915 -36.327  14.081  1.00  0.00     0.021 C 
HETATM   42  C9  UNL     1      21.831 -34.857  14.394  1.00  0.00     0.124 C 
ENDBRANCH  24  38
ENDBRANCH  10  21
ENDBRANCH   4   5
ENDBRANCH   1   4
TORSDOF 6
ENDMDL
MODEL 3
REMARK VINA RESULT: -8.305402660      3.043      8.511
REMARK  6 active torsions:
REMARK  status: ('A' for Active; 'I' for Inactive)
REMARK    1  A    between atoms: N1_2  and  C2_4 
REMARK    2  A    between atoms: N3_7  and  C3_8 
REMARK    3  A    between atoms: C5_10  and  N4_11 
REMARK    4  A    between atoms: N6_18  and  C10_19 
REMARK    5  A    between atoms: C14_23  and  O1_24 
REMARK    6  A    between atoms: O1_24  and  C15_25 
ROOT
HETATM    1  C15 UNL     1      24.848 -34.951  17.521  1.00  0.00     0.300 C 
HETATM    2  C16 UNL     1      25.074 -34.214  18.749  1.00  0.00     0.085 C 
HETATM    3  N7  UNL     1      25.255 -33.643  19.744  1.00  0.00    -0.195 NA
ENDROOT
BRANCH   1   4
HETATM    4  O1  UNL     1      24.473 -34.057  16.463  1.00  0.00    -0.321 OA
BRANCH   4   5
HETATM    5  C14 UNL     1      23.749 -34.625  15.408  1.00  0.00     0.155 A 
HETATM    6  C13 UNL     1      22.898 -33.944  14.565  1.00  0.00     0.032 A 
HETATM    7  C12 UNL     1      22.619 -32.575  14.648  1.00  0.00     0.021 C 
HETATM    8  C18 UNL     1      22.367 -34.844  13.648  1.00  0.00     0.063 A 
HETATM    9  C11 UNL     1      21.472 -31.989  14.117  1.00  0.00     0.051 C 
HETATM   10  C10 UNL     1      20.509 -32.494  13.273  1.00  0.00     0.130 C 
HETATM   11  N11 UNL     1      20.469 -33.712  12.710  1.00  0.00    -0.327 N 
HETATM   12  C19 UNL     1      21.481 -34.635  12.610  1.00  0.00     0.115 C 
ATOM     13  H11 UNL     1      19.574 -33.987  12.307  1.00  0.00     0.169 HD
HETATM   14  N10 UNL     1      21.594 -35.278  11.528  1.00  0.00    -0.385 N 
ATOM     15 2H10 UNL     1      22.345 -35.963  11.453  1.00  0.00     0.157 HD
ATOM     16 1H10 UNL     1      20.939 -35.124  10.761  1.00  0.00     0.157 HD
HETATM   17  C17 UNL     1      22.891 -36.060  13.933  1.00  0.00     0.133 A 
HETATM   18  N8  UNL     1      23.723 -35.909  14.998  1.00  0.00    -0.324 N 
HETATM   19  N9  UNL     1      22.628 -37.289  13.274  1.00  0.00    -0.082 NA
ATOM     20  H8  UNL     1      24.256 -36.665  15.428  1.00  0.00     0.169 HD
BRANCH  10  21
HETATM   21  N6  UNL     1      19.407 -31.668  12.927  1.00  0.00    -0.220 N 
HETATM   22  C3  UNL     1      19.333 -30.671  12.033  1.00  0.00     0.150 A 
HETATM   23  C4  UNL     1      18.062 -30.145  12.030  1.00  0.00     0.101 A 
HETATM   24  C5  UNL     1      17.357 -30.867  12.966  1.00  0.00     0.122 A 
HETATM   25  N5  UNL     1      18.205 -31.761  13.471  1.00  0.00    -0.276 N 
ATOM     26  H5  UNL     1      17.956 -32.437  14.192  1.00  0.00     0.189 HD
BRANCH  22  27
HETATM   27  N3  UNL     1      20.412 -30.231  11.219  1.00  0.00    -0.259 N 
HETATM   28  N2  UNL     1      21.091 -29.009  11.433  1.00  0.00    -0.129 N 
HETATM   29  C2  UNL     1      21.374 -28.296  10.369  1.00  0.00     0.688 C 
ATOM     30  H2  UNL     1      21.349 -28.697  12.369  1.00  0.00     0.206 HD
HETATM   31  N12 UNL     1      20.970 -28.820   9.109  1.00  0.00    -0.223 N 
HETATM   32  C21 UNL     1      20.723 -30.222   8.856  1.00  0.00     0.160 C 
ATOM     33  H12 UNL     1      20.847 -28.166   8.337  1.00  0.00     0.177 HD
HETATM   34  C20 UNL     1      20.879 -31.018  10.116  1.00  0.00     0.171 C 
BRANCH  29  35
HETATM   35  N1  UNL     1      22.056 -27.053  10.498  1.00  0.00    -0.229 N 
HETATM   36  C1  UNL     1      21.848 -26.215  11.658  1.00  0.00     0.165 C 
ATOM     37  H1  UNL     1      22.699 -26.752   9.766  1.00  0.00     0.177 HD
ENDBRANCH  29  35
ENDBRANCH  22  27
BRANCH  24  38
HETATM   38  N4  UNL     1      15.976 -30.682  13.317  1.00  0.00    -0.366 N 
HETATM   39  C6  UNL     1      15.479 -29.736  14.283  1.00  0.00     0.124 C 
HETATM   40  C7  UNL     1      14.027 -29.511  13.960  1.00  0.00     0.021 C 
HETATM   41  C8  UNL     1      13.772 -30.340  12.721  1.00  0.00     0.021 C 
HETATM   42  C9  UNL     1      14.846 -31.393  12.783  1.00  0.00     0.124 C 
ENDBRANCH  24  38
ENDBRANCH  10  21
ENDBRANCH   4   5
ENDBRANCH   1   4
TORSDOF 6
ENDMDL
MODEL 4
REMARK VINA RESULT: -8.083409281      3.080      8.485
REMARK  6 active torsions:
REMARK  status: ('A' for Active; 'I' for Inactive)
REMARK    1  A    between atoms: N1_2  and  C2_4 
REMARK    2  A    between atoms: N3_7  and  C3_8 
REMARK    3  A    between atoms: C5_10  and  N4_11 
REMARK    4  A    between atoms: N6_18  and  C10_19 
REMARK    5  A    between atoms: C14_23  and  O1_24 
REMARK    6  A    between atoms: O1_24  and  C15_25 
ROOT
HETATM    1  C15 UNL     1      26.506 -34.023  12.617  1.00  0.00     0.300 C 
HETATM    2  C16 UNL     1      27.231 -32.887  12.083  1.00  0.00     0.085 C 
HETATM    3  N7  UNL     1      27.823 -31.989  11.643  1.00  0.00    -0.195 NA
ENDROOT
BRANCH   1   4
HETATM    4  O1  UNL     1      25.749 -33.636  13.772  1.00  0.00    -0.321 OA
BRANCH   4   5
HETATM    5  C14 UNL     1      24.543 -34.319  13.972  1.00  0.00     0.155 A 
HETATM    6  C13 UNL     1      23.325 -33.963  13.434  1.00  0.00     0.032 A 
HETATM    7  C12 UNL     1      23.109 -32.851  12.614  1.00  0.00     0.021 C 
HETATM    8  C18 UNL     1      22.369 -34.881  13.857  1.00  0.00     0.063 A 
HETATM    9  C11 UNL     1      21.863 -32.251  12.442  1.00  0.00     0.051 C 
HETATM   10  C10 UNL     1      20.604 -32.663  12.814  1.00  0.00     0.130 C 
HETATM   11  N11 UNL     1      20.265 -33.810  13.425  1.00  0.00    -0.327 N 
HETATM   12  C19 UNL     1      21.019 -34.947  13.577  1.00  0.00     0.115 C 
ATOM     13  H11 UNL     1      19.327 -33.840  13.826  1.00  0.00     0.169 HD
HETATM   14  N10 UNL     1      20.445 -36.064  13.433  1.00  0.00    -0.385 N 
ATOM     15 2H10 UNL     1      21.005 -36.909  13.546  1.00  0.00     0.157 HD
ATOM     16 1H10 UNL     1      19.448 -36.114  13.227  1.00  0.00     0.157 HD
HETATM   17  C17 UNL     1      23.002 -35.783  14.644  1.00  0.00     0.133 A 
HETATM   18  N8  UNL     1      24.313 -35.429  14.702  1.00  0.00    -0.324 N 
HETATM   19  N9  UNL     1      22.429 -36.895  15.315  1.00  0.00    -0.082 NA
ATOM     20  H8  UNL     1      25.027 -35.935  15.226  1.00  0.00     0.169 HD
BRANCH  10  21
HETATM   21  N6  UNL     1      19.502 -31.811  12.543  1.00  0.00    -0.220 N 
HETATM   22  C3  UNL     1      19.404 -30.786  11.684  1.00  0.00     0.150 A 
HETATM   23  C4  UNL     1      18.143 -30.242  11.754  1.00  0.00     0.101 A 
HETATM   24  C5  UNL     1      17.469 -30.981  12.699  1.00  0.00     0.122 A 
HETATM   25  N5  UNL     1      18.323 -31.903  13.137  1.00  0.00    -0.276 N 
ATOM     26  H5  UNL     1      18.096 -32.598  13.848  1.00  0.00     0.189 HD
BRANCH  22  27
HETATM   27  N3  UNL     1      20.453 -30.337  10.836  1.00  0.00    -0.259 N 
HETATM   28  N2  UNL     1      21.129 -29.110  11.029  1.00  0.00    -0.129 N 
HETATM   29  C2  UNL     1      21.372 -28.393   9.958  1.00  0.00     0.688 C 
ATOM     30  H2  UNL     1      21.414 -28.797  11.957  1.00  0.00     0.206 HD
HETATM   31  N12 UNL     1      20.931 -28.919   8.711  1.00  0.00    -0.223 N 
HETATM   32  C21 UNL     1      20.687 -30.323   8.465  1.00  0.00     0.160 C 
ATOM     33  H12 UNL     1      20.778 -28.265   7.944  1.00  0.00     0.177 HD
HETATM   34  C20 UNL     1      20.889 -31.119   9.718  1.00  0.00     0.171 C 
BRANCH  29  35
HETATM   35  N1  UNL     1      22.048 -27.146  10.067  1.00  0.00    -0.229 N 
HETATM   36  C1  UNL     1      22.205 -26.501  11.352  1.00  0.00     0.165 C 
ATOM     37  H1  UNL     1      22.425 -26.702   9.230  1.00  0.00     0.177 HD
ENDBRANCH  29  35
ENDBRANCH  22  27
BRANCH  24  38
HETATM   38  N4  UNL     1      16.107 -30.788  13.116  1.00  0.00    -0.366 N 
HETATM   39  C6  UNL     1      15.669 -29.866  14.133  1.00  0.00     0.124 C 
HETATM   40  C7  UNL     1      14.208 -29.610  13.883  1.00  0.00     0.021 C 
HETATM   41  C8  UNL     1      13.886 -30.393  12.631  1.00  0.00     0.021 C 
HETATM   42  C9  UNL     1      14.943 -31.464  12.611  1.00  0.00     0.124 C 
ENDBRANCH  24  38
ENDBRANCH  10  21
ENDBRANCH   4   5
ENDBRANCH   1   4
TORSDOF 6
ENDMDL
MODEL 5
REMARK VINA RESULT: -8.006670993      3.503      7.853
REMARK  6 active torsions:
REMARK  status: ('A' for Active; 'I' for Inactive)
REMARK    1  A    between atoms: N1_2  and  C2_4 
REMARK    2  A    between atoms: N3_7  and  C3_8 
REMARK    3  A    between atoms: C5_10  and  N4_11 
REMARK    4  A    between atoms: N6_18  and  C10_19 
REMARK    5  A    between atoms: C14_23  and  O1_24 
REMARK    6  A    between atoms: O1_24  and  C15_25 
ROOT
HETATM    1  C15 UNL     1      17.800 -30.326  12.454  1.00  0.00     0.300 C 
HETATM    2  C16 UNL     1      16.845 -30.161  13.532  1.00  0.00     0.085 C 
HETATM    3  N7  UNL     1      16.065 -30.025  14.383  1.00  0.00    -0.195 NA
ENDROOT
BRANCH   1   4
HETATM    4  O1  UNL     1      19.141 -30.277  12.961  1.00  0.00    -0.321 OA
BRANCH   4   5
HETATM    5  C14 UNL     1      20.003 -31.286  12.514  1.00  0.00     0.155 A 
HETATM    6  C13 UNL     1      20.634 -31.313  11.289  1.00  0.00     0.032 A 
HETATM    7  C12 UNL     1      20.496 -30.335  10.298  1.00  0.00     0.021 C 
HETATM    8  C18 UNL     1      21.404 -32.469  11.212  1.00  0.00     0.063 A 
HETATM    9  C11 UNL     1      20.755 -30.563   8.948  1.00  0.00     0.051 C 
HETATM   10  C10 UNL     1      21.357 -31.625   8.312  1.00  0.00     0.130 C 
HETATM   11  N11 UNL     1      21.892 -32.721   8.875  1.00  0.00    -0.327 N 
HETATM   12  C19 UNL     1      22.215 -32.928  10.193  1.00  0.00     0.115 C 
ATOM     13  H11 UNL     1      22.081 -33.498   8.242  1.00  0.00     0.169 HD
HETATM   14  N10 UNL     1      23.292 -33.536  10.452  1.00  0.00    -0.385 N 
ATOM     15 2H10 UNL     1      23.532 -33.690  11.431  1.00  0.00     0.157 HD
ATOM     16 1H10 UNL     1      23.891 -33.875   9.700  1.00  0.00     0.157 HD
HETATM   17  C17 UNL     1      21.240 -33.136  12.379  1.00  0.00     0.133 A 
HETATM   18  N8  UNL     1      20.391 -32.408  13.152  1.00  0.00    -0.324 N 
HETATM   19  N9  UNL     1      21.817 -34.378  12.751  1.00  0.00    -0.082 NA
ATOM     20  H8  UNL     1      20.090 -32.674  14.089  1.00  0.00     0.169 HD
BRANCH  10  21
HETATM   21  N6  UNL     1      21.448 -31.606   6.896  1.00  0.00    -0.220 N 
HETATM   22  C3  UNL     1      22.210 -30.843   6.097  1.00  0.00     0.150 A 
HETATM   23  C4  UNL     1      21.971 -31.168   4.782  1.00  0.00     0.101 A 
HETATM   24  C5  UNL     1      21.025 -32.167   4.810  1.00  0.00     0.122 A 
HETATM   25  N5  UNL     1      20.748 -32.391   6.093  1.00  0.00    -0.276 N 
ATOM     26  H5  UNL     1      20.076 -33.085   6.418  1.00  0.00     0.189 HD
BRANCH  22  27
HETATM   27  N3  UNL     1      23.120 -29.851   6.553  1.00  0.00    -0.259 N 
HETATM   28  N2  UNL     1      22.807 -28.932   7.581  1.00  0.00    -0.129 N 
HETATM   29  C2  UNL     1      23.175 -27.687   7.394  1.00  0.00     0.688 C 
ATOM     30  H2  UNL     1      22.320 -29.223   8.428  1.00  0.00     0.206 HD
HETATM   31  N12 UNL     1      23.849 -27.386   6.177  1.00  0.00    -0.223 N 
HETATM   32  C21 UNL     1      24.565 -28.360   5.384  1.00  0.00     0.160 C 
ATOM     33  H12 UNL     1      23.826 -26.422   5.844  1.00  0.00     0.177 HD
HETATM   34  C20 UNL     1      24.428 -29.727   5.982  1.00  0.00     0.171 C 
BRANCH  29  35
HETATM   35  N1  UNL     1      22.898 -26.701   8.381  1.00  0.00    -0.229 N 
HETATM   36  C1  UNL     1      22.348 -27.075   9.665  1.00  0.00     0.165 C 
ATOM     37  H1  UNL     1      23.091 -25.719   8.181  1.00  0.00     0.177 HD
ENDBRANCH  29  35
ENDBRANCH  22  27
BRANCH  24  38
HETATM   38  N4  UNL     1      20.459 -32.833   3.669  1.00  0.00    -0.366 N 
HETATM   39  C6  UNL     1      19.147 -33.426   3.614  1.00  0.00     0.124 C 
HETATM   40  C7  UNL     1      18.777 -33.523   2.159  1.00  0.00     0.021 C 
HETATM   41  C8  UNL     1      19.935 -32.889   1.422  1.00  0.00     0.021 C 
HETATM   42  C9  UNL     1      21.080 -33.032   2.388  1.00  0.00     0.124 C 
ENDBRANCH  24  38
ENDBRANCH  10  21
ENDBRANCH   4   5
ENDBRANCH   1   4
TORSDOF 6
ENDMDL
