MODEL 1
REMARK VINA RESULT: -6.757991891      0.000      0.000
REMARK  8 active torsions:
REMARK  status: ('A' for Active; 'I' for Inactive)
REMARK    1  A    between atoms: C2_2  and  C4_4 
REMARK    2  A    between atoms: C4_4  and  N1_5 
REMARK    3  A    between atoms: C6_8  and  N3_9 
REMARK       I    between atoms: N3_9  and  C7_11 
REMARK    4  A    between atoms: C7_11  and  C8_13 
REMARK    5  A    between atoms: C8_13  and  S1_14 
REMARK    6  A    between atoms: S1_14  and  C9_15 
REMARK    7  A    between atoms: C11_19  and  N5_20 
REMARK    8  A    between atoms: C12_25  and  N7_26 
ROOT
HETATM    1  S1  UNL     1      22.092 -33.657   6.457  1.00  0.00    -0.084 SA
ENDROOT
BRANCH   1   2
HETATM    2  C8  UNL     1      22.852 -34.666   7.749  1.00  0.00     0.185 C 
BRANCH   2   3
HETATM    3  C7  UNL     1      22.307 -34.398   9.078  1.00  0.00     0.232 C 
HETATM    4  N3  UNL     1      22.765 -33.369   9.943  1.00  0.00    -0.319 N 
ATOM      5  H3  UNL     1      23.527 -32.765   9.633  1.00  0.00     0.169 HD
HETATM    6  O1  UNL     1      21.365 -35.131   9.483  1.00  0.00    -0.272 OA
BRANCH   4   7
HETATM    7  C6  UNL     1      22.195 -33.154  11.226  1.00  0.00     0.145 A 
HETATM    8  C5  UNL     1      21.246 -32.175  11.470  1.00  0.00     0.155 A 
HETATM    9  N1  UNL     1      20.696 -31.962  12.693  1.00  0.00    -0.285 N 
HETATM   10  N2  UNL     1      20.849 -31.410  10.353  1.00  0.00    -0.080 NA
HETATM   11  C18 UNL     1      21.114 -32.761  13.710  1.00  0.00     0.332 A 
HETATM   12  N10 UNL     1      22.034 -33.716  13.493  1.00  0.00    -0.269 N 
HETATM   13  O3  UNL     1      20.655 -32.640  14.885  1.00  0.00    -0.246 OA
HETATM   14  C16 UNL     1      22.588 -33.938  12.286  1.00  0.00     0.281 A 
HETATM   15  C17 UNL     1      22.436 -34.542  14.648  1.00  0.00     0.164 C 
HETATM   16  O2  UNL     1      23.448 -34.845  12.133  1.00  0.00    -0.265 OA
BRANCH   9  17
HETATM   17  C4  UNL     1      19.722 -30.941  12.917  1.00  0.00     0.139 C 
BRANCH  17  18
HETATM   18  C2  UNL     1      18.300 -31.300  12.731  1.00  0.00    -0.004 C 
HETATM   19  C1  UNL     1      17.667 -30.925  11.434  1.00  0.00     0.011 C 
HETATM   20  C3  UNL     1      17.393 -30.884  13.891  1.00  0.00     0.011 C 
ENDBRANCH  17  18
ENDBRANCH   9  17
ENDBRANCH   4   7
ENDBRANCH   2   3
ENDBRANCH   1   2
BRANCH   1  21
HETATM   21  C9  UNL     1      22.431 -31.932   6.673  1.00  0.00     0.148 A 
HETATM   22  N4  UNL     1      21.724 -31.129   7.479  1.00  0.00    -0.331 N 
HETATM   23  C10 UNL     1      22.274 -29.918   7.377  1.00  0.00     0.124 A 
ATOM     24  H4  UNL     1      20.924 -31.391   8.056  1.00  0.00     0.168 HD
HETATM   25  C11 UNL     1      21.976 -28.712   7.964  1.00  0.00     0.145 A 
HETATM   26  C14 UNL     1      23.354 -29.953   6.486  1.00  0.00     0.157 A 
HETATM   27  N6  UNL     1      22.720 -27.648   7.661  1.00  0.00    -0.175 N 
HETATM   28  C12 UNL     1      23.746 -27.683   6.815  1.00  0.00     0.681 A 
ATOM     29  H6  UNL     1      22.489 -26.758   8.103  1.00  0.00     0.186 HD
HETATM   30  N8  UNL     1      24.065 -28.845   6.223  1.00  0.00    -0.170 N 
HETATM   31  C13 UNL     1      25.180 -28.891   5.301  1.00  0.00     0.177 C 
HETATM   32  N9  UNL     1      23.423 -31.234   6.065  1.00  0.00    -0.316 N 
HETATM   33  C15 UNL     1      24.380 -31.766   5.133  1.00  0.00     0.160 C 
BRANCH  25  34
HETATM   34  N5  UNL     1      20.990 -28.633   8.789  1.00  0.00    -0.383 N 
ATOM     35  H52 UNL     1      20.083 -28.264   8.504  1.00  0.00     0.157 HD
ATOM     36  H51 UNL     1      21.114 -28.948   9.752  1.00  0.00     0.157 HD
ENDBRANCH  25  34
BRANCH  28  37
HETATM   37  N7  UNL     1      24.446 -26.594   6.556  1.00  0.00    -0.234 N 
ATOM     38  H72 UNL     1      25.230 -26.336   7.155  1.00  0.00     0.174 HD
ATOM     39  H71 UNL     1      24.214 -26.001   5.759  1.00  0.00     0.174 HD
ENDBRANCH  28  37
ENDBRANCH   1  21
TORSDOF 8
ENDMDL
MODEL 2
REMARK VINA RESULT: -6.695362152      1.038      1.309
REMARK  8 active torsions:
REMARK  status: ('A' for Active; 'I' for Inactive)
REMARK    1  A    between atoms: C2_2  and  C4_4 
REMARK    2  A    between atoms: C4_4  and  N1_5 
REMARK    3  A    between atoms: C6_8  and  N3_9 
REMARK       I    between atoms: N3_9  and  C7_11 
REMARK    4  A    between atoms: C7_11  and  C8_13 
REMARK    5  A    between atoms: C8_13  and  S1_14 
REMARK    6  A    between atoms: S1_14  and  C9_15 
REMARK    7  A    between atoms: C11_19  and  N5_20 
REMARK    8  A    between atoms: C12_25  and  N7_26 
ROOT
HETATM    1  S1  UNL     1      22.099 -32.797   6.540  1.00  0.00    -0.084 SA
ENDROOT
BRANCH   1   2
HETATM    2  C8  UNL     1      22.846 -33.837   7.816  1.00  0.00     0.185 C 
BRANCH   2   3
HETATM    3  C7  UNL     1      22.225 -33.665   9.128  1.00  0.00     0.232 C 
HETATM    4  N3  UNL     1      22.437 -32.547   9.978  1.00  0.00    -0.319 N 
ATOM      5  H3  UNL     1      23.063 -31.803   9.668  1.00  0.00     0.169 HD
HETATM    6  O1  UNL     1      21.449 -34.571   9.532  1.00  0.00    -0.272 OA
BRANCH   4   7
HETATM    7  C6  UNL     1      21.805 -32.433  11.245  1.00  0.00     0.145 A 
HETATM    8  C5  UNL     1      20.765 -31.551  11.486  1.00  0.00     0.155 A 
HETATM    9  N1  UNL     1      20.155 -31.435  12.694  1.00  0.00    -0.285 N 
HETATM   10  N2  UNL     1      20.341 -30.781  10.382  1.00  0.00    -0.080 NA
HETATM   11  C18 UNL     1      20.605 -32.234  13.697  1.00  0.00     0.332 A 
HETATM   12  N10 UNL     1      21.614 -33.095  13.482  1.00  0.00    -0.269 N 
HETATM   13  O3  UNL     1      20.096 -32.199  14.857  1.00  0.00    -0.246 OA
HETATM   14  C16 UNL     1      22.228 -33.220  12.291  1.00  0.00     0.281 A 
HETATM   15  C17 UNL     1      22.047 -33.927  14.622  1.00  0.00     0.164 C 
HETATM   16  O2  UNL     1      23.171 -34.042  12.139  1.00  0.00    -0.265 OA
BRANCH   9  17
HETATM   17  C4  UNL     1      19.086 -30.513  12.916  1.00  0.00     0.139 C 
BRANCH  17  18
HETATM   18  C2  UNL     1      17.714 -31.059  12.977  1.00  0.00    -0.004 C 
HETATM   19  C1  UNL     1      17.018 -31.296  11.680  1.00  0.00     0.011 C 
HETATM   20  C3  UNL     1      16.785 -30.310  13.935  1.00  0.00     0.011 C 
ENDBRANCH  17  18
ENDBRANCH   9  17
ENDBRANCH   4   7
ENDBRANCH   2   3
ENDBRANCH   1   2
BRANCH   1  21
HETATM   21  C9  UNL     1      22.965 -31.265   6.339  1.00  0.00     0.148 A 
HETATM   22  N4  UNL     1      22.606 -30.123   6.939  1.00  0.00    -0.331 N 
HETATM   23  C10 UNL     1      23.489 -29.202   6.548  1.00  0.00     0.124 A 
ATOM     24  H4  UNL     1      21.817 -29.984   7.570  1.00  0.00     0.168 HD
HETATM   25  C11 UNL     1      23.624 -27.865   6.836  1.00  0.00     0.145 A 
HETATM   26  C14 UNL     1      24.428 -29.772   5.680  1.00  0.00     0.157 A 
HETATM   27  N6  UNL     1      24.628 -27.185   6.283  1.00  0.00    -0.175 N 
HETATM   28  C12 UNL     1      25.520 -27.729   5.458  1.00  0.00     0.681 A 
ATOM     29  H6  UNL     1      24.717 -26.194   6.503  1.00  0.00     0.186 HD
HETATM   30  N8  UNL     1      25.418 -29.034   5.154  1.00  0.00    -0.170 N 
HETATM   31  C13 UNL     1      26.384 -29.632   4.258  1.00  0.00     0.177 C 
HETATM   32  N9  UNL     1      24.067 -31.069   5.573  1.00  0.00    -0.316 N 
HETATM   33  C15 UNL     1      24.734 -32.069   4.783  1.00  0.00     0.160 C 
BRANCH  25  34
HETATM   34  N5  UNL     1      22.782 -27.298   7.629  1.00  0.00    -0.383 N 
ATOM     35  H52 UNL     1      22.700 -26.283   7.683  1.00  0.00     0.157 HD
ATOM     36  H51 UNL     1      22.180 -27.874   8.218  1.00  0.00     0.157 HD
ENDBRANCH  25  34
BRANCH  28  37
HETATM   37  N7  UNL     1      26.494 -27.003   4.941  1.00  0.00    -0.234 N 
ATOM     38  H72 UNL     1      27.426 -27.031   5.354  1.00  0.00     0.174 HD
ATOM     39  H71 UNL     1      26.329 -26.410   4.128  1.00  0.00     0.174 HD
ENDBRANCH  28  37
ENDBRANCH   1  21
TORSDOF 8
ENDMDL
MODEL 3
REMARK VINA RESULT: -6.538271030      0.887      1.099
REMARK  8 active torsions:
REMARK  status: ('A' for Active; 'I' for Inactive)
REMARK    1  A    between atoms: C2_2  and  C4_4 
REMARK    2  A    between atoms: C4_4  and  N1_5 
REMARK    3  A    between atoms: C6_8  and  N3_9 
REMARK       I    between atoms: N3_9  and  C7_11 
REMARK    4  A    between atoms: C7_11  and  C8_13 
REMARK    5  A    between atoms: C8_13  and  S1_14 
REMARK    6  A    between atoms: S1_14  and  C9_15 
REMARK    7  A    between atoms: C11_19  and  N5_20 
REMARK    8  A    between atoms: C12_25  and  N7_26 
ROOT
HETATM    1  S1  UNL     1      21.409 -33.718   6.405  1.00  0.00    -0.084 SA
ENDROOT
BRANCH   1   2
HETATM    2  C8  UNL     1      22.367 -34.871   7.413  1.00  0.00     0.185 C 
BRANCH   2   3
HETATM    3  C7  UNL     1      22.227 -34.628   8.847  1.00  0.00     0.232 C 
HETATM    4  N3  UNL     1      22.933 -33.627   9.567  1.00  0.00    -0.319 N 
ATOM      5  H3  UNL     1      23.588 -33.027   9.064  1.00  0.00     0.169 HD
HETATM    6  O1  UNL     1      21.425 -35.357   9.490  1.00  0.00    -0.272 OA
BRANCH   4   7
HETATM    7  C6  UNL     1      22.756 -33.435  10.962  1.00  0.00     0.145 A 
HETATM    8  C5  UNL     1      21.852 -32.525  11.485  1.00  0.00     0.155 A 
HETATM    9  N1  UNL     1      21.676 -32.335  12.818  1.00  0.00    -0.285 N 
HETATM   10  N2  UNL     1      21.085 -31.808  10.542  1.00  0.00    -0.080 NA
HETATM   11  C18 UNL     1      22.435 -33.086  13.658  1.00  0.00     0.332 A 
HETATM   12  N10 UNL     1      23.318 -33.974  13.171  1.00  0.00    -0.269 N 
HETATM   13  O3  UNL     1      22.338 -32.981  14.917  1.00  0.00    -0.246 OA
HETATM   14  C16 UNL     1      23.503 -34.172  11.852  1.00  0.00     0.281 A 
HETATM   15  C17 UNL     1      24.105 -34.751  14.148  1.00  0.00     0.164 C 
HETATM   16  O2  UNL     1      24.344 -35.017  11.443  1.00  0.00    -0.265 OA
BRANCH   9  17
HETATM   17  C4  UNL     1      20.738 -31.385  13.329  1.00  0.00     0.139 C 
BRANCH  17  18
HETATM   18  C2  UNL     1      19.368 -31.861  13.613  1.00  0.00    -0.004 C 
HETATM   19  C1  UNL     1      19.195 -33.319  13.874  1.00  0.00     0.011 C 
HETATM   20  C3  UNL     1      18.320 -31.386  12.605  1.00  0.00     0.011 C 
ENDBRANCH  17  18
ENDBRANCH   9  17
ENDBRANCH   4   7
ENDBRANCH   2   3
ENDBRANCH   1   2
BRANCH   1  21
HETATM   21  C9  UNL     1      21.885 -32.035   6.684  1.00  0.00     0.148 A 
HETATM   22  N4  UNL     1      21.283 -31.227   7.567  1.00  0.00    -0.331 N 
HETATM   23  C10 UNL     1      21.914 -30.054   7.492  1.00  0.00     0.124 A 
ATOM     24  H4  UNL     1      20.498 -31.462   8.175  1.00  0.00     0.168 HD
HETATM   25  C11 UNL     1      21.738 -28.863   8.152  1.00  0.00     0.145 A 
HETATM   26  C14 UNL     1      22.939 -30.119   6.540  1.00  0.00     0.157 A 
HETATM   27  N6  UNL     1      22.540 -27.840   7.859  1.00  0.00    -0.175 N 
HETATM   28  C12 UNL     1      23.514 -27.902   6.955  1.00  0.00     0.681 A 
ATOM     29  H6  UNL     1      22.399 -26.960   8.355  1.00  0.00     0.186 HD
HETATM   30  N8  UNL     1      23.715 -29.052   6.290  1.00  0.00    -0.170 N 
HETATM   31  C13 UNL     1      24.772 -29.128   5.304  1.00  0.00     0.177 C 
HETATM   32  N9  UNL     1      22.891 -31.378   6.054  1.00  0.00    -0.316 N 
HETATM   33  C15 UNL     1      23.755 -31.927   5.044  1.00  0.00     0.160 C 
BRANCH  25  34
HETATM   34  N5  UNL     1      20.806 -28.757   9.035  1.00  0.00    -0.383 N 
ATOM     35  H52 UNL     1      20.284 -29.571   9.361  1.00  0.00     0.157 HD
ATOM     36  H51 UNL     1      20.582 -27.841   9.423  1.00  0.00     0.157 HD
ENDBRANCH  25  34
BRANCH  28  37
HETATM   37  N7  UNL     1      24.277 -26.854   6.708  1.00  0.00    -0.234 N 
ATOM     38  H72 UNL     1      24.002 -25.931   7.045  1.00  0.00     0.174 HD
ATOM     39  H71 UNL     1      25.145 -26.951   6.182  1.00  0.00     0.174 HD
ENDBRANCH  28  37
ENDBRANCH   1  21
TORSDOF 8
ENDMDL
MODEL 4
REMARK VINA RESULT: -6.516932823      1.430      1.820
REMARK  8 active torsions:
REMARK  status: ('A' for Active; 'I' for Inactive)
REMARK    1  A    between atoms: C2_2  and  C4_4 
REMARK    2  A    between atoms: C4_4  and  N1_5 
REMARK    3  A    between atoms: C6_8  and  N3_9 
REMARK       I    between atoms: N3_9  and  C7_11 
REMARK    4  A    between atoms: C7_11  and  C8_13 
REMARK    5  A    between atoms: C8_13  and  S1_14 
REMARK    6  A    between atoms: S1_14  and  C9_15 
REMARK    7  A    between atoms: C11_19  and  N5_20 
REMARK    8  A    between atoms: C12_25  and  N7_26 
ROOT
HETATM    1  S1  UNL     1      21.218 -33.175   6.010  1.00  0.00    -0.084 SA
ENDROOT
BRANCH   1   2
HETATM    2  C8  UNL     1      22.314 -34.454   6.665  1.00  0.00     0.185 C 
BRANCH   2   3
HETATM    3  C7  UNL     1      22.241 -34.578   8.119  1.00  0.00     0.232 C 
HETATM    4  N3  UNL     1      23.121 -33.928   9.027  1.00  0.00    -0.319 N 
ATOM      5  H3  UNL     1      23.860 -33.331   8.656  1.00  0.00     0.169 HD
HETATM    6  O1  UNL     1      21.337 -35.311   8.601  1.00  0.00    -0.272 OA
BRANCH   4   7
HETATM    7  C6  UNL     1      23.003 -34.085  10.433  1.00  0.00     0.145 A 
HETATM    8  C5  UNL     1      22.186 -33.281  11.210  1.00  0.00     0.155 A 
HETATM    9  N1  UNL     1      22.067 -33.423  12.555  1.00  0.00    -0.285 N 
HETATM   10  N2  UNL     1      21.445 -32.301  10.516  1.00  0.00    -0.080 NA
HETATM   11  C18 UNL     1      22.794 -34.409  13.143  1.00  0.00     0.332 A 
HETATM   12  N10 UNL     1      23.593 -35.199  12.406  1.00  0.00    -0.269 N 
HETATM   13  O3  UNL     1      22.745 -34.619  14.392  1.00  0.00    -0.246 OA
HETATM   14  C16 UNL     1      23.721 -35.069  11.072  1.00  0.00     0.281 A 
HETATM   15  C17 UNL     1      24.351 -36.247  13.118  1.00  0.00     0.164 C 
HETATM   16  O2  UNL     1      24.483 -35.835  10.424  1.00  0.00    -0.265 OA
BRANCH   9  17
HETATM   17  C4  UNL     1      21.219 -32.574  13.333  1.00  0.00     0.139 C 
BRANCH  17  18
HETATM   18  C2  UNL     1      19.776 -32.892  13.364  1.00  0.00    -0.004 C 
HETATM   19  C1  UNL     1      18.826 -31.755  13.203  1.00  0.00     0.011 C 
HETATM   20  C3  UNL     1      19.352 -33.760  14.550  1.00  0.00     0.011 C 
ENDBRANCH  17  18
ENDBRANCH   9  17
ENDBRANCH   4   7
ENDBRANCH   2   3
ENDBRANCH   1   2
BRANCH   1  21
HETATM   21  C9  UNL     1      21.542 -31.589   6.728  1.00  0.00     0.148 A 
HETATM   22  N4  UNL     1      20.902 -31.116   7.806  1.00  0.00    -0.331 N 
HETATM   23  C10 UNL     1      21.414 -29.906   8.043  1.00  0.00     0.124 A 
ATOM     24  H4  UNL     1      20.171 -31.585   8.339  1.00  0.00     0.168 HD
HETATM   25  C11 UNL     1      21.153 -28.961   9.005  1.00  0.00     0.145 A 
HETATM   26  C14 UNL     1      22.400 -29.606   7.095  1.00  0.00     0.157 A 
HETATM   27  N6  UNL     1      21.840 -27.819   8.989  1.00  0.00    -0.175 N 
HETATM   28  C12 UNL     1      22.776 -27.535   8.087  1.00  0.00     0.681 A 
ATOM     29  H6  UNL     1      21.636 -27.124   9.707  1.00  0.00     0.186 HD
HETATM   30  N8  UNL     1      23.058 -28.436   7.132  1.00  0.00    -0.170 N 
HETATM   31  C13 UNL     1      24.075 -28.135   6.147  1.00  0.00     0.177 C 
HETATM   32  N9  UNL     1      22.452 -30.687   6.286  1.00  0.00    -0.316 N 
HETATM   33  C15 UNL     1      23.322 -30.851   5.152  1.00  0.00     0.160 C 
BRANCH  25  34
HETATM   34  N5  UNL     1      20.253 -29.194   9.897  1.00  0.00    -0.383 N 
ATOM     35  H52 UNL     1      20.373 -28.900  10.866  1.00  0.00     0.157 HD
ATOM     36  H51 UNL     1      19.398 -29.683   9.632  1.00  0.00     0.157 HD
ENDBRANCH  25  34
BRANCH  28  37
HETATM   37  N7  UNL     1      23.424 -26.386   8.123  1.00  0.00    -0.234 N 
ATOM     38  H72 UNL     1      22.916 -25.518   8.294  1.00  0.00     0.174 HD
ATOM     39  H71 UNL     1      24.433 -26.350   7.982  1.00  0.00     0.174 HD
ENDBRANCH  28  37
ENDBRANCH   1  21
TORSDOF 8
ENDMDL
MODEL 5
REMARK VINA RESULT: -6.496744500      1.560      3.443
REMARK  8 active torsions:
REMARK  status: ('A' for Active; 'I' for Inactive)
REMARK    1  A    between atoms: C2_2  and  C4_4 
REMARK    2  A    between atoms: C4_4  and  N1_5 
REMARK    3  A    between atoms: C6_8  and  N3_9 
REMARK       I    between atoms: N3_9  and  C7_11 
REMARK    4  A    between atoms: C7_11  and  C8_13 
REMARK    5  A    between atoms: C8_13  and  S1_14 
REMARK    6  A    between atoms: S1_14  and  C9_15 
REMARK    7  A    between atoms: C11_19  and  N5_20 
REMARK    8  A    between atoms: C12_25  and  N7_26 
ROOT
HETATM    1  S1  UNL     1      21.485 -33.550   6.511  1.00  0.00    -0.084 SA
ENDROOT
BRANCH   1   2
HETATM    2  C8  UNL     1      22.484 -34.706   7.477  1.00  0.00     0.185 C 
BRANCH   2   3
HETATM    3  C7  UNL     1      22.231 -34.616   8.914  1.00  0.00     0.232 C 
HETATM    4  N3  UNL     1      22.920 -33.744   9.799  1.00  0.00    -0.319 N 
ATOM      5  H3  UNL     1      23.644 -33.131   9.424  1.00  0.00     0.169 HD
HETATM    6  O1  UNL     1      21.341 -35.364   9.400  1.00  0.00    -0.272 OA
BRANCH   4   7
HETATM    7  C6  UNL     1      22.631 -33.699  11.189  1.00  0.00     0.145 A 
HETATM    8  C5  UNL     1      23.271 -34.508  12.113  1.00  0.00     0.155 A 
HETATM    9  N1  UNL     1      23.001 -34.472  13.443  1.00  0.00    -0.285 N 
HETATM   10  N2  UNL     1      24.259 -35.372  11.596  1.00  0.00    -0.080 NA
HETATM   11  C18 UNL     1      22.055 -33.592  13.863  1.00  0.00     0.332 A 
HETATM   12  N10 UNL     1      21.423 -32.799  12.981  1.00  0.00    -0.269 N 
HETATM   13  O3  UNL     1      21.739 -33.484  15.085  1.00  0.00    -0.246 OA
HETATM   14  C16 UNL     1      21.680 -32.824  11.659  1.00  0.00     0.281 A 
HETATM   15  C17 UNL     1      20.408 -31.869  13.514  1.00  0.00     0.164 C 
HETATM   16  O2  UNL     1      21.060 -32.061  10.872  1.00  0.00    -0.265 OA
BRANCH   9  17
HETATM   17  C4  UNL     1      23.674 -35.323  14.375  1.00  0.00     0.139 C 
BRANCH  17  18
HETATM   18  C2  UNL     1      24.873 -34.784  15.051  1.00  0.00    -0.004 C 
HETATM   19  C1  UNL     1      26.180 -35.427  14.734  1.00  0.00     0.011 C 
HETATM   20  C3  UNL     1      24.722 -34.633  16.566  1.00  0.00     0.011 C 
ENDBRANCH  17  18
ENDBRANCH   9  17
ENDBRANCH   4   7
ENDBRANCH   2   3
ENDBRANCH   1   2
BRANCH   1  21
HETATM   21  C9  UNL     1      21.767 -31.868   6.989  1.00  0.00     0.148 A 
HETATM   22  N4  UNL     1      21.125 -31.263   7.997  1.00  0.00    -0.331 N 
HETATM   23  C10 UNL     1      21.600 -30.017   8.049  1.00  0.00     0.124 A 
ATOM     24  H4  UNL     1      20.414 -31.672   8.604  1.00  0.00     0.168 HD
HETATM   25  C11 UNL     1      21.319 -28.951   8.869  1.00  0.00     0.145 A 
HETATM   26  C14 UNL     1      22.565 -29.828   7.052  1.00  0.00     0.157 A 
HETATM   27  N6  UNL     1      21.969 -27.803   8.678  1.00  0.00    -0.175 N 
HETATM   28  C12 UNL     1      22.886 -27.625   7.730  1.00  0.00     0.681 A 
ATOM     29  H6  UNL     1      21.751 -27.019   9.292  1.00  0.00     0.186 HD
HETATM   30  N8  UNL     1      23.186 -28.646   6.910  1.00  0.00    -0.170 N 
HETATM   31  C13 UNL     1      24.181 -28.459   5.876  1.00  0.00     0.177 C 
HETATM   32  N9  UNL     1      22.643 -31.012   6.407  1.00  0.00    -0.316 N 
HETATM   33  C15 UNL     1      23.504 -31.312   5.295  1.00  0.00     0.160 C 
BRANCH  25  34
HETATM   34  N5  UNL     1      20.438 -29.080   9.799  1.00  0.00    -0.383 N 
ATOM     35  H52 UNL     1      19.611 -29.665   9.675  1.00  0.00     0.157 HD
ATOM     36  H51 UNL     1      20.566 -28.589  10.684  1.00  0.00     0.157 HD
ENDBRANCH  25  34
BRANCH  28  37
HETATM   37  N7  UNL     1      23.497 -26.463   7.590  1.00  0.00    -0.234 N 
ATOM     38  H72 UNL     1      22.955 -25.599   7.572  1.00  0.00     0.174 HD
ATOM     39  H71 UNL     1      24.511 -26.414   7.498  1.00  0.00     0.174 HD
ENDBRANCH  28  37
ENDBRANCH   1  21
TORSDOF 8
ENDMDL
