MODEL 1
REMARK VINA RESULT: -5.684370471      0.000      0.000
REMARK  9 active torsions:
REMARK  status: ('A' for Active; 'I' for Inactive)
REMARK    1  A    between atoms: O1_2  and  C2_3 
REMARK       I    between atoms: C2_3  and  N1_5 
REMARK    2  A    between atoms: N1_5  and  C3_7 
REMARK    3  A    between atoms: C4_8  and  C5_9 
REMARK    4  A    between atoms: C8_16  and  O4_18 
REMARK    5  A    between atoms: O4_18  and  C10_19 
REMARK    6  A    between atoms: C10_19  and  C11_20 
REMARK    7  A    between atoms: C12_23  and  O6_24 
REMARK    8  A    between atoms: C12_23  and  O7_26 
REMARK    9  A    between atoms: O7_26  and  S3_27 
ROOT
HETATM    1  C3  UNL     1      19.809 -31.222  12.796  1.00  0.00     0.077 A 
HETATM    2  C4  UNL     1      20.429 -30.706  11.695  1.00  0.00     0.098 A 
HETATM    3  S1  UNL     1      21.426 -31.994  11.195  1.00  0.00    -0.080 SA
HETATM    4  C6  UNL     1      21.026 -33.159  12.402  1.00  0.00     0.069 A 
HETATM    5  C7  UNL     1      20.137 -32.503  13.144  1.00  0.00     0.050 A 
HETATM    6  S2  UNL     1      19.669 -33.699  14.467  1.00  0.00    -0.082 SA
HETATM    7  C8  UNL     1      21.058 -34.793  14.180  1.00  0.00     0.178 C 
HETATM    8  C9  UNL     1      22.266 -34.384  15.035  1.00  0.00     0.066 C 
HETATM    9  C12 UNL     1      21.398 -34.526  12.733  1.00  0.00     0.260 C 
ENDROOT
BRANCH   9  10
HETATM   10  O6  UNL     1      22.769 -34.708  12.596  1.00  0.00    -0.357 OA
ATOM     11  H6  UNL     1      23.002 -35.617  12.742  1.00  0.00     0.213 HD
ENDBRANCH   9  10
BRANCH   9  12
HETATM   12  O7  UNL     1      20.765 -35.502  11.966  1.00  0.00    -0.208 OA
BRANCH  12  13
HETATM   13  S3  UNL     1      21.834 -36.193  10.876  1.00  0.00     0.254 S 
HETATM   14  O8  UNL     1      22.525 -35.155  10.030  1.00  0.00    -0.572 OA
HETATM   15  O9  UNL     1      22.881 -37.017  11.536  1.00  0.00    -0.572 OA
HETATM   16  O10 UNL     1      20.954 -37.205   9.859  1.00  0.00    -0.572 OA
ENDBRANCH  12  13
ENDBRANCH   9  12
BRANCH   7  17
HETATM   17  O4  UNL     1      20.787 -36.084  14.439  1.00  0.00    -0.330 OA
BRANCH  17  18
HETATM   18  C10 UNL     1      19.559 -36.540  14.660  1.00  0.00     0.208 C 
BRANCH  18  19
HETATM   19  C11 UNL     1      19.120 -37.085  15.936  1.00  0.00     0.276 C 
HETATM   20  N3  UNL     1      17.786 -36.722  16.393  1.00  0.00    -0.056 NA
HETATM   21  O5  UNL     1      19.737 -37.838  16.714  1.00  0.00    -0.270 OA
ENDBRANCH  18  19
ENDBRANCH  17  18
ENDBRANCH   7  17
BRANCH   2  22
HETATM   22  C5  UNL     1      20.255 -29.357  11.108  1.00  0.00     0.274 C 
HETATM   23  N2  UNL     1      20.570 -29.245   9.733  1.00  0.00    -0.057 NA
HETATM   24  O3  UNL     1      19.857 -28.441  11.841  1.00  0.00    -0.270 OA
ENDBRANCH   2  22
BRANCH   1  25
HETATM   25  N1  UNL     1      18.842 -30.432  13.556  1.00  0.00    -0.300 N 
HETATM   26  C2  UNL     1      17.458 -30.645  13.344  1.00  0.00     0.364 C 
HETATM   27  O2  UNL     1      17.062 -31.499  12.515  1.00  0.00    -0.238 OA
ATOM     28  H1  UNL     1      19.161 -29.736  14.231  1.00  0.00     0.171 HD
BRANCH  26  29
HETATM   29  O1  UNL     1      16.500 -29.928  14.034  1.00  0.00    -0.309 OA
HETATM   30  C1  UNL     1      15.108 -30.031  13.718  1.00  0.00     0.215 C 
ENDBRANCH  26  29
ENDBRANCH   1  25
TORSDOF 9
ENDMDL
MODEL 2
REMARK VINA RESULT: -5.433197679      2.641      7.641
REMARK  9 active torsions:
REMARK  status: ('A' for Active; 'I' for Inactive)
REMARK    1  A    between atoms: O1_2  and  C2_3 
REMARK       I    between atoms: C2_3  and  N1_5 
REMARK    2  A    between atoms: N1_5  and  C3_7 
REMARK    3  A    between atoms: C4_8  and  C5_9 
REMARK    4  A    between atoms: C8_16  and  O4_18 
REMARK    5  A    between atoms: O4_18  and  C10_19 
REMARK    6  A    between atoms: C10_19  and  C11_20 
REMARK    7  A    between atoms: C12_23  and  O6_24 
REMARK    8  A    between atoms: C12_23  and  O7_26 
REMARK    9  A    between atoms: O7_26  and  S3_27 
ROOT
HETATM    1  C3  UNL     1      21.579 -34.504  12.992  1.00  0.00     0.077 A 
HETATM    2  C4  UNL     1      20.974 -35.027  14.098  1.00  0.00     0.098 A 
HETATM    3  S1  UNL     1      19.760 -33.879  14.433  1.00  0.00    -0.080 SA
HETATM    4  C6  UNL     1      20.055 -32.761  13.154  1.00  0.00     0.069 A 
HETATM    5  C7  UNL     1      21.081 -33.321  12.519  1.00  0.00     0.050 A 
HETATM    6  S2  UNL     1      21.453 -32.164  11.132  1.00  0.00    -0.082 SA
HETATM    7  C8  UNL     1      20.508 -30.804  11.814  1.00  0.00     0.178 C 
HETATM    8  C9  UNL     1      21.381 -29.928  12.724  1.00  0.00     0.066 C 
HETATM    9  C12 UNL     1      19.490 -31.507  12.679  1.00  0.00     0.260 C 
ENDROOT
BRANCH   9  10
HETATM   10  O6  UNL     1      19.208 -30.662  13.746  1.00  0.00    -0.357 OA
ATOM     11  H6  UNL     1      19.816 -30.810  14.461  1.00  0.00     0.213 HD
ENDBRANCH   9  10
BRANCH   9  12
HETATM   12  O7  UNL     1      18.323 -31.641  11.929  1.00  0.00    -0.208 OA
BRANCH  12  13
HETATM   13  S3  UNL     1      17.015 -30.970  12.733  1.00  0.00     0.254 S 
HETATM   14  O8  UNL     1      16.944 -31.418  14.169  1.00  0.00    -0.572 OA
HETATM   15  O9  UNL     1      17.029 -29.483  12.718  1.00  0.00    -0.572 OA
HETATM   16  O10 UNL     1      15.613 -31.475  11.951  1.00  0.00    -0.572 OA
ENDBRANCH  12  13
ENDBRANCH   9  12
BRANCH   7  17
HETATM   17  O4  UNL     1      19.960 -30.009  10.877  1.00  0.00    -0.330 OA
BRANCH  17  18
HETATM   18  C10 UNL     1      20.670 -29.174  10.126  1.00  0.00     0.208 C 
BRANCH  18  19
HETATM   19  C11 UNL     1      21.005 -29.431   8.733  1.00  0.00     0.276 C 
HETATM   20  N3  UNL     1      21.797 -28.425   8.041  1.00  0.00    -0.056 NA
HETATM   21  O5  UNL     1      20.703 -30.414   8.029  1.00  0.00    -0.270 OA
ENDBRANCH  18  19
ENDBRANCH  17  18
ENDBRANCH   7  17
BRANCH   2  22
HETATM   22  C5  UNL     1      21.313 -36.284  14.805  1.00  0.00     0.274 C 
HETATM   23  N2  UNL     1      20.215 -37.113  15.136  1.00  0.00    -0.057 NA
HETATM   24  O3  UNL     1      22.504 -36.518  15.054  1.00  0.00    -0.270 OA
ENDBRANCH   2  22
BRANCH   1  25
HETATM   25  N1  UNL     1      22.704 -35.186  12.355  1.00  0.00    -0.300 N 
HETATM   26  C2  UNL     1      24.020 -34.717  12.591  1.00  0.00     0.364 C 
HETATM   27  O2  UNL     1      24.222 -33.728  13.337  1.00  0.00    -0.238 OA
ATOM     28  H1  UNL     1      22.543 -35.989  11.747  1.00  0.00     0.171 HD
BRANCH  26  29
HETATM   29  O1  UNL     1      25.120 -35.322  12.015  1.00  0.00    -0.309 OA
HETATM   30  C1  UNL     1      26.012 -34.605  11.157  1.00  0.00     0.215 C 
ENDBRANCH  26  29
ENDBRANCH   1  25
TORSDOF 9
ENDMDL
MODEL 3
REMARK VINA RESULT: -5.411701703      2.288      7.586
REMARK  9 active torsions:
REMARK  status: ('A' for Active; 'I' for Inactive)
REMARK    1  A    between atoms: O1_2  and  C2_3 
REMARK       I    between atoms: C2_3  and  N1_5 
REMARK    2  A    between atoms: N1_5  and  C3_7 
REMARK    3  A    between atoms: C4_8  and  C5_9 
REMARK    4  A    between atoms: C8_16  and  O4_18 
REMARK    5  A    between atoms: O4_18  and  C10_19 
REMARK    6  A    between atoms: C10_19  and  C11_20 
REMARK    7  A    between atoms: C12_23  and  O6_24 
REMARK    8  A    between atoms: C12_23  and  O7_26 
REMARK    9  A    between atoms: O7_26  and  S3_27 
ROOT
HETATM    1  C3  UNL     1      21.383 -34.491  12.999  1.00  0.00     0.077 A 
HETATM    2  C4  UNL     1      20.737 -34.995  14.092  1.00  0.00     0.098 A 
HETATM    3  S1  UNL     1      19.563 -33.802  14.408  1.00  0.00    -0.080 SA
HETATM    4  C6  UNL     1      19.923 -32.692  13.139  1.00  0.00     0.069 A 
HETATM    5  C7  UNL     1      20.940 -33.289  12.521  1.00  0.00     0.050 A 
HETATM    6  S2  UNL     1      21.381 -32.143  11.146  1.00  0.00    -0.082 SA
HETATM    7  C8  UNL     1      20.476 -30.750  11.815  1.00  0.00     0.178 C 
HETATM    8  C9  UNL     1      21.364 -29.911  12.744  1.00  0.00     0.066 C 
HETATM    9  C12 UNL     1      19.416 -31.416  12.658  1.00  0.00     0.260 C 
ENDROOT
BRANCH   9  10
HETATM   10  O6  UNL     1      19.146 -30.564  13.723  1.00  0.00    -0.357 OA
ATOM     11  H6  UNL     1      19.520 -29.705  13.567  1.00  0.00     0.213 HD
ENDBRANCH   9  10
BRANCH   9  12
HETATM   12  O7  UNL     1      18.259 -31.504  11.886  1.00  0.00    -0.208 OA
BRANCH  12  13
HETATM   13  S3  UNL     1      16.936 -30.899  12.720  1.00  0.00     0.254 S 
HETATM   14  O8  UNL     1      16.904 -31.376  14.148  1.00  0.00    -0.572 OA
HETATM   15  O9  UNL     1      16.891 -29.413  12.731  1.00  0.00    -0.572 OA
HETATM   16  O10 UNL     1      15.544 -31.446  11.947  1.00  0.00    -0.572 OA
ENDBRANCH  12  13
ENDBRANCH   9  12
BRANCH   7  17
HETATM   17  O4  UNL     1      19.976 -29.931  10.871  1.00  0.00    -0.330 OA
BRANCH  17  18
HETATM   18  C10 UNL     1      20.729 -29.109  10.149  1.00  0.00     0.208 C 
BRANCH  18  19
HETATM   19  C11 UNL     1      21.066 -29.343   8.752  1.00  0.00     0.276 C 
HETATM   20  N3  UNL     1      21.840 -28.316   8.072  1.00  0.00    -0.056 NA
HETATM   21  O5  UNL     1      20.779 -30.322   8.037  1.00  0.00    -0.270 OA
ENDBRANCH  18  19
ENDBRANCH  17  18
ENDBRANCH   7  17
BRANCH   2  22
HETATM   22  C5  UNL     1      21.016 -36.265  14.800  1.00  0.00     0.274 C 
HETATM   23  N2  UNL     1      19.876 -36.994  15.215  1.00  0.00    -0.057 NA
HETATM   24  O3  UNL     1      22.196 -36.596  14.978  1.00  0.00    -0.270 OA
ENDBRANCH   2  22
BRANCH   1  25
HETATM   25  N1  UNL     1      22.493 -35.213  12.380  1.00  0.00    -0.300 N 
HETATM   26  C2  UNL     1      22.261 -35.948  11.191  1.00  0.00     0.364 C 
HETATM   27  O2  UNL     1      21.119 -35.981  10.672  1.00  0.00    -0.238 OA
ATOM     28  H1  UNL     1      23.422 -35.189  12.799  1.00  0.00     0.171 HD
BRANCH  26  29
HETATM   29  O1  UNL     1      23.272 -36.649  10.562  1.00  0.00    -0.309 OA
HETATM   30  C1  UNL     1      24.555 -36.065  10.319  1.00  0.00     0.215 C 
ENDBRANCH  26  29
ENDBRANCH   1  25
TORSDOF 9
ENDMDL
MODEL 4
REMARK VINA RESULT: -5.389612480      1.145      1.148
REMARK  9 active torsions:
REMARK  status: ('A' for Active; 'I' for Inactive)
REMARK    1  A    between atoms: O1_2  and  C2_3 
REMARK       I    between atoms: C2_3  and  N1_5 
REMARK    2  A    between atoms: N1_5  and  C3_7 
REMARK    3  A    between atoms: C4_8  and  C5_9 
REMARK    4  A    between atoms: C8_16  and  O4_18 
REMARK    5  A    between atoms: O4_18  and  C10_19 
REMARK    6  A    between atoms: C10_19  and  C11_20 
REMARK    7  A    between atoms: C12_23  and  O6_24 
REMARK    8  A    between atoms: C12_23  and  O7_26 
REMARK    9  A    between atoms: O7_26  and  S3_27 
ROOT
HETATM    1  C3  UNL     1      19.906 -31.387  12.784  1.00  0.00     0.077 A 
HETATM    2  C4  UNL     1      20.444 -30.780  11.686  1.00  0.00     0.098 A 
HETATM    3  S1  UNL     1      21.470 -31.989  11.063  1.00  0.00    -0.080 SA
HETATM    4  C6  UNL     1      21.187 -33.238  12.217  1.00  0.00     0.069 A 
HETATM    5  C7  UNL     1      20.309 -32.669  13.040  1.00  0.00     0.050 A 
HETATM    6  S2  UNL     1      19.964 -33.959  14.311  1.00  0.00    -0.082 SA
HETATM    7  C8  UNL     1      21.384 -34.967  13.891  1.00  0.00     0.178 C 
HETATM    8  C9  UNL     1      22.616 -34.550  14.708  1.00  0.00     0.066 C 
HETATM    9  C12 UNL     1      21.636 -34.602  12.448  1.00  0.00     0.260 C 
ENDROOT
BRANCH   9  10
HETATM   10  O6  UNL     1      23.005 -34.710  12.232  1.00  0.00    -0.357 OA
ATOM     11  H6  UNL     1      23.488 -34.257  12.913  1.00  0.00     0.213 HD
ENDBRANCH   9  10
BRANCH   9  12
HETATM   12  O7  UNL     1      21.009 -35.563  11.657  1.00  0.00    -0.208 OA
BRANCH  12  13
HETATM   13  S3  UNL     1      22.056 -36.152  10.488  1.00  0.00     0.254 S 
HETATM   14  O8  UNL     1      22.677 -35.045   9.677  1.00  0.00    -0.572 OA
HETATM   15  O9  UNL     1      23.156 -36.974  11.060  1.00  0.00    -0.572 OA
HETATM   16  O10 UNL     1      21.170 -37.137   9.450  1.00  0.00    -0.572 OA
ENDBRANCH  12  13
ENDBRANCH   9  12
BRANCH   7  17
HETATM   17  O4  UNL     1      21.185 -36.283  14.087  1.00  0.00    -0.330 OA
BRANCH  17  18
HETATM   18  C10 UNL     1      22.105 -37.088  14.606  1.00  0.00     0.208 C 
BRANCH  18  19
HETATM   19  C11 UNL     1      21.871 -37.936  15.765  1.00  0.00     0.276 C 
HETATM   20  N3  UNL     1      20.488 -38.154  16.163  1.00  0.00    -0.056 NA
HETATM   21  O5  UNL     1      22.706 -38.518  16.485  1.00  0.00    -0.270 OA
ENDBRANCH  18  19
ENDBRANCH  17  18
ENDBRANCH   7  17
BRANCH   2  22
HETATM   22  C5  UNL     1      20.179 -29.410  11.190  1.00  0.00     0.274 C 
HETATM   23  N2  UNL     1      20.471 -29.190   9.823  1.00  0.00    -0.057 NA
HETATM   24  O3  UNL     1      19.733 -28.570  11.984  1.00  0.00    -0.270 OA
ENDBRANCH   2  22
BRANCH   1  25
HETATM   25  N1  UNL     1      18.946 -30.689  13.637  1.00  0.00    -0.300 N 
HETATM   26  C2  UNL     1      17.559 -30.891  13.425  1.00  0.00     0.364 C 
HETATM   27  O2  UNL     1      17.157 -31.659  12.518  1.00  0.00    -0.238 OA
ATOM     28  H1  UNL     1      19.269 -30.064  14.375  1.00  0.00     0.171 HD
BRANCH  26  29
HETATM   29  O1  UNL     1      16.607 -30.258  14.200  1.00  0.00    -0.309 OA
HETATM   30  C1  UNL     1      15.347 -29.849  13.661  1.00  0.00     0.215 C 
ENDBRANCH  26  29
ENDBRANCH   1  25
TORSDOF 9
ENDMDL
MODEL 5
REMARK VINA RESULT: -5.320166701      2.611      7.548
REMARK  9 active torsions:
REMARK  status: ('A' for Active; 'I' for Inactive)
REMARK    1  A    between atoms: O1_2  and  C2_3 
REMARK       I    between atoms: C2_3  and  N1_5 
REMARK    2  A    between atoms: N1_5  and  C3_7 
REMARK    3  A    between atoms: C4_8  and  C5_9 
REMARK    4  A    between atoms: C8_16  and  O4_18 
REMARK    5  A    between atoms: O4_18  and  C10_19 
REMARK    6  A    between atoms: C10_19  and  C11_20 
REMARK    7  A    between atoms: C12_23  and  O6_24 
REMARK    8  A    between atoms: C12_23  and  O7_26 
REMARK    9  A    between atoms: O7_26  and  S3_27 
ROOT
HETATM    1  C3  UNL     1      21.343 -34.185  13.266  1.00  0.00     0.077 A 
HETATM    2  C4  UNL     1      20.529 -34.863  14.127  1.00  0.00     0.098 A 
HETATM    3  S1  UNL     1      19.161 -33.851  14.216  1.00  0.00    -0.080 SA
HETATM    4  C6  UNL     1      19.661 -32.590  13.153  1.00  0.00     0.069 A 
HETATM    5  C7  UNL     1      20.867 -33.002  12.772  1.00  0.00     0.050 A 
HETATM    6  S2  UNL     1      21.465 -31.685  11.628  1.00  0.00    -0.082 SA
HETATM    7  C8  UNL     1      20.244 -30.478  12.138  1.00  0.00     0.178 C 
HETATM    8  C9  UNL     1      20.761 -29.635  13.313  1.00  0.00     0.066 C 
HETATM    9  C12 UNL     1      19.114 -31.341  12.644  1.00  0.00     0.260 C 
ENDROOT
BRANCH   9  10
HETATM   10  O6  UNL     1      18.483 -30.633  13.660  1.00  0.00    -0.357 OA
ATOM     11  H6  UNL     1      19.050 -30.559  14.419  1.00  0.00     0.213 HD
ENDBRANCH   9  10
BRANCH   9  12
HETATM   12  O7  UNL     1      18.199 -31.487  11.603  1.00  0.00    -0.208 OA
BRANCH  12  13
HETATM   13  S3  UNL     1      16.637 -31.192  12.134  1.00  0.00     0.254 S 
HETATM   14  O8  UNL     1      15.656 -31.132  10.992  1.00  0.00    -0.572 OA
HETATM   15  O9  UNL     1      16.153 -32.212  13.101  1.00  0.00    -0.572 OA
HETATM   16  O10 UNL     1      16.630 -29.702  12.917  1.00  0.00    -0.572 OA
ENDBRANCH  12  13
ENDBRANCH   9  12
BRANCH   7  17
HETATM   17  O4  UNL     1      19.879 -29.635  11.155  1.00  0.00    -0.330 OA
BRANCH  17  18
HETATM   18  C10 UNL     1      20.750 -29.019  10.363  1.00  0.00     0.208 C 
BRANCH  18  19
HETATM   19  C11 UNL     1      20.962 -29.374   8.968  1.00  0.00     0.276 C 
HETATM   20  N3  UNL     1      21.714 -28.436   8.148  1.00  0.00    -0.056 NA
HETATM   21  O5  UNL     1      20.583 -30.393   8.359  1.00  0.00    -0.270 OA
ENDBRANCH  18  19
ENDBRANCH  17  18
ENDBRANCH   7  17
BRANCH   2  22
HETATM   22  C5  UNL     1      20.800 -36.155  14.798  1.00  0.00     0.274 C 
HETATM   23  N2  UNL     1      19.657 -36.865  15.238  1.00  0.00    -0.057 NA
HETATM   24  O3  UNL     1      21.977 -36.518  14.928  1.00  0.00    -0.270 OA
ENDBRANCH   2  22
BRANCH   1  25
HETATM   25  N1  UNL     1      22.656 -34.710  12.899  1.00  0.00    -0.300 N 
HETATM   26  C2  UNL     1      23.812 -34.176  13.521  1.00  0.00     0.364 C 
HETATM   27  O2  UNL     1      23.714 -33.263  14.376  1.00  0.00    -0.238 OA
ATOM     28  H1  UNL     1      22.740 -35.452  12.204  1.00  0.00     0.171 HD
BRANCH  26  29
HETATM   29  O1  UNL     1      25.079 -34.634  13.213  1.00  0.00    -0.309 OA
HETATM   30  C1  UNL     1      25.958 -35.148  14.217  1.00  0.00     0.215 C 
ENDBRANCH  26  29
ENDBRANCH   1  25
TORSDOF 9
ENDMDL
