MODEL 1
REMARK VINA RESULT: -7.873475745      0.000      0.000
REMARK  10 active torsions:
REMARK  status: ('A' for Active; 'I' for Inactive)
REMARK    1  A    between atoms: C4_7  and  C5_8 
REMARK    2  A    between atoms: C5_8  and  N3_10 
REMARK    3  A    between atoms: N3_10  and  C6_12 
REMARK    4  A    between atoms: C7_15  and  S1_16 
REMARK    5  A    between atoms: S1_16  and  C8_17 
REMARK    6  A    between atoms: C8_17  and  C9_18 
REMARK    7  A    between atoms: C9_18  and  O3_20 
REMARK    8  A    between atoms: O3_20  and  C10_21 
REMARK    9  A    between atoms: C13_27  and  S2_28 
REMARK   10  A    between atoms: S2_28  and  C14_29 
ROOT
HETATM    1  C6  UNL     1      19.616 -30.256  11.782  1.00  0.00     0.131 A 
HETATM    2  N4  UNL     1      18.273 -30.304  11.611  1.00  0.00    -0.322 N 
ATOM      3  H4  UNL     1      17.838 -29.679  10.932  1.00  0.00     0.169 HD
HETATM    4  C7  UNL     1      17.497 -31.150  12.311  1.00  0.00     0.149 A 
HETATM    5  N5  UNL     1      18.088 -31.962  13.199  1.00  0.00    -0.303 N 
ATOM      6  H5  UNL     1      17.501 -32.605  13.731  1.00  0.00     0.171 HD
HETATM    7  C12 UNL     1      19.408 -31.975  13.427  1.00  0.00     0.268 A 
HETATM    8  O4  UNL     1      19.936 -32.761  14.279  1.00  0.00    -0.267 OA
HETATM    9  C13 UNL     1      20.203 -31.108  12.710  1.00  0.00     0.113 A 
ENDROOT
BRANCH   1  10
HETATM   10  N3  UNL     1      20.449 -29.382  11.064  1.00  0.00    -0.328 N 
ATOM     11  H3  UNL     1      20.883 -28.592  11.542  1.00  0.00     0.168 HD
BRANCH  10  12
HETATM   12  C5  UNL     1      20.694 -29.585   9.681  1.00  0.00     0.147 C 
HETATM   13  N2  UNL     1      20.028 -30.666   9.026  1.00  0.00    -0.080 NA
BRANCH  12  14
HETATM   14  C4  UNL     1      21.523 -28.796   9.012  1.00  0.00     0.103 A 
HETATM   15  C3  UNL     1      22.198 -29.150   7.863  1.00  0.00     0.099 A 
HETATM   16  N1  UNL     1      22.436 -30.120   6.948  1.00  0.00    -0.258 N 
HETATM   17  C18 UNL     1      22.974 -28.076   7.442  1.00  0.00     0.045 A 
HETATM   18  O1  UNL     1      23.272 -29.697   6.046  1.00  0.00    -0.237 OA
ATOM     19  H1  UNL     1      22.018 -31.051   6.963  1.00  0.00     0.195 HD
HETATM   20  C2  UNL     1      23.634 -28.463   6.295  1.00  0.00     0.103 A 
HETATM   21  C1  UNL     1      24.469 -27.740   5.577  1.00  0.00     0.054 C 
HETATM   22  C17 UNL     1      22.737 -27.080   8.372  1.00  0.00     0.105 A 
HETATM   23  N6  UNL     1      21.858 -27.531   9.315  1.00  0.00    -0.360 N 
ATOM     24  H6  UNL     1      21.514 -26.998  10.114  1.00  0.00     0.165 HD
ENDBRANCH  12  14
ENDBRANCH  10  12
ENDBRANCH   1  10
BRANCH   9  25
HETATM   25  S2  UNL     1      21.950 -31.056  12.946  1.00  0.00    -0.117 SA
BRANCH  25  26
HETATM   26  C14 UNL     1      22.831 -32.441  12.242  1.00  0.00     0.044 C 
HETATM   27  C15 UNL     1      23.218 -33.494  13.257  1.00  0.00     0.021 C 
HETATM   28  C16 UNL     1      22.053 -33.032  11.116  1.00  0.00     0.021 C 
ENDBRANCH  25  26
ENDBRANCH   9  25
BRANCH   4  29
HETATM   29  S1  UNL     1      15.726 -31.171  12.047  1.00  0.00    -0.084 SA
BRANCH  29  30
HETATM   30  C8  UNL     1      14.937 -30.053  13.232  1.00  0.00     0.193 C 
BRANCH  30  31
HETATM   31  C9  UNL     1      13.497 -30.327  13.262  1.00  0.00     0.268 C 
HETATM   32  O2  UNL     1      12.806 -29.988  14.240  1.00  0.00    -0.264 OA
BRANCH  31  33
HETATM   33  O3  UNL     1      12.813 -30.967  12.229  1.00  0.00    -0.321 OA
BRANCH  33  34
HETATM   34  C10 UNL     1      12.468 -32.316  12.300  1.00  0.00     0.174 C 
HETATM   35  C11 UNL     1      11.643 -32.818  11.161  1.00  0.00     0.034 C 
ENDBRANCH  33  34
ENDBRANCH  31  33
ENDBRANCH  30  31
ENDBRANCH  29  30
ENDBRANCH   4  29
TORSDOF 10
ENDMDL
MODEL 2
REMARK VINA RESULT: -7.864665508      1.208      1.786
REMARK  10 active torsions:
REMARK  status: ('A' for Active; 'I' for Inactive)
REMARK    1  A    between atoms: C4_7  and  C5_8 
REMARK    2  A    between atoms: C5_8  and  N3_10 
REMARK    3  A    between atoms: N3_10  and  C6_12 
REMARK    4  A    between atoms: C7_15  and  S1_16 
REMARK    5  A    between atoms: S1_16  and  C8_17 
REMARK    6  A    between atoms: C8_17  and  C9_18 
REMARK    7  A    between atoms: C9_18  and  O3_20 
REMARK    8  A    between atoms: O3_20  and  C10_21 
REMARK    9  A    between atoms: C13_27  and  S2_28 
REMARK   10  A    between atoms: S2_28  and  C14_29 
ROOT
HETATM    1  C6  UNL     1      19.409 -30.825  11.327  1.00  0.00     0.131 A 
HETATM    2  N4  UNL     1      18.201 -30.384  11.753  1.00  0.00    -0.322 N 
ATOM      3  H4  UNL     1      17.603 -29.871  11.104  1.00  0.00     0.169 HD
HETATM    4  C7  UNL     1      17.767 -30.601  13.007  1.00  0.00     0.149 A 
HETATM    5  N5  UNL     1      18.568 -31.276  13.845  1.00  0.00    -0.303 N 
ATOM      6  H5  UNL     1      18.239 -31.442  14.797  1.00  0.00     0.171 HD
HETATM    7  C12 UNL     1      19.775 -31.744  13.501  1.00  0.00     0.268 A 
HETATM    8  O4  UNL     1      20.508 -32.381  14.323  1.00  0.00    -0.267 OA
HETATM    9  C13 UNL     1      20.218 -31.521  12.216  1.00  0.00     0.113 A 
ENDROOT
BRANCH   1  10
HETATM   10  N3  UNL     1      19.885 -30.611  10.022  1.00  0.00    -0.328 N 
ATOM     11  H3  UNL     1      19.653 -31.278   9.285  1.00  0.00     0.168 HD
BRANCH  10  12
HETATM   12  C5  UNL     1      20.684 -29.480   9.718  1.00  0.00     0.147 C 
HETATM   13  N2  UNL     1      20.644 -28.361  10.605  1.00  0.00    -0.080 NA
BRANCH  12  14
HETATM   14  C4  UNL     1      21.449 -29.456   8.635  1.00  0.00     0.103 A 
HETATM   15  C3  UNL     1      22.235 -28.393   8.244  1.00  0.00     0.099 A 
HETATM   16  N1  UNL     1      22.651 -27.134   8.524  1.00  0.00    -0.258 N 
HETATM   17  C18 UNL     1      22.894 -28.723   7.065  1.00  0.00     0.045 A 
HETATM   18  O1  UNL     1      23.483 -26.719   7.615  1.00  0.00    -0.237 OA
ATOM     19  H1  UNL     1      22.352 -26.588   9.333  1.00  0.00     0.195 HD
HETATM   20  C2  UNL     1      23.669 -27.642   6.703  1.00  0.00     0.103 A 
HETATM   21  C1  UNL     1      24.450 -27.542   5.648  1.00  0.00     0.054 C 
HETATM   22  C17 UNL     1      22.475 -30.008   6.772  1.00  0.00     0.105 A 
HETATM   23  N6  UNL     1      21.602 -30.436   7.730  1.00  0.00    -0.360 N 
ATOM     24  H6  UNL     1      21.143 -31.347   7.755  1.00  0.00     0.165 HD
ENDBRANCH  12  14
ENDBRANCH  10  12
ENDBRANCH   1  10
BRANCH   9  25
HETATM   25  S2  UNL     1      21.795 -32.100  11.676  1.00  0.00    -0.117 SA
BRANCH  25  26
HETATM   26  C14 UNL     1      21.757 -33.682  10.848  1.00  0.00     0.044 C 
HETATM   27  C15 UNL     1      22.120 -33.609   9.382  1.00  0.00     0.021 C 
HETATM   28  C16 UNL     1      22.611 -34.665  11.572  1.00  0.00     0.021 C 
ENDBRANCH  25  26
ENDBRANCH   9  25
BRANCH   4  29
HETATM   29  S1  UNL     1      16.162 -29.995  13.520  1.00  0.00    -0.084 SA
BRANCH  29  30
HETATM   30  C8  UNL     1      14.883 -30.760  12.491  1.00  0.00     0.193 C 
BRANCH  30  31
HETATM   31  C9  UNL     1      13.600 -30.698  13.199  1.00  0.00     0.268 C 
HETATM   32  O2  UNL     1      13.517 -30.151  14.314  1.00  0.00    -0.264 OA
BRANCH  31  33
HETATM   33  O3  UNL     1      12.414 -31.227  12.693  1.00  0.00    -0.321 OA
BRANCH  33  34
HETATM   34  C10 UNL     1      12.373 -32.469  12.059  1.00  0.00     0.174 C 
HETATM   35  C11 UNL     1      11.128 -32.741  11.282  1.00  0.00     0.034 C 
ENDBRANCH  33  34
ENDBRANCH  31  33
ENDBRANCH  30  31
ENDBRANCH  29  30
ENDBRANCH   4  29
TORSDOF 10
ENDMDL
MODEL 3
REMARK VINA RESULT: -7.540999348      2.741      4.110
REMARK  10 active torsions:
REMARK  status: ('A' for Active; 'I' for Inactive)
REMARK    1  A    between atoms: C4_7  and  C5_8 
REMARK    2  A    between atoms: C5_8  and  N3_10 
REMARK    3  A    between atoms: N3_10  and  C6_12 
REMARK    4  A    between atoms: C7_15  and  S1_16 
REMARK    5  A    between atoms: S1_16  and  C8_17 
REMARK    6  A    between atoms: C8_17  and  C9_18 
REMARK    7  A    between atoms: C9_18  and  O3_20 
REMARK    8  A    between atoms: O3_20  and  C10_21 
REMARK    9  A    between atoms: C13_27  and  S2_28 
REMARK   10  A    between atoms: S2_28  and  C14_29 
ROOT
HETATM    1  C6  UNL     1      21.263 -31.665   9.433  1.00  0.00     0.131 A 
HETATM    2  N4  UNL     1      20.829 -31.024  10.545  1.00  0.00    -0.322 N 
ATOM      3  H4  UNL     1      20.378 -30.114  10.448  1.00  0.00     0.169 HD
HETATM    4  C7  UNL     1      20.974 -31.553  11.773  1.00  0.00     0.149 A 
HETATM    5  N5  UNL     1      21.570 -32.749  11.879  1.00  0.00    -0.303 N 
ATOM      6  H5  UNL     1      21.682 -33.152  12.810  1.00  0.00     0.171 HD
HETATM    7  C12 UNL     1      22.028 -33.445  10.829  1.00  0.00     0.268 A 
HETATM    8  O4  UNL     1      22.589 -34.580  10.968  1.00  0.00    -0.267 OA
HETATM    9  C13 UNL     1      21.877 -32.903   9.572  1.00  0.00     0.113 A 
ENDROOT
BRANCH   1  10
HETATM   10  N3  UNL     1      21.122 -31.135   8.139  1.00  0.00    -0.328 N 
ATOM     11  H3  UNL     1      20.619 -31.666   7.428  1.00  0.00     0.168 HD
BRANCH  10  12
HETATM   12  C5  UNL     1      21.672 -29.869   7.810  1.00  0.00     0.147 C 
HETATM   13  N2  UNL     1      21.111 -28.705   8.419  1.00  0.00    -0.080 NA
BRANCH  12  14
HETATM   14  C4  UNL     1      22.681 -29.765   6.955  1.00  0.00     0.103 A 
HETATM   15  C3  UNL     1      23.367 -28.602   6.678  1.00  0.00     0.099 A 
HETATM   16  N1  UNL     1      23.494 -27.278   6.937  1.00  0.00    -0.258 N 
HETATM   17  C18 UNL     1      24.354 -28.869   5.737  1.00  0.00     0.045 A 
HETATM   18  O1  UNL     1      24.461 -26.769   6.232  1.00  0.00    -0.237 OA
ATOM     19  H1  UNL     1      22.913 -26.754   7.593  1.00  0.00     0.195 HD
HETATM   20  C2  UNL     1      25.020 -27.688   5.484  1.00  0.00     0.103 A 
HETATM   21  C1  UNL     1      26.025 -27.505   4.653  1.00  0.00     0.054 C 
HETATM   22  C17 UNL     1      24.231 -30.220   5.466  1.00  0.00     0.105 A 
HETATM   23  N6  UNL     1      23.215 -30.747   6.210  1.00  0.00    -0.360 N 
ATOM     24  H6  UNL     1      22.913 -31.721   6.202  1.00  0.00     0.165 HD
ENDBRANCH  12  14
ENDBRANCH  10  12
ENDBRANCH   1  10
BRANCH   9  25
HETATM   25  S2  UNL     1      22.451 -33.749   8.134  1.00  0.00    -0.117 SA
BRANCH  25  26
HETATM   26  C14 UNL     1      21.216 -34.756   7.328  1.00  0.00     0.044 C 
HETATM   27  C15 UNL     1      20.622 -34.118   6.092  1.00  0.00     0.021 C 
HETATM   28  C16 UNL     1      21.766 -36.109   7.030  1.00  0.00     0.021 C 
ENDBRANCH  25  26
ENDBRANCH   9  25
BRANCH   4  29
HETATM   29  S1  UNL     1      20.383 -30.663  13.209  1.00  0.00    -0.084 SA
BRANCH  29  30
HETATM   30  C8  UNL     1      19.009 -29.590  12.718  1.00  0.00     0.193 C 
BRANCH  30  31
HETATM   31  C9  UNL     1      17.841 -30.421  12.411  1.00  0.00     0.268 C 
HETATM   32  O2  UNL     1      17.705 -30.934  11.285  1.00  0.00    -0.264 OA
BRANCH  31  33
HETATM   33  O3  UNL     1      16.826 -30.692  13.327  1.00  0.00    -0.321 OA
BRANCH  33  34
HETATM   34  C10 UNL     1      16.005 -29.686  13.836  1.00  0.00     0.174 C 
HETATM   35  C11 UNL     1      14.565 -29.796  13.459  1.00  0.00     0.034 C 
ENDBRANCH  33  34
ENDBRANCH  31  33
ENDBRANCH  30  31
ENDBRANCH  29  30
ENDBRANCH   4  29
TORSDOF 10
ENDMDL
MODEL 4
REMARK VINA RESULT: -7.326680362      3.197      4.938
REMARK  10 active torsions:
REMARK  status: ('A' for Active; 'I' for Inactive)
REMARK    1  A    between atoms: C4_7  and  C5_8 
REMARK    2  A    between atoms: C5_8  and  N3_10 
REMARK    3  A    between atoms: N3_10  and  C6_12 
REMARK    4  A    between atoms: C7_15  and  S1_16 
REMARK    5  A    between atoms: S1_16  and  C8_17 
REMARK    6  A    between atoms: C8_17  and  C9_18 
REMARK    7  A    between atoms: C9_18  and  O3_20 
REMARK    8  A    between atoms: O3_20  and  C10_21 
REMARK    9  A    between atoms: C13_27  and  S2_28 
REMARK   10  A    between atoms: S2_28  and  C14_29 
ROOT
HETATM    1  C6  UNL     1      21.396 -32.066   8.840  1.00  0.00     0.131 A 
HETATM    2  N4  UNL     1      21.218 -31.636  10.112  1.00  0.00    -0.322 N 
ATOM      3  H4  UNL     1      20.881 -30.686  10.272  1.00  0.00     0.169 HD
HETATM    4  C7  UNL     1      21.472 -32.425  11.171  1.00  0.00     0.149 A 
HETATM    5  N5  UNL     1      21.914 -33.669  10.940  1.00  0.00    -0.303 N 
ATOM      6  H5  UNL     1      22.107 -34.269  11.743  1.00  0.00     0.171 HD
HETATM    7  C12 UNL     1      22.117 -34.168   9.714  1.00  0.00     0.268 A 
HETATM    8  O4  UNL     1      22.538 -35.356   9.532  1.00  0.00    -0.267 OA
HETATM    9  C13 UNL     1      21.856 -33.360   8.629  1.00  0.00     0.113 A 
ENDROOT
BRANCH   1  10
HETATM   10  N3  UNL     1      21.137 -31.262   7.717  1.00  0.00    -0.328 N 
ATOM     11  H3  UNL     1      20.489 -31.590   7.000  1.00  0.00     0.168 HD
BRANCH  10  12
HETATM   12  C5  UNL     1      21.766 -30.000   7.568  1.00  0.00     0.147 C 
HETATM   13  N2  UNL     1      21.234 -28.886   8.287  1.00  0.00    -0.080 NA
BRANCH  12  14
HETATM   14  C4  UNL     1      22.821 -29.851   6.777  1.00  0.00     0.103 A 
HETATM   15  C3  UNL     1      23.465 -28.658   6.533  1.00  0.00     0.099 A 
HETATM   16  N1  UNL     1      23.511 -27.327   6.786  1.00  0.00    -0.258 N 
HETATM   17  C18 UNL     1      24.523 -28.882   5.658  1.00  0.00     0.045 A 
HETATM   18  O1  UNL     1      24.495 -26.777   6.138  1.00  0.00    -0.237 OA
ATOM     19  H1  UNL     1      22.865 -26.828   7.398  1.00  0.00     0.195 HD
HETATM   20  C2  UNL     1      25.144 -27.672   5.436  1.00  0.00     0.103 A 
HETATM   21  C1  UNL     1      26.190 -27.446   4.669  1.00  0.00     0.054 C 
HETATM   22  C17 UNL     1      24.483 -30.240   5.394  1.00  0.00     0.105 A 
HETATM   23  N6  UNL     1      23.449 -30.811   6.078  1.00  0.00    -0.360 N 
ATOM     24  H6  UNL     1      23.196 -31.799   6.061  1.00  0.00     0.165 HD
ENDBRANCH  12  14
ENDBRANCH  10  12
ENDBRANCH   1  10
BRANCH   9  25
HETATM   25  S2  UNL     1      22.095 -33.933   6.979  1.00  0.00    -0.117 SA
BRANCH  25  26
HETATM   26  C14 UNL     1      20.671 -34.740   6.264  1.00  0.00     0.044 C 
HETATM   27  C15 UNL     1      19.993 -35.717   7.198  1.00  0.00     0.021 C 
HETATM   28  C16 UNL     1      19.709 -33.726   5.746  1.00  0.00     0.021 C 
ENDBRANCH  25  26
ENDBRANCH   9  25
BRANCH   4  29
HETATM   29  S1  UNL     1      21.221 -31.806  12.833  1.00  0.00    -0.084 SA
BRANCH  29  30
HETATM   30  C8  UNL     1      21.484 -30.014  12.844  1.00  0.00     0.193 C 
BRANCH  30  31
HETATM   31  C9  UNL     1      20.186 -29.340  12.743  1.00  0.00     0.268 C 
HETATM   32  O2  UNL     1      20.009 -28.222  13.260  1.00  0.00    -0.264 OA
BRANCH  31  33
HETATM   33  O3  UNL     1      19.085 -29.882  12.081  1.00  0.00    -0.321 OA
BRANCH  33  34
HETATM   34  C10 UNL     1      17.880 -30.131  12.738  1.00  0.00     0.174 C 
HETATM   35  C11 UNL     1      17.014 -31.165  12.097  1.00  0.00     0.034 C 
ENDBRANCH  33  34
ENDBRANCH  31  33
ENDBRANCH  30  31
ENDBRANCH  29  30
ENDBRANCH   4  29
TORSDOF 10
ENDMDL
MODEL 5
REMARK VINA RESULT: -7.304684442      2.716      4.037
REMARK  10 active torsions:
REMARK  status: ('A' for Active; 'I' for Inactive)
REMARK    1  A    between atoms: C4_7  and  C5_8 
REMARK    2  A    between atoms: C5_8  and  N3_10 
REMARK    3  A    between atoms: N3_10  and  C6_12 
REMARK    4  A    between atoms: C7_15  and  S1_16 
REMARK    5  A    between atoms: S1_16  and  C8_17 
REMARK    6  A    between atoms: C8_17  and  C9_18 
REMARK    7  A    between atoms: C9_18  and  O3_20 
REMARK    8  A    between atoms: O3_20  and  C10_21 
REMARK    9  A    between atoms: C13_27  and  S2_28 
REMARK   10  A    between atoms: S2_28  and  C14_29 
ROOT
HETATM    1  C6  UNL     1      21.337 -31.818   9.315  1.00  0.00     0.131 A 
HETATM    2  N4  UNL     1      21.006 -31.094  10.411  1.00  0.00    -0.322 N 
ATOM      3  H4  UNL     1      20.670 -30.138  10.290  1.00  0.00     0.169 HD
HETATM    4  C7  UNL     1      21.108 -31.597  11.654  1.00  0.00     0.149 A 
HETATM    5  N5  UNL     1      21.553 -32.855  11.791  1.00  0.00    -0.303 N 
ATOM      6  H5  UNL     1      21.630 -33.238  12.734  1.00  0.00     0.171 HD
HETATM    7  C12 UNL     1      21.901 -33.635  10.759  1.00  0.00     0.268 A 
HETATM    8  O4  UNL     1      22.319 -34.826  10.928  1.00  0.00    -0.267 OA
HETATM    9  C13 UNL     1      21.796 -33.118   9.487  1.00  0.00     0.113 A 
ENDROOT
BRANCH   1  10
HETATM   10  N3  UNL     1      21.239 -31.316   8.006  1.00  0.00    -0.328 N 
ATOM     11  H3  UNL     1      20.806 -31.884   7.279  1.00  0.00     0.168 HD
BRANCH  10  12
HETATM   12  C5  UNL     1      21.737 -30.027   7.686  1.00  0.00     0.147 C 
HETATM   13  N2  UNL     1      21.099 -28.888   8.267  1.00  0.00    -0.080 NA
BRANCH  12  14
HETATM   14  C4  UNL     1      22.766 -29.878   6.862  1.00  0.00     0.103 A 
HETATM   15  C3  UNL     1      23.410 -28.686   6.608  1.00  0.00     0.099 A 
HETATM   16  N1  UNL     1      23.473 -27.358   6.871  1.00  0.00    -0.258 N 
HETATM   17  C18 UNL     1      24.437 -28.909   5.697  1.00  0.00     0.045 A 
HETATM   18  O1  UNL     1      24.438 -26.808   6.196  1.00  0.00    -0.237 OA
ATOM     19  H1  UNL     1      22.850 -26.861   7.509  1.00  0.00     0.195 HD
HETATM   20  C2  UNL     1      25.058 -27.700   5.466  1.00  0.00     0.103 A 
HETATM   21  C1  UNL     1      26.080 -27.473   4.666  1.00  0.00     0.054 C 
HETATM   22  C17 UNL     1      24.380 -30.263   5.422  1.00  0.00     0.105 A 
HETATM   23  N6  UNL     1      23.364 -30.834   6.134  1.00  0.00    -0.360 N 
ATOM     24  H6  UNL     1      23.104 -31.821   6.116  1.00  0.00     0.165 HD
ENDBRANCH  12  14
ENDBRANCH  10  12
ENDBRANCH   1  10
BRANCH   9  25
HETATM   25  S2  UNL     1      22.233 -34.074   8.070  1.00  0.00    -0.117 SA
BRANCH  25  26
HETATM   26  C14 UNL     1      23.970 -34.024   7.654  1.00  0.00     0.044 C 
HETATM   27  C15 UNL     1      24.832 -34.895   8.541  1.00  0.00     0.021 C 
HETATM   28  C16 UNL     1      24.166 -34.353   6.214  1.00  0.00     0.021 C 
ENDBRANCH  25  26
ENDBRANCH   9  25
BRANCH   4  29
HETATM   29  S1  UNL     1      20.658 -30.596  13.068  1.00  0.00    -0.084 SA
BRANCH  29  30
HETATM   30  C8  UNL     1      19.257 -29.537  12.623  1.00  0.00     0.193 C 
BRANCH  30  31
HETATM   31  C9  UNL     1      18.071 -30.374  12.423  1.00  0.00     0.268 C 
HETATM   32  O2  UNL     1      17.831 -30.880  11.312  1.00  0.00    -0.264 OA
BRANCH  31  33
HETATM   33  O3  UNL     1      17.150 -30.660  13.430  1.00  0.00    -0.321 OA
BRANCH  33  34
HETATM   34  C10 UNL     1      15.988 -29.909  13.599  1.00  0.00     0.174 C 
HETATM   35  C11 UNL     1      14.751 -30.523  13.031  1.00  0.00     0.034 C 
ENDBRANCH  33  34
ENDBRANCH  31  33
ENDBRANCH  30  31
ENDBRANCH  29  30
ENDBRANCH   4  29
TORSDOF 10
ENDMDL
