MODEL 1
REMARK VINA RESULT: -9.856128694      0.000      0.000
REMARK  8 active torsions:
REMARK  status: ('A' for Active; 'I' for Inactive)
REMARK    1  A    between atoms: C2_2  and  C3_3 
REMARK    2  A    between atoms: C3_3  and  N1_4 
REMARK    3  A    between atoms: N1_4  and  C4_5 
REMARK    4  A    between atoms: N5_16  and  C9_17 
REMARK    5  A    between atoms: C11_19  and  N6_20 
REMARK    6  A    between atoms: N6_20  and  C12_23 
REMARK    7  A    between atoms: C18_31  and  C19_32 
REMARK    8  A    between atoms: N8_33  and  N9_35 
REMARK       I    between atoms: N9_35  and  C20_37 
ROOT
HETATM    1  C9  UNL     1      19.723 -30.673  10.963  1.00  0.00     0.242 C 
HETATM    2  C10 UNL     1      18.811 -29.635  11.617  1.00  0.00     0.109 C 
HETATM    3  C11 UNL     1      18.135 -30.281  12.795  1.00  0.00     0.290 C 
HETATM    4  N7  UNL     1      19.018 -31.037  13.630  1.00  0.00    -0.342 N 
ATOM      5  H7  UNL     1      18.735 -31.214  14.593  1.00  0.00     0.163 HD
HETATM    6  C18 UNL     1      20.169 -31.515  13.226  1.00  0.00     0.159 C 
HETATM    7  O1  UNL     1      20.527 -31.265  11.931  1.00  0.00    -0.308 OA
ENDROOT
BRANCH   1   8
HETATM    8  N5  UNL     1      20.505 -30.049   9.918  1.00  0.00    -0.299 N 
HETATM    9  C6  UNL     1      21.186 -28.878  10.004  1.00  0.00     0.143 A 
HETATM   10  N3  UNL     1      21.355 -28.015  11.027  1.00  0.00    -0.336 N 
HETATM   11  C7  UNL     1      21.770 -28.604   8.780  1.00  0.00     0.137 A 
HETATM   12  C5  UNL     1      22.100 -26.896  10.827  1.00  0.00     0.184 A 
ATOM     13  H3  UNL     1      20.932 -28.200  11.936  1.00  0.00     0.168 HD
HETATM   14  N2  UNL     1      22.663 -26.634   9.638  1.00  0.00    -0.325 N 
HETATM   15  C4  UNL     1      22.541 -27.456   8.548  1.00  0.00     0.209 A 
ATOM     16  H2  UNL     1      23.210 -25.779   9.541  1.00  0.00     0.169 HD
HETATM   17  N4  UNL     1      21.458 -29.588   7.961  1.00  0.00    -0.345 N 
HETATM   18  C8  UNL     1      20.701 -30.460   8.631  1.00  0.00     0.188 A 
ATOM     19  H4  UNL     1      21.744 -29.670   6.985  1.00  0.00     0.167 HD
BRANCH  15  20
HETATM   20  N1  UNL     1      23.056 -27.166   7.517  1.00  0.00    -0.401 NA
BRANCH  20  21
HETATM   21  C3  UNL     1      23.940 -27.070   6.504  1.00  0.00     0.157 C 
BRANCH  21  22
HETATM   22  C2  UNL     1      24.108 -28.271   5.587  1.00  0.00     0.055 C 
HETATM   23  C1  UNL     1      25.568 -28.285   5.170  1.00  0.00     0.011 C 
ENDBRANCH  21  22
ENDBRANCH  20  21
ENDBRANCH  15  20
ENDBRANCH   1   8
BRANCH   3  24
HETATM   24  N6  UNL     1      17.088 -31.171  12.264  1.00  0.00    -0.050 N 
ATOM     25  H62 UNL     1      16.934 -31.011  11.268  1.00  0.00     0.280 HD
ATOM     26  H61 UNL     1      17.410 -32.139  12.222  1.00  0.00     0.280 HD
BRANCH  24  27
HETATM   27  C12 UNL     1      15.859 -31.058  13.010  1.00  0.00     0.188 C 
HETATM   28  C13 UNL     1      15.667 -29.782  13.746  1.00  0.00     0.033 C 
HETATM   29  C14 UNL     1      14.406 -29.053  13.347  1.00  0.00     0.002 C 
HETATM   30  C15 UNL     1      13.177 -29.936  13.386  1.00  0.00     0.000 C 
HETATM   31  C16 UNL     1      13.382 -31.297  12.806  1.00  0.00     0.002 C 
HETATM   32  C17 UNL     1      14.713 -31.431  12.095  1.00  0.00     0.033 C 
ENDBRANCH  24  27
ENDBRANCH   3  24
BRANCH   6  33
HETATM   33  C19 UNL     1      20.993 -32.265  14.126  1.00  0.00     0.163 C 
HETATM   34  N8  UNL     1      21.619 -33.323  13.820  1.00  0.00    -0.305 N 
ATOM     35  H8  UNL     1      21.530 -33.665  12.863  1.00  0.00     0.186 HD
BRANCH  34  36
HETATM   36  N9  UNL     1      22.416 -34.050  14.690  1.00  0.00    -0.274 N 
HETATM   37  C20 UNL     1      23.731 -34.395  14.336  1.00  0.00     0.200 C 
HETATM   38  N10 UNL     1      24.057 -35.634  14.230  1.00  0.00    -0.372 N 
HETATM   39  N11 UNL     1      24.724 -33.424  14.082  1.00  0.00    -0.062 NA
ATOM     40 2H10 UNL     1      23.340 -36.336  14.412  1.00  0.00     0.158 HD
ATOM     41 1H10 UNL     1      25.012 -35.885  13.973  1.00  0.00     0.158 HD
ATOM     42  H9  UNL     1      22.045 -34.337  15.596  1.00  0.00     0.189 HD
ENDBRANCH  34  36
ENDBRANCH   6  33
TORSDOF 8
ENDMDL
MODEL 2
REMARK VINA RESULT: -9.455890687      1.880      5.890
REMARK  8 active torsions:
REMARK  status: ('A' for Active; 'I' for Inactive)
REMARK    1  A    between atoms: C2_2  and  C3_3 
REMARK    2  A    between atoms: C3_3  and  N1_4 
REMARK    3  A    between atoms: N1_4  and  C4_5 
REMARK    4  A    between atoms: N5_16  and  C9_17 
REMARK    5  A    between atoms: C11_19  and  N6_20 
REMARK    6  A    between atoms: N6_20  and  C12_23 
REMARK    7  A    between atoms: C18_31  and  C19_32 
REMARK    8  A    between atoms: N8_33  and  N9_35 
REMARK       I    between atoms: N9_35  and  C20_37 
ROOT
HETATM    1  C9  UNL     1      19.888 -30.261  11.940  1.00  0.00     0.242 C 
HETATM    2  C10 UNL     1      19.830 -31.789  11.937  1.00  0.00     0.109 C 
HETATM    3  C11 UNL     1      19.053 -32.231  13.146  1.00  0.00     0.290 C 
HETATM    4  N7  UNL     1      17.840 -31.502  13.356  1.00  0.00    -0.342 N 
ATOM      5  H7  UNL     1      17.108 -31.936  13.919  1.00  0.00     0.163 HD
HETATM    6  C18 UNL     1      17.615 -30.307  12.867  1.00  0.00     0.159 C 
HETATM    7  O1  UNL     1      18.608 -29.745  12.116  1.00  0.00    -0.308 OA
ENDROOT
BRANCH   1   8
HETATM    8  N5  UNL     1      20.497 -29.791  10.714  1.00  0.00    -0.299 N 
HETATM    9  C6  UNL     1      21.224 -28.658  10.553  1.00  0.00     0.143 A 
HETATM   10  N3  UNL     1      21.603 -27.705  11.431  1.00  0.00    -0.336 N 
HETATM   11  C7  UNL     1      21.594 -28.543   9.224  1.00  0.00     0.137 A 
HETATM   12  C5  UNL     1      22.341 -26.655  10.984  1.00  0.00     0.184 A 
ATOM     13  H3  UNL     1      21.340 -27.773  12.414  1.00  0.00     0.168 HD
HETATM   14  N2  UNL     1      22.696 -26.547   9.695  1.00  0.00    -0.325 N 
HETATM   15  C4  UNL     1      22.354 -27.469   8.739  1.00  0.00     0.209 A 
ATOM     16  H2  UNL     1      23.248 -25.739   9.412  1.00  0.00     0.169 HD
HETATM   17  N4  UNL     1      21.107 -29.587   8.584  1.00  0.00    -0.345 N 
HETATM   18  C8  UNL     1      20.448 -30.342   9.466  1.00  0.00     0.188 A 
ATOM     19  H4  UNL     1      21.214 -29.783   7.589  1.00  0.00     0.167 HD
BRANCH  15  20
HETATM   20  N1  UNL     1      22.691 -27.315   7.610  1.00  0.00    -0.401 NA
BRANCH  20  21
HETATM   21  C3  UNL     1      23.425 -27.283   6.481  1.00  0.00     0.157 C 
BRANCH  21  22
HETATM   22  C2  UNL     1      24.130 -28.560   6.051  1.00  0.00     0.055 C 
HETATM   23  C1  UNL     1      25.411 -28.124   5.360  1.00  0.00     0.011 C 
ENDBRANCH  21  22
ENDBRANCH  20  21
ENDBRANCH  15  20
ENDBRANCH   1   8
BRANCH   3  24
HETATM   24  N6  UNL     1      19.931 -32.058  14.317  1.00  0.00    -0.050 N 
ATOM     25  H62 UNL     1      20.570 -31.273  14.190  1.00  0.00     0.280 HD
ATOM     26  H61 UNL     1      19.411 -31.713  15.124  1.00  0.00     0.280 HD
BRANCH  24  27
HETATM   27  C12 UNL     1      20.647 -33.270  14.634  1.00  0.00     0.188 C 
HETATM   28  C13 UNL     1      19.982 -34.536  14.228  1.00  0.00     0.033 C 
HETATM   29  C14 UNL     1      20.829 -35.378  13.304  1.00  0.00     0.002 C 
HETATM   30  C15 UNL     1      22.231 -35.602  13.829  1.00  0.00     0.000 C 
HETATM   31  C16 UNL     1      22.871 -34.382  14.405  1.00  0.00     0.002 C 
HETATM   32  C17 UNL     1      22.069 -33.124  14.139  1.00  0.00     0.033 C 
ENDBRANCH  24  27
ENDBRANCH   3  24
BRANCH   6  33
HETATM   33  C19 UNL     1      16.372 -29.645  13.126  1.00  0.00     0.163 C 
HETATM   34  N8  UNL     1      15.551 -29.979  14.032  1.00  0.00    -0.305 N 
ATOM     35  H8  UNL     1      15.795 -30.777  14.619  1.00  0.00     0.186 HD
BRANCH  34  36
HETATM   36  N9  UNL     1      14.348 -29.340  14.284  1.00  0.00    -0.274 N 
HETATM   37  C20 UNL     1      13.346 -29.288  13.301  1.00  0.00     0.200 C 
HETATM   38  N10 UNL     1      12.966 -28.151  12.838  1.00  0.00    -0.372 N 
HETATM   39  N11 UNL     1      12.732 -30.452  12.786  1.00  0.00    -0.062 NA
ATOM     40 2H10 UNL     1      13.409 -27.311  13.210  1.00  0.00     0.158 HD
ATOM     41 1H10 UNL     1      12.238 -28.113  12.124  1.00  0.00     0.158 HD
ATOM     42  H9  UNL     1      14.188 -28.903  15.192  1.00  0.00     0.189 HD
ENDBRANCH  34  36
ENDBRANCH   6  33
TORSDOF 8
ENDMDL
MODEL 3
REMARK VINA RESULT: -8.872984997      1.003      1.872
REMARK  8 active torsions:
REMARK  status: ('A' for Active; 'I' for Inactive)
REMARK    1  A    between atoms: C2_2  and  C3_3 
REMARK    2  A    between atoms: C3_3  and  N1_4 
REMARK    3  A    between atoms: N1_4  and  C4_5 
REMARK    4  A    between atoms: N5_16  and  C9_17 
REMARK    5  A    between atoms: C11_19  and  N6_20 
REMARK    6  A    between atoms: N6_20  and  C12_23 
REMARK    7  A    between atoms: C18_31  and  C19_32 
REMARK    8  A    between atoms: N8_33  and  N9_35 
REMARK       I    between atoms: N9_35  and  C20_37 
ROOT
HETATM    1  C9  UNL     1      19.648 -30.623  10.707  1.00  0.00     0.242 C 
HETATM    2  C10 UNL     1      18.936 -29.742  11.735  1.00  0.00     0.109 C 
HETATM    3  C11 UNL     1      18.213 -30.639  12.701  1.00  0.00     0.290 C 
HETATM    4  N7  UNL     1      18.997 -31.740  13.171  1.00  0.00    -0.342 N 
ATOM      5  H7  UNL     1      18.727 -32.183  14.050  1.00  0.00     0.163 HD
HETATM    6  C18 UNL     1      20.043 -32.212  12.537  1.00  0.00     0.159 C 
HETATM    7  O1  UNL     1      20.386 -31.603  11.363  1.00  0.00    -0.308 OA
ENDROOT
BRANCH   1   8
HETATM    8  N5  UNL     1      20.477 -29.804   9.851  1.00  0.00    -0.299 N 
HETATM    9  C6  UNL     1      21.124 -30.203   8.727  1.00  0.00     0.143 A 
HETATM   10  N3  UNL     1      21.164 -31.393   8.092  1.00  0.00    -0.336 N 
HETATM   11  C7  UNL     1      21.845 -29.136   8.217  1.00  0.00     0.137 A 
HETATM   12  C5  UNL     1      21.913 -31.512   6.964  1.00  0.00     0.184 A 
ATOM     13  H3  UNL     1      20.640 -32.190   8.453  1.00  0.00     0.168 HD
HETATM   14  N2  UNL     1      22.610 -30.476   6.475  1.00  0.00    -0.325 N 
HETATM   15  C4  UNL     1      22.625 -29.235   7.057  1.00  0.00     0.209 A 
ATOM     16  H2  UNL     1      23.158 -30.619   5.627  1.00  0.00     0.169 HD
HETATM   17  N4  UNL     1      21.641 -28.104   9.010  1.00  0.00    -0.345 N 
HETATM   18  C8  UNL     1      20.823 -28.491   9.992  1.00  0.00     0.188 A 
ATOM     19  H4  UNL     1      22.039 -27.171   8.894  1.00  0.00     0.167 HD
BRANCH  15  20
HETATM   20  N1  UNL     1      23.271 -28.357   6.582  1.00  0.00    -0.401 NA
BRANCH  20  21
HETATM   21  C3  UNL     1      24.229 -27.681   5.918  1.00  0.00     0.157 C 
BRANCH  21  22
HETATM   22  C2  UNL     1      25.376 -28.475   5.315  1.00  0.00     0.055 C 
HETATM   23  C1  UNL     1      26.271 -27.465   4.618  1.00  0.00     0.011 C 
ENDBRANCH  21  22
ENDBRANCH  20  21
ENDBRANCH  15  20
ENDBRANCH   1   8
BRANCH   3  24
HETATM   24  N6  UNL     1      17.019 -31.156  12.008  1.00  0.00    -0.050 N 
ATOM     25  H62 UNL     1      16.866 -30.673  11.123  1.00  0.00     0.280 HD
ATOM     26  H61 UNL     1      17.176 -32.099  11.651  1.00  0.00     0.280 HD
BRANCH  24  27
HETATM   27  C12 UNL     1      15.846 -31.100  12.846  1.00  0.00     0.188 C 
HETATM   28  C13 UNL     1      15.697 -29.868  13.663  1.00  0.00     0.033 C 
HETATM   29  C14 UNL     1      14.403 -29.135  13.396  1.00  0.00     0.002 C 
HETATM   30  C15 UNL     1      13.189 -30.034  13.475  1.00  0.00     0.000 C 
HETATM   31  C16 UNL     1      13.363 -31.359  12.808  1.00  0.00     0.002 C 
HETATM   32  C17 UNL     1      14.641 -31.438  11.996  1.00  0.00     0.033 C 
ENDBRANCH  24  27
ENDBRANCH   3  24
BRANCH   6  33
HETATM   33  C19 UNL     1      20.773 -33.319  13.077  1.00  0.00     0.163 C 
HETATM   34  N8  UNL     1      21.593 -33.242  14.040  1.00  0.00    -0.305 N 
ATOM     35  H8  UNL     1      21.743 -32.325  14.461  1.00  0.00     0.186 HD
BRANCH  34  36
HETATM   36  N9  UNL     1      22.301 -34.312  14.563  1.00  0.00    -0.274 N 
HETATM   37  C20 UNL     1      23.697 -34.380  14.430  1.00  0.00     0.200 C 
HETATM   38  N10 UNL     1      24.228 -35.348  13.772  1.00  0.00    -0.372 N 
HETATM   39  N11 UNL     1      24.557 -33.410  14.992  1.00  0.00    -0.062 NA
ATOM     40 2H10 UNL     1      23.607 -36.048  13.365  1.00  0.00     0.158 HD
ATOM     41 1H10 UNL     1      25.243 -35.398  13.675  1.00  0.00     0.158 HD
ATOM     42  H9  UNL     1      21.803 -35.058  15.050  1.00  0.00     0.189 HD
ENDBRANCH  34  36
ENDBRANCH   6  33
TORSDOF 8
ENDMDL
MODEL 4
REMARK VINA RESULT: -8.690494238      1.062      2.123
REMARK  8 active torsions:
REMARK  status: ('A' for Active; 'I' for Inactive)
REMARK    1  A    between atoms: C2_2  and  C3_3 
REMARK    2  A    between atoms: C3_3  and  N1_4 
REMARK    3  A    between atoms: N1_4  and  C4_5 
REMARK    4  A    between atoms: N5_16  and  C9_17 
REMARK    5  A    between atoms: C11_19  and  N6_20 
REMARK    6  A    between atoms: N6_20  and  C12_23 
REMARK    7  A    between atoms: C18_31  and  C19_32 
REMARK    8  A    between atoms: N8_33  and  N9_35 
REMARK       I    between atoms: N9_35  and  C20_37 
ROOT
HETATM    1  C9  UNL     1      19.730 -30.785  11.089  1.00  0.00     0.242 C 
HETATM    2  C10 UNL     1      18.863 -29.873  11.958  1.00  0.00     0.109 C 
HETATM    3  C11 UNL     1      18.245 -30.709  13.043  1.00  0.00     0.290 C 
HETATM    4  N7  UNL     1      19.164 -31.596  13.690  1.00  0.00    -0.342 N 
ATOM      5  H7  UNL     1      18.930 -31.934  14.623  1.00  0.00     0.163 HD
HETATM    6  C18 UNL     1      20.288 -31.998  13.150  1.00  0.00     0.159 C 
HETATM    7  O1  UNL     1      20.579 -31.532  11.899  1.00  0.00    -0.308 OA
ENDROOT
BRANCH   1   8
HETATM    8  N5  UNL     1      20.462 -29.993  10.125  1.00  0.00    -0.299 N 
HETATM    9  C6  UNL     1      21.081 -30.446   9.006  1.00  0.00     0.143 A 
HETATM   10  N3  UNL     1      21.171 -31.682   8.471  1.00  0.00    -0.336 N 
HETATM   11  C7  UNL     1      21.703 -29.384   8.372  1.00  0.00     0.137 A 
HETATM   12  C5  UNL     1      21.872 -31.851   7.319  1.00  0.00     0.184 A 
ATOM     13  H3  UNL     1      20.719 -32.476   8.924  1.00  0.00     0.168 HD
HETATM   14  N2  UNL     1      22.475 -30.819   6.710  1.00  0.00    -0.325 N 
HETATM   15  C4  UNL     1      22.433 -29.533   7.184  1.00  0.00     0.209 A 
ATOM     16  H2  UNL     1      22.990 -31.001   5.849  1.00  0.00     0.169 HD
HETATM   17  N4  UNL     1      21.468 -28.302   9.085  1.00  0.00    -0.345 N 
HETATM   18  C8  UNL     1      20.725 -28.653  10.137  1.00  0.00     0.188 A 
ATOM     19  H4  UNL     1      21.796 -27.360   8.871  1.00  0.00     0.167 HD
BRANCH  15  20
HETATM   20  N1  UNL     1      22.995 -28.662   6.604  1.00  0.00    -0.401 NA
BRANCH  20  21
HETATM   21  C3  UNL     1      23.916 -27.967   5.908  1.00  0.00     0.157 C 
BRANCH  21  22
HETATM   22  C2  UNL     1      25.235 -28.651   5.587  1.00  0.00     0.055 C 
HETATM   23  C1  UNL     1      26.053 -27.645   4.797  1.00  0.00     0.011 C 
ENDBRANCH  21  22
ENDBRANCH  20  21
ENDBRANCH  15  20
ENDBRANCH   1   8
BRANCH   3  24
HETATM   24  N6  UNL     1      17.164 -31.497  12.426  1.00  0.00    -0.050 N 
ATOM     25  H62 UNL     1      17.437 -31.847  11.507  1.00  0.00     0.280 HD
ATOM     26  H61 UNL     1      17.034 -32.389  12.905  1.00  0.00     0.280 HD
BRANCH  24  27
HETATM   27  C12 UNL     1      15.929 -30.754  12.358  1.00  0.00     0.188 C 
HETATM   28  C13 UNL     1      14.763 -31.490  11.805  1.00  0.00     0.033 C 
HETATM   29  C14 UNL     1      13.594 -31.549  12.760  1.00  0.00     0.002 C 
HETATM   30  C15 UNL     1      13.215 -30.192  13.312  1.00  0.00     0.000 C 
HETATM   31  C16 UNL     1      14.378 -29.350  13.722  1.00  0.00     0.002 C 
HETATM   32  C17 UNL     1      15.685 -30.118  13.710  1.00  0.00     0.033 C 
ENDBRANCH  24  27
ENDBRANCH   3  24
BRANCH   6  33
HETATM   33  C19 UNL     1      21.151 -32.889  13.865  1.00  0.00     0.163 C 
HETATM   34  N8  UNL     1      22.415 -32.803  13.891  1.00  0.00    -0.305 N 
ATOM     35  H8  UNL     1      22.848 -32.043  13.365  1.00  0.00     0.186 HD
BRANCH  34  36
HETATM   36  N9  UNL     1      23.253 -33.664  14.582  1.00  0.00    -0.274 N 
HETATM   37  C20 UNL     1      23.559 -34.932  14.063  1.00  0.00     0.200 C 
HETATM   38  N10 UNL     1      23.214 -35.987  14.713  1.00  0.00    -0.372 N 
HETATM   39  N11 UNL     1      24.236 -35.103  12.835  1.00  0.00    -0.062 NA
ATOM     40 2H10 UNL     1      22.725 -35.864  15.600  1.00  0.00     0.158 HD
ATOM     41 1H10 UNL     1      23.437 -36.909  14.337  1.00  0.00     0.158 HD
ATOM     42  H9  UNL     1      23.650 -33.374  15.476  1.00  0.00     0.189 HD
ENDBRANCH  34  36
ENDBRANCH   6  33
TORSDOF 8
ENDMDL
MODEL 5
REMARK VINA RESULT: -8.683166329      1.730      2.491
REMARK  8 active torsions:
REMARK  status: ('A' for Active; 'I' for Inactive)
REMARK    1  A    between atoms: C2_2  and  C3_3 
REMARK    2  A    between atoms: C3_3  and  N1_4 
REMARK    3  A    between atoms: N1_4  and  C4_5 
REMARK    4  A    between atoms: N5_16  and  C9_17 
REMARK    5  A    between atoms: C11_19  and  N6_20 
REMARK    6  A    between atoms: N6_20  and  C12_23 
REMARK    7  A    between atoms: C18_31  and  C19_32 
REMARK    8  A    between atoms: N8_33  and  N9_35 
REMARK       I    between atoms: N9_35  and  C20_37 
ROOT
HETATM    1  C9  UNL     1      19.617 -30.616  10.679  1.00  0.00     0.242 C 
HETATM    2  C10 UNL     1      18.949 -29.741  11.741  1.00  0.00     0.109 C 
HETATM    3  C11 UNL     1      18.210 -30.640  12.692  1.00  0.00     0.290 C 
HETATM    4  N7  UNL     1      18.963 -31.779  13.121  1.00  0.00    -0.342 N 
ATOM      5  H7  UNL     1      18.691 -32.236  13.991  1.00  0.00     0.163 HD
HETATM    6  C18 UNL     1      19.984 -32.267  12.460  1.00  0.00     0.159 C 
HETATM    7  O1  UNL     1      20.331 -31.637  11.297  1.00  0.00    -0.308 OA
ENDROOT
BRANCH   1   8
HETATM    8  N5  UNL     1      20.462 -29.801   9.833  1.00  0.00    -0.299 N 
HETATM    9  C6  UNL     1      21.105 -30.198   8.706  1.00  0.00     0.143 A 
HETATM   10  N3  UNL     1      21.126 -31.382   8.059  1.00  0.00    -0.336 N 
HETATM   11  C7  UNL     1      21.843 -29.139   8.210  1.00  0.00     0.137 A 
HETATM   12  C5  UNL     1      21.876 -31.502   6.931  1.00  0.00     0.184 A 
ATOM     13  H3  UNL     1      20.589 -32.174   8.410  1.00  0.00     0.168 HD
HETATM   14  N2  UNL     1      22.591 -30.472   6.455  1.00  0.00    -0.325 N 
HETATM   15  C4  UNL     1      22.625 -29.237   7.050  1.00  0.00     0.209 A 
ATOM     16  H2  UNL     1      23.138 -30.615   5.606  1.00  0.00     0.169 HD
HETATM   17  N4  UNL     1      21.655 -28.111   9.013  1.00  0.00    -0.345 N 
HETATM   18  C8  UNL     1      20.828 -28.496   9.989  1.00  0.00     0.188 A 
ATOM     19  H4  UNL     1      22.067 -27.184   8.908  1.00  0.00     0.167 HD
BRANCH  15  20
HETATM   20  N1  UNL     1      23.285 -28.365   6.585  1.00  0.00    -0.401 NA
BRANCH  20  21
HETATM   21  C3  UNL     1      24.246 -27.698   5.917  1.00  0.00     0.157 C 
BRANCH  21  22
HETATM   22  C2  UNL     1      25.426 -28.492   5.380  1.00  0.00     0.055 C 
HETATM   23  C1  UNL     1      26.286 -27.505   4.610  1.00  0.00     0.011 C 
ENDBRANCH  21  22
ENDBRANCH  20  21
ENDBRANCH  15  20
ENDBRANCH   1   8
BRANCH   3  24
HETATM   24  N6  UNL     1      16.990 -31.098  12.003  1.00  0.00    -0.050 N 
ATOM     25  H62 UNL     1      16.832 -30.575  11.141  1.00  0.00     0.280 HD
ATOM     26  H61 UNL     1      17.116 -32.029  11.604  1.00  0.00     0.280 HD
BRANCH  24  27
HETATM   27  C12 UNL     1      15.836 -31.048  12.866  1.00  0.00     0.188 C 
HETATM   28  C13 UNL     1      15.685 -29.808  13.669  1.00  0.00     0.033 C 
HETATM   29  C14 UNL     1      14.375 -29.099  13.422  1.00  0.00     0.002 C 
HETATM   30  C15 UNL     1      13.176 -30.015  13.540  1.00  0.00     0.000 C 
HETATM   31  C16 UNL     1      13.357 -31.347  12.887  1.00  0.00     0.002 C 
HETATM   32  C17 UNL     1      14.617 -31.417  12.048  1.00  0.00     0.033 C 
ENDBRANCH  24  27
ENDBRANCH   3  24
BRANCH   6  33
HETATM   33  C19 UNL     1      20.684 -33.412  12.958  1.00  0.00     0.163 C 
HETATM   34  N8  UNL     1      20.143 -34.377  13.576  1.00  0.00    -0.305 N 
ATOM     35  H8  UNL     1      19.135 -34.335  13.727  1.00  0.00     0.186 HD
BRANCH  34  36
HETATM   36  N9  UNL     1      20.819 -35.485  14.060  1.00  0.00    -0.274 N 
HETATM   37  C20 UNL     1      20.272 -36.771  13.926  1.00  0.00     0.200 C 
HETATM   38  N10 UNL     1      19.982 -37.454  14.976  1.00  0.00    -0.372 N 
HETATM   39  N11 UNL     1      20.017 -37.356  12.665  1.00  0.00    -0.062 NA
ATOM     40 2H10 UNL     1      20.165 -37.031  15.887  1.00  0.00     0.158 HD
ATOM     41 1H10 UNL     1      19.584 -38.388  14.879  1.00  0.00     0.158 HD
ATOM     42  H9  UNL     1      21.722 -35.365  14.518  1.00  0.00     0.189 HD
ENDBRANCH  34  36
ENDBRANCH   6  33
TORSDOF 8
ENDMDL
