MODEL 1
REMARK VINA RESULT: -6.338082544      0.000      0.000
REMARK  12 active torsions:
REMARK  status: ('A' for Active; 'I' for Inactive)
REMARK    1  A    between atoms: C6_7  and  O2_8 
REMARK    2  A    between atoms: C9_12  and  O3_13 
REMARK    3  A    between atoms: C11_16  and  C12_17 
REMARK    4  A    between atoms: C12_17  and  O4_18 
REMARK    5  A    between atoms: C13_20  and  C14_21 
REMARK    6  A    between atoms: C13_20  and  O5_23 
REMARK    7  A    between atoms: N1_25  and  C17_26 
REMARK    8  A    between atoms: C17_26  and  C18_27 
REMARK    9  A    between atoms: C18_27  and  O6_28 
REMARK   10  A    between atoms: O6_28  and  C19_29 
REMARK   11  A    between atoms: C19_29  and  O7_31 
REMARK   12  A    between atoms: O7_31  and  N2_32 
ROOT
HETATM    1  C1  UNL     1      23.806 -32.844   4.795  1.00  0.00     0.036 C 
HETATM    2  C2  UNL     1      23.222 -31.767   5.593  1.00  0.00    -0.017 C 
HETATM    3  C3  UNL     1      22.362 -31.903   6.572  1.00  0.00     0.024 C 
HETATM    4  C4  UNL     1      21.865 -30.702   7.285  1.00  0.00     0.194 C 
HETATM    5  O1  UNL     1      21.857 -29.607   6.657  1.00  0.00    -0.287 OA
HETATM    6  C5  UNL     1      21.404 -30.798   8.664  1.00  0.00     0.058 A 
HETATM    7  C6  UNL     1      20.938 -29.663   9.321  1.00  0.00     0.089 A 
HETATM    8  C7  UNL     1      20.502 -29.728  10.606  1.00  0.00     0.009 A 
HETATM    9  C8  UNL     1      20.531 -30.964  11.259  1.00  0.00     0.093 A 
HETATM   10  C9  UNL     1      21.001 -32.083  10.583  1.00  0.00     0.102 A 
HETATM   11  C10 UNL     1      21.450 -32.027   9.265  1.00  0.00     0.004 A 
HETATM   12  C11 UNL     1      21.939 -33.251   8.603  1.00  0.00     0.085 C 
HETATM   13  C13 UNL     1      21.799 -33.179   7.075  1.00  0.00     0.100 C 
HETATM   14  N1  UNL     1      20.060 -31.030  12.607  1.00  0.00    -0.291 N 
HETATM   15  N3  UNL     1      19.959 -29.891  13.435  1.00  0.00    -0.333 N 
ATOM     16  H3  UNL     1      19.633 -29.942  14.400  1.00  0.00     0.180 HD
HETATM   17  C21 UNL     1      20.342 -28.674  12.830  1.00  0.00     0.144 C 
HETATM   18  C22 UNL     1      19.995 -28.561  11.373  1.00  0.00     0.065 C 
ENDROOT
BRANCH  14  19
HETATM   19  C17 UNL     1      19.687 -32.319  13.149  1.00  0.00     0.175 C 
BRANCH  19  20
HETATM   20  C18 UNL     1      18.176 -32.274  13.405  1.00  0.00     0.193 C 
BRANCH  20  21
HETATM   21  O6  UNL     1      17.458 -31.842  12.332  1.00  0.00    -0.358 OA
BRANCH  21  22
HETATM   22  C19 UNL     1      16.503 -30.908  12.507  1.00  0.00     0.283 C 
HETATM   23  C20 UNL     1      15.104 -31.377  12.144  1.00  0.00     0.073 C 
BRANCH  22  24
HETATM   24  O7  UNL     1      16.413 -30.453  13.826  1.00  0.00    -0.255 OA
BRANCH  24  25
HETATM   25  N2  UNL     1      15.562 -29.445  14.003  1.00  0.00    -0.308 N 
ATOM     26  H22 UNL     1      15.857 -28.472  13.931  1.00  0.00     0.184 HD
ATOM     27  H21 UNL     1      14.606 -29.732  14.215  1.00  0.00     0.184 HD
ENDBRANCH  24  25
ENDBRANCH  22  24
ENDBRANCH  21  22
ENDBRANCH  20  21
ENDBRANCH  19  20
ENDBRANCH  14  19
BRANCH  10  28
HETATM   28  O3  UNL     1      21.020 -33.281  11.240  1.00  0.00    -0.358 OA
ATOM     29  H3  UNL     1      21.826 -33.785  11.239  1.00  0.00     0.217 HD
ENDBRANCH  10  28
BRANCH   7  30
HETATM   30  O2  UNL     1      20.920 -28.457   8.649  1.00  0.00    -0.359 OA
ATOM     31  H2  UNL     1      20.396 -27.743   8.992  1.00  0.00     0.217 HD
ENDBRANCH   7  30
BRANCH  12  32
HETATM   32  C12 UNL     1      23.384 -33.486   8.979  1.00  0.00     0.177 C 
BRANCH  32  33
HETATM   33  O4  UNL     1      23.413 -34.558   9.886  1.00  0.00    -0.400 OA
ATOM     34  H4  UNL     1      23.481 -35.357   9.377  1.00  0.00     0.209 HD
ENDBRANCH  32  33
ENDBRANCH  12  32
BRANCH  13  35
HETATM   35  C14 UNL     1      20.319 -33.205   6.775  1.00  0.00     0.039 C 
HETATM   36  C15 UNL     1      20.004 -32.798   5.369  1.00  0.00     0.008 C 
ENDBRANCH  13  35
BRANCH  13  37
HETATM   37  O5  UNL     1      22.478 -34.217   6.505  1.00  0.00    -0.379 OA
HETATM   38  C16 UNL     1      21.901 -35.447   6.591  1.00  0.00     0.203 C 
ENDBRANCH  13  37
TORSDOF 12
ENDMDL
MODEL 2
REMARK VINA RESULT: -6.027834086      2.924      4.669
REMARK  12 active torsions:
REMARK  status: ('A' for Active; 'I' for Inactive)
REMARK    1  A    between atoms: C6_7  and  O2_8 
REMARK    2  A    between atoms: C9_12  and  O3_13 
REMARK    3  A    between atoms: C11_16  and  C12_17 
REMARK    4  A    between atoms: C12_17  and  O4_18 
REMARK    5  A    between atoms: C13_20  and  C14_21 
REMARK    6  A    between atoms: C13_20  and  O5_23 
REMARK    7  A    between atoms: N1_25  and  C17_26 
REMARK    8  A    between atoms: C17_26  and  C18_27 
REMARK    9  A    between atoms: C18_27  and  O6_28 
REMARK   10  A    between atoms: O6_28  and  C19_29 
REMARK   11  A    between atoms: C19_29  and  O7_31 
REMARK   12  A    between atoms: O7_31  and  N2_32 
ROOT
HETATM    1  C1  UNL     1      24.472 -37.708  12.240  1.00  0.00     0.036 C 
HETATM    2  C2  UNL     1      24.051 -36.621  11.356  1.00  0.00    -0.017 C 
HETATM    3  C3  UNL     1      23.000 -35.856  11.511  1.00  0.00     0.024 C 
HETATM    4  C4  UNL     1      22.713 -34.792  10.520  1.00  0.00     0.194 C 
HETATM    5  O1  UNL     1      23.141 -34.954   9.344  1.00  0.00    -0.287 OA
HETATM    6  C5  UNL     1      21.960 -33.605  10.904  1.00  0.00     0.058 A 
HETATM    7  C6  UNL     1      21.697 -32.615   9.963  1.00  0.00     0.089 A 
HETATM    8  C7  UNL     1      20.996 -31.500  10.299  1.00  0.00     0.009 A 
HETATM    9  C8  UNL     1      20.543 -31.366  11.614  1.00  0.00     0.093 A 
HETATM   10  C9  UNL     1      20.819 -32.368  12.537  1.00  0.00     0.102 A 
HETATM   11  C10 UNL     1      21.536 -33.515  12.203  1.00  0.00     0.004 A 
HETATM   12  C11 UNL     1      21.798 -34.542  13.229  1.00  0.00     0.085 C 
HETATM   13  C13 UNL     1      22.012 -35.933  12.615  1.00  0.00     0.100 C 
HETATM   14  N1  UNL     1      19.796 -30.197  11.959  1.00  0.00    -0.291 N 
HETATM   15  N3  UNL     1      19.839 -29.012  11.193  1.00  0.00    -0.333 N 
ATOM     16  H3  UNL     1      19.314 -28.176  11.448  1.00  0.00     0.180 HD
HETATM   17  C21 UNL     1      20.663 -29.068  10.048  1.00  0.00     0.144 C 
HETATM   18  C22 UNL     1      20.679 -30.400   9.351  1.00  0.00     0.065 C 
ENDROOT
BRANCH  14  19
HETATM   19  C17 UNL     1      18.976 -30.225  13.151  1.00  0.00     0.175 C 
BRANCH  19  20
HETATM   20  C18 UNL     1      17.536 -30.489  12.694  1.00  0.00     0.193 C 
BRANCH  20  21
HETATM   21  O6  UNL     1      16.599 -30.031  13.569  1.00  0.00    -0.358 OA
BRANCH  21  22
HETATM   22  C19 UNL     1      15.301 -30.032  13.209  1.00  0.00     0.283 C 
HETATM   23  C20 UNL     1      14.894 -31.222  12.357  1.00  0.00     0.073 C 
BRANCH  22  24
HETATM   24  O7  UNL     1      14.427 -30.040  14.300  1.00  0.00    -0.255 OA
BRANCH  24  25
HETATM   25  N2  UNL     1      13.336 -29.296  14.138  1.00  0.00    -0.308 N 
ATOM     26  H22 UNL     1      13.383 -28.282  14.051  1.00  0.00     0.184 HD
ATOM     27  H21 UNL     1      12.464 -29.825  14.108  1.00  0.00     0.184 HD
ENDBRANCH  24  25
ENDBRANCH  22  24
ENDBRANCH  21  22
ENDBRANCH  20  21
ENDBRANCH  19  20
ENDBRANCH  14  19
BRANCH  10  28
HETATM   28  O3  UNL     1      20.367 -32.218  13.818  1.00  0.00    -0.358 OA
ATOM     29  H3  UNL     1      19.500 -32.542  14.033  1.00  0.00     0.217 HD
ENDBRANCH  10  28
BRANCH   7  30
HETATM   30  O2  UNL     1      22.156 -32.776   8.671  1.00  0.00    -0.359 OA
ATOM     31  H2  UNL     1      21.878 -32.163   8.001  1.00  0.00     0.217 HD
ENDBRANCH   7  30
BRANCH  12  32
HETATM   32  C12 UNL     1      23.008 -34.144  14.044  1.00  0.00     0.177 C 
BRANCH  32  33
HETATM   33  O4  UNL     1      22.609 -34.096  15.390  1.00  0.00    -0.400 OA
ATOM     34  H4  UNL     1      23.187 -33.487  15.835  1.00  0.00     0.209 HD
ENDBRANCH  32  33
ENDBRANCH  12  32
BRANCH  13  35
HETATM   35  C14 UNL     1      20.682 -36.363  12.044  1.00  0.00     0.039 C 
HETATM   36  C15 UNL     1      20.787 -37.578  11.175  1.00  0.00     0.008 C 
ENDBRANCH  13  35
BRANCH  13  37
HETATM   37  O5  UNL     1      22.484 -36.787  13.571  1.00  0.00    -0.379 OA
HETATM   38  C16 UNL     1      21.568 -37.304  14.435  1.00  0.00     0.203 C 
ENDBRANCH  13  37
TORSDOF 12
ENDMDL
MODEL 3
REMARK VINA RESULT: -5.967499082      1.975      3.196
REMARK  12 active torsions:
REMARK  status: ('A' for Active; 'I' for Inactive)
REMARK    1  A    between atoms: C6_7  and  O2_8 
REMARK    2  A    between atoms: C9_12  and  O3_13 
REMARK    3  A    between atoms: C11_16  and  C12_17 
REMARK    4  A    between atoms: C12_17  and  O4_18 
REMARK    5  A    between atoms: C13_20  and  C14_21 
REMARK    6  A    between atoms: C13_20  and  O5_23 
REMARK    7  A    between atoms: N1_25  and  C17_26 
REMARK    8  A    between atoms: C17_26  and  C18_27 
REMARK    9  A    between atoms: C18_27  and  O6_28 
REMARK   10  A    between atoms: O6_28  and  C19_29 
REMARK   11  A    between atoms: C19_29  and  O7_31 
REMARK   12  A    between atoms: O7_31  and  N2_32 
ROOT
HETATM    1  C1  UNL     1      23.781 -32.616   4.792  1.00  0.00     0.036 C 
HETATM    2  C2  UNL     1      23.136 -31.633   5.662  1.00  0.00    -0.017 C 
HETATM    3  C3  UNL     1      22.311 -31.888   6.646  1.00  0.00     0.024 C 
HETATM    4  C4  UNL     1      21.741 -30.771   7.436  1.00  0.00     0.194 C 
HETATM    5  O1  UNL     1      21.639 -29.646   6.873  1.00  0.00    -0.287 OA
HETATM    6  C5  UNL     1      21.319 -30.979   8.815  1.00  0.00     0.058 A 
HETATM    7  C6  UNL     1      20.785 -29.921   9.545  1.00  0.00     0.089 A 
HETATM    8  C7  UNL     1      20.383 -30.092  10.832  1.00  0.00     0.009 A 
HETATM    9  C8  UNL     1      20.517 -31.357  11.411  1.00  0.00     0.093 A 
HETATM   10  C9  UNL     1      21.054 -32.398  10.662  1.00  0.00     0.102 A 
HETATM   11  C10 UNL     1      21.469 -32.233   9.343  1.00  0.00     0.004 A 
HETATM   12  C11 UNL     1      22.032 -33.378   8.602  1.00  0.00     0.085 C 
HETATM   13  C13 UNL     1      21.854 -33.230   7.084  1.00  0.00     0.100 C 
HETATM   14  N1  UNL     1      20.082 -31.535  12.761  1.00  0.00    -0.291 N 
HETATM   15  N3  UNL     1      19.915 -30.455  13.656  1.00  0.00    -0.333 N 
ATOM     16  H3  UNL     1      19.615 -30.586  14.622  1.00  0.00     0.180 HD
HETATM   17  C21 UNL     1      20.194 -29.181  13.116  1.00  0.00     0.144 C 
HETATM   18  C22 UNL     1      19.807 -29.012  11.674  1.00  0.00     0.065 C 
ENDROOT
BRANCH  14  19
HETATM   19  C17 UNL     1      19.817 -32.877  13.233  1.00  0.00     0.175 C 
BRANCH  19  20
HETATM   20  C18 UNL     1      20.590 -33.048  14.546  1.00  0.00     0.193 C 
BRANCH  20  21
HETATM   21  O6  UNL     1      21.599 -33.958  14.465  1.00  0.00    -0.358 OA
BRANCH  21  22
HETATM   22  C19 UNL     1      22.864 -33.531  14.288  1.00  0.00     0.283 C 
HETATM   23  C20 UNL     1      23.868 -34.154  15.242  1.00  0.00     0.073 C 
BRANCH  22  24
HETATM   24  O7  UNL     1      23.358 -33.792  13.006  1.00  0.00    -0.255 OA
BRANCH  24  25
HETATM   25  N2  UNL     1      24.021 -32.778  12.454  1.00  0.00    -0.308 N 
ATOM     26  H22 UNL     1      23.540 -31.956  12.088  1.00  0.00     0.184 HD
ATOM     27  H21 UNL     1      25.034 -32.896  12.433  1.00  0.00     0.184 HD
ENDBRANCH  24  25
ENDBRANCH  22  24
ENDBRANCH  21  22
ENDBRANCH  20  21
ENDBRANCH  19  20
ENDBRANCH  14  19
BRANCH  10  28
HETATM   28  O3  UNL     1      21.176 -33.627  11.248  1.00  0.00    -0.358 OA
ATOM     29  H3  UNL     1      20.487 -34.265  11.108  1.00  0.00     0.217 HD
ENDBRANCH  10  28
BRANCH   7  30
HETATM   30  O2  UNL     1      20.663 -28.684   8.945  1.00  0.00    -0.359 OA
ATOM     31  H2  UNL     1      20.097 -28.032   9.340  1.00  0.00     0.217 HD
ENDBRANCH   7  30
BRANCH  12  32
HETATM   32  C12 UNL     1      23.499 -33.524   8.939  1.00  0.00     0.177 C 
BRANCH  32  33
HETATM   33  O4  UNL     1      23.601 -34.484   9.959  1.00  0.00    -0.400 OA
ATOM     34  H4  UNL     1      23.662 -35.335   9.542  1.00  0.00     0.209 HD
ENDBRANCH  32  33
ENDBRANCH  12  32
BRANCH  13  35
HETATM   35  C14 UNL     1      20.374 -33.349   6.809  1.00  0.00     0.039 C 
HETATM   36  C15 UNL     1      19.998 -32.879   5.438  1.00  0.00     0.008 C 
ENDBRANCH  13  35
BRANCH  13  37
HETATM   37  O5  UNL     1      22.596 -34.180   6.442  1.00  0.00    -0.379 OA
HETATM   38  C16 UNL     1      22.111 -35.451   6.463  1.00  0.00     0.203 C 
ENDBRANCH  13  37
TORSDOF 12
ENDMDL
MODEL 4
REMARK VINA RESULT: -5.782248410      4.045      5.326
REMARK  12 active torsions:
REMARK  status: ('A' for Active; 'I' for Inactive)
REMARK    1  A    between atoms: C6_7  and  O2_8 
REMARK    2  A    between atoms: C9_12  and  O3_13 
REMARK    3  A    between atoms: C11_16  and  C12_17 
REMARK    4  A    between atoms: C12_17  and  O4_18 
REMARK    5  A    between atoms: C13_20  and  C14_21 
REMARK    6  A    between atoms: C13_20  and  O5_23 
REMARK    7  A    between atoms: N1_25  and  C17_26 
REMARK    8  A    between atoms: C17_26  and  C18_27 
REMARK    9  A    between atoms: C18_27  and  O6_28 
REMARK   10  A    between atoms: O6_28  and  C19_29 
REMARK   11  A    between atoms: C19_29  and  O7_31 
REMARK   12  A    between atoms: O7_31  and  N2_32 
ROOT
HETATM    1  C1  UNL     1      23.223 -38.177  13.913  1.00  0.00     0.036 C 
HETATM    2  C2  UNL     1      23.400 -36.753  13.628  1.00  0.00    -0.017 C 
HETATM    3  C3  UNL     1      22.505 -35.946  13.115  1.00  0.00     0.024 C 
HETATM    4  C4  UNL     1      22.846 -34.521  12.889  1.00  0.00     0.194 C 
HETATM    5  O1  UNL     1      24.060 -34.229  12.706  1.00  0.00    -0.287 OA
HETATM    6  C5  UNL     1      21.803 -33.503  12.880  1.00  0.00     0.058 A 
HETATM    7  C6  UNL     1      22.136 -32.170  12.665  1.00  0.00     0.089 A 
HETATM    8  C7  UNL     1      21.180 -31.204  12.651  1.00  0.00     0.009 A 
HETATM    9  C8  UNL     1      19.850 -31.577  12.858  1.00  0.00     0.093 A 
HETATM   10  C9  UNL     1      19.541 -32.916  13.072  1.00  0.00     0.102 A 
HETATM   11  C10 UNL     1      20.513 -33.914  13.088  1.00  0.00     0.004 A 
HETATM   12  C11 UNL     1      20.121 -35.317  13.321  1.00  0.00     0.085 C 
HETATM   13  C13 UNL     1      21.124 -36.307  12.712  1.00  0.00     0.100 C 
HETATM   14  N1  UNL     1      18.847 -30.559  12.831  1.00  0.00    -0.291 N 
HETATM   15  N3  UNL     1      19.145 -29.191  13.016  1.00  0.00    -0.333 N 
ATOM     16  H3  UNL     1      18.426 -28.468  13.007  1.00  0.00     0.180 HD
HETATM   17  C21 UNL     1      20.511 -28.897  13.214  1.00  0.00     0.144 C 
HETATM   18  C22 UNL     1      21.459 -29.761  12.431  1.00  0.00     0.065 C 
ENDROOT
BRANCH  14  19
HETATM   19  C17 UNL     1      17.469 -30.948  12.621  1.00  0.00     0.175 C 
BRANCH  19  20
HETATM   20  C18 UNL     1      16.605 -30.001  13.462  1.00  0.00     0.193 C 
BRANCH  20  21
HETATM   21  O6  UNL     1      15.380 -30.511  13.764  1.00  0.00    -0.358 OA
BRANCH  21  22
HETATM   22  C19 UNL     1      14.367 -30.365  12.890  1.00  0.00     0.283 C 
HETATM   23  C20 UNL     1      13.892 -31.667  12.268  1.00  0.00     0.073 C 
BRANCH  22  24
HETATM   24  O7  UNL     1      13.228 -29.787  13.458  1.00  0.00    -0.255 OA
BRANCH  24  25
HETATM   25  N2  UNL     1      13.256 -28.458  13.519  1.00  0.00    -0.308 N 
ATOM     26  H22 UNL     1      14.044 -27.919  13.160  1.00  0.00     0.184 HD
ATOM     27  H21 UNL     1      12.433 -28.037  13.950  1.00  0.00     0.184 HD
ENDBRANCH  24  25
ENDBRANCH  22  24
ENDBRANCH  21  22
ENDBRANCH  20  21
ENDBRANCH  19  20
ENDBRANCH  14  19
BRANCH  10  28
HETATM   28  O3  UNL     1      18.234 -33.259  13.272  1.00  0.00    -0.358 OA
ATOM     29  H3  UNL     1      18.039 -33.963  13.880  1.00  0.00     0.217 HD
ENDBRANCH  10  28
BRANCH   7  30
HETATM   30  O2  UNL     1      23.459 -31.832  12.461  1.00  0.00    -0.359 OA
ATOM     31  H2  UNL     1      23.678 -31.210  11.778  1.00  0.00     0.217 HD
ENDBRANCH   7  30
BRANCH  12  32
HETATM   32  C12 UNL     1      19.988 -35.563  14.807  1.00  0.00     0.177 C 
BRANCH  32  33
HETATM   33  O4  UNL     1      18.654 -35.925  15.054  1.00  0.00    -0.400 OA
ATOM     34  H4  UNL     1      18.530 -35.924  15.996  1.00  0.00     0.209 HD
ENDBRANCH  32  33
ENDBRANCH  12  32
BRANCH  13  35
HETATM   35  C14 UNL     1      21.008 -36.173  11.213  1.00  0.00     0.039 C 
HETATM   36  C15 UNL     1      22.075 -36.924  10.477  1.00  0.00     0.008 C 
ENDBRANCH  13  35
BRANCH  13  37
HETATM   37  O5  UNL     1      20.850 -37.568  13.159  1.00  0.00    -0.379 OA
HETATM   38  C16 UNL     1      19.741 -38.170  12.648  1.00  0.00     0.203 C 
ENDBRANCH  13  37
TORSDOF 12
ENDMDL
MODEL 5
REMARK VINA RESULT: -5.763792688      2.360      3.068
REMARK  12 active torsions:
REMARK  status: ('A' for Active; 'I' for Inactive)
REMARK    1  A    between atoms: C6_7  and  O2_8 
REMARK    2  A    between atoms: C9_12  and  O3_13 
REMARK    3  A    between atoms: C11_16  and  C12_17 
REMARK    4  A    between atoms: C12_17  and  O4_18 
REMARK    5  A    between atoms: C13_20  and  C14_21 
REMARK    6  A    between atoms: C13_20  and  O5_23 
REMARK    7  A    between atoms: N1_25  and  C17_26 
REMARK    8  A    between atoms: C17_26  and  C18_27 
REMARK    9  A    between atoms: C18_27  and  O6_28 
REMARK   10  A    between atoms: O6_28  and  C19_29 
REMARK   11  A    between atoms: C19_29  and  O7_31 
REMARK   12  A    between atoms: O7_31  and  N2_32 
ROOT
HETATM    1  C1  UNL     1      23.227 -34.470   4.449  1.00  0.00     0.036 C 
HETATM    2  C2  UNL     1      23.320 -33.073   4.873  1.00  0.00    -0.017 C 
HETATM    3  C3  UNL     1      22.472 -32.436   5.641  1.00  0.00     0.024 C 
HETATM    4  C4  UNL     1      22.713 -31.013   5.980  1.00  0.00     0.194 C 
HETATM    5  O1  UNL     1      23.389 -30.322   5.168  1.00  0.00    -0.287 OA
HETATM    6  C5  UNL     1      22.183 -30.445   7.213  1.00  0.00     0.058 A 
HETATM    7  C6  UNL     1      22.415 -29.108   7.517  1.00  0.00     0.089 A 
HETATM    8  C7  UNL     1      21.930 -28.556   8.660  1.00  0.00     0.009 A 
HETATM    9  C8  UNL     1      21.188 -29.362   9.529  1.00  0.00     0.093 A 
HETATM   10  C9  UNL     1      20.969 -30.696   9.203  1.00  0.00     0.102 A 
HETATM   11  C10 UNL     1      21.463 -31.271   8.034  1.00  0.00     0.004 A 
HETATM   12  C11 UNL     1      21.197 -32.693   7.746  1.00  0.00     0.085 C 
HETATM   13  C13 UNL     1      21.238 -32.998   6.242  1.00  0.00     0.100 C 
HETATM   14  N1  UNL     1      20.669 -28.775  10.723  1.00  0.00    -0.291 N 
HETATM   15  N3  UNL     1      21.187 -27.582  11.273  1.00  0.00    -0.333 N 
ATOM     16  H3  UNL     1      20.822 -27.171  12.132  1.00  0.00     0.180 HD
HETATM   17  C21 UNL     1      22.248 -26.999  10.547  1.00  0.00     0.144 C 
HETATM   18  C22 UNL     1      22.139 -27.139   9.055  1.00  0.00     0.065 C 
ENDROOT
BRANCH  14  19
HETATM   19  C17 UNL     1      19.578 -29.438  11.405  1.00  0.00     0.175 C 
BRANCH  19  20
HETATM   20  C18 UNL     1      19.927 -29.449  12.898  1.00  0.00     0.193 C 
BRANCH  20  21
HETATM   21  O6  UNL     1      21.214 -29.816  13.151  1.00  0.00    -0.358 OA
BRANCH  21  22
HETATM   22  C19 UNL     1      21.487 -31.097  13.461  1.00  0.00     0.283 C 
HETATM   23  C20 UNL     1      20.279 -31.898  13.915  1.00  0.00     0.073 C 
BRANCH  22  24
HETATM   24  O7  UNL     1      22.032 -31.818  12.395  1.00  0.00    -0.255 OA
BRANCH  24  25
HETATM   25  N2  UNL     1      21.452 -32.996  12.173  1.00  0.00    -0.308 N 
ATOM     26  H22 UNL     1      21.643 -33.540  11.333  1.00  0.00     0.184 HD
ATOM     27  H21 UNL     1      20.811 -33.296  12.908  1.00  0.00     0.184 HD
ENDBRANCH  24  25
ENDBRANCH  22  24
ENDBRANCH  21  22
ENDBRANCH  20  21
ENDBRANCH  19  20
ENDBRANCH  14  19
BRANCH  10  28
HETATM   28  O3  UNL     1      20.241 -31.466  10.065  1.00  0.00    -0.358 OA
ATOM     29  H3  UNL     1      20.600 -32.302  10.339  1.00  0.00     0.217 HD
ENDBRANCH  10  28
BRANCH   7  30
HETATM   30  O2  UNL     1      23.150 -28.336   6.639  1.00  0.00    -0.359 OA
ATOM     31  H2  UNL     1      22.699 -27.717   6.078  1.00  0.00     0.217 HD
ENDBRANCH   7  30
BRANCH  12  32
HETATM   32  C12 UNL     1      22.206 -33.552   8.475  1.00  0.00     0.177 C 
BRANCH  32  33
HETATM   33  O4  UNL     1      21.517 -34.239   9.489  1.00  0.00    -0.400 OA
ATOM     34  H4  UNL     1      22.074 -34.241  10.258  1.00  0.00     0.209 HD
ENDBRANCH  32  33
ENDBRANCH  12  32
BRANCH  13  35
HETATM   35  C14 UNL     1      20.045 -32.304   5.628  1.00  0.00     0.039 C 
HETATM   36  C15 UNL     1      19.897 -32.585   4.165  1.00  0.00     0.008 C 
ENDBRANCH  13  35
BRANCH  13  37
HETATM   37  O5  UNL     1      21.228 -34.349   6.049  1.00  0.00    -0.379 OA
HETATM   38  C16 UNL     1      20.060 -34.996   6.314  1.00  0.00     0.203 C 
ENDBRANCH  13  37
TORSDOF 12
ENDMDL
