MODEL 1
REMARK VINA RESULT: -5.892061087      0.000      0.000
REMARK  10 active torsions:
REMARK  status: ('A' for Active; 'I' for Inactive)
REMARK    1  A    between atoms: C1_4  and  S1_5 
REMARK    2  A    between atoms: S1_5  and  C2_6 
REMARK    3  A    between atoms: C3_10  and  N3_11 
REMARK    4  A    between atoms: C4_16  and  C5_17 
REMARK    5  A    between atoms: C5_17  and  S2_18 
REMARK    6  A    between atoms: S2_18  and  C6_19 
REMARK    7  A    between atoms: C6_19  and  C7_20 
REMARK    8  A    between atoms: C9_25  and  O2_26 
REMARK    9  A    between atoms: C10_28  and  O3_29 
REMARK   10  A    between atoms: C11_31  and  O4_32 
ROOT
HETATM    1  C5  UNL     1      11.494   4.166  15.902  1.00  0.00     0.109 C 
ENDROOT
BRANCH   1   2
HETATM    2  C4  UNL     1      12.329   4.969  14.899  1.00  0.00     0.176 C 
HETATM    3  C2  UNL     1      12.434   6.410  15.323  1.00  0.00     0.287 C 
HETATM    4  N2  UNL     1      12.039   7.130  14.132  1.00  0.00    -0.007 N 
HETATM    5  C3  UNL     1      11.111   6.200  13.518  1.00  0.00     0.523 C 
ATOM      6  H22 UNL     1      11.670   8.067  14.294  1.00  0.00     0.283 HD
ATOM      7  H21 UNL     1      12.808   7.433  13.534  1.00  0.00     0.283 HD
HETATM    8  O1  UNL     1      11.724   4.969  13.640  1.00  0.00    -0.330 OA
BRANCH   3   9
HETATM    9  S1  UNL     1      14.147   6.851  15.706  1.00  0.00    -0.089 SA
BRANCH   9  10
HETATM   10  C1  UNL     1      15.234   5.599  15.061  1.00  0.00     0.128 C 
HETATM   11  N1  UNL     1      16.459   5.575  15.406  1.00  0.00    -0.403 N 
ATOM     12  H12 UNL     1      16.802   6.283  16.056  1.00  0.00     0.155 HD
ATOM     13  H11 UNL     1      17.083   4.857  15.036  1.00  0.00     0.155 HD
ENDBRANCH   9  10
ENDBRANCH   3   9
BRANCH   5  14
HETATM   14  N3  UNL     1      10.866   6.576  12.152  1.00  0.00    -0.027 N 
ATOM     15  H33 UNL     1      10.815   5.764  11.536  1.00  0.00     0.279 HD
ATOM     16  H32 UNL     1       9.917   6.926  12.017  1.00  0.00     0.279 HD
ATOM     17  H31 UNL     1      11.567   7.248  11.841  1.00  0.00     0.279 HD
ENDBRANCH   5  14
ENDBRANCH   1   2
BRANCH   1  18
HETATM   18  S2  UNL     1      11.450   2.481  15.318  1.00  0.00    -0.164 SA
BRANCH  18  19
HETATM   19  C6  UNL     1      12.119   1.259  16.425  1.00  0.00     0.109 C 
BRANCH  19  20
HETATM   20  C7  UNL     1      13.585   1.040  16.368  1.00  0.00     0.226 C 
HETATM   21  N4  UNL     1      14.409   2.196  16.546  1.00  0.00    -0.065 N 
HETATM   22  C8  UNL     1      15.694   1.844  15.912  1.00  0.00     0.267 C 
ATOM     23  H42 UNL     1      13.995   3.059  16.192  1.00  0.00     0.277 HD
ATOM     24  H41 UNL     1      14.494   2.499  17.516  1.00  0.00     0.277 HD
HETATM   25  C9  UNL     1      16.356   0.753  16.675  1.00  0.00     0.175 C 
HETATM   26  C10 UNL     1      15.507  -0.183  17.424  1.00  0.00     0.179 C 
HETATM   27  C11 UNL     1      14.035  -0.082  17.268  1.00  0.00     0.180 C 
BRANCH  25  28
HETATM   28  O2  UNL     1      17.316   1.367  17.515  1.00  0.00    -0.391 OA
ATOM     29  H2  UNL     1      18.150   1.313  17.062  1.00  0.00     0.210 HD
ENDBRANCH  25  28
BRANCH  26  30
HETATM   30  O3  UNL     1      15.901  -1.519  17.164  1.00  0.00    -0.390 OA
ATOM     31  H3  UNL     1      16.160  -1.948  17.970  1.00  0.00     0.210 HD
ENDBRANCH  26  30
BRANCH  27  32
HETATM   32  O4  UNL     1      13.367   0.059  18.484  1.00  0.00    -0.391 OA
ATOM     33  H4  UNL     1      13.035   0.947  18.530  1.00  0.00     0.210 HD
ENDBRANCH  27  32
ENDBRANCH  19  20
ENDBRANCH  18  19
ENDBRANCH   1  18
TORSDOF 10
ENDMDL
MODEL 2
REMARK VINA RESULT: -5.851371084      1.951      3.469
REMARK  10 active torsions:
REMARK  status: ('A' for Active; 'I' for Inactive)
REMARK    1  A    between atoms: C1_4  and  S1_5 
REMARK    2  A    between atoms: S1_5  and  C2_6 
REMARK    3  A    between atoms: C3_10  and  N3_11 
REMARK    4  A    between atoms: C4_16  and  C5_17 
REMARK    5  A    between atoms: C5_17  and  S2_18 
REMARK    6  A    between atoms: S2_18  and  C6_19 
REMARK    7  A    between atoms: C6_19  and  C7_20 
REMARK    8  A    between atoms: C9_25  and  O2_26 
REMARK    9  A    between atoms: C10_28  and  O3_29 
REMARK   10  A    between atoms: C11_31  and  O4_32 
ROOT
HETATM    1  C5  UNL     1      13.641   5.669  15.786  1.00  0.00     0.109 C 
ENDROOT
BRANCH   1   2
HETATM    2  C4  UNL     1      12.508   5.830  14.767  1.00  0.00     0.176 C 
HETATM    3  C2  UNL     1      11.497   6.837  15.248  1.00  0.00     0.287 C 
HETATM    4  N2  UNL     1      10.242   6.129  15.115  1.00  0.00    -0.007 N 
HETATM    5  C3  UNL     1      10.654   4.755  15.329  1.00  0.00     0.523 C 
ATOM      6  H22 UNL     1       9.493   6.456  15.725  1.00  0.00     0.283 HD
ATOM      7  H21 UNL     1       9.738   6.299  14.245  1.00  0.00     0.283 HD
HETATM    8  O1  UNL     1      11.820   4.626  14.600  1.00  0.00    -0.330 OA
BRANCH   3   9
HETATM    9  S1  UNL     1      11.447   8.278  14.154  1.00  0.00    -0.089 SA
BRANCH   9  10
HETATM   10  C1  UNL     1      11.278   7.733  12.470  1.00  0.00     0.128 C 
HETATM   11  N1  UNL     1      10.123   7.517  11.980  1.00  0.00    -0.403 N 
ATOM     12  H12 UNL     1       9.303   7.662  12.568  1.00  0.00     0.155 HD
ATOM     13  H11 UNL     1      10.026   7.204  11.013  1.00  0.00     0.155 HD
ENDBRANCH   9  10
ENDBRANCH   3   9
BRANCH   5  14
HETATM   14  N3  UNL     1       9.617   3.855  14.901  1.00  0.00    -0.027 N 
ATOM     15  H33 UNL     1       8.932   3.685  15.638  1.00  0.00     0.279 HD
ATOM     16  H32 UNL     1       8.997   4.286  14.216  1.00  0.00     0.279 HD
ATOM     17  H31 UNL     1      10.026   2.988  14.553  1.00  0.00     0.279 HD
ENDBRANCH   5  14
ENDBRANCH   1   2
BRANCH   1  18
HETATM   18  S2  UNL     1      14.989   4.854  14.947  1.00  0.00    -0.164 SA
BRANCH  18  19
HETATM   19  C6  UNL     1      15.619   3.389  15.735  1.00  0.00     0.109 C 
BRANCH  19  20
HETATM   20  C7  UNL     1      14.616   2.411  16.223  1.00  0.00     0.226 C 
HETATM   21  N4  UNL     1      13.530   2.118  15.339  1.00  0.00    -0.065 N 
HETATM   22  C8  UNL     1      12.455   1.616  16.215  1.00  0.00     0.267 C 
ATOM     23  H42 UNL     1      13.251   2.904  14.751  1.00  0.00     0.277 HD
ATOM     24  H41 UNL     1      13.774   1.485  14.578  1.00  0.00     0.277 HD
HETATM   25  C9  UNL     1      12.853   0.314  16.814  1.00  0.00     0.175 C 
HETATM   26  C10 UNL     1      14.285   0.048  17.007  1.00  0.00     0.179 C 
HETATM   27  C11 UNL     1      15.249   1.142  16.731  1.00  0.00     0.180 C 
BRANCH  25  28
HETATM   28  O2  UNL     1      12.240  -0.697  16.035  1.00  0.00    -0.391 OA
ATOM     29  H2  UNL     1      11.526  -1.048  16.555  1.00  0.00     0.210 HD
ENDBRANCH  25  28
BRANCH  26  30
HETATM   30  O3  UNL     1      14.520  -0.447  18.313  1.00  0.00    -0.390 OA
ATOM     31  H3  UNL     1      15.384  -0.837  18.366  1.00  0.00     0.210 HD
ENDBRANCH  26  30
BRANCH  27  32
HETATM   32  O4  UNL     1      16.244   0.773  15.825  1.00  0.00    -0.391 OA
ATOM     33  H4  UNL     1      16.161  -0.160  15.669  1.00  0.00     0.210 HD
ENDBRANCH  27  32
ENDBRANCH  19  20
ENDBRANCH  18  19
ENDBRANCH   1  18
TORSDOF 10
ENDMDL
MODEL 3
REMARK VINA RESULT: -5.837856916      5.871      8.570
REMARK  10 active torsions:
REMARK  status: ('A' for Active; 'I' for Inactive)
REMARK    1  A    between atoms: C1_4  and  S1_5 
REMARK    2  A    between atoms: S1_5  and  C2_6 
REMARK    3  A    between atoms: C3_10  and  N3_11 
REMARK    4  A    between atoms: C4_16  and  C5_17 
REMARK    5  A    between atoms: C5_17  and  S2_18 
REMARK    6  A    between atoms: S2_18  and  C6_19 
REMARK    7  A    between atoms: C6_19  and  C7_20 
REMARK    8  A    between atoms: C9_25  and  O2_26 
REMARK    9  A    between atoms: C10_28  and  O3_29 
REMARK   10  A    between atoms: C11_31  and  O4_32 
ROOT
HETATM    1  C5  UNL     1       9.473   8.909  18.730  1.00  0.00     0.109 C 
ENDROOT
BRANCH   1   2
HETATM    2  C4  UNL     1       8.580   8.348  19.842  1.00  0.00     0.176 C 
HETATM    3  C2  UNL     1       8.376   9.369  20.929  1.00  0.00     0.287 C 
HETATM    4  N2  UNL     1       8.715   8.639  22.131  1.00  0.00    -0.007 N 
HETATM    5  C3  UNL     1       9.704   7.700  21.637  1.00  0.00     0.523 C 
ATOM      6  H22 UNL     1       9.018   9.214  22.917  1.00  0.00     0.283 HD
ATOM      7  H21 UNL     1       7.925   8.218  22.620  1.00  0.00     0.283 HD
HETATM    8  O1  UNL     1       9.179   7.240  20.445  1.00  0.00    -0.330 OA
BRANCH   3   9
HETATM    9  S1  UNL     1       6.637   9.860  21.041  1.00  0.00    -0.089 SA
BRANCH   9  10
HETATM   10  C1  UNL     1       5.627   8.629  20.249  1.00  0.00     0.128 C 
HETATM   11  N1  UNL     1       4.405   8.496  20.577  1.00  0.00    -0.403 N 
ATOM     12  H12 UNL     1       4.019   9.104  21.299  1.00  0.00     0.155 HD
ATOM     13  H11 UNL     1       3.825   7.789  20.123  1.00  0.00     0.155 HD
ENDBRANCH   9  10
ENDBRANCH   3   9
BRANCH   5  14
HETATM   14  N3  UNL     1       9.918   6.654  22.601  1.00  0.00    -0.027 N 
ATOM     15  H33 UNL     1      10.085   7.026  23.536  1.00  0.00     0.279 HD
ATOM     16  H32 UNL     1       9.062   6.135  22.797  1.00  0.00     0.279 HD
ATOM     17  H31 UNL     1      10.673   6.042  22.293  1.00  0.00     0.279 HD
ENDBRANCH   5  14
ENDBRANCH   1   2
BRANCH   1  18
HETATM   18  S2  UNL     1      10.020   7.524  17.748  1.00  0.00    -0.164 SA
BRANCH  18  19
HETATM   19  C6  UNL     1       9.686   7.631  16.003  1.00  0.00     0.109 C 
BRANCH  19  20
HETATM   20  C7  UNL     1      10.368   6.642  15.133  1.00  0.00     0.226 C 
HETATM   21  N4  UNL     1       9.811   5.323  15.109  1.00  0.00    -0.065 N 
HETATM   22  C8  UNL     1      10.918   4.453  14.670  1.00  0.00     0.267 C 
ATOM     23  H42 UNL     1       9.383   5.038  15.990  1.00  0.00     0.277 HD
ATOM     24  H41 UNL     1       8.969   5.241  14.539  1.00  0.00     0.277 HD
HETATM   25  C9  UNL     1      11.285   4.766  13.263  1.00  0.00     0.175 C 
HETATM   26  C10 UNL     1      11.044   6.128  12.769  1.00  0.00     0.179 C 
HETATM   27  C11 UNL     1      10.583   7.158  13.734  1.00  0.00     0.180 C 
BRANCH  25  28
HETATM   28  O2  UNL     1      10.643   3.800  12.451  1.00  0.00    -0.391 OA
ATOM     29  H2  UNL     1      11.083   2.973  12.610  1.00  0.00     0.210 HD
ENDBRANCH  25  28
BRANCH  26  30
HETATM   30  O3  UNL     1      12.190   6.616  12.096  1.00  0.00    -0.390 OA
ATOM     31  H3  UNL     1      12.116   7.552  11.956  1.00  0.00     0.210 HD
ENDBRANCH  26  30
BRANCH  27  32
HETATM   32  O4  UNL     1       9.408   7.792  13.332  1.00  0.00    -0.391 OA
ATOM     33  H4  UNL     1       9.628   8.687  13.103  1.00  0.00     0.210 HD
ENDBRANCH  27  32
ENDBRANCH  19  20
ENDBRANCH  18  19
ENDBRANCH   1  18
TORSDOF 10
ENDMDL
MODEL 4
REMARK VINA RESULT: -5.729325345      5.430      8.006
REMARK  10 active torsions:
REMARK  status: ('A' for Active; 'I' for Inactive)
REMARK    1  A    between atoms: C1_4  and  S1_5 
REMARK    2  A    between atoms: S1_5  and  C2_6 
REMARK    3  A    between atoms: C3_10  and  N3_11 
REMARK    4  A    between atoms: C4_16  and  C5_17 
REMARK    5  A    between atoms: C5_17  and  S2_18 
REMARK    6  A    between atoms: S2_18  and  C6_19 
REMARK    7  A    between atoms: C6_19  and  C7_20 
REMARK    8  A    between atoms: C9_25  and  O2_26 
REMARK    9  A    between atoms: C10_28  and  O3_29 
REMARK   10  A    between atoms: C11_31  and  O4_32 
ROOT
HETATM    1  C5  UNL     1      10.789   7.202  18.771  1.00  0.00     0.109 C 
ENDROOT
BRANCH   1   2
HETATM    2  C4  UNL     1      10.431   8.086  19.970  1.00  0.00     0.176 C 
HETATM    3  C2  UNL     1       9.820   7.265  21.075  1.00  0.00     0.287 C 
HETATM    4  N2  UNL     1       8.605   7.986  21.384  1.00  0.00    -0.007 N 
HETATM    5  C3  UNL     1       8.274   8.571  20.099  1.00  0.00     0.523 C 
ATOM      6  H22 UNL     1       7.865   7.427  21.809  1.00  0.00     0.283 HD
ATOM      7  H21 UNL     1       8.678   8.649  22.156  1.00  0.00     0.283 HD
HETATM    8  O1  UNL     1       9.477   9.042  19.613  1.00  0.00    -0.330 OA
BRANCH   3   9
HETATM    9  S1  UNL     1      10.871   7.276  22.549  1.00  0.00    -0.089 SA
BRANCH   9  10
HETATM   10  C1  UNL     1       9.851   7.148  24.000  1.00  0.00     0.128 C 
HETATM   11  N1  UNL     1       9.344   6.028  24.330  1.00  0.00    -0.403 N 
ATOM     12  H12 UNL     1       9.534   5.211  23.750  1.00  0.00     0.155 HD
ATOM     13  H11 UNL     1       8.758   5.955  25.162  1.00  0.00     0.155 HD
ENDBRANCH   9  10
ENDBRANCH   3   9
BRANCH   5  14
HETATM   14  N3  UNL     1       7.289   9.606  20.266  1.00  0.00    -0.027 N 
ATOM     15  H33 UNL     1       6.412   9.377  19.797  1.00  0.00     0.279 HD
ATOM     16  H32 UNL     1       6.940   9.650  21.223  1.00  0.00     0.279 HD
ATOM     17  H31 UNL     1       7.664  10.502  19.955  1.00  0.00     0.279 HD
ENDBRANCH   5  14
ENDBRANCH   1   2
BRANCH   1  18
HETATM   18  S2  UNL     1      10.668   8.223  17.313  1.00  0.00    -0.164 SA
BRANCH  18  19
HETATM   19  C6  UNL     1       9.702   7.554  15.976  1.00  0.00     0.109 C 
BRANCH  19  20
HETATM   20  C7  UNL     1      10.373   6.561  15.102  1.00  0.00     0.226 C 
HETATM   21  N4  UNL     1       9.789   5.254  15.057  1.00  0.00    -0.065 N 
HETATM   22  C8  UNL     1      10.884   4.367  14.620  1.00  0.00     0.267 C 
ATOM     23  H42 UNL     1       9.347   4.968  15.931  1.00  0.00     0.277 HD
ATOM     24  H41 UNL     1       8.951   5.195  14.479  1.00  0.00     0.277 HD
HETATM   25  C9  UNL     1      11.271   4.687  13.220  1.00  0.00     0.175 C 
HETATM   26  C10 UNL     1      11.062   6.059  12.739  1.00  0.00     0.179 C 
HETATM   27  C11 UNL     1      10.612   7.087  13.711  1.00  0.00     0.180 C 
BRANCH  25  28
HETATM   28  O2  UNL     1      10.617   3.743  12.391  1.00  0.00    -0.391 OA
ATOM     29  H2  UNL     1       9.990   4.228  11.867  1.00  0.00     0.210 HD
ENDBRANCH  25  28
BRANCH  26  30
HETATM   30  O3  UNL     1      12.225   6.531  12.083  1.00  0.00    -0.390 OA
ATOM     31  H3  UNL     1      12.964   5.968  12.279  1.00  0.00     0.210 HD
ENDBRANCH  26  30
BRANCH  27  32
HETATM   32  O4  UNL     1       9.454   7.750  13.304  1.00  0.00    -0.391 OA
ATOM     33  H4  UNL     1       8.739   7.127  13.337  1.00  0.00     0.210 HD
ENDBRANCH  27  32
ENDBRANCH  19  20
ENDBRANCH  18  19
ENDBRANCH   1  18
TORSDOF 10
ENDMDL
MODEL 5
REMARK VINA RESULT: -5.717578874      4.769      7.564
REMARK  10 active torsions:
REMARK  status: ('A' for Active; 'I' for Inactive)
REMARK    1  A    between atoms: C1_4  and  S1_5 
REMARK    2  A    between atoms: S1_5  and  C2_6 
REMARK    3  A    between atoms: C3_10  and  N3_11 
REMARK    4  A    between atoms: C4_16  and  C5_17 
REMARK    5  A    between atoms: C5_17  and  S2_18 
REMARK    6  A    between atoms: S2_18  and  C6_19 
REMARK    7  A    between atoms: C6_19  and  C7_20 
REMARK    8  A    between atoms: C9_25  and  O2_26 
REMARK    9  A    between atoms: C10_28  and  O3_29 
REMARK   10  A    between atoms: C11_31  and  O4_32 
ROOT
HETATM    1  C5  UNL     1      10.410   5.715  15.058  1.00  0.00     0.109 C 
ENDROOT
BRANCH   1   2
HETATM    2  C4  UNL     1      11.527   4.940  15.767  1.00  0.00     0.176 C 
HETATM    3  C2  UNL     1      12.598   4.533  14.789  1.00  0.00     0.287 C 
HETATM    4  N2  UNL     1      12.748   3.117  15.041  1.00  0.00    -0.007 N 
HETATM    5  C3  UNL     1      11.412   2.749  15.466  1.00  0.00     0.523 C 
ATOM      6  H22 UNL     1      13.119   2.575  14.260  1.00  0.00     0.283 HD
ATOM      7  H21 UNL     1      13.494   2.868  15.691  1.00  0.00     0.283 HD
HETATM    8  O1  UNL     1      11.031   3.760  16.326  1.00  0.00    -0.330 OA
BRANCH   3   9
HETATM    9  S1  UNL     1      14.170   5.344  15.176  1.00  0.00    -0.089 SA
BRANCH   9  10
HETATM   10  C1  UNL     1      15.438   4.110  15.356  1.00  0.00     0.128 C 
HETATM   11  N1  UNL     1      16.621   4.343  14.946  1.00  0.00    -0.403 N 
ATOM     12  H12 UNL     1      16.825   5.244  14.516  1.00  0.00     0.155 HD
ATOM     13  H11 UNL     1      17.349   3.635  15.050  1.00  0.00     0.155 HD
ENDBRANCH   9  10
ENDBRANCH   3   9
BRANCH   5  14
HETATM   14  N3  UNL     1      11.431   1.453  16.091  1.00  0.00    -0.027 N 
ATOM     15  H33 UNL     1      10.507   1.178  16.427  1.00  0.00     0.279 HD
ATOM     16  H32 UNL     1      11.572   0.705  15.413  1.00  0.00     0.279 HD
ATOM     17  H31 UNL     1      12.129   1.432  16.833  1.00  0.00     0.279 HD
ENDBRANCH   5  14
ENDBRANCH   1   2
BRANCH   1  18
HETATM   18  S2  UNL     1      10.595   7.431  15.509  1.00  0.00    -0.164 SA
BRANCH  18  19
HETATM   19  C6  UNL     1       9.216   8.159  16.367  1.00  0.00     0.109 C 
BRANCH  19  20
HETATM   20  C7  UNL     1       9.138   7.916  17.828  1.00  0.00     0.226 C 
HETATM   21  N4  UNL     1      10.309   8.226  18.589  1.00  0.00    -0.065 N 
HETATM   22  C8  UNL     1      10.190   7.414  19.815  1.00  0.00     0.267 C 
ATOM     23  H42 UNL     1      11.183   8.085  18.082  1.00  0.00     0.277 HD
ATOM     24  H41 UNL     1      10.438   9.223  18.764  1.00  0.00     0.277 HD
HETATM   25  C9  UNL     1       9.039   7.887  20.629  1.00  0.00     0.175 C 
HETATM   26  C10 UNL     1       7.913   8.526  19.934  1.00  0.00     0.179 C 
HETATM   27  C11 UNL     1       7.915   8.538  18.450  1.00  0.00     0.180 C 
BRANCH  25  28
HETATM   28  O2  UNL     1       9.571   8.729  21.636  1.00  0.00    -0.391 OA
ATOM     29  H2  UNL     1       8.849   8.959  22.210  1.00  0.00     0.210 HD
ENDBRANCH  25  28
BRANCH  26  30
HETATM   30  O3  UNL     1       6.686   7.980  20.384  1.00  0.00    -0.390 OA
ATOM     31  H3  UNL     1       5.972   8.577  20.194  1.00  0.00     0.210 HD
ENDBRANCH  26  30
BRANCH  27  32
HETATM   32  O4  UNL     1       7.775   9.820  17.917  1.00  0.00    -0.391 OA
ATOM     33  H4  UNL     1       8.168  10.431  18.530  1.00  0.00     0.210 HD
ENDBRANCH  27  32
ENDBRANCH  19  20
ENDBRANCH  18  19
ENDBRANCH   1  18
TORSDOF 10
ENDMDL
