MODEL 1
REMARK VINA RESULT: -6.375763628      0.000      0.000
REMARK  10 active torsions:
REMARK  status: ('A' for Active; 'I' for Inactive)
REMARK    1  A    between atoms: N1_1  and  C1_4 
REMARK    2  A    between atoms: C2_7  and  C3_8 
REMARK    3  A    between atoms: C3_8  and  S1_9 
REMARK    4  A    between atoms: C4_11  and  N3_12 
REMARK    5  A    between atoms: C8_17  and  N4_18 
REMARK    6  A    between atoms: N4_18  and  N5_20 
REMARK    7  A    between atoms: N5_20  and  C9_22 
REMARK    8  A    between atoms: C9_22  and  O2_23 
REMARK    9  A    between atoms: C9_22  and  N6_25 
REMARK   10  A    between atoms: N6_25  and  N7_27 
ROOT
HETATM    1  C1  UNL     1      11.023   4.523  12.343  1.00  0.00     0.677 A 
HETATM    2  N2  UNL     1      11.141   5.835  12.461  1.00  0.00    -0.193 N 
ATOM      3  H2  UNL     1      11.185   6.387  11.604  1.00  0.00     0.184 HD
HETATM    4  C2  UNL     1      11.209   6.504  13.652  1.00  0.00     0.067 A 
HETATM    5  C4  UNL     1      11.147   5.752  14.774  1.00  0.00     0.102 A 
HETATM    6  C8  UNL     1      11.033   4.348  14.632  1.00  0.00     0.164 A 
HETATM    7  N8  UNL     1      10.969   3.716  13.450  1.00  0.00    -0.173 N 
ATOM      8  H8  UNL     1      10.885   2.701  13.379  1.00  0.00     0.186 HD
ENDROOT
BRANCH   6   9
HETATM    9  N4  UNL     1      11.053   3.614  15.676  1.00  0.00    -0.284 N 
ATOM     10  H4  UNL     1      10.916   4.070  16.578  1.00  0.00     0.188 HD
BRANCH   9  11
HETATM   11  N5  UNL     1      11.243   2.252  15.674  1.00  0.00    -0.288 N 
ATOM     12  H5  UNL     1      11.104   1.760  14.792  1.00  0.00     0.185 HD
BRANCH  11  13
HETATM   13  C9  UNL     1      11.630   1.453  16.833  1.00  0.00     0.356 C 
BRANCH  13  14
HETATM   14  O2  UNL     1      10.630   1.494  17.794  1.00  0.00    -0.358 OA
ATOM     15  H2  UNL     1      10.940   1.951  18.567  1.00  0.00     0.214 HD
ENDBRANCH  13  14
BRANCH  13  16
HETATM   16  N6  UNL     1      11.985   0.166  16.356  1.00  0.00    -0.296 N 
ATOM     17  H6  UNL     1      11.335  -0.394  15.805  1.00  0.00     0.184 HD
BRANCH  16  18
HETATM   18  N7  UNL     1      13.241  -0.293  16.667  1.00  0.00    -0.346 N 
ATOM     19  H72 UNL     1      13.485  -0.518  17.631  1.00  0.00     0.176 HD
ATOM     20  H71 UNL     1      13.904  -0.393  15.898  1.00  0.00     0.176 HD
ENDBRANCH  16  18
ENDBRANCH  13  16
ENDBRANCH  11  13
ENDBRANCH   9  11
ENDBRANCH   6   9
BRANCH   5  21
HETATM   21  N3  UNL     1      11.098   6.324  16.062  1.00  0.00    -0.353 N 
HETATM   22  C5  UNL     1      10.017   6.888  16.832  1.00  0.00     0.151 C 
HETATM   23  C6  UNL     1      10.636   7.058  18.241  1.00  0.00     0.189 C 
HETATM   24  O1  UNL     1      11.867   7.561  17.855  1.00  0.00    -0.370 OA
HETATM   25  C7  UNL     1      12.271   6.570  16.903  1.00  0.00     0.293 C 
ENDBRANCH   5  21
BRANCH   4  26
HETATM   26  C3  UNL     1      11.301   7.996  13.595  1.00  0.00     0.147 C 
BRANCH  26  27
HETATM   27  S1  UNL     1       9.747   8.603  12.735  1.00  0.00    -0.079 SA
HETATM   28  S2  UNL     1       8.077   8.528  13.968  1.00  0.00    -0.013 SA
ENDBRANCH  26  27
ENDBRANCH   4  26
BRANCH   1  29
HETATM   29  N1  UNL     1      10.866   3.888  11.223  1.00  0.00    -0.234 N 
ATOM     30  H12 UNL     1      11.607   4.061  10.544  1.00  0.00     0.174 HD
ATOM     31  H11 UNL     1      10.120   3.219  11.029  1.00  0.00     0.174 HD
ENDBRANCH   1  29
TORSDOF 10
ENDMDL
MODEL 2
REMARK VINA RESULT: -6.299064140      2.519      3.153
REMARK  10 active torsions:
REMARK  status: ('A' for Active; 'I' for Inactive)
REMARK    1  A    between atoms: N1_1  and  C1_4 
REMARK    2  A    between atoms: C2_7  and  C3_8 
REMARK    3  A    between atoms: C3_8  and  S1_9 
REMARK    4  A    between atoms: C4_11  and  N3_12 
REMARK    5  A    between atoms: C8_17  and  N4_18 
REMARK    6  A    between atoms: N4_18  and  N5_20 
REMARK    7  A    between atoms: N5_20  and  C9_22 
REMARK    8  A    between atoms: C9_22  and  O2_23 
REMARK    9  A    between atoms: C9_22  and  N6_25 
REMARK   10  A    between atoms: N6_25  and  N7_27 
ROOT
HETATM    1  C1  UNL     1      14.704   3.802  15.018  1.00  0.00     0.677 A 
HETATM    2  N2  UNL     1      14.699   5.124  15.063  1.00  0.00    -0.193 N 
ATOM      3  H2  UNL     1      15.588   5.607  14.930  1.00  0.00     0.184 HD
HETATM    4  C2  UNL     1      13.586   5.889  15.275  1.00  0.00     0.067 A 
HETATM    5  C4  UNL     1      12.419   5.227  15.447  1.00  0.00     0.102 A 
HETATM    6  C8  UNL     1      12.442   3.812  15.409  1.00  0.00     0.164 A 
HETATM    7  N8  UNL     1      13.550   3.084  15.199  1.00  0.00    -0.173 N 
ATOM      8  H8  UNL     1      13.535   2.064  15.175  1.00  0.00     0.186 HD
ENDROOT
BRANCH   6   9
HETATM    9  N4  UNL     1      11.367   3.166  15.647  1.00  0.00    -0.284 N 
ATOM     10  H4  UNL     1      10.505   3.702  15.746  1.00  0.00     0.188 HD
BRANCH   9  11
HETATM   11  N5  UNL     1      11.285   1.800  15.778  1.00  0.00    -0.288 N 
ATOM     12  H5  UNL     1      10.957   1.270  14.971  1.00  0.00     0.185 HD
BRANCH  11  13
HETATM   13  C9  UNL     1      11.630   1.046  16.980  1.00  0.00     0.356 C 
BRANCH  13  14
HETATM   14  O2  UNL     1      10.497   0.841  17.754  1.00  0.00    -0.358 OA
ATOM     15  H2  UNL     1      10.489   1.446  18.486  1.00  0.00     0.214 HD
ENDBRANCH  13  14
BRANCH  13  16
HETATM   16  N6  UNL     1      12.320  -0.119  16.561  1.00  0.00    -0.296 N 
ATOM     17  H6  UNL     1      11.849  -0.856  16.037  1.00  0.00     0.184 HD
BRANCH  16  18
HETATM   18  N7  UNL     1      13.649  -0.213  16.890  1.00  0.00    -0.346 N 
ATOM     19  H72 UNL     1      13.959  -0.040  17.847  1.00  0.00     0.176 HD
ATOM     20  H71 UNL     1      14.298  -0.459  16.143  1.00  0.00     0.176 HD
ENDBRANCH  16  18
ENDBRANCH  13  16
ENDBRANCH  11  13
ENDBRANCH   9  11
ENDBRANCH   6   9
BRANCH   5  21
HETATM   21  N3  UNL     1      11.184   5.897  15.567  1.00  0.00    -0.353 N 
HETATM   22  C5  UNL     1      10.209   6.315  14.590  1.00  0.00     0.151 C 
HETATM   23  C6  UNL     1       8.994   6.729  15.456  1.00  0.00     0.189 C 
HETATM   24  O1  UNL     1       9.682   7.419  16.440  1.00  0.00    -0.370 OA
HETATM   25  C7  UNL     1      10.655   6.438  16.820  1.00  0.00     0.293 C 
ENDBRANCH   5  21
BRANCH   4  26
HETATM   26  C3  UNL     1      13.761   7.374  15.254  1.00  0.00     0.147 C 
BRANCH  26  27
HETATM   27  S1  UNL     1      13.583   7.916  13.465  1.00  0.00    -0.079 SA
HETATM   28  S2  UNL     1      15.348   8.689  12.690  1.00  0.00    -0.013 SA
ENDBRANCH  26  27
ENDBRANCH   4  26
BRANCH   1  29
HETATM   29  N1  UNL     1      15.736   3.071  14.727  1.00  0.00    -0.234 N 
ATOM     30  H12 UNL     1      16.159   3.298  13.827  1.00  0.00     0.174 HD
ATOM     31  H11 UNL     1      16.152   2.373  15.344  1.00  0.00     0.174 HD
ENDBRANCH   1  29
TORSDOF 10
ENDMDL
MODEL 3
REMARK VINA RESULT: -6.260614009      2.903      3.320
REMARK  10 active torsions:
REMARK  status: ('A' for Active; 'I' for Inactive)
REMARK    1  A    between atoms: N1_1  and  C1_4 
REMARK    2  A    between atoms: C2_7  and  C3_8 
REMARK    3  A    between atoms: C3_8  and  S1_9 
REMARK    4  A    between atoms: C4_11  and  N3_12 
REMARK    5  A    between atoms: C8_17  and  N4_18 
REMARK    6  A    between atoms: N4_18  and  N5_20 
REMARK    7  A    between atoms: N5_20  and  C9_22 
REMARK    8  A    between atoms: C9_22  and  O2_23 
REMARK    9  A    between atoms: C9_22  and  N6_25 
REMARK   10  A    between atoms: N6_25  and  N7_27 
ROOT
HETATM    1  C1  UNL     1      14.738   3.873  14.999  1.00  0.00     0.677 A 
HETATM    2  N2  UNL     1      14.714   5.194  15.060  1.00  0.00    -0.193 N 
ATOM      3  H2  UNL     1      15.598   5.690  14.944  1.00  0.00     0.184 HD
HETATM    4  C2  UNL     1      13.588   5.941  15.267  1.00  0.00     0.067 A 
HETATM    5  C4  UNL     1      12.428   5.261  15.415  1.00  0.00     0.102 A 
HETATM    6  C8  UNL     1      12.470   3.847  15.360  1.00  0.00     0.164 A 
HETATM    7  N8  UNL     1      13.591   3.137  15.155  1.00  0.00    -0.173 N 
ATOM      8  H8  UNL     1      13.590   2.117  15.119  1.00  0.00     0.186 HD
ENDROOT
BRANCH   6   9
HETATM    9  N4  UNL     1      11.402   3.184  15.576  1.00  0.00    -0.284 N 
ATOM     10  H4  UNL     1      10.528   3.706  15.649  1.00  0.00     0.188 HD
BRANCH   9  11
HETATM   11  N5  UNL     1      11.341   1.818  15.716  1.00  0.00    -0.288 N 
ATOM     12  H5  UNL     1      11.029   1.277  14.909  1.00  0.00     0.185 HD
BRANCH  11  13
HETATM   13  C9  UNL     1      11.685   1.078  16.926  1.00  0.00     0.356 C 
BRANCH  13  14
HETATM   14  O2  UNL     1      10.556   0.894  17.709  1.00  0.00    -0.358 OA
ATOM     15  H2  UNL     1      10.803   0.555  18.561  1.00  0.00     0.214 HD
ENDBRANCH  13  14
BRANCH  13  16
HETATM   16  N6  UNL     1      12.362  -0.100  16.519  1.00  0.00    -0.296 N 
ATOM     17  H6  UNL     1      11.888  -0.827  15.984  1.00  0.00     0.184 HD
BRANCH  16  18
HETATM   18  N7  UNL     1      13.682  -0.219  16.874  1.00  0.00    -0.346 N 
ATOM     19  H72 UNL     1      14.416  -0.146  16.170  1.00  0.00     0.176 HD
ATOM     20  H71 UNL     1      13.887  -0.381  17.860  1.00  0.00     0.176 HD
ENDBRANCH  16  18
ENDBRANCH  13  16
ENDBRANCH  11  13
ENDBRANCH   9  11
ENDBRANCH   6   9
BRANCH   5  21
HETATM   21  N3  UNL     1      11.183   5.913  15.526  1.00  0.00    -0.353 N 
HETATM   22  C5  UNL     1      10.217   6.335  14.542  1.00  0.00     0.151 C 
HETATM   23  C6  UNL     1       8.984   6.719  15.396  1.00  0.00     0.189 C 
HETATM   24  O1  UNL     1       9.647   7.400  16.402  1.00  0.00    -0.370 OA
HETATM   25  C7  UNL     1      10.627   6.426  16.780  1.00  0.00     0.293 C 
ENDBRANCH   5  21
BRANCH   4  26
HETATM   26  C3  UNL     1      13.743   7.429  15.265  1.00  0.00     0.147 C 
BRANCH  26  27
HETATM   27  S1  UNL     1      14.747   7.871  16.789  1.00  0.00    -0.079 SA
HETATM   28  S2  UNL     1      13.552   8.233  18.449  1.00  0.00    -0.013 SA
ENDBRANCH  26  27
ENDBRANCH   4  26
BRANCH   1  29
HETATM   29  N1  UNL     1      15.783   3.160  14.712  1.00  0.00    -0.234 N 
ATOM     30  H12 UNL     1      16.600   3.381  15.281  1.00  0.00     0.174 HD
ATOM     31  H11 UNL     1      15.802   2.397  14.036  1.00  0.00     0.174 HD
ENDBRANCH   1  29
TORSDOF 10
ENDMDL
MODEL 4
REMARK VINA RESULT: -6.250042268      1.306      1.584
REMARK  10 active torsions:
REMARK  status: ('A' for Active; 'I' for Inactive)
REMARK    1  A    between atoms: N1_1  and  C1_4 
REMARK    2  A    between atoms: C2_7  and  C3_8 
REMARK    3  A    between atoms: C3_8  and  S1_9 
REMARK    4  A    between atoms: C4_11  and  N3_12 
REMARK    5  A    between atoms: C8_17  and  N4_18 
REMARK    6  A    between atoms: N4_18  and  N5_20 
REMARK    7  A    between atoms: N5_20  and  C9_22 
REMARK    8  A    between atoms: C9_22  and  O2_23 
REMARK    9  A    between atoms: C9_22  and  N6_25 
REMARK   10  A    between atoms: N6_25  and  N7_27 
ROOT
HETATM    1  C1  UNL     1      11.035   4.533  12.330  1.00  0.00     0.677 A 
HETATM    2  N2  UNL     1      11.140   5.845  12.452  1.00  0.00    -0.193 N 
ATOM      3  H2  UNL     1      11.192   6.399  11.597  1.00  0.00     0.184 HD
HETATM    4  C2  UNL     1      11.183   6.512  13.645  1.00  0.00     0.067 A 
HETATM    5  C4  UNL     1      11.109   5.757  14.765  1.00  0.00     0.102 A 
HETATM    6  C8  UNL     1      11.010   4.353  14.619  1.00  0.00     0.164 A 
HETATM    7  N8  UNL     1      10.969   3.722  13.434  1.00  0.00    -0.173 N 
ATOM      8  H8  UNL     1      10.895   2.707  13.360  1.00  0.00     0.186 HD
ENDROOT
BRANCH   6   9
HETATM    9  N4  UNL     1      11.019   3.617  15.661  1.00  0.00    -0.284 N 
ATOM     10  H4  UNL     1      10.847   4.068  16.560  1.00  0.00     0.188 HD
BRANCH   9  11
HETATM   11  N5  UNL     1      11.242   2.260  15.662  1.00  0.00    -0.288 N 
ATOM     12  H5  UNL     1      11.129   1.766  14.777  1.00  0.00     0.185 HD
BRANCH  11  13
HETATM   13  C9  UNL     1      11.629   1.470  16.827  1.00  0.00     0.356 C 
BRANCH  13  14
HETATM   14  O2  UNL     1      10.629   1.516  17.786  1.00  0.00    -0.358 OA
ATOM     15  H2  UNL     1       9.798   1.731  17.379  1.00  0.00     0.214 HD
ENDBRANCH  13  14
BRANCH  13  16
HETATM   16  N6  UNL     1      11.988   0.180  16.358  1.00  0.00    -0.296 N 
ATOM     17  H6  UNL     1      11.346  -0.378  15.796  1.00  0.00     0.184 HD
BRANCH  16  18
HETATM   18  N7  UNL     1      13.235  -0.284  16.694  1.00  0.00    -0.346 N 
ATOM     19  H72 UNL     1      13.994  -0.263  16.014  1.00  0.00     0.176 HD
ATOM     20  H71 UNL     1      13.359  -0.643  17.640  1.00  0.00     0.176 HD
ENDBRANCH  16  18
ENDBRANCH  13  16
ENDBRANCH  11  13
ENDBRANCH   9  11
ENDBRANCH   6   9
BRANCH   5  21
HETATM   21  N3  UNL     1      11.035   6.327  16.053  1.00  0.00    -0.353 N 
HETATM   22  C5  UNL     1       9.942   6.900  16.798  1.00  0.00     0.151 C 
HETATM   23  C6  UNL     1      10.528   7.059  18.222  1.00  0.00     0.189 C 
HETATM   24  O1  UNL     1      11.773   7.550  17.868  1.00  0.00    -0.370 OA
HETATM   25  C7  UNL     1      12.189   6.557  16.923  1.00  0.00     0.293 C 
ENDBRANCH   5  21
BRANCH   4  26
HETATM   26  C3  UNL     1      11.263   8.005  13.592  1.00  0.00     0.147 C 
BRANCH  26  27
HETATM   27  S1  UNL     1      12.971   8.435  12.943  1.00  0.00    -0.079 SA
HETATM   28  S2  UNL     1      14.484   7.470  13.989  1.00  0.00    -0.013 SA
ENDBRANCH  26  27
ENDBRANCH   4  26
BRANCH   1  29
HETATM   29  N1  UNL     1      10.901   3.899  11.206  1.00  0.00    -0.234 N 
ATOM     30  H12 UNL     1       9.960   3.947  10.816  1.00  0.00     0.174 HD
ATOM     31  H11 UNL     1      11.658   3.441  10.699  1.00  0.00     0.174 HD
ENDBRANCH   1  29
TORSDOF 10
ENDMDL
MODEL 5
REMARK VINA RESULT: -5.995367363      2.880      4.822
REMARK  10 active torsions:
REMARK  status: ('A' for Active; 'I' for Inactive)
REMARK    1  A    between atoms: N1_1  and  C1_4 
REMARK    2  A    between atoms: C2_7  and  C3_8 
REMARK    3  A    between atoms: C3_8  and  S1_9 
REMARK    4  A    between atoms: C4_11  and  N3_12 
REMARK    5  A    between atoms: C8_17  and  N4_18 
REMARK    6  A    between atoms: N4_18  and  N5_20 
REMARK    7  A    between atoms: N5_20  and  C9_22 
REMARK    8  A    between atoms: C9_22  and  O2_23 
REMARK    9  A    between atoms: C9_22  and  N6_25 
REMARK   10  A    between atoms: N6_25  and  N7_27 
ROOT
HETATM    1  C1  UNL     1      11.054   3.885  15.646  1.00  0.00     0.677 A 
HETATM    2  N2  UNL     1      11.056   5.077  16.218  1.00  0.00    -0.193 N 
ATOM      3  H2  UNL     1      11.023   5.114  17.237  1.00  0.00     0.184 HD
HETATM    4  C2  UNL     1      11.099   6.263  15.540  1.00  0.00     0.067 A 
HETATM    5  C4  UNL     1      11.144   6.189  14.190  1.00  0.00     0.102 A 
HETATM    6  C8  UNL     1      11.129   4.907  13.591  1.00  0.00     0.164 A 
HETATM    7  N8  UNL     1      11.086   3.756  14.280  1.00  0.00    -0.173 N 
ATOM      8  H8  UNL     1      11.078   2.845  13.820  1.00  0.00     0.186 HD
ENDROOT
BRANCH   6   9
HETATM    9  N4  UNL     1      11.091   4.815  12.319  1.00  0.00    -0.284 N 
ATOM     10  H4  UNL     1      11.354   5.640  11.777  1.00  0.00     0.188 HD
BRANCH   9  11
HETATM   11  N5  UNL     1      10.724   3.688  11.623  1.00  0.00    -0.288 N 
ATOM     12  H5  UNL     1      10.335   2.912  12.159  1.00  0.00     0.185 HD
BRANCH  11  13
HETATM   13  C9  UNL     1      10.845   3.511  10.179  1.00  0.00     0.356 C 
BRANCH  13  14
HETATM   14  O2  UNL     1      12.171   3.639   9.794  1.00  0.00    -0.358 OA
ATOM     15  H2  UNL     1      12.338   3.110   9.023  1.00  0.00     0.214 HD
ENDBRANCH  13  14
BRANCH  13  16
HETATM   16  N6  UNL     1      10.215   2.282   9.853  1.00  0.00    -0.296 N 
ATOM     17  H6  UNL     1      10.758   1.464   9.577  1.00  0.00     0.184 HD
BRANCH  16  18
HETATM   18  N7  UNL     1       8.846   2.241   9.926  1.00  0.00    -0.346 N 
ATOM     19  H72 UNL     1       8.376   1.481  10.418  1.00  0.00     0.176 HD
ATOM     20  H71 UNL     1       8.332   2.996   9.471  1.00  0.00     0.176 HD
ENDBRANCH  16  18
ENDBRANCH  13  16
ENDBRANCH  11  13
ENDBRANCH   9  11
ENDBRANCH   6   9
BRANCH   5  21
HETATM   21  N3  UNL     1      11.299   7.331  13.378  1.00  0.00    -0.353 N 
HETATM   22  C5  UNL     1      10.346   8.228  12.773  1.00  0.00     0.151 C 
HETATM   23  C6  UNL     1      11.227   9.396  12.269  1.00  0.00     0.189 C 
HETATM   24  O1  UNL     1      12.264   8.646  11.742  1.00  0.00    -0.370 OA
HETATM   25  C7  UNL     1      12.583   7.812  12.862  1.00  0.00     0.293 C 
ENDBRANCH   5  21
BRANCH   4  26
HETATM   26  C3  UNL     1      11.135   7.517  16.355  1.00  0.00     0.147 C 
BRANCH  26  27
HETATM   27  S1  UNL     1       9.440   7.703  17.140  1.00  0.00    -0.079 SA
HETATM   28  S2  UNL     1       7.931   7.921  15.729  1.00  0.00    -0.013 SA
ENDBRANCH  26  27
ENDBRANCH   4  26
BRANCH   1  29
HETATM   29  N1  UNL     1      11.106   2.754  16.280  1.00  0.00    -0.234 N 
ATOM     30  H12 UNL     1      12.054   2.450  16.501  1.00  0.00     0.174 HD
ATOM     31  H11 UNL     1      10.294   2.226  16.601  1.00  0.00     0.174 HD
ENDBRANCH   1  29
TORSDOF 10
ENDMDL
