MODEL 1
REMARK VINA RESULT: -6.472594608      0.000      0.000
REMARK  9 active torsions:
REMARK  status: ('A' for Active; 'I' for Inactive)
REMARK    1  A    between atoms: N1_1  and  C1_4 
REMARK    2  A    between atoms: N3_7  and  N4_8 
REMARK    3  A    between atoms: C2_11  and  N5_12 
REMARK    4  A    between atoms: N5_12  and  C3_14 
REMARK    5  A    between atoms: C4_16  and  N6_17 
REMARK    6  A    between atoms: C5_21  and  C6_22 
REMARK    7  A    between atoms: C8_24  and  C9_25 
REMARK    8  A    between atoms: C9_25  and  S1_26 
REMARK    9  A    between atoms: S1_26  and  C10_27 
ROOT
HETATM    1  C1  UNL     1       9.466   8.368  15.319  1.00  0.00     0.128 A 
HETATM    2  N2  UNL     1       9.675   7.956  14.094  1.00  0.00    -0.263 N 
ATOM      3  H2  UNL     1       9.379   8.437  13.244  1.00  0.00     0.190 HD
HETATM    4  N3  UNL     1      10.318   6.836  14.145  1.00  0.00    -0.184 N 
HETATM    5  C2  UNL     1      10.560   6.450  15.480  1.00  0.00     0.155 A 
HETATM    6  C5  UNL     1      10.024   7.430  16.227  1.00  0.00     0.063 A 
ENDROOT
BRANCH   6   7
HETATM    7  C6  UNL     1       9.875   7.714  17.675  1.00  0.00     0.165 C 
HETATM    8  C7  UNL     1      11.119   8.465  18.097  1.00  0.00     0.070 C 
HETATM    9  C8  UNL     1      10.893   7.768  19.384  1.00  0.00     0.135 C 
HETATM   10  O2  UNL     1      10.289   6.715  18.574  1.00  0.00    -0.375 OA
BRANCH   9  11
HETATM   11  C9  UNL     1       9.829   8.407  20.251  1.00  0.00     0.114 C 
BRANCH  11  12
HETATM   12  S1  UNL     1      10.527   8.668  21.953  1.00  0.00    -0.089 SA
BRANCH  12  13
HETATM   13  C10 UNL     1       9.927   7.358  23.012  1.00  0.00     0.176 A 
HETATM   14  N7  UNL     1       9.826   6.043  22.652  1.00  0.00    -0.263 N 
HETATM   15  N8  UNL     1       9.291   5.370  23.675  1.00  0.00    -0.226 N 
ATOM     16  H7  UNL     1      10.111   5.643  21.757  1.00  0.00     0.190 HD
HETATM   17  N9  UNL     1       9.049   6.198  24.669  1.00  0.00    -0.226 N 
ATOM     18  H8  UNL     1       9.098   4.369  23.685  1.00  0.00     0.210 HD
HETATM   19  N10 UNL     1       9.451   7.419  24.236  1.00  0.00    -0.263 N 
ATOM     20  H9  UNL     1       8.643   5.969  25.577  1.00  0.00     0.210 HD
ATOM     21  H10 UNL     1       9.392   8.275  24.788  1.00  0.00     0.190 HD
ENDBRANCH  12  13
ENDBRANCH  11  12
ENDBRANCH   9  11
ENDBRANCH   6   7
BRANCH   1  22
HETATM   22  N1  UNL     1       8.887   9.488  15.623  1.00  0.00    -0.384 N 
ATOM     23  H12 UNL     1       7.890   9.695  15.559  1.00  0.00     0.157 HD
ATOM     24  H11 UNL     1       9.372  10.297  16.012  1.00  0.00     0.157 HD
ENDBRANCH   1  22
BRANCH   5  25
HETATM   25  N5  UNL     1      11.202   5.260  15.804  1.00  0.00    -0.343 N 
ATOM     26  H5  UNL     1      12.166   5.418  16.099  1.00  0.00     0.164 HD
BRANCH  25  27
HETATM   27  C3  UNL     1      10.867   3.897  15.832  1.00  0.00     0.281 A 
HETATM   28  O1  UNL     1      10.788   3.296  14.469  1.00  0.00    -0.326 OA
HETATM   29  C4  UNL     1      11.824   2.858  15.427  1.00  0.00     0.369 A 
BRANCH  29  30
HETATM   30  N6  UNL     1      11.540   1.547  15.940  1.00  0.00    -0.049 N 
ATOM     31  H63 UNL     1      12.401   1.004  16.017  1.00  0.00     0.277 HD
ATOM     32  H62 UNL     1      11.278   1.601  16.925  1.00  0.00     0.277 HD
ATOM     33  H61 UNL     1      10.838   1.026  15.415  1.00  0.00     0.277 HD
ENDBRANCH  29  30
ENDBRANCH  25  27
ENDBRANCH   5  25
BRANCH   4  34
HETATM   34  N4  UNL     1      10.718   6.090  13.050  1.00  0.00    -0.322 N 
ATOM     35  H42 UNL     1      11.693   5.878  12.840  1.00  0.00     0.179 HD
ATOM     36  H41 UNL     1      10.094   5.675  12.358  1.00  0.00     0.179 HD
ENDBRANCH   4  34
TORSDOF 9
ENDMDL
MODEL 2
REMARK VINA RESULT: -6.411323865      3.423      6.866
REMARK  9 active torsions:
REMARK  status: ('A' for Active; 'I' for Inactive)
REMARK    1  A    between atoms: N1_1  and  C1_4 
REMARK    2  A    between atoms: N3_7  and  N4_8 
REMARK    3  A    between atoms: C2_11  and  N5_12 
REMARK    4  A    between atoms: N5_12  and  C3_14 
REMARK    5  A    between atoms: C4_16  and  N6_17 
REMARK    6  A    between atoms: C5_21  and  C6_22 
REMARK    7  A    between atoms: C8_24  and  C9_25 
REMARK    8  A    between atoms: C9_25  and  S1_26 
REMARK    9  A    between atoms: S1_26  and  C10_27 
ROOT
HETATM    1  C1  UNL     1      11.023   5.670  12.483  1.00  0.00     0.128 A 
HETATM    2  N2  UNL     1      10.629   6.877  12.162  1.00  0.00    -0.263 N 
ATOM      3  H2  UNL     1      10.444   7.214  11.218  1.00  0.00     0.190 HD
HETATM    4  N3  UNL     1      10.515   7.568  13.248  1.00  0.00    -0.184 N 
HETATM    5  C2  UNL     1      10.856   6.798  14.379  1.00  0.00     0.155 A 
HETATM    6  C5  UNL     1      11.173   5.587  13.892  1.00  0.00     0.063 A 
ENDROOT
BRANCH   6   7
HETATM    7  C6  UNL     1      11.632   4.293  14.451  1.00  0.00     0.165 C 
HETATM    8  C7  UNL     1      10.427   3.656  15.108  1.00  0.00     0.070 C 
HETATM    9  C8  UNL     1      11.440   3.103  16.036  1.00  0.00     0.135 C 
HETATM   10  O2  UNL     1      12.202   4.312  15.737  1.00  0.00    -0.375 OA
BRANCH   9  11
HETATM   11  C9  UNL     1      12.179   1.899  15.493  1.00  0.00     0.114 C 
BRANCH  11  12
HETATM   12  S1  UNL     1      12.536   0.738  16.899  1.00  0.00    -0.089 SA
BRANCH  12  13
HETATM   13  C10 UNL     1      14.305   0.491  16.988  1.00  0.00     0.176 A 
HETATM   14  N7  UNL     1      15.243   1.378  16.538  1.00  0.00    -0.263 N 
HETATM   15  N8  UNL     1      16.451   0.835  16.721  1.00  0.00    -0.226 N 
ATOM     16  H7  UNL     1      15.055   2.295  16.133  1.00  0.00     0.190 HD
HETATM   17  N9  UNL     1      16.322  -0.354  17.269  1.00  0.00    -0.226 N 
ATOM     18  H8  UNL     1      17.337   1.275  16.474  1.00  0.00     0.210 HD
HETATM   19  N10 UNL     1      14.987  -0.544  17.425  1.00  0.00    -0.263 N 
ATOM     20  H9  UNL     1      17.069  -1.000  17.524  1.00  0.00     0.210 HD
ATOM     21  H10 UNL     1      14.567  -1.381  17.829  1.00  0.00     0.190 HD
ENDBRANCH  12  13
ENDBRANCH  11  12
ENDBRANCH   9  11
ENDBRANCH   6   7
BRANCH   1  22
HETATM   22  N1  UNL     1      11.189   4.707  11.629  1.00  0.00    -0.384 N 
ATOM     23  H12 UNL     1      11.762   4.733  10.785  1.00  0.00     0.157 HD
ATOM     24  H11 UNL     1      10.787   3.774  11.731  1.00  0.00     0.157 HD
ENDBRANCH   1  22
BRANCH   5  25
HETATM   25  N5  UNL     1      10.853   7.326  15.666  1.00  0.00    -0.343 N 
ATOM     26  H5  UNL     1      11.462   8.141  15.742  1.00  0.00     0.164 HD
BRANCH  25  27
HETATM   27  C3  UNL     1      10.229   7.028  16.887  1.00  0.00     0.281 A 
HETATM   28  O1  UNL     1      11.159   6.396  17.869  1.00  0.00    -0.326 OA
HETATM   29  C4  UNL     1      10.584   7.732  18.128  1.00  0.00     0.369 A 
BRANCH  29  30
HETATM   30  N6  UNL     1       9.581   7.679  19.155  1.00  0.00    -0.049 N 
ATOM     31  H63 UNL     1       8.651   7.781  18.748  1.00  0.00     0.277 HD
ATOM     32  H62 UNL     1       9.507   6.733  19.530  1.00  0.00     0.277 HD
ATOM     33  H61 UNL     1       9.711   8.351  19.912  1.00  0.00     0.277 HD
ENDBRANCH  29  30
ENDBRANCH  25  27
ENDBRANCH   5  25
BRANCH   4  34
HETATM   34  N4  UNL     1      10.121   8.894  13.318  1.00  0.00    -0.322 N 
ATOM     35  H42 UNL     1      10.664   9.663  12.926  1.00  0.00     0.179 HD
ATOM     36  H41 UNL     1       9.262   9.234  13.751  1.00  0.00     0.179 HD
ENDBRANCH   4  34
TORSDOF 9
ENDMDL
MODEL 3
REMARK VINA RESULT: -6.407285654      3.338      6.966
REMARK  9 active torsions:
REMARK  status: ('A' for Active; 'I' for Inactive)
REMARK    1  A    between atoms: N1_1  and  C1_4 
REMARK    2  A    between atoms: N3_7  and  N4_8 
REMARK    3  A    between atoms: C2_11  and  N5_12 
REMARK    4  A    between atoms: N5_12  and  C3_14 
REMARK    5  A    between atoms: C4_16  and  N6_17 
REMARK    6  A    between atoms: C5_21  and  C6_22 
REMARK    7  A    between atoms: C8_24  and  C9_25 
REMARK    8  A    between atoms: C9_25  and  S1_26 
REMARK    9  A    between atoms: S1_26  and  C10_27 
ROOT
HETATM    1  C1  UNL     1      10.915   5.261  13.178  1.00  0.00     0.128 A 
HETATM    2  N2  UNL     1      10.732   6.469  12.707  1.00  0.00    -0.263 N 
ATOM      3  H2  UNL     1      10.667   6.721  11.720  1.00  0.00     0.190 HD
HETATM    4  N3  UNL     1      10.648   7.286  13.704  1.00  0.00    -0.184 N 
HETATM    5  C2  UNL     1      10.788   6.606  14.931  1.00  0.00     0.155 A 
HETATM    6  C5  UNL     1      10.951   5.315  14.596  1.00  0.00     0.063 A 
ENDROOT
BRANCH   6   7
HETATM    7  C6  UNL     1      11.168   4.039  15.319  1.00  0.00     0.165 C 
HETATM    8  C7  UNL     1      12.643   3.725  15.205  1.00  0.00     0.070 C 
HETATM    9  C8  UNL     1      12.169   2.321  15.221  1.00  0.00     0.135 C 
HETATM   10  O2  UNL     1      10.957   2.848  14.601  1.00  0.00    -0.375 OA
BRANCH   9  11
HETATM   11  C9  UNL     1      11.840   1.799  16.603  1.00  0.00     0.114 C 
BRANCH  11  12
HETATM   12  S1  UNL     1      12.602   0.116  16.799  1.00  0.00    -0.089 SA
BRANCH  12  13
HETATM   13  C10 UNL     1      14.376   0.313  16.914  1.00  0.00     0.176 A 
HETATM   14  N7  UNL     1      15.242  -0.636  17.380  1.00  0.00    -0.263 N 
HETATM   15  N8  UNL     1      16.474  -0.118  17.369  1.00  0.00    -0.226 N 
ATOM     16  H7  UNL     1      14.992  -1.577  17.684  1.00  0.00     0.190 HD
HETATM   17  N9  UNL     1      16.430   1.116  16.914  1.00  0.00    -0.226 N 
ATOM     18  H8  UNL     1      17.319  -0.604  17.667  1.00  0.00     0.210 HD
HETATM   19  N10 UNL     1      15.123   1.359  16.639  1.00  0.00    -0.263 N 
ATOM     20  H9  UNL     1      17.214   1.757  16.794  1.00  0.00     0.210 HD
ATOM     21  H10 UNL     1      14.767   2.240  16.267  1.00  0.00     0.190 HD
ENDBRANCH  12  13
ENDBRANCH  11  12
ENDBRANCH   9  11
ENDBRANCH   6   7
BRANCH   1  22
HETATM   22  N1  UNL     1      10.992   4.195  12.442  1.00  0.00    -0.384 N 
ATOM     23  H12 UNL     1      11.464   4.110  11.542  1.00  0.00     0.157 HD
ATOM     24  H11 UNL     1      10.617   3.285  12.710  1.00  0.00     0.157 HD
ENDBRANCH   1  22
BRANCH   5  25
HETATM   25  N5  UNL     1      10.775   7.269  16.154  1.00  0.00    -0.343 N 
ATOM     26  H5  UNL     1      11.478   8.007  16.192  1.00  0.00     0.164 HD
BRANCH  25  27
HETATM   27  C3  UNL     1      10.043   7.186  17.349  1.00  0.00     0.281 A 
HETATM   28  O1  UNL     1      10.761   6.423  18.411  1.00  0.00    -0.326 OA
HETATM   29  C4  UNL     1      10.486   7.865  18.575  1.00  0.00     0.369 A 
BRANCH  29  30
HETATM   30  N6  UNL     1       9.450   8.094  19.543  1.00  0.00    -0.049 N 
ATOM     31  H63 UNL     1       8.696   8.645  19.131  1.00  0.00     0.277 HD
ATOM     32  H62 UNL     1       8.950   7.227  19.737  1.00  0.00     0.277 HD
ATOM     33  H61 UNL     1       9.767   8.523  20.413  1.00  0.00     0.277 HD
ENDBRANCH  29  30
ENDBRANCH  25  27
ENDBRANCH   5  25
BRANCH   4  34
HETATM   34  N4  UNL     1      10.456   8.654  13.607  1.00  0.00    -0.322 N 
ATOM     35  H42 UNL     1      11.193   9.339  13.774  1.00  0.00     0.179 HD
ATOM     36  H41 UNL     1       9.580   9.112  13.355  1.00  0.00     0.179 HD
ENDBRANCH   4  34
TORSDOF 9
ENDMDL
MODEL 4
REMARK VINA RESULT: -6.170667930      2.135      2.548
REMARK  9 active torsions:
REMARK  status: ('A' for Active; 'I' for Inactive)
REMARK    1  A    between atoms: N1_1  and  C1_4 
REMARK    2  A    between atoms: N3_7  and  N4_8 
REMARK    3  A    between atoms: C2_11  and  N5_12 
REMARK    4  A    between atoms: N5_12  and  C3_14 
REMARK    5  A    between atoms: C4_16  and  N6_17 
REMARK    6  A    between atoms: C5_21  and  C6_22 
REMARK    7  A    between atoms: C8_24  and  C9_25 
REMARK    8  A    between atoms: C9_25  and  S1_26 
REMARK    9  A    between atoms: S1_26  and  C10_27 
ROOT
HETATM    1  C1  UNL     1       9.576   8.436  13.185  1.00  0.00     0.128 A 
HETATM    2  N2  UNL     1      10.007   7.659  12.222  1.00  0.00    -0.263 N 
ATOM      3  H2  UNL     1       9.925   7.845  11.223  1.00  0.00     0.190 HD
HETATM    4  N3  UNL     1      10.552   6.615  12.755  1.00  0.00    -0.184 N 
HETATM    5  C2  UNL     1      10.488   6.672  14.163  1.00  0.00     0.155 A 
HETATM    6  C5  UNL     1       9.872   7.835  14.436  1.00  0.00     0.063 A 
ENDROOT
BRANCH   6   7
HETATM    7  C6  UNL     1       9.446   8.561  15.656  1.00  0.00     0.165 C 
HETATM    8  C7  UNL     1       8.839   7.529  16.582  1.00  0.00     0.070 C 
HETATM    9  C8  UNL     1       7.980   8.661  17.000  1.00  0.00     0.135 C 
HETATM   10  O2  UNL     1       8.171   9.154  15.640  1.00  0.00    -0.375 OA
BRANCH   9  11
HETATM   11  C9  UNL     1       8.644   9.609  17.975  1.00  0.00     0.114 C 
BRANCH  11  12
HETATM   12  S1  UNL     1       7.575   9.751  19.488  1.00  0.00    -0.089 SA
BRANCH  12  13
HETATM   13  C10 UNL     1       8.318   8.779  20.792  1.00  0.00     0.176 A 
HETATM   14  N7  UNL     1       8.333   9.124  22.115  1.00  0.00    -0.263 N 
HETATM   15  N8  UNL     1       9.018   8.188  22.781  1.00  0.00    -0.226 N 
ATOM     16  H7  UNL     1       7.898   9.951  22.524  1.00  0.00     0.190 HD
HETATM   17  N9  UNL     1       9.435   7.265  21.942  1.00  0.00    -0.226 N 
ATOM     18  H8  UNL     1       9.190   8.190  23.786  1.00  0.00     0.210 HD
HETATM   19  N10 UNL     1       8.990   7.652  20.720  1.00  0.00    -0.263 N 
ATOM     20  H9  UNL     1       9.981   6.432  22.164  1.00  0.00     0.210 HD
ATOM     21  H10 UNL     1       9.154   7.134  19.856  1.00  0.00     0.190 HD
ENDBRANCH  12  13
ENDBRANCH  11  12
ENDBRANCH   9  11
ENDBRANCH   6   7
BRANCH   1  22
HETATM   22  N1  UNL     1       9.020   9.592  12.994  1.00  0.00    -0.384 N 
ATOM     23  H12 UNL     1       9.496  10.468  12.775  1.00  0.00     0.157 HD
ATOM     24  H11 UNL     1       8.012   9.752  12.997  1.00  0.00     0.157 HD
ENDBRANCH   1  22
BRANCH   5  25
HETATM   25  N5  UNL     1      10.970   5.647  14.971  1.00  0.00    -0.343 N 
ATOM     26  H5  UNL     1      11.825   5.920  15.456  1.00  0.00     0.164 HD
BRANCH  25  27
HETATM   27  C3  UNL     1      10.586   4.336  15.291  1.00  0.00     0.281 A 
HETATM   28  O1  UNL     1      10.471   3.461  14.088  1.00  0.00    -0.326 OA
HETATM   29  C4  UNL     1      11.500   3.199  15.115  1.00  0.00     0.369 A 
BRANCH  29  30
HETATM   30  N6  UNL     1      11.174   2.040  15.899  1.00  0.00    -0.049 N 
ATOM     31  H63 UNL     1      10.647   2.312  16.730  1.00  0.00     0.277 HD
ATOM     32  H62 UNL     1      10.471   1.476  15.421  1.00  0.00     0.277 HD
ATOM     33  H61 UNL     1      11.974   1.463  16.160  1.00  0.00     0.277 HD
ENDBRANCH  29  30
ENDBRANCH  25  27
ENDBRANCH   5  25
BRANCH   4  34
HETATM   34  N4  UNL     1      11.122   5.563  12.059  1.00  0.00    -0.322 N 
ATOM     35  H42 UNL     1      10.679   4.650  11.958  1.00  0.00     0.179 HD
ATOM     36  H41 UNL     1      12.020   5.591  11.576  1.00  0.00     0.179 HD
ENDBRANCH   4  34
TORSDOF 9
ENDMDL
MODEL 5
REMARK VINA RESULT: -6.153312787      4.384      6.705
REMARK  9 active torsions:
REMARK  status: ('A' for Active; 'I' for Inactive)
REMARK    1  A    between atoms: N1_1  and  C1_4 
REMARK    2  A    between atoms: N3_7  and  N4_8 
REMARK    3  A    between atoms: C2_11  and  N5_12 
REMARK    4  A    between atoms: N5_12  and  C3_14 
REMARK    5  A    between atoms: C4_16  and  N6_17 
REMARK    6  A    between atoms: C5_21  and  C6_22 
REMARK    7  A    between atoms: C8_24  and  C9_25 
REMARK    8  A    between atoms: C9_25  and  S1_26 
REMARK    9  A    between atoms: S1_26  and  C10_27 
ROOT
HETATM    1  C1  UNL     1      10.906   6.575  16.151  1.00  0.00     0.128 A 
HETATM    2  N2  UNL     1      10.696   7.699  15.513  1.00  0.00    -0.263 N 
ATOM      3  H2  UNL     1      10.606   8.621  15.941  1.00  0.00     0.190 HD
HETATM    4  N3  UNL     1      10.623   7.442  14.249  1.00  0.00    -0.184 N 
HETATM    5  C2  UNL     1      10.784   6.063  14.001  1.00  0.00     0.155 A 
HETATM    6  C5  UNL     1      10.972   5.512  15.212  1.00  0.00     0.063 A 
ENDROOT
BRANCH   6   7
HETATM    7  C6  UNL     1      11.190   4.146  15.746  1.00  0.00     0.165 C 
HETATM    8  C7  UNL     1      12.586   3.738  15.328  1.00  0.00     0.070 C 
HETATM    9  C8  UNL     1      11.990   2.383  15.286  1.00  0.00     0.135 C 
HETATM   10  O2  UNL     1      10.744   3.069  14.961  1.00  0.00    -0.375 OA
BRANCH   9  11
HETATM   11  C9  UNL     1      11.861   1.725  16.643  1.00  0.00     0.114 C 
BRANCH  11  12
HETATM   12  S1  UNL     1      12.656   0.048  16.569  1.00  0.00    -0.089 SA
BRANCH  12  13
HETATM   13  C10 UNL     1      14.405   0.242  16.888  1.00  0.00     0.176 A 
HETATM   14  N7  UNL     1      15.131   1.368  16.615  1.00  0.00    -0.263 N 
HETATM   15  N8  UNL     1      16.407   1.128  16.936  1.00  0.00    -0.226 N 
ATOM     16  H7  UNL     1      14.764   2.240  16.234  1.00  0.00     0.190 HD
HETATM   17  N9  UNL     1      16.523  -0.097  17.401  1.00  0.00    -0.226 N 
ATOM     18  H8  UNL     1      17.173   1.793  16.834  1.00  0.00     0.210 HD
HETATM   19  N10 UNL     1      15.273  -0.624  17.362  1.00  0.00    -0.263 N 
ATOM     20  H9  UNL     1      17.375  -0.556  17.723  1.00  0.00     0.210 HD
ATOM     21  H10 UNL     1      15.037  -1.570  17.663  1.00  0.00     0.190 HD
ENDBRANCH  12  13
ENDBRANCH  11  12
ENDBRANCH   9  11
ENDBRANCH   6   7
BRANCH   1  22
HETATM   22  N1  UNL     1      11.079   6.486  17.433  1.00  0.00    -0.384 N 
ATOM     23  H12 UNL     1      11.736   5.874  17.918  1.00  0.00     0.157 HD
ATOM     24  H11 UNL     1      10.595   7.066  18.119  1.00  0.00     0.157 HD
ENDBRANCH   1  22
BRANCH   5  25
HETATM   25  N5  UNL     1      10.706   5.524  12.721  1.00  0.00    -0.343 N 
ATOM     26  H5  UNL     1      10.066   6.052  12.127  1.00  0.00     0.164 HD
BRANCH  25  27
HETATM   27  C3  UNL     1      11.280   4.443  12.035  1.00  0.00     0.281 A 
HETATM   28  O1  UNL     1      10.288   3.379  11.703  1.00  0.00    -0.326 OA
HETATM   29  C4  UNL     1      10.948   4.154  10.633  1.00  0.00     0.369 A 
BRANCH  29  30
HETATM   30  N6  UNL     1      11.921   3.359   9.936  1.00  0.00    -0.049 N 
ATOM     31  H63 UNL     1      11.603   3.162   8.987  1.00  0.00     0.277 HD
ATOM     32  H62 UNL     1      12.751   3.915   9.732  1.00  0.00     0.277 HD
ATOM     33  H61 UNL     1      12.182   2.494  10.409  1.00  0.00     0.277 HD
ENDBRANCH  29  30
ENDBRANCH  25  27
ENDBRANCH   5  25
BRANCH   4  34
HETATM   34  N4  UNL     1      10.406   8.377  13.251  1.00  0.00    -0.322 N 
ATOM     35  H42 UNL     1      10.223   9.363  13.434  1.00  0.00     0.179 HD
ATOM     36  H41 UNL     1      10.413   8.185  12.249  1.00  0.00     0.179 HD
ENDBRANCH   4  34
TORSDOF 9
ENDMDL
