MODEL 1
REMARK VINA RESULT: -8.855170596      0.000      0.000
REMARK  4 active torsions:
REMARK  status: ('A' for Active; 'I' for Inactive)
REMARK    1  A    between atoms: C4_6  and  N2_7 
REMARK    2  A    between atoms: N2_7  and  C5_9 
REMARK    3  A    between atoms: C10_18  and  C11_19 
REMARK       I    between atoms: N5_24  and  C16_26 
REMARK    4  A    between atoms: C16_26  and  C17_28 
ROOT
HETATM    1  C1  UNL     1      -1.547   2.168   9.411  1.00  0.00     0.052 C 
HETATM    2  C2  UNL     1      -2.301   3.394   9.181  1.00  0.00    -0.017 A 
HETATM    3  C3  UNL     1      -2.400   3.793   7.824  1.00  0.00     0.115 A 
HETATM    4  N1  UNL     1      -3.088   4.873   7.481  1.00  0.00    -0.201 N 
ATOM      5  H1  UNL     1      -3.164   5.166   6.508  1.00  0.00     0.183 HD
HETATM    6  C4  UNL     1      -3.679   5.562   8.466  1.00  0.00     0.684 A 
HETATM    7  N4  UNL     1      -3.591   5.197   9.740  1.00  0.00    -0.189 N 
ATOM      8  H4  UNL     1      -4.066   5.768  10.439  1.00  0.00     0.184 HD
HETATM    9  C10 UNL     1      -2.893   4.087  10.167  1.00  0.00     0.083 A 
ENDROOT
BRANCH   9  10
HETATM   10  C11 UNL     1      -2.886   3.783  11.576  1.00  0.00     0.061 A 
HETATM   11  C12 UNL     1      -2.226   4.716  12.405  1.00  0.00     0.032 A 
HETATM   12  C13 UNL     1      -2.142   4.634  13.751  1.00  0.00     0.006 A 
HETATM   13  C14 UNL     1      -2.738   3.566  14.379  1.00  0.00     0.049 A 
HETATM   14  C15 UNL     1      -3.378   2.656  13.591  1.00  0.00     0.108 A 
HETATM   15  N5  UNL     1      -3.959   1.623  14.149  1.00  0.00    -0.309 N 
HETATM   16  N6  UNL     1      -3.439   2.778  12.230  1.00  0.00    -0.341 N 
HETATM   17  C16 UNL     1      -3.922   1.458  15.542  1.00  0.00     0.257 C 
ATOM     18  H5  UNL     1      -4.440   0.936  13.569  1.00  0.00     0.170 HD
HETATM   19  O1  UNL     1      -2.979   0.863  16.129  1.00  0.00    -0.267 OA
ATOM     20  H6  UNL     1      -3.932   2.062  11.697  1.00  0.00     0.167 HD
BRANCH  17  21
HETATM   21  C17 UNL     1      -5.002   1.984  16.362  1.00  0.00     0.032 A 
HETATM   22  C18 UNL     1      -5.253   1.465  17.615  1.00  0.00     0.017 A 
HETATM   23  C19 UNL     1      -6.254   1.934  18.406  1.00  0.00     0.001 A 
HETATM   24  C20 UNL     1      -7.080   2.971  17.985  1.00  0.00     0.000 A 
HETATM   25  C21 UNL     1      -6.837   3.498  16.732  1.00  0.00     0.001 A 
HETATM   26  C22 UNL     1      -5.819   3.015  15.937  1.00  0.00     0.017 A 
ENDBRANCH  17  21
ENDBRANCH   9  10
BRANCH   6  27
HETATM   27  N2  UNL     1      -4.345   6.608   8.132  1.00  0.00    -0.176 N 
ATOM     28  H2  UNL     1      -4.233   7.018   7.205  1.00  0.00     0.186 HD
BRANCH  27  29
HETATM   29  C5  UNL     1      -5.237   7.185   9.064  1.00  0.00     0.120 A 
HETATM   30  C6  UNL     1      -4.924   8.418   9.587  1.00  0.00     0.049 A 
HETATM   31  C7  UNL     1      -5.766   9.000  10.489  1.00  0.00     0.005 A 
HETATM   32  C8  UNL     1      -6.914   8.300  10.835  1.00  0.00     0.017 A 
HETATM   33  C9  UNL     1      -7.193   7.063  10.286  1.00  0.00     0.089 A 
HETATM   34  N3  UNL     1      -6.350   6.526   9.411  1.00  0.00    -0.352 N 
ATOM     35  H3  UNL     1      -6.550   5.613   9.004  1.00  0.00     0.166 HD
ENDBRANCH  27  29
ENDBRANCH   6  27
TORSDOF 4
ENDMDL
MODEL 2
REMARK VINA RESULT: -8.785078784      3.721      8.990
REMARK  4 active torsions:
REMARK  status: ('A' for Active; 'I' for Inactive)
REMARK    1  A    between atoms: C4_6  and  N2_7 
REMARK    2  A    between atoms: N2_7  and  C5_9 
REMARK    3  A    between atoms: C10_18  and  C11_19 
REMARK       I    between atoms: N5_24  and  C16_26 
REMARK    4  A    between atoms: C16_26  and  C17_28 
ROOT
HETATM    1  C1  UNL     1      -3.104  -0.193  10.161  1.00  0.00     0.052 C 
HETATM    2  C2  UNL     1      -3.220   0.497  11.439  1.00  0.00    -0.017 A 
HETATM    3  C3  UNL     1      -3.921  -0.215  12.445  1.00  0.00     0.115 A 
HETATM    4  N1  UNL     1      -4.065   0.290  13.661  1.00  0.00    -0.201 N 
ATOM      5  H1  UNL     1      -4.568  -0.216  14.390  1.00  0.00     0.183 HD
HETATM    6  C4  UNL     1      -3.524   1.493  13.894  1.00  0.00     0.684 A 
HETATM    7  N4  UNL     1      -2.866   2.169  12.959  1.00  0.00    -0.189 N 
ATOM      8  H4  UNL     1      -2.479   3.080  13.204  1.00  0.00     0.184 HD
HETATM    9  C10 UNL     1      -2.679   1.703  11.674  1.00  0.00     0.083 A 
ENDROOT
BRANCH   9  10
HETATM   10  C11 UNL     1      -1.931   2.521  10.752  1.00  0.00     0.061 A 
HETATM   11  C12 UNL     1      -0.525   2.422  10.842  1.00  0.00     0.032 A 
HETATM   12  C13 UNL     1       0.350   3.073  10.045  1.00  0.00     0.006 A 
HETATM   13  C14 UNL     1      -0.147   3.900   9.065  1.00  0.00     0.049 A 
HETATM   14  C15 UNL     1      -1.504   4.005   8.967  1.00  0.00     0.108 A 
HETATM   15  N5  UNL     1      -2.019   4.782   8.048  1.00  0.00    -0.309 N 
HETATM   16  N6  UNL     1      -2.354   3.327   9.796  1.00  0.00    -0.341 N 
HETATM   17  C16 UNL     1      -1.185   5.496   7.175  1.00  0.00     0.257 C 
ATOM     18  H5  UNL     1      -3.032   4.869   7.965  1.00  0.00     0.170 HD
HETATM   19  O1  UNL     1      -0.729   6.637   7.455  1.00  0.00    -0.267 OA
ATOM     20  H6  UNL     1      -3.359   3.451   9.672  1.00  0.00     0.167 HD
BRANCH  17  21
HETATM   21  C17 UNL     1      -0.817   4.919   5.891  1.00  0.00     0.032 A 
HETATM   22  C18 UNL     1      -1.711   4.905   4.841  1.00  0.00     0.017 A 
HETATM   23  C19 UNL     1      -1.399   4.374   3.630  1.00  0.00     0.001 A 
HETATM   24  C20 UNL     1      -0.148   3.815   3.390  1.00  0.00     0.000 A 
HETATM   25  C21 UNL     1       0.756   3.824   4.433  1.00  0.00     0.001 A 
HETATM   26  C22 UNL     1       0.429   4.366   5.659  1.00  0.00     0.017 A 
ENDBRANCH  17  21
ENDBRANCH   9  10
BRANCH   6  27
HETATM   27  N2  UNL     1      -3.665   1.981  15.074  1.00  0.00    -0.176 N 
ATOM     28  H2  UNL     1      -2.974   2.631  15.450  1.00  0.00     0.186 HD
BRANCH  27  29
HETATM   29  C5  UNL     1      -4.789   1.608  15.845  1.00  0.00     0.120 A 
HETATM   30  C6  UNL     1      -5.888   2.434  15.836  1.00  0.00     0.049 A 
HETATM   31  C7  UNL     1      -6.987   2.100  16.571  1.00  0.00     0.005 A 
HETATM   32  C8  UNL     1      -6.933   0.921  17.302  1.00  0.00     0.017 A 
HETATM   33  C9  UNL     1      -5.809   0.118  17.285  1.00  0.00     0.089 A 
HETATM   34  N3  UNL     1      -4.756   0.475  16.558  1.00  0.00    -0.352 N 
ATOM     35  H3  UNL     1      -3.923  -0.113  16.543  1.00  0.00     0.166 HD
ENDBRANCH  27  29
ENDBRANCH   6  27
TORSDOF 4
ENDMDL
MODEL 3
REMARK VINA RESULT: -8.727803976      1.758      2.254
REMARK  4 active torsions:
REMARK  status: ('A' for Active; 'I' for Inactive)
REMARK    1  A    between atoms: C4_6  and  N2_7 
REMARK    2  A    between atoms: N2_7  and  C5_9 
REMARK    3  A    between atoms: C10_18  and  C11_19 
REMARK       I    between atoms: N5_24  and  C16_26 
REMARK    4  A    between atoms: C16_26  and  C17_28 
ROOT
HETATM    1  C1  UNL     1      -2.775   4.212   8.606  1.00  0.00     0.052 C 
HETATM    2  C2  UNL     1      -3.560   5.393   8.943  1.00  0.00    -0.017 A 
HETATM    3  C3  UNL     1      -3.873   6.237   7.847  1.00  0.00     0.115 A 
HETATM    4  N1  UNL     1      -4.610   7.326   8.017  1.00  0.00    -0.201 N 
ATOM      5  H1  UNL     1      -4.840   7.938   7.234  1.00  0.00     0.183 HD
HETATM    6  C4  UNL     1      -5.041   7.588   9.257  1.00  0.00     0.684 A 
HETATM    7  N4  UNL     1      -4.753   6.804  10.290  1.00  0.00    -0.189 N 
ATOM      8  H4  UNL     1      -5.113   7.063  11.208  1.00  0.00     0.184 HD
HETATM    9  C10 UNL     1      -3.992   5.659  10.185  1.00  0.00     0.083 A 
ENDROOT
BRANCH   9  10
HETATM   10  C11 UNL     1      -3.762   4.879  11.376  1.00  0.00     0.061 A 
HETATM   11  C12 UNL     1      -2.771   5.371  12.254  1.00  0.00     0.032 A 
HETATM   12  C13 UNL     1      -2.435   4.810  13.436  1.00  0.00     0.006 A 
HETATM   13  C14 UNL     1      -3.096   3.672  13.831  1.00  0.00     0.049 A 
HETATM   14  C15 UNL     1      -4.055   3.184  12.993  1.00  0.00     0.108 A 
HETATM   15  N5  UNL     1      -4.709   2.101  13.332  1.00  0.00    -0.309 N 
HETATM   16  N6  UNL     1      -4.364   3.784  11.804  1.00  0.00    -0.341 N 
HETATM   17  C16 UNL     1      -4.425   1.453  14.542  1.00  0.00     0.257 C 
ATOM     18  H5  UNL     1      -5.428   1.728  12.712  1.00  0.00     0.170 HD
HETATM   19  O1  UNL     1      -3.525   0.578  14.648  1.00  0.00    -0.267 OA
ATOM     20  H6  UNL     1      -5.091   3.369  11.221  1.00  0.00     0.167 HD
BRANCH  17  21
HETATM   21  C17 UNL     1      -5.186   1.785  15.738  1.00  0.00     0.032 A 
HETATM   22  C18 UNL     1      -5.048   1.043  16.892  1.00  0.00     0.017 A 
HETATM   23  C19 UNL     1      -5.743   1.327  18.024  1.00  0.00     0.001 A 
HETATM   24  C20 UNL     1      -6.637   2.392  18.073  1.00  0.00     0.000 A 
HETATM   25  C21 UNL     1      -6.783   3.142  16.923  1.00  0.00     0.001 A 
HETATM   26  C22 UNL     1      -6.072   2.846  15.779  1.00  0.00     0.017 A 
ENDBRANCH  17  21
ENDBRANCH   9  10
BRANCH   6  27
HETATM   27  N2  UNL     1      -5.756   8.643   9.419  1.00  0.00    -0.176 N 
ATOM     28  H2  UNL     1      -5.423   9.407  10.008  1.00  0.00     0.186 HD
BRANCH  27  29
HETATM   29  C5  UNL     1      -7.009   8.734   8.772  1.00  0.00     0.120 A 
HETATM   30  C6  UNL     1      -7.891   7.689   8.913  1.00  0.00     0.049 A 
HETATM   31  C7  UNL     1      -9.108   7.749   8.300  1.00  0.00     0.005 A 
HETATM   32  C8  UNL     1      -9.393   8.885   7.553  1.00  0.00     0.017 A 
HETATM   33  C9  UNL     1      -8.478   9.913   7.437  1.00  0.00     0.089 A 
HETATM   34  N3  UNL     1      -7.302   9.821   8.047  1.00  0.00    -0.352 N 
ATOM     35  H3  UNL     1      -6.623  10.577   7.963  1.00  0.00     0.166 HD
ENDBRANCH  27  29
ENDBRANCH   6  27
TORSDOF 4
ENDMDL
MODEL 4
REMARK VINA RESULT: -8.672532228      4.787      8.430
REMARK  4 active torsions:
REMARK  status: ('A' for Active; 'I' for Inactive)
REMARK    1  A    between atoms: C4_6  and  N2_7 
REMARK    2  A    between atoms: N2_7  and  C5_9 
REMARK    3  A    between atoms: C10_18  and  C11_19 
REMARK       I    between atoms: N5_24  and  C16_26 
REMARK    4  A    between atoms: C16_26  and  C17_28 
ROOT
HETATM    1  C1  UNL     1      -2.888   5.028  11.182  1.00  0.00     0.052 C 
HETATM    2  C2  UNL     1      -2.976   4.299  12.442  1.00  0.00    -0.017 A 
HETATM    3  C3  UNL     1      -3.482   2.979  12.338  1.00  0.00     0.115 A 
HETATM    4  N1  UNL     1      -3.579   2.201  13.407  1.00  0.00    -0.201 N 
ATOM      5  H1  UNL     1      -3.942   1.251  13.340  1.00  0.00     0.183 HD
HETATM    6  C4  UNL     1      -3.180   2.716  14.577  1.00  0.00     0.684 A 
HETATM    7  N4  UNL     1      -2.704   3.951  14.685  1.00  0.00    -0.189 N 
ATOM      8  H4  UNL     1      -2.418   4.279  15.608  1.00  0.00     0.184 HD
HETATM    9  C10 UNL     1      -2.577   4.812  13.616  1.00  0.00     0.083 A 
ENDROOT
BRANCH   9  10
HETATM   10  C11 UNL     1      -2.030   6.125  13.856  1.00  0.00     0.061 A 
HETATM   11  C12 UNL     1      -2.648   6.873  14.882  1.00  0.00     0.032 A 
HETATM   12  C13 UNL     1      -2.262   8.103  15.285  1.00  0.00     0.006 A 
HETATM   13  C14 UNL     1      -1.185   8.688  14.661  1.00  0.00     0.049 A 
HETATM   14  C15 UNL     1      -0.578   7.976  13.667  1.00  0.00     0.108 A 
HETATM   15  N5  UNL     1       0.450   8.497  13.046  1.00  0.00    -0.309 N 
HETATM   16  N6  UNL     1      -1.004   6.733  13.290  1.00  0.00    -0.341 N 
HETATM   17  C16 UNL     1       0.921   9.770  13.400  1.00  0.00     0.257 C 
ATOM     18  H5  UNL     1       0.912   7.975  12.302  1.00  0.00     0.170 HD
HETATM   19  O1  UNL     1       0.462  10.828  12.893  1.00  0.00    -0.267 OA
ATOM     20  H6  UNL     1      -0.507   6.254  12.539  1.00  0.00     0.167 HD
BRANCH  17  21
HETATM   21  C17 UNL     1       1.980   9.901  14.391  1.00  0.00     0.032 A 
HETATM   22  C18 UNL     1       3.245   9.414  14.139  1.00  0.00     0.017 A 
HETATM   23  C19 UNL     1       4.255   9.521  15.042  1.00  0.00     0.001 A 
HETATM   24  C20 UNL     1       4.058  10.134  16.275  1.00  0.00     0.000 A 
HETATM   25  C21 UNL     1       2.795  10.626  16.537  1.00  0.00     0.001 A 
HETATM   26  C22 UNL     1       1.776  10.513  15.614  1.00  0.00     0.017 A 
ENDBRANCH  17  21
ENDBRANCH   9  10
BRANCH   6  27
HETATM   27  N2  UNL     1      -3.274   1.960  15.612  1.00  0.00    -0.176 N 
ATOM     28  H2  UNL     1      -2.436   1.589  16.059  1.00  0.00     0.186 HD
BRANCH  27  29
HETATM   29  C5  UNL     1      -4.554   1.649  16.125  1.00  0.00     0.120 A 
HETATM   30  C6  UNL     1      -5.534   2.612  16.056  1.00  0.00     0.049 A 
HETATM   31  C7  UNL     1      -6.778   2.340  16.543  1.00  0.00     0.005 A 
HETATM   32  C8  UNL     1      -6.990   1.082  17.093  1.00  0.00     0.017 A 
HETATM   33  C9  UNL     1      -5.978   0.143  17.143  1.00  0.00     0.089 A 
HETATM   34  N3  UNL     1      -4.777   0.442  16.660  1.00  0.00    -0.352 N 
ATOM     35  H3  UNL     1      -4.027  -0.247  16.695  1.00  0.00     0.166 HD
ENDBRANCH  27  29
ENDBRANCH   6  27
TORSDOF 4
ENDMDL
MODEL 5
REMARK VINA RESULT: -8.611168059      4.426      8.253
REMARK  4 active torsions:
REMARK  status: ('A' for Active; 'I' for Inactive)
REMARK    1  A    between atoms: C4_6  and  N2_7 
REMARK    2  A    between atoms: N2_7  and  C5_9 
REMARK    3  A    between atoms: C10_18  and  C11_19 
REMARK       I    between atoms: N5_24  and  C16_26 
REMARK    4  A    between atoms: C16_26  and  C17_28 
ROOT
HETATM    1  C1  UNL     1      -2.229   1.093  10.320  1.00  0.00     0.052 C 
HETATM    2  C2  UNL     1      -2.693   1.738  11.542  1.00  0.00    -0.017 A 
HETATM    3  C3  UNL     1      -3.808   1.120  12.162  1.00  0.00     0.115 A 
HETATM    4  N1  UNL     1      -4.303   1.591  13.297  1.00  0.00    -0.201 N 
ATOM      5  H1  UNL     1      -5.105   1.152  13.749  1.00  0.00     0.183 HD
HETATM    6  C4  UNL     1      -3.707   2.668  13.825  1.00  0.00     0.684 A 
HETATM    7  N4  UNL     1      -2.663   3.255  13.253  1.00  0.00    -0.189 N 
ATOM      8  H4  UNL     1      -2.257   4.072  13.709  1.00  0.00     0.184 HD
HETATM    9  C10 UNL     1      -2.098   2.818  12.073  1.00  0.00     0.083 A 
ENDROOT
BRANCH   9  10
HETATM   10  C11 UNL     1      -0.953   3.528  11.558  1.00  0.00     0.061 A 
HETATM   11  C12 UNL     1      -1.227   4.517  10.588  1.00  0.00     0.032 A 
HETATM   12  C13 UNL     1      -0.301   5.315  10.013  1.00  0.00     0.006 A 
HETATM   13  C14 UNL     1       1.013   5.168  10.387  1.00  0.00     0.049 A 
HETATM   14  C15 UNL     1       1.292   4.215  11.323  1.00  0.00     0.108 A 
HETATM   15  N5  UNL     1       2.532   4.042  11.708  1.00  0.00    -0.309 N 
HETATM   16  N6  UNL     1       0.323   3.428  11.880  1.00  0.00    -0.341 N 
HETATM   17  C16 UNL     1       3.559   4.828  11.164  1.00  0.00     0.257 C 
ATOM     18  H5  UNL     1       2.752   3.333  12.407  1.00  0.00     0.170 HD
HETATM   19  O1  UNL     1       4.162   4.515  10.103  1.00  0.00    -0.267 OA
ATOM     20  H6  UNL     1       0.598   2.733  12.573  1.00  0.00     0.167 HD
BRANCH  17  21
HETATM   21  C17 UNL     1       3.961   6.058  11.831  1.00  0.00     0.032 A 
HETATM   22  C18 UNL     1       4.501   6.028  13.099  1.00  0.00     0.017 A 
HETATM   23  C19 UNL     1       4.886   7.157  13.750  1.00  0.00     0.001 A 
HETATM   24  C20 UNL     1       4.754   8.410  13.159  1.00  0.00     0.000 A 
HETATM   25  C21 UNL     1       4.215   8.451  11.889  1.00  0.00     0.001 A 
HETATM   26  C22 UNL     1       3.827   7.299  11.237  1.00  0.00     0.017 A 
ENDBRANCH  17  21
ENDBRANCH   9  10
BRANCH   6  27
HETATM   27  N2  UNL     1      -4.188   3.124  14.926  1.00  0.00    -0.176 N 
ATOM     28  H2  UNL     1      -3.981   4.076  15.225  1.00  0.00     0.186 HD
BRANCH  27  29
HETATM   29  C5  UNL     1      -5.009   2.289  15.718  1.00  0.00     0.120 A 
HETATM   30  C6  UNL     1      -6.312   2.674  15.935  1.00  0.00     0.049 A 
HETATM   31  C7  UNL     1      -7.128   1.889  16.695  1.00  0.00     0.005 A 
HETATM   32  C8  UNL     1      -6.586   0.721  17.218  1.00  0.00     0.017 A 
HETATM   33  C9  UNL     1      -5.272   0.371  16.977  1.00  0.00     0.089 A 
HETATM   34  N3  UNL     1      -4.506   1.160  16.232  1.00  0.00    -0.352 N 
ATOM     35  H3  UNL     1      -3.535   0.906  16.052  1.00  0.00     0.166 HD
ENDBRANCH  27  29
ENDBRANCH   6  27
TORSDOF 4
ENDMDL
