MODEL 1
REMARK VINA RESULT: -9.578651211      0.000      0.000
REMARK  4 active torsions:
REMARK  status: ('A' for Active; 'I' for Inactive)
REMARK    1  A    between atoms: C3_3  and  C4_4 
REMARK    2  A    between atoms: C7_7  and  C8_8 
REMARK    3  A    between atoms: C14_17  and  N2_18 
REMARK       I    between atoms: N2_18  and  C15_20 
REMARK    4  A    between atoms: C15_20  and  C16_22 
ROOT
HETATM    1  C1  UNL     1      -2.931   2.491   9.664  1.00  0.00     0.056 C 
HETATM    2  C2  UNL     1      -3.296   1.823  10.937  1.00  0.00     0.037 A 
HETATM    3  C3  UNL     1      -3.638   2.608  12.017  1.00  0.00     0.094 A 
HETATM    4  N1  UNL     1      -3.967   2.003  13.163  1.00  0.00    -0.188 N 
ATOM      5  H1  UNL     1      -4.219   2.588  13.959  1.00  0.00     0.184 HD
HETATM    6  C14 UNL     1      -3.985   0.666  13.331  1.00  0.00     0.688 A 
HETATM    7  N4  UNL     1      -3.651  -0.101  12.278  1.00  0.00    -0.155 N 
ATOM      8  H4  UNL     1      -3.656  -1.115  12.378  1.00  0.00     0.187 HD
HETATM    9  C21 UNL     1      -3.311   0.442  11.099  1.00  0.00     0.267 A 
HETATM   10  O3  UNL     1      -2.997  -0.261  10.106  1.00  0.00    -0.267 OA
ENDROOT
BRANCH   3  11
HETATM   11  C4  UNL     1      -3.632   4.057  11.879  1.00  0.00     0.104 A 
HETATM   12  C5  UNL     1      -2.547   4.859  12.197  1.00  0.00     0.042 A 
HETATM   13  C6  UNL     1      -2.913   6.160  11.936  1.00  0.00     0.041 A 
HETATM   14  C7  UNL     1      -4.210   6.105  11.470  1.00  0.00     0.086 A 
HETATM   15  O1  UNL     1      -4.553   4.859  11.466  1.00  0.00    -0.308 OA
BRANCH  14  16
HETATM   16  C8  UNL     1      -4.989   7.286  11.070  1.00  0.00    -0.002 A 
HETATM   17  C9  UNL     1      -4.377   8.387  10.516  1.00  0.00     0.014 A 
HETATM   18  C10 UNL     1      -5.082   9.508  10.132  1.00  0.00     0.001 A 
HETATM   19  C11 UNL     1      -6.448   9.533  10.306  1.00  0.00     0.000 A 
HETATM   20  C12 UNL     1      -7.083   8.441  10.858  1.00  0.00     0.001 A 
HETATM   21  C13 UNL     1      -6.357   7.326  11.237  1.00  0.00     0.014 A 
ENDBRANCH  14  16
ENDBRANCH   3  11
BRANCH   6  22
HETATM   22  N2  UNL     1      -4.315   0.128  14.475  1.00  0.00    -0.155 N 
HETATM   23  C15 UNL     1      -4.014   0.861  15.647  1.00  0.00     0.270 C 
HETATM   24  O2  UNL     1      -2.856   0.925  16.129  1.00  0.00    -0.267 OA
ATOM     25  H2  UNL     1      -4.770  -0.783  14.521  1.00  0.00     0.187 HD
BRANCH  23  26
HETATM   26  C16 UNL     1      -5.083   1.576  16.328  1.00  0.00     0.035 A 
HETATM   27  C17 UNL     1      -5.610   1.096  17.511  1.00  0.00     0.034 A 
HETATM   28  C18 UNL     1      -6.615   1.800  18.118  1.00  0.00     0.088 A 
HETATM   29  N3  UNL     1      -7.097   2.939  17.594  1.00  0.00    -0.375 N 
HETATM   30  C19 UNL     1      -6.586   3.413  16.439  1.00  0.00     0.088 A 
ATOM     31  H3  UNL     1      -7.847   3.444  18.067  1.00  0.00     0.164 HD
HETATM   32  C20 UNL     1      -5.582   2.738  15.803  1.00  0.00     0.034 A 
ENDBRANCH  23  26
ENDBRANCH   6  22
TORSDOF 4
ENDMDL
MODEL 2
REMARK VINA RESULT: -9.401956515      2.414      2.906
REMARK  4 active torsions:
REMARK  status: ('A' for Active; 'I' for Inactive)
REMARK    1  A    between atoms: C3_3  and  C4_4 
REMARK    2  A    between atoms: C7_7  and  C8_8 
REMARK    3  A    between atoms: C14_17  and  N2_18 
REMARK       I    between atoms: N2_18  and  C15_20 
REMARK    4  A    between atoms: C15_20  and  C16_22 
ROOT
HETATM    1  C1  UNL     1      -1.910   2.262   9.894  1.00  0.00     0.056 C 
HETATM    2  C2  UNL     1      -2.599   1.642  11.052  1.00  0.00     0.037 A 
HETATM    3  C3  UNL     1      -2.574   2.302  12.262  1.00  0.00     0.094 A 
HETATM    4  N1  UNL     1      -3.197   1.740  13.303  1.00  0.00    -0.188 N 
ATOM      5  H1  UNL     1      -3.175   2.231  14.197  1.00  0.00     0.184 HD
HETATM    6  C14 UNL     1      -3.852   0.564  13.245  1.00  0.00     0.688 A 
HETATM    7  N4  UNL     1      -3.876  -0.080  12.065  1.00  0.00    -0.155 N 
ATOM      8  H4  UNL     1      -4.364  -0.972  11.993  1.00  0.00     0.187 HD
HETATM    9  C21 UNL     1      -3.272   0.428  10.980  1.00  0.00     0.267 A 
HETATM   10  O3  UNL     1      -3.286  -0.162   9.871  1.00  0.00    -0.267 OA
ENDROOT
BRANCH   3  11
HETATM   11  C4  UNL     1      -1.878   3.575  12.368  1.00  0.00     0.104 A 
HETATM   12  C5  UNL     1      -0.579   3.784  11.934  1.00  0.00     0.042 A 
HETATM   13  C6  UNL     1      -0.268   5.099  12.199  1.00  0.00     0.041 A 
HETATM   14  C7  UNL     1      -1.390   5.644  12.787  1.00  0.00     0.086 A 
HETATM   15  O1  UNL     1      -2.274   4.703  12.850  1.00  0.00    -0.308 OA
BRANCH  14  16
HETATM   16  C8  UNL     1      -1.486   7.042  13.231  1.00  0.00    -0.002 A 
HETATM   17  C9  UNL     1      -1.537   7.362  14.569  1.00  0.00     0.014 A 
HETATM   18  C10 UNL     1      -1.626   8.664  15.014  1.00  0.00     0.001 A 
HETATM   19  C11 UNL     1      -1.666   9.686  14.092  1.00  0.00     0.000 A 
HETATM   20  C12 UNL     1      -1.615   9.390  12.746  1.00  0.00     0.001 A 
HETATM   21  C13 UNL     1      -1.526   8.077  12.321  1.00  0.00     0.014 A 
ENDBRANCH  14  16
ENDBRANCH   3  11
BRANCH   6  22
HETATM   22  N2  UNL     1      -4.443   0.062  14.296  1.00  0.00    -0.155 N 
HETATM   23  C15 UNL     1      -4.151   0.651  15.548  1.00  0.00     0.270 C 
HETATM   24  O2  UNL     1      -3.084   0.427  16.171  1.00  0.00    -0.267 OA
ATOM     25  H2  UNL     1      -5.090  -0.724  14.217  1.00  0.00     0.187 HD
BRANCH  23  26
HETATM   26  C16 UNL     1      -5.120   1.557  16.148  1.00  0.00     0.035 A 
HETATM   27  C17 UNL     1      -5.577   2.660  15.454  1.00  0.00     0.034 A 
HETATM   28  C18 UNL     1      -6.488   3.486  16.056  1.00  0.00     0.088 A 
HETATM   29  N3  UNL     1      -6.943   3.250  17.298  1.00  0.00    -0.375 N 
HETATM   30  C19 UNL     1      -6.500   2.175  17.980  1.00  0.00     0.088 A 
ATOM     31  H3  UNL     1      -7.622   3.882  17.723  1.00  0.00     0.164 HD
HETATM   32  C20 UNL     1      -5.590   1.327  17.413  1.00  0.00     0.034 A 
ENDBRANCH  23  26
ENDBRANCH   6  22
TORSDOF 4
ENDMDL
MODEL 3
REMARK VINA RESULT: -9.334995165      2.865      4.458
REMARK  4 active torsions:
REMARK  status: ('A' for Active; 'I' for Inactive)
REMARK    1  A    between atoms: C3_3  and  C4_4 
REMARK    2  A    between atoms: C7_7  and  C8_8 
REMARK    3  A    between atoms: C14_17  and  N2_18 
REMARK       I    between atoms: N2_18  and  C15_20 
REMARK    4  A    between atoms: C15_20  and  C16_22 
ROOT
HETATM    1  C1  UNL     1      -1.855   1.594   9.636  1.00  0.00     0.056 C 
HETATM    2  C2  UNL     1      -2.542   1.131  10.867  1.00  0.00     0.037 A 
HETATM    3  C3  UNL     1      -2.454   1.911  12.001  1.00  0.00     0.094 A 
HETATM    4  N1  UNL     1      -3.074   1.491  13.108  1.00  0.00    -0.188 N 
ATOM      5  H1  UNL     1      -3.007   2.072  13.944  1.00  0.00     0.184 HD
HETATM    6  C14 UNL     1      -3.783   0.348  13.188  1.00  0.00     0.688 A 
HETATM    7  N4  UNL     1      -3.868  -0.413  12.083  1.00  0.00    -0.155 N 
ATOM      8  H4  UNL     1      -4.397  -1.283  12.116  1.00  0.00     0.187 HD
HETATM    9  C21 UNL     1      -3.270  -0.050  10.938  1.00  0.00     0.267 A 
HETATM   10  O3  UNL     1      -3.341  -0.751   9.897  1.00  0.00    -0.267 OA
ENDROOT
BRANCH   3  11
HETATM   11  C4  UNL     1      -1.699   3.154  11.958  1.00  0.00     0.104 A 
HETATM   12  C5  UNL     1      -2.272   4.411  12.080  1.00  0.00     0.042 A 
HETATM   13  C6  UNL     1      -1.252   5.332  11.991  1.00  0.00     0.041 A 
HETATM   14  C7  UNL     1      -0.095   4.603  11.816  1.00  0.00     0.086 A 
HETATM   15  O1  UNL     1      -0.435   3.357  11.807  1.00  0.00    -0.308 OA
BRANCH  14  16
HETATM   16  C8  UNL     1       1.239   5.205  11.675  1.00  0.00    -0.002 A 
HETATM   17  C9  UNL     1       2.315   4.458  11.251  1.00  0.00     0.014 A 
HETATM   18  C10 UNL     1       3.577   4.995  11.109  1.00  0.00     0.001 A 
HETATM   19  C11 UNL     1       3.775   6.327  11.401  1.00  0.00     0.000 A 
HETATM   20  C12 UNL     1       2.712   7.095  11.826  1.00  0.00     0.001 A 
HETATM   21  C13 UNL     1       1.454   6.536  11.963  1.00  0.00     0.014 A 
ENDBRANCH  14  16
ENDBRANCH   3  11
BRANCH   6  22
HETATM   22  N2  UNL     1      -4.369  -0.013  14.299  1.00  0.00    -0.155 N 
HETATM   23  C15 UNL     1      -4.080   0.742  15.460  1.00  0.00     0.270 C 
HETATM   24  O2  UNL     1      -3.011   0.613  16.104  1.00  0.00    -0.267 OA
ATOM     25  H2  UNL     1      -5.009  -0.807  14.328  1.00  0.00     0.187 HD
BRANCH  23  26
HETATM   26  C16 UNL     1      -5.056   1.712  15.934  1.00  0.00     0.035 A 
HETATM   27  C17 UNL     1      -5.290   2.879  15.232  1.00  0.00     0.034 A 
HETATM   28  C18 UNL     1      -6.216   3.763  15.715  1.00  0.00     0.088 A 
HETATM   29  N3  UNL     1      -6.898   3.525  16.848  1.00  0.00    -0.375 N 
HETATM   30  C19 UNL     1      -6.674   2.388  17.537  1.00  0.00     0.088 A 
ATOM     31  H3  UNL     1      -7.583   4.202  17.185  1.00  0.00     0.164 HD
HETATM   32  C20 UNL     1      -5.757   1.481  17.088  1.00  0.00     0.034 A 
ENDBRANCH  23  26
ENDBRANCH   6  22
TORSDOF 4
ENDMDL
MODEL 4
REMARK VINA RESULT: -9.317364844      2.868      4.366
REMARK  4 active torsions:
REMARK  status: ('A' for Active; 'I' for Inactive)
REMARK    1  A    between atoms: C3_3  and  C4_4 
REMARK    2  A    between atoms: C7_7  and  C8_8 
REMARK    3  A    between atoms: C14_17  and  N2_18 
REMARK       I    between atoms: N2_18  and  C15_20 
REMARK    4  A    between atoms: C15_20  and  C16_22 
ROOT
HETATM    1  C1  UNL     1      -1.869   1.647   9.642  1.00  0.00     0.056 C 
HETATM    2  C2  UNL     1      -2.554   1.174  10.871  1.00  0.00     0.037 A 
HETATM    3  C3  UNL     1      -2.460   1.940  12.013  1.00  0.00     0.094 A 
HETATM    4  N1  UNL     1      -3.079   1.511  13.117  1.00  0.00    -0.188 N 
ATOM      5  H1  UNL     1      -3.005   2.081  13.960  1.00  0.00     0.184 HD
HETATM    6  C14 UNL     1      -3.794   0.371  13.186  1.00  0.00     0.688 A 
HETATM    7  N4  UNL     1      -3.886  -0.377  12.072  1.00  0.00    -0.155 N 
ATOM      8  H4  UNL     1      -4.420  -1.244  12.097  1.00  0.00     0.187 HD
HETATM    9  C21 UNL     1      -3.290  -0.004  10.930  1.00  0.00     0.267 A 
HETATM   10  O3  UNL     1      -3.367  -0.692   9.881  1.00  0.00    -0.267 OA
ENDROOT
BRANCH   3  11
HETATM   11  C4  UNL     1      -1.697   3.179  11.982  1.00  0.00     0.104 A 
HETATM   12  C5  UNL     1      -2.259   4.436  12.148  1.00  0.00     0.042 A 
HETATM   13  C6  UNL     1      -1.236   5.353  12.057  1.00  0.00     0.041 A 
HETATM   14  C7  UNL     1      -0.087   4.622  11.838  1.00  0.00     0.086 A 
HETATM   15  O1  UNL     1      -0.436   3.378  11.806  1.00  0.00    -0.308 OA
BRANCH  14  16
HETATM   16  C8  UNL     1       1.247   5.218  11.680  1.00  0.00    -0.002 A 
HETATM   17  C9  UNL     1       1.467   6.551  11.946  1.00  0.00     0.014 A 
HETATM   18  C10 UNL     1       2.707   7.137  11.808  1.00  0.00     0.001 A 
HETATM   19  C11 UNL     1       3.769   6.367  11.387  1.00  0.00     0.000 A 
HETATM   20  C12 UNL     1       3.573   5.030  11.115  1.00  0.00     0.001 A 
HETATM   21  C13 UNL     1       2.320   4.462  11.260  1.00  0.00     0.014 A 
ENDBRANCH  14  16
ENDBRANCH   3  11
BRANCH   6  22
HETATM   22  N2  UNL     1      -4.379   0.000  14.294  1.00  0.00    -0.155 N 
HETATM   23  C15 UNL     1      -4.089   0.745  15.461  1.00  0.00     0.270 C 
HETATM   24  O2  UNL     1      -3.018   0.611  16.103  1.00  0.00    -0.267 OA
ATOM     25  H2  UNL     1      -5.018  -0.794  14.316  1.00  0.00     0.187 HD
BRANCH  23  26
HETATM   26  C16 UNL     1      -5.064   1.711  15.944  1.00  0.00     0.035 A 
HETATM   27  C17 UNL     1      -5.778   1.473  17.102  1.00  0.00     0.034 A 
HETATM   28  C18 UNL     1      -6.686   2.408  17.521  1.00  0.00     0.088 A 
HETATM   29  N3  UNL     1      -6.897   3.545  16.835  1.00  0.00    -0.375 N 
HETATM   30  C19 UNL     1      -6.203   3.782  15.704  1.00  0.00     0.088 A 
ATOM     31  H3  UNL     1      -7.580   4.225  17.170  1.00  0.00     0.164 HD
HETATM   32  C20 UNL     1      -5.288   2.872  15.254  1.00  0.00     0.034 A 
ENDBRANCH  23  26
ENDBRANCH   6  22
TORSDOF 4
ENDMDL
MODEL 5
REMARK VINA RESULT: -9.294654551      0.857      1.158
REMARK  4 active torsions:
REMARK  status: ('A' for Active; 'I' for Inactive)
REMARK    1  A    between atoms: C3_3  and  C4_4 
REMARK    2  A    between atoms: C7_7  and  C8_8 
REMARK    3  A    between atoms: C14_17  and  N2_18 
REMARK       I    between atoms: N2_18  and  C15_20 
REMARK    4  A    between atoms: C15_20  and  C16_22 
ROOT
HETATM    1  C1  UNL     1      -2.711   2.880   9.762  1.00  0.00     0.056 C 
HETATM    2  C2  UNL     1      -3.126   2.168  10.996  1.00  0.00     0.037 A 
HETATM    3  C3  UNL     1      -3.814   2.872  11.962  1.00  0.00     0.094 A 
HETATM    4  N1  UNL     1      -4.186   2.226  13.072  1.00  0.00    -0.188 N 
ATOM      5  H1  UNL     1      -4.694   2.751  13.783  1.00  0.00     0.184 HD
HETATM    6  C14 UNL     1      -3.933   0.925  13.308  1.00  0.00     0.688 A 
HETATM    7  N4  UNL     1      -3.262   0.238  12.367  1.00  0.00    -0.155 N 
ATOM      8  H4  UNL     1      -3.056  -0.749  12.520  1.00  0.00     0.187 HD
HETATM    9  C21 UNL     1      -2.858   0.824  11.229  1.00  0.00     0.267 A 
HETATM   10  O3  UNL     1      -2.231   0.196  10.340  1.00  0.00    -0.267 OA
ENDROOT
BRANCH   3  11
HETATM   11  C4  UNL     1      -4.109   4.280  11.746  1.00  0.00     0.104 A 
HETATM   12  C5  UNL     1      -3.420   5.316  12.357  1.00  0.00     0.042 A 
HETATM   13  C6  UNL     1      -3.979   6.494  11.912  1.00  0.00     0.041 A 
HETATM   14  C7  UNL     1      -4.989   6.132  11.046  1.00  0.00     0.086 A 
HETATM   15  O1  UNL     1      -5.001   4.840  11.004  1.00  0.00    -0.308 OA
BRANCH  14  16
HETATM   16  C8  UNL     1      -5.848   7.094  10.340  1.00  0.00    -0.002 A 
HETATM   17  C9  UNL     1      -6.848   6.669   9.494  1.00  0.00     0.014 A 
HETATM   18  C10 UNL     1      -7.668   7.548   8.820  1.00  0.00     0.001 A 
HETATM   19  C11 UNL     1      -7.487   8.902   8.995  1.00  0.00     0.000 A 
HETATM   20  C12 UNL     1      -6.492   9.352   9.838  1.00  0.00     0.001 A 
HETATM   21  C13 UNL     1      -5.680   8.452  10.504  1.00  0.00     0.014 A 
ENDBRANCH  14  16
ENDBRANCH   3  11
BRANCH   6  22
HETATM   22  N2  UNL     1      -4.322   0.345  14.412  1.00  0.00    -0.155 N 
HETATM   23  C15 UNL     1      -4.005   0.991  15.630  1.00  0.00     0.270 C 
HETATM   24  O2  UNL     1      -2.857   0.955  16.139  1.00  0.00    -0.267 OA
ATOM     25  H2  UNL     1      -4.833  -0.538  14.397  1.00  0.00     0.187 HD
BRANCH  23  26
HETATM   26  C16 UNL     1      -5.044   1.731  16.330  1.00  0.00     0.035 A 
HETATM   27  C17 UNL     1      -5.483   1.326  17.575  1.00  0.00     0.034 A 
HETATM   28  C18 UNL     1      -6.462   2.051  18.198  1.00  0.00     0.088 A 
HETATM   29  N3  UNL     1      -7.003   3.142  17.629  1.00  0.00    -0.375 N 
HETATM   30  C19 UNL     1      -6.579   3.543  16.413  1.00  0.00     0.088 A 
ATOM     31  H3  UNL     1      -7.732   3.665  18.115  1.00  0.00     0.164 HD
HETATM   32  C20 UNL     1      -5.603   2.844  15.760  1.00  0.00     0.034 A 
ENDBRANCH  23  26
ENDBRANCH   6  22
TORSDOF 4
ENDMDL
