MODEL 1
REMARK VINA RESULT: -9.012644497      0.000      0.000
REMARK  6 active torsions:
REMARK  status: ('A' for Active; 'I' for Inactive)
REMARK    1  A    between atoms: C2_2  and  C3_4 
REMARK    2  A    between atoms: C6_7  and  C7_8 
REMARK    3  A    between atoms: C8_9  and  C9_10 
REMARK    4  A    between atoms: C11_14  and  N2_15 
REMARK    5  A    between atoms: N2_15  and  C12_17 
REMARK    6  A    between atoms: C12_17  and  C14_19 
ROOT
HETATM    1  C9  UNL     1      -4.928   5.260  10.130  1.00  0.00     0.164 A 
HETATM    2  N1  UNL     1      -4.768   4.972  11.420  1.00  0.00    -0.329 N 
ATOM      3  H1  UNL     1      -5.269   5.433  12.181  1.00  0.00     0.168 HD
HETATM    4  C10 UNL     1      -3.855   3.987  11.590  1.00  0.00     0.123 A 
HETATM    5  C11 UNL     1      -3.353   3.351  12.706  1.00  0.00     0.133 A 
HETATM    6  N3  UNL     1      -2.433   2.395  12.493  1.00  0.00    -0.337 N 
ATOM      7  H3  UNL     1      -2.039   1.904  13.296  1.00  0.00     0.168 HD
HETATM    8  C20 UNL     1      -2.008   2.057  11.245  1.00  0.00     0.183 A 
HETATM    9  N4  UNL     1      -2.511   2.688  10.186  1.00  0.00    -0.337 N 
ATOM     10  H4  UNL     1      -2.188   2.430   9.253  1.00  0.00     0.168 HD
HETATM   11  C21 UNL     1      -3.435   3.657  10.316  1.00  0.00     0.139 A 
HETATM   12  N5  UNL     1      -4.090   4.432   9.441  1.00  0.00    -0.319 N 
ATOM     13  H5  UNL     1      -3.980   4.408   8.427  1.00  0.00     0.169 HD
ENDROOT
BRANCH   1  14
HETATM   14  C8  UNL     1      -5.820   6.254   9.604  1.00  0.00    -0.025 C 
HETATM   15  C7  UNL     1      -6.580   7.074   9.155  1.00  0.00    -0.059 C 
BRANCH  15  16
HETATM   16  C6  UNL     1      -7.514   8.047   8.606  1.00  0.00     0.018 A 
HETATM   17  C5  UNL     1      -8.766   7.622   8.290  1.00  0.00     0.021 A 
HETATM   18  C4  UNL     1      -9.678   8.531   7.763  1.00  0.00     0.016 A 
HETATM   19  C3  UNL     1      -9.320   9.862   7.560  1.00  0.00     0.009 A 
HETATM   20  C23 UNL     1      -8.052  10.292   7.882  1.00  0.00     0.016 A 
HETATM   21  C22 UNL     1      -7.181   9.356   8.400  1.00  0.00     0.021 A 
BRANCH  19  22
HETATM   22  C2  UNL     1     -10.276  10.797   7.013  1.00  0.00     0.155 C 
HETATM   23  C1  UNL     1     -10.929  10.608   5.690  1.00  0.00     0.096 C 
HETATM   24  O1  UNL     1     -10.581  11.825   7.674  1.00  0.00    -0.293 OA
ENDBRANCH  19  22
ENDBRANCH  15  16
ENDBRANCH   1  14
BRANCH   5  25
HETATM   25  N2  UNL     1      -3.748   3.663  13.888  1.00  0.00    -0.366 N 
ATOM     26  H2  UNL     1      -3.037   3.927  14.570  1.00  0.00     0.161 HD
BRANCH  25  27
HETATM   27  C12 UNL     1      -5.110   3.666  14.315  1.00  0.00     0.112 C 
HETATM   28  C13 UNL     1      -5.352   5.007  15.020  1.00  0.00     0.037 C 
BRANCH  27  29
HETATM   29  C14 UNL     1      -5.346   2.622  15.359  1.00  0.00    -0.036 A 
HETATM   30  C15 UNL     1      -4.635   1.462  15.446  1.00  0.00     0.009 A 
HETATM   31  C16 UNL     1      -4.891   0.521  16.435  1.00  0.00     0.001 A 
HETATM   32  C17 UNL     1      -5.885   0.772  17.344  1.00  0.00     0.000 A 
HETATM   33  C18 UNL     1      -6.616   1.942  17.272  1.00  0.00     0.001 A 
HETATM   34  C19 UNL     1      -6.347   2.878  16.273  1.00  0.00     0.009 A 
ENDBRANCH  27  29
ENDBRANCH  25  27
ENDBRANCH   5  25
TORSDOF 6
ENDMDL
MODEL 2
REMARK VINA RESULT: -8.948141080      0.936      1.344
REMARK  6 active torsions:
REMARK  status: ('A' for Active; 'I' for Inactive)
REMARK    1  A    between atoms: C2_2  and  C3_4 
REMARK    2  A    between atoms: C6_7  and  C7_8 
REMARK    3  A    between atoms: C8_9  and  C9_10 
REMARK    4  A    between atoms: C11_14  and  N2_15 
REMARK    5  A    between atoms: N2_15  and  C12_17 
REMARK    6  A    between atoms: C12_17  and  C14_19 
ROOT
HETATM    1  C9  UNL     1      -4.571   4.629  10.021  1.00  0.00     0.164 A 
HETATM    2  N1  UNL     1      -4.631   3.999  11.192  1.00  0.00    -0.329 N 
ATOM      3  H1  UNL     1      -5.304   4.213  11.928  1.00  0.00     0.168 HD
HETATM    4  C10 UNL     1      -3.682   3.037  11.276  1.00  0.00     0.123 A 
HETATM    5  C11 UNL     1      -3.344   2.132  12.261  1.00  0.00     0.133 A 
HETATM    6  N3  UNL     1      -2.320   1.304  11.995  1.00  0.00    -0.337 N 
ATOM      7  H3  UNL     1      -2.042   0.623  12.701  1.00  0.00     0.168 HD
HETATM    8  C20 UNL     1      -1.640   1.342  10.816  1.00  0.00     0.183 A 
HETATM    9  N4  UNL     1      -1.989   2.226   9.883  1.00  0.00    -0.337 N 
ATOM     10  H4  UNL     1      -1.475   2.250   9.002  1.00  0.00     0.168 HD
HETATM   11  C21 UNL     1      -3.003   3.090  10.075  1.00  0.00     0.139 A 
HETATM   12  N5  UNL     1      -3.548   4.055   9.323  1.00  0.00    -0.319 N 
ATOM     13  H5  UNL     1      -3.249   4.318   8.384  1.00  0.00     0.169 HD
ENDROOT
BRANCH   1  14
HETATM   14  C8  UNL     1      -5.432   5.700   9.607  1.00  0.00    -0.025 C 
HETATM   15  C7  UNL     1      -6.159   6.590   9.242  1.00  0.00    -0.059 C 
BRANCH  15  16
HETATM   16  C6  UNL     1      -7.040   7.653   8.781  1.00  0.00     0.018 A 
HETATM   17  C5  UNL     1      -8.289   7.311   8.366  1.00  0.00     0.021 A 
HETATM   18  C4  UNL     1      -9.153   8.307   7.920  1.00  0.00     0.016 A 
HETATM   19  C3  UNL     1      -8.748   9.641   7.896  1.00  0.00     0.009 A 
HETATM   20  C23 UNL     1      -7.485   9.986   8.318  1.00  0.00     0.016 A 
HETATM   21  C22 UNL     1      -6.662   8.965   8.751  1.00  0.00     0.021 A 
BRANCH  19  22
HETATM   22  C2  UNL     1      -9.654  10.667   7.432  1.00  0.00     0.155 C 
HETATM   23  C1  UNL     1     -10.693  10.422   6.397  1.00  0.00     0.096 C 
HETATM   24  O1  UNL     1      -9.572  11.827   7.915  1.00  0.00    -0.293 OA
ENDBRANCH  19  22
ENDBRANCH  15  16
ENDBRANCH   1  14
BRANCH   5  25
HETATM   25  N2  UNL     1      -3.980   2.089  13.376  1.00  0.00    -0.366 N 
ATOM     26  H2  UNL     1      -4.374   1.193  13.662  1.00  0.00     0.161 HD
BRANCH  25  27
HETATM   27  C12 UNL     1      -4.174   3.206  14.245  1.00  0.00     0.112 C 
HETATM   28  C13 UNL     1      -2.796   3.578  14.806  1.00  0.00     0.037 C 
BRANCH  27  29
HETATM   29  C14 UNL     1      -4.995   2.821  15.435  1.00  0.00    -0.036 A 
HETATM   30  C15 UNL     1      -6.102   3.502  15.846  1.00  0.00     0.009 A 
HETATM   31  C16 UNL     1      -6.832   3.106  16.958  1.00  0.00     0.001 A 
HETATM   32  C17 UNL     1      -6.423   2.001  17.657  1.00  0.00     0.000 A 
HETATM   33  C18 UNL     1      -5.303   1.298  17.256  1.00  0.00     0.001 A 
HETATM   34  C19 UNL     1      -4.580   1.708  16.136  1.00  0.00     0.009 A 
ENDBRANCH  27  29
ENDBRANCH  25  27
ENDBRANCH   5  25
TORSDOF 6
ENDMDL
MODEL 3
REMARK VINA RESULT: -8.871457904      0.987      1.703
REMARK  6 active torsions:
REMARK  status: ('A' for Active; 'I' for Inactive)
REMARK    1  A    between atoms: C2_2  and  C3_4 
REMARK    2  A    between atoms: C6_7  and  C7_8 
REMARK    3  A    between atoms: C8_9  and  C9_10 
REMARK    4  A    between atoms: C11_14  and  N2_15 
REMARK    5  A    between atoms: N2_15  and  C12_17 
REMARK    6  A    between atoms: C12_17  and  C14_19 
ROOT
HETATM    1  C9  UNL     1      -4.460   4.717  10.100  1.00  0.00     0.164 A 
HETATM    2  N1  UNL     1      -4.686   3.883  11.112  1.00  0.00    -0.329 N 
ATOM      3  H1  UNL     1      -5.529   3.888  11.688  1.00  0.00     0.168 HD
HETATM    4  C10 UNL     1      -3.650   3.026  11.277  1.00  0.00     0.123 A 
HETATM    5  C11 UNL     1      -3.411   1.999  12.166  1.00  0.00     0.133 A 
HETATM    6  N3  UNL     1      -2.244   1.345  12.033  1.00  0.00    -0.337 N 
ATOM      7  H3  UNL     1      -2.034   0.580  12.674  1.00  0.00     0.168 HD
HETATM    8  C20 UNL     1      -1.333   1.667  11.074  1.00  0.00     0.183 A 
HETATM    9  N4  UNL     1      -1.593   2.663  10.230  1.00  0.00    -0.337 N 
ATOM     10  H4  UNL     1      -0.906   2.900   9.513  1.00  0.00     0.168 HD
HETATM   11  C21 UNL     1      -2.737   3.367  10.298  1.00  0.00     0.139 A 
HETATM   12  N5  UNL     1      -3.237   4.390   9.592  1.00  0.00    -0.319 N 
ATOM     13  H5  UNL     1      -2.779   4.848   8.804  1.00  0.00     0.169 HD
ENDROOT
BRANCH   1  14
HETATM   14  C8  UNL     1      -5.354   5.749   9.657  1.00  0.00    -0.025 C 
HETATM   15  C7  UNL     1      -6.109   6.605   9.269  1.00  0.00    -0.059 C 
BRANCH  15  16
HETATM   16  C6  UNL     1      -7.024   7.626   8.779  1.00  0.00     0.018 A 
HETATM   17  C5  UNL     1      -8.275   7.239   8.412  1.00  0.00     0.021 A 
HETATM   18  C4  UNL     1      -9.170   8.194   7.941  1.00  0.00     0.016 A 
HETATM   19  C3  UNL     1      -8.796   9.533   7.844  1.00  0.00     0.009 A 
HETATM   20  C23 UNL     1      -7.530   9.924   8.217  1.00  0.00     0.016 A 
HETATM   21  C22 UNL     1      -6.676   8.943   8.677  1.00  0.00     0.021 A 
BRANCH  19  22
HETATM   22  C2  UNL     1      -9.734  10.516   7.354  1.00  0.00     0.155 C 
HETATM   23  C1  UNL     1     -10.712  10.233   6.269  1.00  0.00     0.096 C 
HETATM   24  O1  UNL     1      -9.738  11.671   7.857  1.00  0.00    -0.293 OA
ENDBRANCH  19  22
ENDBRANCH  15  16
ENDBRANCH   1  14
BRANCH   5  25
HETATM   25  N2  UNL     1      -4.264   1.688  13.074  1.00  0.00    -0.366 N 
ATOM     26  H2  UNL     1      -5.222   1.502  12.779  1.00  0.00     0.161 HD
BRANCH  25  27
HETATM   27  C12 UNL     1      -3.968   1.584  14.467  1.00  0.00     0.112 C 
HETATM   28  C13 UNL     1      -4.153   0.111  14.853  1.00  0.00     0.037 C 
BRANCH  27  29
HETATM   29  C14 UNL     1      -4.968   2.336  15.285  1.00  0.00    -0.036 A 
HETATM   30  C15 UNL     1      -5.372   3.609  15.009  1.00  0.00     0.009 A 
HETATM   31  C16 UNL     1      -6.305   4.267  15.798  1.00  0.00     0.001 A 
HETATM   32  C17 UNL     1      -6.831   3.614  16.882  1.00  0.00     0.000 A 
HETATM   33  C18 UNL     1      -6.435   2.324  17.178  1.00  0.00     0.001 A 
HETATM   34  C19 UNL     1      -5.496   1.675  16.375  1.00  0.00     0.009 A 
ENDBRANCH  27  29
ENDBRANCH  25  27
ENDBRANCH   5  25
TORSDOF 6
ENDMDL
MODEL 4
REMARK VINA RESULT: -8.697709183      1.067      1.973
REMARK  6 active torsions:
REMARK  status: ('A' for Active; 'I' for Inactive)
REMARK    1  A    between atoms: C2_2  and  C3_4 
REMARK    2  A    between atoms: C6_7  and  C7_8 
REMARK    3  A    between atoms: C8_9  and  C9_10 
REMARK    4  A    between atoms: C11_14  and  N2_15 
REMARK    5  A    between atoms: N2_15  and  C12_17 
REMARK    6  A    between atoms: C12_17  and  C14_19 
ROOT
HETATM    1  C9  UNL     1      -4.501   4.751  10.106  1.00  0.00     0.164 A 
HETATM    2  N1  UNL     1      -4.718   3.898  11.105  1.00  0.00    -0.329 N 
ATOM      3  H1  UNL     1      -5.569   3.872  11.668  1.00  0.00     0.168 HD
HETATM    4  C10 UNL     1      -3.660   3.070  11.276  1.00  0.00     0.123 A 
HETATM    5  C11 UNL     1      -3.404   2.040  12.156  1.00  0.00     0.133 A 
HETATM    6  N3  UNL     1      -2.217   1.421  12.034  1.00  0.00    -0.337 N 
ATOM      7  H3  UNL     1      -1.994   0.655  12.669  1.00  0.00     0.168 HD
HETATM    8  C20 UNL     1      -1.302   1.781  11.092  1.00  0.00     0.183 A 
HETATM    9  N4  UNL     1      -1.577   2.779  10.255  1.00  0.00    -0.337 N 
ATOM     10  H4  UNL     1      -0.887   3.044   9.552  1.00  0.00     0.168 HD
HETATM   11  C21 UNL     1      -2.743   3.448  10.315  1.00  0.00     0.139 A 
HETATM   12  N5  UNL     1      -3.262   4.465   9.613  1.00  0.00    -0.319 N 
ATOM     13  H5  UNL     1      -2.805   4.946   8.838  1.00  0.00     0.169 HD
ENDROOT
BRANCH   1  14
HETATM   14  C8  UNL     1      -5.419   5.762   9.662  1.00  0.00    -0.025 C 
HETATM   15  C7  UNL     1      -6.177   6.614   9.273  1.00  0.00    -0.059 C 
BRANCH  15  16
HETATM   16  C6  UNL     1      -7.078   7.647   8.784  1.00  0.00     0.018 A 
HETATM   17  C5  UNL     1      -6.625   8.929   8.757  1.00  0.00     0.021 A 
HETATM   18  C4  UNL     1      -7.466   9.937   8.295  1.00  0.00     0.016 A 
HETATM   19  C3  UNL     1      -8.758   9.643   7.863  1.00  0.00     0.009 A 
HETATM   20  C23 UNL     1      -9.215   8.345   7.889  1.00  0.00     0.016 A 
HETATM   21  C22 UNL     1      -8.348   7.379   8.357  1.00  0.00     0.021 A 
BRANCH  19  22
HETATM   22  C2  UNL     1      -9.622  10.697   7.384  1.00  0.00     0.155 C 
HETATM   23  C1  UNL     1      -9.501  12.110   7.832  1.00  0.00     0.096 C 
HETATM   24  O1  UNL     1     -10.524  10.425   6.549  1.00  0.00    -0.293 OA
ENDBRANCH  19  22
ENDBRANCH  15  16
ENDBRANCH   1  14
BRANCH   5  25
HETATM   25  N2  UNL     1      -4.261   1.693  13.048  1.00  0.00    -0.366 N 
ATOM     26  H2  UNL     1      -5.223   1.542  12.746  1.00  0.00     0.161 HD
BRANCH  25  27
HETATM   27  C12 UNL     1      -3.964   1.505  14.432  1.00  0.00     0.112 C 
HETATM   28  C13 UNL     1      -4.142   0.010  14.726  1.00  0.00     0.037 C 
BRANCH  27  29
HETATM   29  C14 UNL     1      -4.969   2.200  15.294  1.00  0.00    -0.036 A 
HETATM   30  C15 UNL     1      -5.592   1.615  16.356  1.00  0.00     0.009 A 
HETATM   31  C16 UNL     1      -6.519   2.303  17.128  1.00  0.00     0.001 A 
HETATM   32  C17 UNL     1      -6.811   3.602  16.808  1.00  0.00     0.000 A 
HETATM   33  C18 UNL     1      -6.190   4.212  15.735  1.00  0.00     0.001 A 
HETATM   34  C19 UNL     1      -5.260   3.509  14.969  1.00  0.00     0.009 A 
ENDBRANCH  27  29
ENDBRANCH  25  27
ENDBRANCH   5  25
TORSDOF 6
ENDMDL
MODEL 5
REMARK VINA RESULT: -8.660759639      1.343      2.381
REMARK  6 active torsions:
REMARK  status: ('A' for Active; 'I' for Inactive)
REMARK    1  A    between atoms: C2_2  and  C3_4 
REMARK    2  A    between atoms: C6_7  and  C7_8 
REMARK    3  A    between atoms: C8_9  and  C9_10 
REMARK    4  A    between atoms: C11_14  and  N2_15 
REMARK    5  A    between atoms: N2_15  and  C12_17 
REMARK    6  A    between atoms: C12_17  and  C14_19 
ROOT
HETATM    1  C9  UNL     1      -4.362   4.189  10.064  1.00  0.00     0.164 A 
HETATM    2  N1  UNL     1      -4.536   3.428  11.143  1.00  0.00    -0.329 N 
ATOM      3  H1  UNL     1      -5.276   3.564  11.832  1.00  0.00     0.168 HD
HETATM    4  C10 UNL     1      -3.599   2.452  11.206  1.00  0.00     0.123 A 
HETATM    5  C11 UNL     1      -3.359   1.436  12.107  1.00  0.00     0.133 A 
HETATM    6  N3  UNL     1      -2.314   0.632  11.845  1.00  0.00    -0.337 N 
ATOM      7  H3  UNL     1      -2.105  -0.129  12.491  1.00  0.00     0.168 HD
HETATM    8  C20 UNL     1      -1.523   0.797  10.749  1.00  0.00     0.183 A 
HETATM    9  N4  UNL     1      -1.781   1.788   9.896  1.00  0.00    -0.337 N 
ATOM     10  H4  UNL     1      -1.185   1.907   9.077  1.00  0.00     0.168 HD
HETATM   11  C21 UNL     1      -2.808   2.635  10.089  1.00  0.00     0.139 A 
HETATM   12  N5  UNL     1      -3.278   3.687   9.406  1.00  0.00    -0.319 N 
ATOM     13  H5  UNL     1      -2.889   4.053   8.537  1.00  0.00     0.169 HD
ENDROOT
BRANCH   1  14
HETATM   14  C8  UNL     1      -5.179   5.311   9.697  1.00  0.00    -0.025 C 
HETATM   15  C7  UNL     1      -5.861   6.249   9.370  1.00  0.00    -0.059 C 
BRANCH  15  16
HETATM   16  C6  UNL     1      -6.678   7.379   8.951  1.00  0.00     0.018 A 
HETATM   17  C5  UNL     1      -6.121   8.619   8.991  1.00  0.00     0.021 A 
HETATM   18  C4  UNL     1      -6.879   9.717   8.596  1.00  0.00     0.016 A 
HETATM   19  C3  UNL     1      -8.195   9.554   8.165  1.00  0.00     0.009 A 
HETATM   20  C23 UNL     1      -8.757   8.299   8.124  1.00  0.00     0.016 A 
HETATM   21  C22 UNL     1      -7.968   7.240   8.525  1.00  0.00     0.021 A 
BRANCH  19  22
HETATM   22  C2  UNL     1      -8.972  10.701   7.756  1.00  0.00     0.155 C 
HETATM   23  C1  UNL     1     -10.306  10.587   7.107  1.00  0.00     0.096 C 
HETATM   24  O1  UNL     1      -8.515  11.858   7.949  1.00  0.00    -0.293 OA
ENDBRANCH  19  22
ENDBRANCH  15  16
ENDBRANCH   1  14
BRANCH   5  25
HETATM   25  N2  UNL     1      -4.099   1.272  13.144  1.00  0.00    -0.366 N 
ATOM     26  H2  UNL     1      -4.997   0.807  13.015  1.00  0.00     0.161 HD
BRANCH  25  27
HETATM   27  C12 UNL     1      -3.754   1.693  14.464  1.00  0.00     0.112 C 
HETATM   28  C13 UNL     1      -4.363   0.669  15.430  1.00  0.00     0.037 C 
BRANCH  27  29
HETATM   29  C14 UNL     1      -4.411   2.993  14.799  1.00  0.00    -0.036 A 
HETATM   30  C15 UNL     1      -3.822   4.210  14.617  1.00  0.00     0.009 A 
HETATM   31  C16 UNL     1      -4.474   5.392  14.944  1.00  0.00     0.001 A 
HETATM   32  C17 UNL     1      -5.739   5.327  15.463  1.00  0.00     0.000 A 
HETATM   33  C18 UNL     1      -6.352   4.103  15.655  1.00  0.00     0.001 A 
HETATM   34  C19 UNL     1      -5.686   2.924  15.321  1.00  0.00     0.009 A 
ENDBRANCH  27  29
ENDBRANCH  25  27
ENDBRANCH   5  25
TORSDOF 6
ENDMDL
