MODEL 1
REMARK VINA RESULT: -8.263475689      0.000      0.000
REMARK  4 active torsions:
REMARK  status: ('A' for Active; 'I' for Inactive)
REMARK    1  A    between atoms: C2_2  and  C3_3 
REMARK       I    between atoms: C3_3  and  N1_5 
REMARK    2  A    between atoms: N1_5  and  C4_7 
REMARK    3  A    between atoms: C6_9  and  C7_10 
REMARK    4  A    between atoms: C10_13  and  C11_14 
ROOT
HETATM    1  C7  UNL     1      -4.114   3.511  12.625  1.00  0.00    -0.009 A 
HETATM    2  C8  UNL     1      -3.732   3.779  11.335  1.00  0.00     0.014 A 
HETATM    3  C9  UNL     1      -3.738   5.082  10.857  1.00  0.00     0.013 A 
HETATM    4  C10 UNL     1      -4.117   6.148  11.627  1.00  0.00    -0.024 A 
HETATM    5  C18 UNL     1      -4.495   5.860  12.911  1.00  0.00     0.013 A 
HETATM    6  C19 UNL     1      -4.501   4.572  13.421  1.00  0.00     0.014 A 
ENDROOT
BRANCH   1   7
HETATM    7  C6  UNL     1      -4.126   2.152  13.179  1.00  0.00     0.046 A 
HETATM    8  C5  UNL     1      -4.258   1.891  14.525  1.00  0.00     0.079 A 
HETATM    9  C4  UNL     1      -4.265   0.594  15.022  1.00  0.00     0.110 A 
HETATM   10  N4  UNL     1      -4.139  -0.419  14.162  1.00  0.00    -0.338 N 
HETATM   11  C20 UNL     1      -4.009  -0.201  12.836  1.00  0.00     0.182 A 
ATOM     12  H4  UNL     1      -4.142  -1.377  14.513  1.00  0.00     0.168 HD
HETATM   13  N3  UNL     1      -4.005   1.081  12.377  1.00  0.00    -0.352 N 
ATOM     14  H3  UNL     1      -3.905   1.236  11.374  1.00  0.00     0.166 HD
BRANCH   9  15
HETATM   15  N1  UNL     1      -4.389   0.408  16.265  1.00  0.00    -0.309 N 
HETATM   16  C3  UNL     1      -5.635   0.474  16.946  1.00  0.00     0.245 C 
HETATM   17  O1  UNL     1      -6.635  -0.067  16.417  1.00  0.00    -0.268 OA
ATOM     18  H1  UNL     1      -3.551   0.201  16.809  1.00  0.00     0.170 HD
BRANCH  16  19
HETATM   19  C2  UNL     1      -5.758   1.144  18.218  1.00  0.00     0.064 C 
HETATM   20  C1  UNL     1      -6.267   2.377  18.327  1.00  0.00     0.017 C 
ENDBRANCH  16  19
ENDBRANCH   9  15
ENDBRANCH   1   7
BRANCH   4  21
HETATM   21  C11 UNL     1      -4.058   7.546  11.091  1.00  0.00    -0.002 A 
HETATM   22  C12 UNL     1      -2.904   8.274  11.303  1.00  0.00     0.063 A 
HETATM   23  S1  UNL     1      -3.251   9.784  10.621  1.00  0.00    -0.100 SA
HETATM   24  C13 UNL     1      -4.837   9.486  10.075  1.00  0.00     0.022 A 
HETATM   25  C14 UNL     1      -5.802  10.253   9.391  1.00  0.00     0.037 A 
HETATM   26  C17 UNL     1      -5.063   8.190  10.446  1.00  0.00     0.061 A 
HETATM   27  C15 UNL     1      -7.030   9.720   9.061  1.00  0.00     0.092 A 
HETATM   28  N2  UNL     1      -7.214   8.445   9.440  1.00  0.00    -0.333 N 
HETATM   29  C16 UNL     1      -6.330   7.686  10.087  1.00  0.00     0.257 A 
ATOM     30  H2  UNL     1      -8.111   8.019   9.212  1.00  0.00     0.168 HD
HETATM   31  O2  UNL     1      -6.685   6.513  10.352  1.00  0.00    -0.267 OA
ENDBRANCH   4  21
TORSDOF 4
ENDMDL
MODEL 2
REMARK VINA RESULT: -8.111149131      5.008      8.551
REMARK  4 active torsions:
REMARK  status: ('A' for Active; 'I' for Inactive)
REMARK    1  A    between atoms: C2_2  and  C3_3 
REMARK       I    between atoms: C3_3  and  N1_5 
REMARK    2  A    between atoms: N1_5  and  C4_7 
REMARK    3  A    between atoms: C6_9  and  C7_10 
REMARK    4  A    between atoms: C10_13  and  C11_14 
ROOT
HETATM    1  C7  UNL     1      -1.705   4.253  12.361  1.00  0.00    -0.009 A 
HETATM    2  C8  UNL     1      -2.922   3.786  11.931  1.00  0.00     0.014 A 
HETATM    3  C9  UNL     1      -3.934   3.522  12.843  1.00  0.00     0.013 A 
HETATM    4  C10 UNL     1      -3.780   3.707  14.191  1.00  0.00    -0.024 A 
HETATM    5  C18 UNL     1      -2.559   4.173  14.599  1.00  0.00     0.013 A 
HETATM    6  C19 UNL     1      -1.527   4.447  13.717  1.00  0.00     0.014 A 
ENDROOT
BRANCH   1   7
HETATM    7  C6  UNL     1      -0.602   4.548  11.438  1.00  0.00     0.046 A 
HETATM    8  C5  UNL     1       0.594   5.094  11.849  1.00  0.00     0.079 A 
HETATM    9  C4  UNL     1       1.621   5.362  10.954  1.00  0.00     0.110 A 
HETATM   10  N4  UNL     1       1.432   5.081   9.663  1.00  0.00    -0.338 N 
HETATM   11  C20 UNL     1       0.273   4.545   9.225  1.00  0.00     0.182 A 
ATOM     12  H4  UNL     1       2.178   5.275   8.994  1.00  0.00     0.168 HD
HETATM   13  N3  UNL     1      -0.717   4.291  10.125  1.00  0.00    -0.352 N 
ATOM     14  H3  UNL     1      -1.589   3.886   9.785  1.00  0.00     0.166 HD
BRANCH   9  15
HETATM   15  N1  UNL     1       2.699   5.864  11.381  1.00  0.00    -0.309 N 
HETATM   16  C3  UNL     1       3.898   5.118  11.544  1.00  0.00     0.245 C 
HETATM   17  O1  UNL     1       4.228   4.311  10.644  1.00  0.00    -0.268 OA
ATOM     18  H1  UNL     1       2.709   6.855  11.621  1.00  0.00     0.170 HD
BRANCH  16  19
HETATM   19  C2  UNL     1       4.725   5.279  12.716  1.00  0.00     0.064 C 
HETATM   20  C1  UNL     1       4.715   6.402  13.445  1.00  0.00     0.017 C 
ENDBRANCH  16  19
ENDBRANCH   9  15
ENDBRANCH   1   7
BRANCH   4  21
HETATM   21  C11 UNL     1      -4.915   3.461  15.138  1.00  0.00    -0.002 A 
HETATM   22  C12 UNL     1      -5.790   4.500  15.385  1.00  0.00     0.063 A 
HETATM   23  S1  UNL     1      -6.862   3.860  16.526  1.00  0.00    -0.100 SA
HETATM   24  C13 UNL     1      -6.205   2.295  16.680  1.00  0.00     0.022 A 
HETATM   25  C14 UNL     1      -6.545   1.155  17.435  1.00  0.00     0.037 A 
HETATM   26  C17 UNL     1      -5.143   2.311  15.820  1.00  0.00     0.061 A 
HETATM   27  C15 UNL     1      -5.812  -0.009  17.335  1.00  0.00     0.092 A 
HETATM   28  N2  UNL     1      -4.780   0.045  16.480  1.00  0.00    -0.333 N 
HETATM   29  C16 UNL     1      -4.423   1.101  15.748  1.00  0.00     0.257 A 
ATOM     30  H2  UNL     1      -4.216  -0.799  16.381  1.00  0.00     0.168 HD
HETATM   31  O2  UNL     1      -3.427   0.955  15.001  1.00  0.00    -0.267 OA
ENDBRANCH   4  21
TORSDOF 4
ENDMDL
MODEL 3
REMARK VINA RESULT: -8.069298545      1.445      2.121
REMARK  4 active torsions:
REMARK  status: ('A' for Active; 'I' for Inactive)
REMARK    1  A    between atoms: C2_2  and  C3_3 
REMARK       I    between atoms: C3_3  and  N1_5 
REMARK    2  A    between atoms: N1_5  and  C4_7 
REMARK    3  A    between atoms: C6_9  and  C7_10 
REMARK    4  A    between atoms: C10_13  and  C11_14 
ROOT
HETATM    1  C7  UNL     1      -4.413   4.507  11.527  1.00  0.00    -0.009 A 
HETATM    2  C8  UNL     1      -4.967   5.507  12.287  1.00  0.00     0.014 A 
HETATM    3  C9  UNL     1      -5.277   6.734  11.716  1.00  0.00     0.013 A 
HETATM    4  C10 UNL     1      -5.054   7.009  10.394  1.00  0.00    -0.024 A 
HETATM    5  C18 UNL     1      -4.502   5.999   9.653  1.00  0.00     0.013 A 
HETATM    6  C19 UNL     1      -4.179   4.764  10.189  1.00  0.00     0.014 A 
ENDROOT
BRANCH   1   7
HETATM    7  C6  UNL     1      -4.066   3.194  12.082  1.00  0.00     0.046 A 
HETATM    8  C5  UNL     1      -4.119   2.912  13.430  1.00  0.00     0.079 A 
HETATM    9  C4  UNL     1      -3.785   1.659  13.928  1.00  0.00     0.110 A 
HETATM   10  N4  UNL     1      -3.402   0.712  13.069  1.00  0.00    -0.338 N 
HETATM   11  C20 UNL     1      -3.339   0.954  11.742  1.00  0.00     0.182 A 
ATOM     12  H4  UNL     1      -3.152  -0.212  13.422  1.00  0.00     0.168 HD
HETATM   13  N3  UNL     1      -3.673   2.190  11.281  1.00  0.00    -0.352 N 
ATOM     14  H3  UNL     1      -3.621   2.363  10.277  1.00  0.00     0.166 HD
BRANCH   9  15
HETATM   15  N1  UNL     1      -3.850   1.451  15.172  1.00  0.00    -0.309 N 
HETATM   16  C3  UNL     1      -4.649   0.428  15.753  1.00  0.00     0.245 C 
HETATM   17  O1  UNL     1      -4.657  -0.703  15.215  1.00  0.00    -0.268 OA
ATOM     18  H1  UNL     1      -3.302   2.047  15.792  1.00  0.00     0.170 HD
BRANCH  16  19
HETATM   19  C2  UNL     1      -5.437   0.677  16.937  1.00  0.00     0.064 C 
HETATM   20  C1  UNL     1      -6.756   0.894  16.881  1.00  0.00     0.017 C 
ENDBRANCH  16  19
ENDBRANCH   9  15
ENDBRANCH   1   7
BRANCH   4  21
HETATM   21  C11 UNL     1      -5.454   8.327   9.803  1.00  0.00    -0.002 A 
HETATM   22  C12 UNL     1      -4.634   9.414  10.030  1.00  0.00     0.063 A 
HETATM   23  S1  UNL     1      -5.444  10.693   9.273  1.00  0.00    -0.100 SA
HETATM   24  C13 UNL     1      -6.800   9.851   8.678  1.00  0.00     0.022 A 
HETATM   25  C14 UNL     1      -7.935  10.218   7.926  1.00  0.00     0.037 A 
HETATM   26  C17 UNL     1      -6.584   8.567   9.093  1.00  0.00     0.061 A 
HETATM   27  C15 UNL     1      -8.886   9.285   7.571  1.00  0.00     0.092 A 
HETATM   28  N2  UNL     1      -8.637   8.036   7.994  1.00  0.00    -0.333 N 
HETATM   29  C16 UNL     1      -7.580   7.646   8.707  1.00  0.00     0.257 A 
ATOM     30  H2  UNL     1      -9.320   7.320   7.749  1.00  0.00     0.168 HD
HETATM   31  O2  UNL     1      -7.522   6.430   9.005  1.00  0.00    -0.267 OA
ENDBRANCH   4  21
TORSDOF 4
ENDMDL
MODEL 4
REMARK VINA RESULT: -8.062203494      4.793      8.857
REMARK  4 active torsions:
REMARK  status: ('A' for Active; 'I' for Inactive)
REMARK    1  A    between atoms: C2_2  and  C3_3 
REMARK       I    between atoms: C3_3  and  N1_5 
REMARK    2  A    between atoms: N1_5  and  C4_7 
REMARK    3  A    between atoms: C6_9  and  C7_10 
REMARK    4  A    between atoms: C10_13  and  C11_14 
ROOT
HETATM    1  C7  UNL     1      -1.390   3.635  12.221  1.00  0.00    -0.009 A 
HETATM    2  C8  UNL     1      -1.334   4.179  13.480  1.00  0.00     0.014 A 
HETATM    3  C9  UNL     1      -2.429   4.098  14.329  1.00  0.00     0.013 A 
HETATM    4  C10 UNL     1      -3.599   3.485  13.968  1.00  0.00    -0.024 A 
HETATM    5  C18 UNL     1      -3.634   2.949  12.709  1.00  0.00     0.013 A 
HETATM    6  C19 UNL     1      -2.561   3.012  11.835  1.00  0.00     0.014 A 
ENDROOT
BRANCH   1   7
HETATM    7  C6  UNL     1      -0.261   3.695  11.285  1.00  0.00     0.046 A 
HETATM    8  C5  UNL     1      -0.382   3.399   9.945  1.00  0.00     0.079 A 
HETATM    9  C4  UNL     1       0.704   3.464   9.081  1.00  0.00     0.110 A 
HETATM   10  N4  UNL     1       1.891   3.822   9.575  1.00  0.00    -0.338 N 
HETATM   11  C20 UNL     1       2.046   4.119  10.882  1.00  0.00     0.182 A 
ATOM     12  H4  UNL     1       2.698   3.872   8.951  1.00  0.00     0.168 HD
HETATM   13  N3  UNL     1       0.965   4.048  11.706  1.00  0.00    -0.352 N 
ATOM     14  H3  UNL     1       1.091   4.273  12.693  1.00  0.00     0.166 HD
BRANCH   9  15
HETATM   15  N1  UNL     1       0.541   3.183   7.860  1.00  0.00    -0.309 N 
HETATM   16  C3  UNL     1       1.604   3.152   6.916  1.00  0.00     0.245 C 
HETATM   17  O1  UNL     1       2.685   2.615   7.250  1.00  0.00    -0.268 OA
ATOM     18  H1  UNL     1      -0.402   2.968   7.535  1.00  0.00     0.170 HD
BRANCH  16  19
HETATM   19  C2  UNL     1       1.450   3.723   5.599  1.00  0.00     0.064 C 
HETATM   20  C1  UNL     1       0.275   4.186   5.157  1.00  0.00     0.017 C 
ENDBRANCH  16  19
ENDBRANCH   9  15
ENDBRANCH   1   7
BRANCH   4  21
HETATM   21  C11 UNL     1      -4.739   3.371  14.933  1.00  0.00    -0.002 A 
HETATM   22  C12 UNL     1      -5.551   4.473  15.112  1.00  0.00     0.063 A 
HETATM   23  S1  UNL     1      -6.650   3.975  16.298  1.00  0.00    -0.100 SA
HETATM   24  C13 UNL     1      -6.082   2.389  16.556  1.00  0.00     0.022 A 
HETATM   25  C14 UNL     1      -6.482   1.325  17.389  1.00  0.00     0.037 A 
HETATM   26  C17 UNL     1      -5.027   2.285  15.693  1.00  0.00     0.061 A 
HETATM   27  C15 UNL     1      -5.818   0.117  17.367  1.00  0.00     0.092 A 
HETATM   28  N2  UNL     1      -4.790   0.052  16.507  1.00  0.00    -0.333 N 
HETATM   29  C16 UNL     1      -4.378   1.033  15.703  1.00  0.00     0.257 A 
ATOM     30  H2  UNL     1      -4.276  -0.827  16.464  1.00  0.00     0.168 HD
HETATM   31  O2  UNL     1      -3.398   0.780  14.964  1.00  0.00    -0.267 OA
ENDBRANCH   4  21
TORSDOF 4
ENDMDL
MODEL 5
REMARK VINA RESULT: -8.039146622      5.039      8.900
REMARK  4 active torsions:
REMARK  status: ('A' for Active; 'I' for Inactive)
REMARK    1  A    between atoms: C2_2  and  C3_3 
REMARK       I    between atoms: C3_3  and  N1_5 
REMARK    2  A    between atoms: N1_5  and  C4_7 
REMARK    3  A    between atoms: C6_9  and  C7_10 
REMARK    4  A    between atoms: C10_13  and  C11_14 
ROOT
HETATM    1  C7  UNL     1      -1.285   4.045  12.601  1.00  0.00    -0.009 A 
HETATM    2  C8  UNL     1      -2.406   3.414  12.122  1.00  0.00     0.014 A 
HETATM    3  C9  UNL     1      -3.504   3.212  12.946  1.00  0.00     0.013 A 
HETATM    4  C10 UNL     1      -3.530   3.621  14.253  1.00  0.00    -0.024 A 
HETATM    5  C18 UNL     1      -2.402   4.247  14.711  1.00  0.00     0.013 A 
HETATM    6  C19 UNL     1      -1.289   4.465  13.917  1.00  0.00     0.014 A 
ENDROOT
BRANCH   1   7
HETATM    7  C6  UNL     1      -0.098   4.282  11.770  1.00  0.00     0.046 A 
HETATM    8  C5  UNL     1       0.093   3.681  10.545  1.00  0.00     0.079 A 
HETATM    9  C4  UNL     1       1.226   3.924   9.780  1.00  0.00     0.110 A 
HETATM   10  N4  UNL     1       2.149   4.762  10.256  1.00  0.00    -0.338 N 
HETATM   11  C20 UNL     1       1.995   5.369  11.452  1.00  0.00     0.182 A 
ATOM     12  H4  UNL     1       2.988   4.948   9.704  1.00  0.00     0.168 HD
HETATM   13  N3  UNL     1       0.875   5.113  12.180  1.00  0.00    -0.352 N 
ATOM     14  H3  UNL     1       0.767   5.576  13.083  1.00  0.00     0.166 HD
BRANCH   9  15
HETATM   15  N1  UNL     1       1.354   3.347   8.663  1.00  0.00    -0.309 N 
HETATM   16  C3  UNL     1       2.613   3.088   8.056  1.00  0.00     0.245 C 
HETATM   17  O1  UNL     1       3.545   2.656   8.773  1.00  0.00    -0.268 OA
ATOM     18  H1  UNL     1       0.510   3.054   8.171  1.00  0.00     0.170 HD
BRANCH  16  19
HETATM   19  C2  UNL     1       2.823   3.313   6.646  1.00  0.00     0.064 C 
HETATM   20  C1  UNL     1       2.902   2.305   5.769  1.00  0.00     0.017 C 
ENDBRANCH  16  19
ENDBRANCH   9  15
ENDBRANCH   1   7
BRANCH   4  21
HETATM   21  C11 UNL     1      -4.755   3.432  15.095  1.00  0.00    -0.002 A 
HETATM   22  C12 UNL     1      -5.630   4.494  15.213  1.00  0.00     0.063 A 
HETATM   23  S1  UNL     1      -6.819   3.919  16.270  1.00  0.00    -0.100 SA
HETATM   24  C13 UNL     1      -6.209   2.353  16.552  1.00  0.00     0.022 A 
HETATM   25  C14 UNL     1      -6.641   1.251  17.318  1.00  0.00     0.037 A 
HETATM   26  C17 UNL     1      -5.068   2.316  15.799  1.00  0.00     0.061 A 
HETATM   27  C15 UNL     1      -5.924   0.074  17.338  1.00  0.00     0.092 A 
HETATM   28  N2  UNL     1      -4.813   0.076  16.585  1.00  0.00    -0.333 N 
HETATM   29  C16 UNL     1      -4.368   1.094  15.848  1.00  0.00     0.257 A 
ATOM     30  H2  UNL     1      -4.257  -0.779  16.576  1.00  0.00     0.168 HD
HETATM   31  O2  UNL     1      -3.307   0.902  15.207  1.00  0.00    -0.267 OA
ENDBRANCH   4  21
TORSDOF 4
ENDMDL
