MODEL 1
REMARK VINA RESULT: -8.326991743      0.000      0.000
REMARK  5 active torsions:
REMARK  status: ('A' for Active; 'I' for Inactive)
REMARK    1  A    between atoms: C2_2  and  C15_26 
REMARK    2  A    between atoms: N1_3  and  N2_5 
REMARK    3  A    between atoms: N2_5  and  C3_7 
REMARK    4  A    between atoms: C3_7  and  N3_9 
REMARK    5  A    between atoms: N6_19  and  C9_20 
ROOT
HETATM    1  N3  UNL     1      -3.080   2.897  13.307  1.00  0.00    -0.315 N 
ATOM      2  H3  UNL     1      -3.522   3.288  14.138  1.00  0.00     0.170 HD
HETATM    3  C4  UNL     1      -3.351   1.692  13.064  1.00  0.00     0.152 A 
HETATM    4  C5  UNL     1      -2.921   0.902  12.040  1.00  0.00     0.114 A 
HETATM    5  C6  UNL     1      -2.048   1.230  10.968  1.00  0.00     0.105 C 
HETATM    6  N4  UNL     1      -1.347   1.474  10.097  1.00  0.00    -0.191 NA
HETATM    7  C7  UNL     1      -3.502  -0.339  12.219  1.00  0.00     0.047 A 
HETATM    8  C8  UNL     1      -3.376  -1.568  11.398  1.00  0.00     0.071 C 
HETATM    9  N5  UNL     1      -4.255  -0.260  13.330  1.00  0.00    -0.295 N 
ATOM     10  H5  UNL     1      -4.808  -1.026  13.716  1.00  0.00     0.187 HD
HETATM   11  N6  UNL     1      -4.175   0.949  13.849  1.00  0.00    -0.238 N 
ENDROOT
BRANCH   1  12
HETATM   12  C3  UNL     1      -2.257   3.775  12.594  1.00  0.00     0.192 C 
HETATM   13  S1  UNL     1      -2.843   4.716  11.403  1.00  0.00    -0.039 SA
BRANCH  12  14
HETATM   14  N2  UNL     1      -0.878   3.838  12.916  1.00  0.00    -0.276 N 
ATOM     15  H2  UNL     1      -0.616   4.043  13.881  1.00  0.00     0.189 HD
BRANCH  14  16
HETATM   16  N1  UNL     1       0.142   3.634  11.984  1.00  0.00    -0.302 N 
HETATM   17  C2  UNL     1       0.884   4.585  11.562  1.00  0.00     0.032 C 
HETATM   18  C1  UNL     1       0.685   5.962  12.056  1.00  0.00     0.070 C 
ATOM     19  H1  UNL     1       0.300   2.692  11.627  1.00  0.00     0.186 HD
BRANCH  17  20
HETATM   20  C15 UNL     1       1.934   4.323  10.591  1.00  0.00    -0.010 A 
HETATM   21  C16 UNL     1       1.715   3.474   9.526  1.00  0.00     0.030 A 
HETATM   22  C17 UNL     1       2.749   3.265   8.638  1.00  0.00     0.088 A 
HETATM   23  N7  UNL     1       3.928   3.850   8.781  1.00  0.00    -0.375 N 
HETATM   24  C18 UNL     1       4.182   4.684   9.805  1.00  0.00     0.088 A 
ATOM     25  H7  UNL     1       4.662   3.663   8.098  1.00  0.00     0.164 HD
HETATM   26  C19 UNL     1       3.179   4.924  10.718  1.00  0.00     0.030 A 
ENDBRANCH  17  20
ENDBRANCH  14  16
ENDBRANCH  12  14
ENDBRANCH   1  12
BRANCH  11  27
HETATM   27  C9  UNL     1      -4.852   1.362  15.027  1.00  0.00     0.058 A 
HETATM   28  C10 UNL     1      -5.609   2.519  15.116  1.00  0.00     0.031 A 
HETATM   29  C11 UNL     1      -6.251   2.881  16.285  1.00  0.00     0.002 A 
HETATM   30  C12 UNL     1      -6.154   2.090  17.407  1.00  0.00     0.000 A 
HETATM   31  C13 UNL     1      -5.397   0.924  17.334  1.00  0.00     0.002 A 
HETATM   32  C14 UNL     1      -4.762   0.583  16.151  1.00  0.00     0.031 A 
ENDBRANCH  11  27
TORSDOF 5
ENDMDL
MODEL 2
REMARK VINA RESULT: -8.041625036      1.820      7.704
REMARK  5 active torsions:
REMARK  status: ('A' for Active; 'I' for Inactive)
REMARK    1  A    between atoms: C2_2  and  C15_26 
REMARK    2  A    between atoms: N1_3  and  N2_5 
REMARK    3  A    between atoms: N2_5  and  C3_7 
REMARK    4  A    between atoms: C3_7  and  N3_9 
REMARK    5  A    between atoms: N6_19  and  C9_20 
ROOT
HETATM    1  N3  UNL     1      -2.179   4.179  11.536  1.00  0.00    -0.315 N 
ATOM      2  H3  UNL     1      -1.333   4.737  11.421  1.00  0.00     0.170 HD
HETATM    3  C4  UNL     1      -2.114   3.000  11.101  1.00  0.00     0.152 A 
HETATM    4  C5  UNL     1      -3.067   2.026  11.110  1.00  0.00     0.114 A 
HETATM    5  C6  UNL     1      -4.393   2.081  11.616  1.00  0.00     0.105 C 
HETATM    6  N4  UNL     1      -5.465   2.105  12.018  1.00  0.00    -0.191 NA
HETATM    7  C7  UNL     1      -2.506   0.910  10.517  1.00  0.00     0.047 A 
HETATM    8  C8  UNL     1      -3.099  -0.427  10.269  1.00  0.00     0.071 C 
HETATM    9  N5  UNL     1      -1.250   1.242  10.173  1.00  0.00    -0.295 N 
ATOM     10  H5  UNL     1      -0.586   0.617   9.714  1.00  0.00     0.187 HD
HETATM   11  N6  UNL     1      -0.999   2.490  10.515  1.00  0.00    -0.238 N 
ENDROOT
BRANCH   1  12
HETATM   12  C3  UNL     1      -3.250   4.831  12.155  1.00  0.00     0.192 C 
HETATM   13  S1  UNL     1      -4.399   5.592  11.290  1.00  0.00    -0.039 SA
BRANCH  12  14
HETATM   14  N2  UNL     1      -3.330   4.831  13.570  1.00  0.00    -0.276 N 
ATOM     15  H2  UNL     1      -3.023   5.665  14.071  1.00  0.00     0.189 HD
BRANCH  14  16
HETATM   16  N1  UNL     1      -3.806   3.750  14.315  1.00  0.00    -0.302 N 
HETATM   17  C2  UNL     1      -4.909   3.796  14.961  1.00  0.00     0.032 C 
HETATM   18  C1  UNL     1      -5.733   5.020  14.942  1.00  0.00     0.070 C 
ATOM     19  H1  UNL     1      -3.255   2.892  14.344  1.00  0.00     0.186 HD
BRANCH  17  20
HETATM   20  C15 UNL     1      -5.363   2.644  15.722  1.00  0.00    -0.010 A 
HETATM   21  C16 UNL     1      -6.542   2.690  16.437  1.00  0.00     0.030 A 
HETATM   22  C17 UNL     1      -6.921   1.565  17.139  1.00  0.00     0.088 A 
HETATM   23  N7  UNL     1      -6.192   0.460  17.143  1.00  0.00    -0.375 N 
HETATM   24  C18 UNL     1      -5.038   0.374  16.459  1.00  0.00     0.088 A 
ATOM     25  H7  UNL     1      -6.514  -0.346  17.679  1.00  0.00     0.164 HD
HETATM   26  C19 UNL     1      -4.618   1.472  15.743  1.00  0.00     0.030 A 
ENDBRANCH  17  20
ENDBRANCH  14  16
ENDBRANCH  12  14
ENDBRANCH   1  12
BRANCH  11  27
HETATM   27  C9  UNL     1       0.239   3.149  10.291  1.00  0.00     0.058 A 
HETATM   28  C10 UNL     1       1.019   3.687  11.301  1.00  0.00     0.031 A 
HETATM   29  C11 UNL     1       2.219   4.320  11.036  1.00  0.00     0.002 A 
HETATM   30  C12 UNL     1       2.676   4.434   9.742  1.00  0.00     0.000 A 
HETATM   31  C13 UNL     1       1.903   3.899   8.715  1.00  0.00     0.002 A 
HETATM   32  C14 UNL     1       0.704   3.269   9.007  1.00  0.00     0.031 A 
ENDBRANCH  11  27
TORSDOF 5
ENDMDL
MODEL 3
REMARK VINA RESULT: -7.960446276      3.092      7.585
REMARK  5 active torsions:
REMARK  status: ('A' for Active; 'I' for Inactive)
REMARK    1  A    between atoms: C2_2  and  C15_26 
REMARK    2  A    between atoms: N1_3  and  N2_5 
REMARK    3  A    between atoms: N2_5  and  C3_7 
REMARK    4  A    between atoms: C3_7  and  N3_9 
REMARK    5  A    between atoms: N6_19  and  C9_20 
ROOT
HETATM    1  N3  UNL     1      -1.969   4.705  12.405  1.00  0.00    -0.315 N 
ATOM      2  H3  UNL     1      -1.431   5.218  13.103  1.00  0.00     0.170 HD
HETATM    3  C4  UNL     1      -2.929   5.335  11.891  1.00  0.00     0.152 A 
HETATM    4  C5  UNL     1      -3.819   4.925  10.943  1.00  0.00     0.114 A 
HETATM    5  C6  UNL     1      -3.900   3.672  10.280  1.00  0.00     0.105 C 
HETATM    6  N4  UNL     1      -3.982   2.669   9.734  1.00  0.00    -0.191 NA
HETATM    7  C7  UNL     1      -4.679   5.983  10.715  1.00  0.00     0.047 A 
HETATM    8  C8  UNL     1      -5.831   6.081   9.786  1.00  0.00     0.071 C 
HETATM    9  N5  UNL     1      -4.287   6.985  11.521  1.00  0.00    -0.295 N 
ATOM     10  H5  UNL     1      -4.734   7.900  11.575  1.00  0.00     0.187 HD
HETATM   11  N6  UNL     1      -3.240   6.613  12.233  1.00  0.00    -0.238 N 
ENDROOT
BRANCH   1  12
HETATM   12  C3  UNL     1      -1.538   3.399  12.152  1.00  0.00     0.192 C 
HETATM   13  S1  UNL     1      -0.175   3.098  11.316  1.00  0.00    -0.039 SA
BRANCH  12  14
HETATM   14  N2  UNL     1      -2.313   2.314  12.633  1.00  0.00    -0.276 N 
ATOM     15  H2  UNL     1      -2.238   1.417  12.153  1.00  0.00     0.189 HD
BRANCH  14  16
HETATM   16  N1  UNL     1      -3.174   2.408  13.728  1.00  0.00    -0.302 N 
HETATM   17  C2  UNL     1      -3.972   1.465  14.056  1.00  0.00     0.032 C 
HETATM   18  C1  UNL     1      -4.012   0.216  13.269  1.00  0.00     0.070 C 
ATOM     19  H1  UNL     1      -3.166   3.261  14.288  1.00  0.00     0.186 HD
BRANCH  17  20
HETATM   20  C15 UNL     1      -4.850   1.609  15.205  1.00  0.00    -0.010 A 
HETATM   21  C16 UNL     1      -5.625   2.739  15.365  1.00  0.00     0.030 A 
HETATM   22  C17 UNL     1      -6.438   2.819  16.476  1.00  0.00     0.088 A 
HETATM   23  N7  UNL     1      -6.490   1.852  17.379  1.00  0.00    -0.375 N 
HETATM   24  C18 UNL     1      -5.751   0.735  17.261  1.00  0.00     0.088 A 
ATOM     25  H7  UNL     1      -7.106   1.958  18.185  1.00  0.00     0.164 HD
HETATM   26  C19 UNL     1      -4.924   0.610  16.167  1.00  0.00     0.030 A 
ENDBRANCH  17  20
ENDBRANCH  14  16
ENDBRANCH  12  14
ENDBRANCH   1  12
BRANCH  11  27
HETATM   27  C9  UNL     1      -2.582   7.439  13.181  1.00  0.00     0.058 A 
HETATM   28  C10 UNL     1      -2.628   7.228  14.550  1.00  0.00     0.031 A 
HETATM   29  C11 UNL     1      -1.971   8.060  15.437  1.00  0.00     0.002 A 
HETATM   30  C12 UNL     1      -1.244   9.135  14.978  1.00  0.00     0.000 A 
HETATM   31  C13 UNL     1      -1.189   9.361  13.605  1.00  0.00     0.002 A 
HETATM   32  C14 UNL     1      -1.856   8.514  12.736  1.00  0.00     0.031 A 
ENDBRANCH  11  27
TORSDOF 5
ENDMDL
MODEL 4
REMARK VINA RESULT: -7.898535491      2.372      7.949
REMARK  5 active torsions:
REMARK  status: ('A' for Active; 'I' for Inactive)
REMARK    1  A    between atoms: C2_2  and  C15_26 
REMARK    2  A    between atoms: N1_3  and  N2_5 
REMARK    3  A    between atoms: N2_5  and  C3_7 
REMARK    4  A    between atoms: C3_7  and  N3_9 
REMARK    5  A    between atoms: N6_19  and  C9_20 
ROOT
HETATM    1  N3  UNL     1      -1.847   1.764  10.931  1.00  0.00    -0.315 N 
ATOM      2  H3  UNL     1      -0.832   1.672  10.969  1.00  0.00     0.170 HD
HETATM    3  C4  UNL     1      -2.276   2.854  10.472  1.00  0.00     0.152 A 
HETATM    4  C5  UNL     1      -3.563   3.268  10.297  1.00  0.00     0.114 A 
HETATM    5  C6  UNL     1      -4.769   2.576  10.588  1.00  0.00     0.105 C 
HETATM    6  N4  UNL     1      -5.752   2.035  10.816  1.00  0.00    -0.191 NA
HETATM    7  C7  UNL     1      -3.506   4.540   9.760  1.00  0.00     0.047 A 
HETATM    8  C8  UNL     1      -4.610   5.454   9.374  1.00  0.00     0.071 C 
HETATM    9  N5  UNL     1      -2.204   4.850   9.629  1.00  0.00    -0.295 N 
ATOM     10  H5  UNL     1      -1.849   5.731   9.257  1.00  0.00     0.187 HD
HETATM   11  N6  UNL     1      -1.454   3.852  10.052  1.00  0.00    -0.238 N 
ENDROOT
BRANCH   1  12
HETATM   12  C3  UNL     1      -2.569   0.661  11.397  1.00  0.00     0.192 C 
HETATM   13  S1  UNL     1      -3.038  -0.535  10.398  1.00  0.00    -0.039 SA
BRANCH  12  14
HETATM   14  N2  UNL     1      -2.904   0.589  12.773  1.00  0.00    -0.276 N 
ATOM     15  H2  UNL     1      -2.542  -0.194  13.318  1.00  0.00     0.189 HD
BRANCH  14  16
HETATM   16  N1  UNL     1      -3.702   1.534  13.422  1.00  0.00    -0.302 N 
HETATM   17  C2  UNL     1      -4.321   1.277  14.510  1.00  0.00     0.032 C 
HETATM   18  C1  UNL     1      -4.211  -0.058  15.132  1.00  0.00     0.070 C 
ATOM     19  H1  UNL     1      -3.794   2.464  13.012  1.00  0.00     0.186 HD
BRANCH  17  20
HETATM   20  C15 UNL     1      -5.139   2.294  15.149  1.00  0.00    -0.010 A 
HETATM   21  C16 UNL     1      -5.839   2.014  16.304  1.00  0.00     0.030 A 
HETATM   22  C17 UNL     1      -6.598   3.020  16.864  1.00  0.00     0.088 A 
HETATM   23  N7  UNL     1      -6.671   4.228  16.327  1.00  0.00    -0.375 N 
HETATM   24  C18 UNL     1      -6.005   4.541  15.202  1.00  0.00     0.088 A 
ATOM     25  H7  UNL     1      -7.247   4.939  16.778  1.00  0.00     0.164 HD
HETATM   26  C19 UNL     1      -5.233   3.568  14.606  1.00  0.00     0.030 A 
ENDBRANCH  17  20
ENDBRANCH  14  16
ENDBRANCH  12  14
ENDBRANCH   1  12
BRANCH  11  27
HETATM   27  C9  UNL     1      -0.034   3.859  10.048  1.00  0.00     0.058 A 
HETATM   28  C10 UNL     1       0.737   4.290  11.116  1.00  0.00     0.031 A 
HETATM   29  C11 UNL     1       2.117   4.280  11.068  1.00  0.00     0.002 A 
HETATM   30  C12 UNL     1       2.773   3.835   9.943  1.00  0.00     0.000 A 
HETATM   31  C13 UNL     1       2.013   3.399   8.861  1.00  0.00     0.002 A 
HETATM   32  C14 UNL     1       0.630   3.419   8.933  1.00  0.00     0.031 A 
ENDBRANCH  11  27
TORSDOF 5
ENDMDL
MODEL 5
REMARK VINA RESULT: -7.803842284      3.363      7.283
REMARK  5 active torsions:
REMARK  status: ('A' for Active; 'I' for Inactive)
REMARK    1  A    between atoms: C2_2  and  C15_26 
REMARK    2  A    between atoms: N1_3  and  N2_5 
REMARK    3  A    between atoms: N2_5  and  C3_7 
REMARK    4  A    between atoms: C3_7  and  N3_9 
REMARK    5  A    between atoms: N6_19  and  C9_20 
ROOT
HETATM    1  N3  UNL     1      -2.420   3.869  12.264  1.00  0.00    -0.315 N 
ATOM      2  H3  UNL     1      -2.200   2.874  12.298  1.00  0.00     0.170 HD
HETATM    3  C4  UNL     1      -3.263   4.208  11.393  1.00  0.00     0.152 A 
HETATM    4  C5  UNL     1      -3.756   5.447  11.108  1.00  0.00     0.114 A 
HETATM    5  C6  UNL     1      -3.448   6.691  11.720  1.00  0.00     0.105 C 
HETATM    6  N4  UNL     1      -3.213   7.703  12.200  1.00  0.00    -0.191 NA
HETATM    7  C7  UNL     1      -4.655   5.292  10.070  1.00  0.00     0.047 A 
HETATM    8  C8  UNL     1      -5.476   6.311   9.370  1.00  0.00     0.071 C 
HETATM    9  N5  UNL     1      -4.677   3.982   9.765  1.00  0.00    -0.295 N 
ATOM     10  H5  UNL     1      -5.252   3.563   9.034  1.00  0.00     0.187 HD
HETATM   11  N6  UNL     1      -3.849   3.319  10.548  1.00  0.00    -0.238 N 
ENDROOT
BRANCH   1  12
HETATM   12  C3  UNL     1      -1.744   4.668  13.191  1.00  0.00     0.192 C 
HETATM   13  S1  UNL     1      -0.420   5.519  12.777  1.00  0.00    -0.039 SA
BRANCH  12  14
HETATM   14  N2  UNL     1      -2.223   4.731  14.524  1.00  0.00    -0.276 N 
ATOM     15  H2  UNL     1      -1.994   5.554  15.081  1.00  0.00     0.189 HD
BRANCH  14  16
HETATM   16  N1  UNL     1      -2.992   3.726  15.114  1.00  0.00    -0.302 N 
HETATM   17  C2  UNL     1      -4.265   3.802  15.208  1.00  0.00     0.032 C 
HETATM   18  C1  UNL     1      -4.980   4.982  14.684  1.00  0.00     0.070 C 
ATOM     19  H1  UNL     1      -2.521   2.900  15.484  1.00  0.00     0.186 HD
BRANCH  17  20
HETATM   20  C15 UNL     1      -5.022   2.730  15.831  1.00  0.00    -0.010 A 
HETATM   21  C16 UNL     1      -6.329   2.925  16.226  1.00  0.00     0.030 A 
HETATM   22  C17 UNL     1      -6.996   1.869  16.811  1.00  0.00     0.088 A 
HETATM   23  N7  UNL     1      -6.421   0.692  17.000  1.00  0.00    -0.375 N 
HETATM   24  C18 UNL     1      -5.149   0.460  16.629  1.00  0.00     0.088 A 
ATOM     25  H7  UNL     1      -6.955  -0.058  17.438  1.00  0.00     0.164 HD
HETATM   26  C19 UNL     1      -4.442   1.485  16.040  1.00  0.00     0.030 A 
ENDBRANCH  17  20
ENDBRANCH  14  16
ENDBRANCH  12  14
ENDBRANCH   1  12
BRANCH  11  27
HETATM   27  C9  UNL     1      -3.637   1.917  10.485  1.00  0.00     0.058 A 
HETATM   28  C10 UNL     1      -2.434   1.335  10.116  1.00  0.00     0.031 A 
HETATM   29  C11 UNL     1      -2.274  -0.037  10.068  1.00  0.00     0.002 A 
HETATM   30  C12 UNL     1      -3.319  -0.873  10.391  1.00  0.00     0.000 A 
HETATM   31  C13 UNL     1      -4.533  -0.304  10.764  1.00  0.00     0.002 A 
HETATM   32  C14 UNL     1      -4.670   1.074  10.803  1.00  0.00     0.031 A 
ENDBRANCH  11  27
TORSDOF 5
ENDMDL
