MODEL 1
REMARK VINA RESULT: -9.044519968      0.000      0.000
REMARK  5 active torsions:
REMARK  status: ('A' for Active; 'I' for Inactive)
REMARK    1  A    between atoms: C3_3  and  N1_4 
REMARK    2  A    between atoms: N1_4  and  C4_6 
REMARK    3  A    between atoms: C5_9  and  C6_10 
REMARK    4  A    between atoms: C9_13  and  C10_14 
REMARK    5  A    between atoms: N5_26  and  O1_27 
ROOT
HETATM    1  C1  UNL     1      -6.364   2.534  18.263  1.00  0.00     0.014 C 
HETATM    2  C2  UNL     1      -5.959   1.519  17.752  1.00  0.00    -0.097 C 
HETATM    3  C3  UNL     1      -5.445   0.286  17.110  1.00  0.00     0.231 C 
ENDROOT
BRANCH   3   4
HETATM    4  N1  UNL     1      -4.126   0.533  16.568  1.00  0.00    -0.216 N 
ATOM      5  H1  UNL     1      -3.307   0.180  17.064  1.00  0.00     0.178 HD
BRANCH   4   6
HETATM    6  C4  UNL     1      -3.964   1.197  15.461  1.00  0.00     0.679 A 
HETATM    7  N2  UNL     1      -3.491   2.443  15.425  1.00  0.00    -0.189 N 
HETATM    8  C5  UNL     1      -3.342   3.092  14.230  1.00  0.00     0.090 A 
ATOM      9  H2  UNL     1      -3.239   2.915  16.293  1.00  0.00     0.184 HD
HETATM   10  C18 UNL     1      -3.672   2.501  13.030  1.00  0.00     0.021 A 
HETATM   11  C19 UNL     1      -3.568   3.125  11.810  1.00  0.00     0.016 A 
HETATM   12  C23 UNL     1      -4.166   1.194  13.095  1.00  0.00     0.061 A 
HETATM   13  C20 UNL     1      -3.937   2.497  10.614  1.00  0.00     0.001 A 
HETATM   14  C21 UNL     1      -4.415   1.208  10.715  1.00  0.00     0.002 A 
HETATM   15  C22 UNL     1      -4.530   0.564  11.928  1.00  0.00     0.031 A 
HETATM   16  N6  UNL     1      -4.285   0.613  14.299  1.00  0.00    -0.191 N 
ATOM     17  H6  UNL     1      -4.647  -0.341  14.332  1.00  0.00     0.184 HD
BRANCH   8  18
HETATM   18  C6  UNL     1      -2.838   4.459  14.214  1.00  0.00     0.090 A 
HETATM   19  C7  UNL     1      -3.669   5.538  14.529  1.00  0.00     0.035 A 
HETATM   20  C8  UNL     1      -3.206   6.835  14.579  1.00  0.00     0.019 A 
HETATM   21  C9  UNL     1      -1.879   7.088  14.310  1.00  0.00     0.026 A 
HETATM   22  C17 UNL     1      -1.081   6.026  14.006  1.00  0.00     0.138 A 
HETATM   23  N5  UNL     1      -1.557   4.749  13.962  1.00  0.00    -0.233 N 
BRANCH  21  24
HETATM   24  C10 UNL     1      -1.362   8.463  14.357  1.00  0.00     0.118 A 
HETATM   25  N3  UNL     1      -0.229   8.877  14.902  1.00  0.00    -0.340 N 
HETATM   26  C11 UNL     1      -0.070  10.215  14.759  1.00  0.00     0.060 A 
ATOM     27  H3  UNL     1       0.440   8.266  15.370  1.00  0.00     0.167 HD
HETATM   28  C12 UNL     1       0.908  11.098  15.139  1.00  0.00     0.032 A 
HETATM   29  C16 UNL     1      -1.213  10.614  14.068  1.00  0.00     0.060 A 
HETATM   30  C13 UNL     1       0.791  12.433  14.846  1.00  0.00     0.002 A 
HETATM   31  C14 UNL     1      -0.325  12.860  14.166  1.00  0.00     0.002 A 
HETATM   32  C15 UNL     1      -1.289  11.962  13.794  1.00  0.00     0.032 A 
HETATM   33  N4  UNL     1      -1.979   9.538  13.836  1.00  0.00    -0.340 N 
ATOM     34  H4  UNL     1      -2.875   9.536  13.348  1.00  0.00     0.167 HD
ENDBRANCH  21  24
BRANCH  23  35
HETATM   35  O1  UNL     1      -0.658   3.722  13.697  1.00  0.00    -0.283 OA
ATOM     36  H1  UNL     1      -0.653   3.312  12.840  1.00  0.00     0.245 HD
ENDBRANCH  23  35
ENDBRANCH   8  18
ENDBRANCH   4   6
ENDBRANCH   3   4
TORSDOF 5
ENDMDL
MODEL 2
REMARK VINA RESULT: -8.962074835      0.571      1.176
REMARK  5 active torsions:
REMARK  status: ('A' for Active; 'I' for Inactive)
REMARK    1  A    between atoms: C3_3  and  N1_4 
REMARK    2  A    between atoms: N1_4  and  C4_6 
REMARK    3  A    between atoms: C5_9  and  C6_10 
REMARK    4  A    between atoms: C9_13  and  C10_14 
REMARK    5  A    between atoms: N5_26  and  O1_27 
ROOT
HETATM    1  C1  UNL     1      -6.379   2.659  18.421  1.00  0.00     0.014 C 
HETATM    2  C2  UNL     1      -6.203   1.670  17.754  1.00  0.00    -0.097 C 
HETATM    3  C3  UNL     1      -5.967   0.466  16.923  1.00  0.00     0.231 C 
ENDROOT
BRANCH   3   4
HETATM    4  N1  UNL     1      -4.577   0.418  16.521  1.00  0.00    -0.216 N 
ATOM      5  H1  UNL     1      -3.902  -0.065  17.113  1.00  0.00     0.178 HD
BRANCH   4   6
HETATM    6  C4  UNL     1      -4.173   0.979  15.418  1.00  0.00     0.679 A 
HETATM    7  N2  UNL     1      -3.752   2.244  15.361  1.00  0.00    -0.189 N 
HETATM    8  C5  UNL     1      -3.339   2.782  14.174  1.00  0.00     0.090 A 
ATOM      9  H2  UNL     1      -3.740   2.813  16.207  1.00  0.00     0.184 HD
HETATM   10  C18 UNL     1      -3.341   2.057  13.002  1.00  0.00     0.021 A 
HETATM   11  C19 UNL     1      -2.963   2.564  11.782  1.00  0.00     0.016 A 
HETATM   12  C23 UNL     1      -3.786   0.734  13.089  1.00  0.00     0.061 A 
HETATM   13  C20 UNL     1      -3.002   1.801  10.608  1.00  0.00     0.001 A 
HETATM   14  C21 UNL     1      -3.442   0.500  10.732  1.00  0.00     0.002 A 
HETATM   15  C22 UNL     1      -3.828  -0.028  11.946  1.00  0.00     0.031 A 
HETATM   16  N6  UNL     1      -4.176   0.266  14.285  1.00  0.00    -0.191 N 
ATOM     17  H6  UNL     1      -4.498  -0.701  14.334  1.00  0.00     0.184 HD
BRANCH   8  18
HETATM   18  C6  UNL     1      -2.898   4.170  14.130  1.00  0.00     0.090 A 
HETATM   19  C7  UNL     1      -3.820   5.220  14.130  1.00  0.00     0.035 A 
HETATM   20  C8  UNL     1      -3.432   6.541  14.148  1.00  0.00     0.019 A 
HETATM   21  C9  UNL     1      -2.090   6.851  14.165  1.00  0.00     0.026 A 
HETATM   22  C17 UNL     1      -1.203   5.816  14.165  1.00  0.00     0.138 A 
HETATM   23  N5  UNL     1      -1.605   4.514  14.148  1.00  0.00    -0.233 N 
BRANCH  21  24
HETATM   24  C10 UNL     1      -1.651   8.253  14.183  1.00  0.00     0.118 A 
HETATM   25  N3  UNL     1      -2.300   9.304  13.705  1.00  0.00    -0.340 N 
HETATM   26  C11 UNL     1      -1.598  10.447  13.894  1.00  0.00     0.060 A 
ATOM     27  H3  UNL     1      -3.212   9.258  13.252  1.00  0.00     0.167 HD
HETATM   28  C12 UNL     1      -1.830  11.763  13.588  1.00  0.00     0.032 A 
HETATM   29  C16 UNL     1      -0.437  10.022  14.542  1.00  0.00     0.060 A 
HETATM   30  C13 UNL     1      -0.910  12.727  13.914  1.00  0.00     0.002 A 
HETATM   31  C14 UNL     1       0.244  12.342  14.552  1.00  0.00     0.002 A 
HETATM   32  C15 UNL     1       0.458  11.022  14.851  1.00  0.00     0.032 A 
HETATM   33  N4  UNL     1      -0.493   8.693  14.705  1.00  0.00    -0.340 N 
ATOM     34  H4  UNL     1       0.221   8.115  15.150  1.00  0.00     0.167 HD
ENDBRANCH  21  24
BRANCH  23  35
HETATM   35  O1  UNL     1      -0.631   3.524  14.205  1.00  0.00    -0.283 OA
ATOM     36  H1  UNL     1       0.062   3.583  14.853  1.00  0.00     0.245 HD
ENDBRANCH  23  35
ENDBRANCH   8  18
ENDBRANCH   4   6
ENDBRANCH   3   4
TORSDOF 5
ENDMDL
MODEL 3
REMARK VINA RESULT: -8.930583086      1.228      1.425
REMARK  5 active torsions:
REMARK  status: ('A' for Active; 'I' for Inactive)
REMARK    1  A    between atoms: C3_3  and  N1_4 
REMARK    2  A    between atoms: N1_4  and  C4_6 
REMARK    3  A    between atoms: C5_9  and  C6_10 
REMARK    4  A    between atoms: C9_13  and  C10_14 
REMARK    5  A    between atoms: N5_26  and  O1_27 
ROOT
HETATM    1  C1  UNL     1      -6.050   2.427  18.681  1.00  0.00     0.014 C 
HETATM    2  C2  UNL     1      -6.140   1.527  17.884  1.00  0.00    -0.097 C 
HETATM    3  C3  UNL     1      -6.228   0.429  16.893  1.00  0.00     0.231 C 
ENDROOT
BRANCH   3   4
HETATM    4  N1  UNL     1      -4.903   0.097  16.415  1.00  0.00    -0.216 N 
ATOM      5  H1  UNL     1      -4.359  -0.616  16.901  1.00  0.00     0.178 HD
BRANCH   4   6
HETATM    6  C4  UNL     1      -4.392   0.691  15.376  1.00  0.00     0.679 A 
HETATM    7  N2  UNL     1      -3.957   1.952  15.402  1.00  0.00    -0.189 N 
HETATM    8  C5  UNL     1      -3.429   2.524  14.279  1.00  0.00     0.090 A 
ATOM      9  H2  UNL     1      -4.020   2.491  16.265  1.00  0.00     0.184 HD
HETATM   10  C18 UNL     1      -3.326   1.840  13.088  1.00  0.00     0.021 A 
HETATM   11  C19 UNL     1      -2.831   2.384  11.927  1.00  0.00     0.016 A 
HETATM   12  C23 UNL     1      -3.789   0.520  13.086  1.00  0.00     0.061 A 
HETATM   13  C20 UNL     1      -2.766   1.662  10.729  1.00  0.00     0.001 A 
HETATM   14  C21 UNL     1      -3.226   0.364  10.765  1.00  0.00     0.002 A 
HETATM   15  C22 UNL     1      -3.729  -0.202  11.917  1.00  0.00     0.031 A 
HETATM   16  N6  UNL     1      -4.294   0.017  14.223  1.00  0.00    -0.191 N 
ATOM     17  H6  UNL     1      -4.628  -0.947  14.208  1.00  0.00     0.184 HD
BRANCH   8  18
HETATM   18  C6  UNL     1      -2.974   3.908  14.325  1.00  0.00     0.090 A 
HETATM   19  C7  UNL     1      -1.647   4.240  14.037  1.00  0.00     0.035 A 
HETATM   20  C8  UNL     1      -1.202   5.544  14.016  1.00  0.00     0.019 A 
HETATM   21  C9  UNL     1      -2.086   6.564  14.287  1.00  0.00     0.026 A 
HETATM   22  C17 UNL     1      -3.377   6.224  14.565  1.00  0.00     0.138 A 
HETATM   23  N5  UNL     1      -3.800   4.929  14.580  1.00  0.00    -0.233 N 
BRANCH  21  24
HETATM   24  C10 UNL     1      -1.635   7.962  14.270  1.00  0.00     0.118 A 
HETATM   25  N3  UNL     1      -0.543   8.460  14.828  1.00  0.00    -0.340 N 
HETATM   26  C11 UNL     1      -0.441   9.794  14.613  1.00  0.00     0.060 A 
ATOM     27  H3  UNL     1       0.136   7.910  15.353  1.00  0.00     0.167 HD
HETATM   28  C12 UNL     1       0.480  10.744  14.973  1.00  0.00     0.032 A 
HETATM   29  C16 UNL     1      -1.576  10.098  13.861  1.00  0.00     0.060 A 
HETATM   30  C13 UNL     1       0.313  12.053  14.599  1.00  0.00     0.002 A 
HETATM   31  C14 UNL     1      -0.796  12.386  13.858  1.00  0.00     0.002 A 
HETATM   32  C15 UNL     1      -1.704  11.423  13.507  1.00  0.00     0.032 A 
HETATM   33  N4  UNL     1      -2.282   8.975  13.667  1.00  0.00    -0.340 N 
ATOM     34  H4  UNL     1      -3.159   8.902  13.150  1.00  0.00     0.167 HD
ENDBRANCH  21  24
BRANCH  23  35
HETATM   35  O1  UNL     1      -5.147   4.679  14.820  1.00  0.00    -0.283 OA
ATOM     36  H1  UNL     1      -5.409   3.855  15.212  1.00  0.00     0.245 HD
ENDBRANCH  23  35
ENDBRANCH   8  18
ENDBRANCH   4   6
ENDBRANCH   3   4
TORSDOF 5
ENDMDL
MODEL 4
REMARK VINA RESULT: -8.917037464      1.220      1.749
REMARK  5 active torsions:
REMARK  status: ('A' for Active; 'I' for Inactive)
REMARK    1  A    between atoms: C3_3  and  N1_4 
REMARK    2  A    between atoms: N1_4  and  C4_6 
REMARK    3  A    between atoms: C5_9  and  C6_10 
REMARK    4  A    between atoms: C9_13  and  C10_14 
REMARK    5  A    between atoms: N5_26  and  O1_27 
ROOT
HETATM    1  C1  UNL     1      -6.054   2.396  18.734  1.00  0.00     0.014 C 
HETATM    2  C2  UNL     1      -6.146   1.524  17.906  1.00  0.00    -0.097 C 
HETATM    3  C3  UNL     1      -6.236   0.460  16.879  1.00  0.00     0.231 C 
ENDROOT
BRANCH   3   4
HETATM    4  N1  UNL     1      -4.909   0.127  16.405  1.00  0.00    -0.216 N 
ATOM      5  H1  UNL     1      -4.368  -0.586  16.893  1.00  0.00     0.178 HD
BRANCH   4   6
HETATM    6  C4  UNL     1      -4.394   0.721  15.368  1.00  0.00     0.679 A 
HETATM    7  N2  UNL     1      -3.957   1.981  15.396  1.00  0.00    -0.189 N 
HETATM    8  C5  UNL     1      -3.425   2.553  14.275  1.00  0.00     0.090 A 
ATOM      9  H2  UNL     1      -4.021   2.520  16.259  1.00  0.00     0.184 HD
HETATM   10  C18 UNL     1      -3.320   1.870  13.083  1.00  0.00     0.021 A 
HETATM   11  C19 UNL     1      -2.821   2.414  11.924  1.00  0.00     0.016 A 
HETATM   12  C23 UNL     1      -3.785   0.550  13.079  1.00  0.00     0.061 A 
HETATM   13  C20 UNL     1      -2.753   1.692  10.726  1.00  0.00     0.001 A 
HETATM   14  C21 UNL     1      -3.216   0.394  10.760  1.00  0.00     0.002 A 
HETATM   15  C22 UNL     1      -3.723  -0.171  11.911  1.00  0.00     0.031 A 
HETATM   16  N6  UNL     1      -4.294   0.047  14.215  1.00  0.00    -0.191 N 
ATOM     17  H6  UNL     1      -4.630  -0.916  14.198  1.00  0.00     0.184 HD
BRANCH   8  18
HETATM   18  C6  UNL     1      -2.967   3.936  14.323  1.00  0.00     0.090 A 
HETATM   19  C7  UNL     1      -1.638   4.266  14.042  1.00  0.00     0.035 A 
HETATM   20  C8  UNL     1      -1.191   5.569  14.022  1.00  0.00     0.019 A 
HETATM   21  C9  UNL     1      -2.075   6.590  14.289  1.00  0.00     0.026 A 
HETATM   22  C17 UNL     1      -3.368   6.253  14.560  1.00  0.00     0.138 A 
HETATM   23  N5  UNL     1      -3.793   4.958  14.574  1.00  0.00    -0.233 N 
BRANCH  21  24
HETATM   24  C10 UNL     1      -1.621   7.988  14.274  1.00  0.00     0.118 A 
HETATM   25  N3  UNL     1      -2.214   9.019  13.692  1.00  0.00    -0.340 N 
HETATM   26  C11 UNL     1      -1.515  10.164  13.882  1.00  0.00     0.060 A 
ATOM     27  H3  UNL     1      -3.086   8.959  13.167  1.00  0.00     0.167 HD
HETATM   28  C12 UNL     1      -1.704  11.465  13.492  1.00  0.00     0.032 A 
HETATM   29  C16 UNL     1      -0.418   9.762  14.644  1.00  0.00     0.060 A 
HETATM   30  C13 UNL     1      -0.802  12.436  13.846  1.00  0.00     0.002 A 
HETATM   31  C14 UNL     1       0.291  12.073  14.596  1.00  0.00     0.002 A 
HETATM   32  C15 UNL     1       0.462  10.769  14.977  1.00  0.00     0.032 A 
HETATM   33  N4  UNL     1      -0.504   8.443  14.869  1.00  0.00    -0.340 N 
ATOM     34  H4  UNL     1       0.162   7.882  15.399  1.00  0.00     0.167 HD
ENDBRANCH  21  24
BRANCH  23  35
HETATM   35  O1  UNL     1      -5.141   4.711  14.807  1.00  0.00    -0.283 OA
ATOM     36  H1  UNL     1      -5.432   4.478  15.681  1.00  0.00     0.245 HD
ENDBRANCH  23  35
ENDBRANCH   8  18
ENDBRANCH   4   6
ENDBRANCH   3   4
TORSDOF 5
ENDMDL
MODEL 5
REMARK VINA RESULT: -8.669804645      1.316      1.837
REMARK  5 active torsions:
REMARK  status: ('A' for Active; 'I' for Inactive)
REMARK    1  A    between atoms: C3_3  and  N1_4 
REMARK    2  A    between atoms: N1_4  and  C4_6 
REMARK    3  A    between atoms: C5_9  and  C6_10 
REMARK    4  A    between atoms: C9_13  and  C10_14 
REMARK    5  A    between atoms: N5_26  and  O1_27 
ROOT
HETATM    1  C1  UNL     1      -6.043   2.480  18.650  1.00  0.00     0.014 C 
HETATM    2  C2  UNL     1      -6.098   1.577  17.854  1.00  0.00    -0.097 C 
HETATM    3  C3  UNL     1      -6.142   0.475  16.864  1.00  0.00     0.231 C 
ENDROOT
BRANCH   3   4
HETATM    4  N1  UNL     1      -4.802   0.181  16.402  1.00  0.00    -0.216 N 
ATOM      5  H1  UNL     1      -4.185  -0.384  16.985  1.00  0.00     0.178 HD
BRANCH   4   6
HETATM    6  C4  UNL     1      -4.370   0.624  15.258  1.00  0.00     0.679 A 
HETATM    7  N2  UNL     1      -4.047   1.902  15.051  1.00  0.00    -0.189 N 
HETATM    8  C5  UNL     1      -3.598   2.312  13.826  1.00  0.00     0.090 A 
ATOM      9  H2  UNL     1      -4.136   2.577  15.810  1.00  0.00     0.184 HD
HETATM   10  C18 UNL     1      -3.464   1.441  12.767  1.00  0.00     0.021 A 
HETATM   11  C19 UNL     1      -3.047   1.813  11.512  1.00  0.00     0.016 A 
HETATM   12  C23 UNL     1      -3.809   0.107  13.009  1.00  0.00     0.061 A 
HETATM   13  C20 UNL     1      -2.947   0.900  10.453  1.00  0.00     0.001 A 
HETATM   14  C21 UNL     1      -3.290  -0.405  10.730  1.00  0.00     0.002 A 
HETATM   15  C22 UNL     1      -3.714  -0.800  11.981  1.00  0.00     0.031 A 
HETATM   16  N6  UNL     1      -4.241  -0.230  14.235  1.00  0.00    -0.191 N 
ATOM     17  H6  UNL     1      -4.489  -1.206  14.398  1.00  0.00     0.184 HD
BRANCH   8  18
HETATM   18  C6  UNL     1      -3.265   3.715  13.616  1.00  0.00     0.090 A 
HETATM   19  C7  UNL     1      -4.200   4.605  13.080  1.00  0.00     0.035 A 
HETATM   20  C8  UNL     1      -3.934   5.948  12.924  1.00  0.00     0.019 A 
HETATM   21  C9  UNL     1      -2.706   6.441  13.307  1.00  0.00     0.026 A 
HETATM   22  C17 UNL     1      -1.806   5.561  13.829  1.00  0.00     0.138 A 
HETATM   23  N5  UNL     1      -2.087   4.236  13.976  1.00  0.00    -0.233 N 
BRANCH  21  24
HETATM   24  C10 UNL     1      -2.399   7.869  13.150  1.00  0.00     0.118 A 
HETATM   25  N3  UNL     1      -2.644   8.634  12.097  1.00  0.00    -0.340 N 
HETATM   26  C11 UNL     1      -2.226   9.906  12.300  1.00  0.00     0.060 A 
ATOM     27  H3  UNL     1      -3.091   8.306  11.242  1.00  0.00     0.167 HD
HETATM   28  C12 UNL     1      -2.251  11.045  11.537  1.00  0.00     0.032 A 
HETATM   29  C16 UNL     1      -1.690   9.879  13.588  1.00  0.00     0.060 A 
HETATM   30  C13 UNL     1      -1.739  12.221  12.023  1.00  0.00     0.002 A 
HETATM   31  C14 UNL     1      -1.204  12.228  13.289  1.00  0.00     0.002 A 
HETATM   32  C15 UNL     1      -1.188  11.081  14.037  1.00  0.00     0.032 A 
HETATM   33  N4  UNL     1      -1.806   8.638  14.081  1.00  0.00    -0.340 N 
ATOM     34  H4  UNL     1      -1.498   8.330  15.004  1.00  0.00     0.167 HD
ENDBRANCH  21  24
BRANCH  23  35
HETATM   35  O1  UNL     1      -1.128   3.422  14.568  1.00  0.00    -0.283 OA
ATOM     36  H1  UNL     1      -0.240   3.741  14.672  1.00  0.00     0.245 HD
ENDBRANCH  23  35
ENDBRANCH   8  18
ENDBRANCH   4   6
ENDBRANCH   3   4
TORSDOF 5
ENDMDL
