MODEL 1
REMARK VINA RESULT: -8.724486306      0.000      0.000
REMARK  5 active torsions:
REMARK  status: ('A' for Active; 'I' for Inactive)
REMARK    1  A    between atoms: C2_3  and  N2_4 
REMARK    2  A    between atoms: C2_3  and  O2_10 
REMARK    3  A    between atoms: N2_4  and  C3_6 
REMARK    4  A    between atoms: C3_6  and  C4_7 
REMARK    5  A    between atoms: O2_10  and  C6_11 
ROOT
HETATM    1  C1  UNL     1      58.423  21.852 127.797  1.00  0.00     0.233 C 
HETATM    2  N1  UNL     1      57.338  21.107 127.588  1.00  0.00    -0.390 NA
HETATM    3  C2  UNL     1      56.367  20.439 127.400  1.00  0.00     0.295 C 
ENDROOT
BRANCH   3   4
HETATM    4  N2  UNL     1      55.150  20.997 126.886  1.00  0.00    -0.338 N 
ATOM      5  H2  UNL     1      54.331  21.123 127.480  1.00  0.00     0.164 HD
BRANCH   4   6
HETATM    6  C3  UNL     1      55.133  21.372 125.499  1.00  0.00     0.202 C 
BRANCH   6   7
HETATM    7  C4  UNL     1      53.762  21.417 124.937  1.00  0.00     0.140 C 
HETATM    8  C5  UNL     1      53.432  22.132 123.688  1.00  0.00     0.092 C 
HETATM    9  O1  UNL     1      52.878  20.839 125.535  1.00  0.00    -0.297 OA
ENDBRANCH   6   7
ENDBRANCH   4   6
ENDBRANCH   3   4
BRANCH   3  10
HETATM   10  O2  UNL     1      56.388  19.055 127.685  1.00  0.00    -0.305 OA
BRANCH  10  11
HETATM   11  C6  UNL     1      56.044  18.612 128.942  1.00  0.00     0.144 C 
HETATM   12  C7  UNL     1      54.641  18.360 129.263  1.00  0.00     0.054 C 
HETATM   13  C8  UNL     1      53.662  18.043 128.203  1.00  0.00     0.230 C 
HETATM   14  C15 UNL     1      54.629  17.093 130.151  1.00  0.00     0.004 C 
HETATM   15  C9  UNL     1      53.973  16.874 127.331  1.00  0.00     0.036 C 
HETATM   16  N3  UNL     1      52.368  17.869 128.796  1.00  0.00     0.093 N 
HETATM   17  C10 UNL     1      53.187  17.066 126.023  1.00  0.00     0.004 C 
HETATM   18  C11 UNL     1      51.801  17.499 126.438  1.00  0.00     0.030 C 
HETATM   19  C12 UNL     1      51.523  17.152 127.862  1.00  0.00     0.273 C 
HETATM   20  C13 UNL     1      52.237  17.325 130.069  1.00  0.00     0.273 C 
HETATM   21  C14 UNL     1      53.424  17.233 130.967  1.00  0.00     0.036 C 
HETATM   22  C16 UNL     1      55.970  17.149 130.738  1.00  0.00    -0.034 C 
HETATM   23  C17 UNL     1      56.244  18.304 131.634  1.00  0.00     0.016 C 
HETATM   24  C18 UNL     1      56.505  15.843 131.245  1.00  0.00     0.010 C 
HETATM   25  C23 UNL     1      56.760  17.375 129.426  1.00  0.00     0.024 C 
HETATM   26  C19 UNL     1      57.962  15.891 131.563  1.00  0.00     0.005 C 
HETATM   27  C20 UNL     1      58.813  16.766 130.755  1.00  0.00    -0.018 C 
HETATM   28  C21 UNL     1      60.019  15.956 130.244  1.00  0.00     0.010 C 
HETATM   29  C22 UNL     1      58.207  17.515 129.633  1.00  0.00     0.012 C 
ENDBRANCH  10  11
ENDBRANCH   3  10
TORSDOF 5
ENDMDL
MODEL 2
REMARK VINA RESULT: -8.695901550      2.442      6.951
REMARK  5 active torsions:
REMARK  status: ('A' for Active; 'I' for Inactive)
REMARK    1  A    between atoms: C2_3  and  N2_4 
REMARK    2  A    between atoms: C2_3  and  O2_10 
REMARK    3  A    between atoms: N2_4  and  C3_6 
REMARK    4  A    between atoms: C3_6  and  C4_7 
REMARK    5  A    between atoms: O2_10  and  C6_11 
ROOT
HETATM    1  C1  UNL     1      53.875  13.973 129.829  1.00  0.00     0.233 C 
HETATM    2  N1  UNL     1      53.101  15.037 129.620  1.00  0.00    -0.390 NA
HETATM    3  C2  UNL     1      52.408  15.991 129.431  1.00  0.00     0.295 C 
ENDROOT
BRANCH   3   4
HETATM    4  N2  UNL     1      51.989  16.847 130.503  1.00  0.00    -0.338 N 
ATOM      5  H2  UNL     1      51.088  17.325 130.479  1.00  0.00     0.164 HD
BRANCH   4   6
HETATM    6  C3  UNL     1      52.891  17.004 131.610  1.00  0.00     0.202 C 
BRANCH   6   7
HETATM    7  C4  UNL     1      53.881  18.086 131.391  1.00  0.00     0.140 C 
HETATM    8  C5  UNL     1      55.312  17.939 131.722  1.00  0.00     0.092 C 
HETATM    9  O1  UNL     1      53.491  19.133 130.918  1.00  0.00    -0.297 OA
ENDBRANCH   6   7
ENDBRANCH   4   6
ENDBRANCH   3   4
BRANCH   3  10
HETATM   10  O2  UNL     1      51.973  16.309 128.125  1.00  0.00    -0.305 OA
BRANCH  10  11
HETATM   11  C6  UNL     1      52.087  17.602 127.665  1.00  0.00     0.144 C 
HETATM   12  C7  UNL     1      53.348  18.322 127.829  1.00  0.00     0.054 C 
HETATM   13  C8  UNL     1      54.627  17.595 127.963  1.00  0.00     0.230 C 
HETATM   14  C15 UNL     1      53.539  19.145 126.533  1.00  0.00     0.004 C 
HETATM   15  C9  UNL     1      54.977  16.645 126.868  1.00  0.00     0.036 C 
HETATM   16  N3  UNL     1      55.689  18.543 128.133  1.00  0.00     0.093 N 
HETATM   17  C10 UNL     1      55.980  15.635 127.452  1.00  0.00     0.004 C 
HETATM   18  C11 UNL     1      56.972  16.454 128.244  1.00  0.00     0.030 C 
HETATM   19  C12 UNL     1      56.947  17.888 127.834  1.00  0.00     0.273 C 
HETATM   20  C13 UNL     1      55.640  19.784 127.510  1.00  0.00     0.273 C 
HETATM   21  C14 UNL     1      54.354  20.286 126.944  1.00  0.00     0.036 C 
HETATM   22  C16 UNL     1      52.150  19.306 126.095  1.00  0.00    -0.034 C 
HETATM   23  C17 UNL     1      51.271  20.105 126.991  1.00  0.00     0.016 C 
HETATM   24  C18 UNL     1      51.965  19.601 124.637  1.00  0.00     0.010 C 
HETATM   25  C23 UNL     1      51.722  17.823 126.218  1.00  0.00     0.024 C 
HETATM   26  C19 UNL     1      50.548  19.472 124.188  1.00  0.00     0.005 C 
HETATM   27  C20 UNL     1      49.710  18.465 124.842  1.00  0.00    -0.018 C 
HETATM   28  C21 UNL     1      49.033  17.601 123.763  1.00  0.00     0.010 C 
HETATM   29  C22 UNL     1      50.313  17.592 125.873  1.00  0.00     0.012 C 
ENDBRANCH  10  11
ENDBRANCH   3  10
TORSDOF 5
ENDMDL
MODEL 3
REMARK VINA RESULT: -8.452670624      1.282      2.315
REMARK  5 active torsions:
REMARK  status: ('A' for Active; 'I' for Inactive)
REMARK    1  A    between atoms: C2_3  and  N2_4 
REMARK    2  A    between atoms: C2_3  and  O2_10 
REMARK    3  A    between atoms: N2_4  and  C3_6 
REMARK    4  A    between atoms: C3_6  and  C4_7 
REMARK    5  A    between atoms: O2_10  and  C6_11 
ROOT
HETATM    1  C1  UNL     1      54.907  21.035 125.771  1.00  0.00     0.233 C 
HETATM    2  N1  UNL     1      55.855  20.585 126.592  1.00  0.00    -0.390 NA
HETATM    3  C2  UNL     1      56.704  20.181 127.328  1.00  0.00     0.295 C 
ENDROOT
BRANCH   3   4
HETATM    4  N2  UNL     1      57.740  21.035 127.831  1.00  0.00    -0.338 N 
ATOM      5  H2  UNL     1      57.966  21.066 128.825  1.00  0.00     0.164 HD
BRANCH   4   6
HETATM    6  C3  UNL     1      58.447  21.844 126.878  1.00  0.00     0.202 C 
BRANCH   6   7
HETATM    7  C4  UNL     1      58.110  23.284 126.990  1.00  0.00     0.140 C 
HETATM    8  C5  UNL     1      57.084  23.795 127.921  1.00  0.00     0.092 C 
HETATM    9  O1  UNL     1      58.707  24.070 126.285  1.00  0.00    -0.297 OA
ENDBRANCH   6   7
ENDBRANCH   4   6
ENDBRANCH   3   4
BRANCH   3  10
HETATM   10  O2  UNL     1      56.713  18.826 127.731  1.00  0.00    -0.305 OA
BRANCH  10  11
HETATM   11  C6  UNL     1      56.384  18.499 129.027  1.00  0.00     0.144 C 
HETATM   12  C7  UNL     1      54.979  18.354 129.403  1.00  0.00     0.054 C 
HETATM   13  C8  UNL     1      53.951  18.018 128.397  1.00  0.00     0.230 C 
HETATM   14  C15 UNL     1      54.922  17.160 130.384  1.00  0.00     0.004 C 
HETATM   15  C9  UNL     1      54.168  16.771 127.608  1.00  0.00     0.036 C 
HETATM   16  N3  UNL     1      52.669  17.965 129.036  1.00  0.00     0.093 N 
HETATM   17  C10 UNL     1      53.354  16.913 126.311  1.00  0.00     0.004 C 
HETATM   18  C11 UNL     1      52.008  17.456 126.728  1.00  0.00     0.030 C 
HETATM   19  C12 UNL     1      51.756  17.233 128.181  1.00  0.00     0.273 C 
HETATM   20  C13 UNL     1      52.546  17.526 130.349  1.00  0.00     0.273 C 
HETATM   21  C14 UNL     1      53.754  17.431 131.220  1.00  0.00     0.036 C 
HETATM   22  C16 UNL     1      56.282  17.179 130.929  1.00  0.00    -0.034 C 
HETATM   23  C17 UNL     1      56.649  18.380 131.728  1.00  0.00     0.016 C 
HETATM   24  C18 UNL     1      56.758  15.886 131.519  1.00  0.00     0.010 C 
HETATM   25  C23 UNL     1      57.043  17.261 129.583  1.00  0.00     0.024 C 
HETATM   26  C19 UNL     1      58.224  15.871 131.794  1.00  0.00     0.005 C 
HETATM   27  C20 UNL     1      59.098  16.631 130.899  1.00  0.00    -0.018 C 
HETATM   28  C21 UNL     1      60.239  15.717 130.420  1.00  0.00     0.010 C 
HETATM   29  C22 UNL     1      58.501  17.331 129.740  1.00  0.00     0.012 C 
ENDBRANCH  10  11
ENDBRANCH   3  10
TORSDOF 5
ENDMDL
MODEL 4
REMARK VINA RESULT: -8.305088141      2.183      5.036
REMARK  5 active torsions:
REMARK  status: ('A' for Active; 'I' for Inactive)
REMARK    1  A    between atoms: C2_3  and  N2_4 
REMARK    2  A    between atoms: C2_3  and  O2_10 
REMARK    3  A    between atoms: N2_4  and  C3_6 
REMARK    4  A    between atoms: C3_6  and  C4_7 
REMARK    5  A    between atoms: O2_10  and  C6_11 
ROOT
HETATM    1  C1  UNL     1      57.176  19.967 126.442  1.00  0.00     0.233 C 
HETATM    2  N1  UNL     1      56.193  19.715 127.304  1.00  0.00    -0.390 NA
HETATM    3  C2  UNL     1      55.311  19.489 128.076  1.00  0.00     0.295 C 
ENDROOT
BRANCH   3   4
HETATM    4  N2  UNL     1      53.943  19.797 127.777  1.00  0.00    -0.338 N 
ATOM      5  H2  UNL     1      53.367  20.337 128.423  1.00  0.00     0.164 HD
BRANCH   4   6
HETATM    6  C3  UNL     1      53.417  19.315 126.530  1.00  0.00     0.202 C 
BRANCH   6   7
HETATM    7  C4  UNL     1      52.185  18.509 126.705  1.00  0.00     0.140 C 
HETATM    8  C5  UNL     1      51.748  17.493 125.726  1.00  0.00     0.092 C 
HETATM    9  O1  UNL     1      51.512  18.697 127.697  1.00  0.00    -0.297 OA
ENDBRANCH   6   7
ENDBRANCH   4   6
ENDBRANCH   3   4
BRANCH   3  10
HETATM   10  O2  UNL     1      55.595  18.900 129.329  1.00  0.00    -0.305 OA
BRANCH  10  11
HETATM   11  C6  UNL     1      56.136  17.635 129.381  1.00  0.00     0.144 C 
HETATM   12  C7  UNL     1      57.239  17.355 130.297  1.00  0.00     0.054 C 
HETATM   13  C8  UNL     1      57.444  18.170 131.513  1.00  0.00     0.230 C 
HETATM   14  C15 UNL     1      56.978  15.937 130.857  1.00  0.00     0.004 C 
HETATM   15  C9  UNL     1      56.297  18.259 132.461  1.00  0.00     0.036 C 
HETATM   16  N3  UNL     1      58.605  17.692 132.207  1.00  0.00     0.093 N 
HETATM   17  C10 UNL     1      56.502  19.534 133.296  1.00  0.00     0.004 C 
HETATM   18  C11 UNL     1      57.959  19.537 133.691  1.00  0.00     0.030 C 
HETATM   19  C12 UNL     1      58.560  18.176 133.572  1.00  0.00     0.273 C 
HETATM   20  C13 UNL     1      58.936  16.342 132.192  1.00  0.00     0.273 C 
HETATM   21  C14 UNL     1      58.307  15.430 131.194  1.00  0.00     0.036 C 
HETATM   22  C16 UNL     1      56.179  15.352 129.777  1.00  0.00    -0.034 C 
HETATM   23  C17 UNL     1      56.871  15.183 128.471  1.00  0.00     0.016 C 
HETATM   24  C18 UNL     1      55.323  14.186 130.169  1.00  0.00     0.010 C 
HETATM   25  C23 UNL     1      55.162  16.509 129.623  1.00  0.00     0.024 C 
HETATM   26  C19 UNL     1      54.326  13.813 129.124  1.00  0.00     0.005 C 
HETATM   27  C20 UNL     1      53.769  14.883 128.294  1.00  0.00    -0.018 C 
HETATM   28  C21 UNL     1      52.233  14.777 128.309  1.00  0.00     0.010 C 
HETATM   29  C22 UNL     1      54.174  16.280 128.561  1.00  0.00     0.012 C 
ENDBRANCH  10  11
ENDBRANCH   3  10
TORSDOF 5
ENDMDL
MODEL 5
REMARK VINA RESULT: -8.278018280      2.770      5.542
REMARK  5 active torsions:
REMARK  status: ('A' for Active; 'I' for Inactive)
REMARK    1  A    between atoms: C2_3  and  N2_4 
REMARK    2  A    between atoms: C2_3  and  O2_10 
REMARK    3  A    between atoms: N2_4  and  C3_6 
REMARK    4  A    between atoms: C3_6  and  C4_7 
REMARK    5  A    between atoms: O2_10  and  C6_11 
ROOT
HETATM    1  C1  UNL     1      58.603  16.747 132.596  1.00  0.00     0.233 C 
HETATM    2  N1  UNL     1      57.612  17.529 132.172  1.00  0.00    -0.390 NA
HETATM    3  C2  UNL     1      56.724  18.231 131.792  1.00  0.00     0.295 C 
ENDROOT
BRANCH   3   4
HETATM    4  N2  UNL     1      55.868  18.932 132.705  1.00  0.00    -0.338 N 
ATOM      5  H2  UNL     1      54.944  19.258 132.422  1.00  0.00     0.164 HD
BRANCH   4   6
HETATM    6  C3  UNL     1      56.366  19.157 134.033  1.00  0.00     0.202 C 
BRANCH   6   7
HETATM    7  C4  UNL     1      56.702  20.579 134.284  1.00  0.00     0.140 C 
HETATM    8  C5  UNL     1      58.063  21.030 134.637  1.00  0.00     0.092 C 
HETATM    9  O1  UNL     1      55.815  21.402 134.193  1.00  0.00    -0.297 OA
ENDBRANCH   6   7
ENDBRANCH   4   6
ENDBRANCH   3   4
BRANCH   3  10
HETATM   10  O2  UNL     1      56.486  18.394 130.409  1.00  0.00    -0.305 OA
BRANCH  10  11
HETATM   11  C6  UNL     1      55.317  17.918 129.858  1.00  0.00     0.144 C 
HETATM   12  C7  UNL     1      54.663  18.667 128.787  1.00  0.00     0.054 C 
HETATM   13  C8  UNL     1      55.431  19.585 127.920  1.00  0.00     0.230 C 
HETATM   14  C15 UNL     1      54.122  17.609 127.797  1.00  0.00     0.004 C 
HETATM   15  C9  UNL     1      56.597  19.003 127.194  1.00  0.00     0.036 C 
HETATM   16  N3  UNL     1      54.538  20.199 126.981  1.00  0.00     0.093 N 
HETATM   17  C10 UNL     1      57.536  20.169 126.844  1.00  0.00     0.004 C 
HETATM   18  C11 UNL     1      56.645  21.270 126.319  1.00  0.00     0.030 C 
HETATM   19  C12 UNL     1      55.319  20.740 125.886  1.00  0.00     0.273 C 
HETATM   20  C13 UNL     1      53.441  19.505 126.484  1.00  0.00     0.273 C 
HETATM   21  C14 UNL     1      52.978  18.259 127.160  1.00  0.00     0.036 C 
HETATM   22  C16 UNL     1      53.960  16.453 128.682  1.00  0.00    -0.034 C 
HETATM   23  C17 UNL     1      52.946  16.594 129.762  1.00  0.00     0.016 C 
HETATM   24  C18 UNL     1      53.942  15.118 128.001  1.00  0.00     0.010 C 
HETATM   25  C23 UNL     1      55.359  16.501 129.343  1.00  0.00     0.024 C 
HETATM   26  C19 UNL     1      54.065  13.974 128.950  1.00  0.00     0.005 C 
HETATM   27  C20 UNL     1      54.868  14.167 130.159  1.00  0.00    -0.018 C 
HETATM   28  C21 UNL     1      55.880  13.013 130.275  1.00  0.00     0.010 C 
HETATM   29  C22 UNL     1      55.561  15.459 130.357  1.00  0.00     0.012 C 
ENDBRANCH  10  11
ENDBRANCH   3  10
TORSDOF 5
ENDMDL
