MODEL 1
REMARK VINA RESULT: -8.764503578      0.000      0.000
REMARK  6 active torsions:
REMARK  status: ('A' for Active; 'I' for Inactive)
REMARK    1  A    between atoms: O1_2  and  C2_3 
REMARK    2  A    between atoms: C5_6  and  N1_7 
REMARK    3  A    between atoms: N1_7  and  C6_9 
REMARK    4  A    between atoms: C6_9  and  N2_11 
REMARK    5  A    between atoms: C9_14  and  N3_15 
REMARK    6  A    between atoms: N4_18  and  C12_19 
ROOT
HETATM    1  N2  UNL     1      56.049  16.474 129.566  1.00  0.00    -0.358 N 
HETATM    2  C7  UNL     1      56.269  16.892 128.229  1.00  0.00     0.127 C 
HETATM    3  C8  UNL     1      54.995  16.936 127.379  1.00  0.00     0.040 C 
HETATM    4  C9  UNL     1      53.804  17.253 128.230  1.00  0.00     0.070 C 
HETATM    5  C18 UNL     1      54.271  18.107 129.382  1.00  0.00     0.040 C 
HETATM    6  C19 UNL     1      55.005  17.141 130.321  1.00  0.00     0.127 C 
ENDROOT
BRANCH   1   7
HETATM    7  C6  UNL     1      56.796  15.455 130.187  1.00  0.00     0.174 C 
HETATM    8  S1  UNL     1      56.129  13.946 130.138  1.00  0.00    -0.041 SA
BRANCH   7   9
HETATM    9  N1  UNL     1      58.015  15.711 130.841  1.00  0.00    -0.333 N 
ATOM     10  H1  UNL     1      58.823  15.161 130.550  1.00  0.00     0.168 HD
BRANCH   9  11
HETATM   11  C5  UNL     1      58.217  16.666 131.868  1.00  0.00     0.034 A 
HETATM   12  C4  UNL     1      57.875  16.519 133.177  1.00  0.00     0.032 A 
HETATM   13  C3  UNL     1      58.093  17.550 134.093  1.00  0.00     0.039 A 
HETATM   14  C2  UNL     1      58.656  18.738 133.717  1.00  0.00     0.068 A 
HETATM   15  C21 UNL     1      59.013  18.916 132.403  1.00  0.00     0.039 A 
HETATM   16  C20 UNL     1      58.795  17.898 131.504  1.00  0.00     0.032 A 
BRANCH  14  17
HETATM   17  O1  UNL     1      58.858  19.735 134.637  1.00  0.00    -0.356 OA
HETATM   18  C1  UNL     1      58.068  20.901 134.637  1.00  0.00     0.210 C 
ENDBRANCH  14  17
ENDBRANCH   9  11
ENDBRANCH   7   9
ENDBRANCH   1   7
BRANCH   4  19
HETATM   19  N3  UNL     1      52.702  17.797 127.504  1.00  0.00    -0.263 NA
HETATM   20  C10 UNL     1      52.778  19.199 127.426  1.00  0.00     0.082 C 
HETATM   21  C11 UNL     1      52.753  19.783 126.037  1.00  0.00     0.102 C 
HETATM   22  N4  UNL     1      51.811  19.178 125.192  1.00  0.00    -0.360 N 
HETATM   23  C16 UNL     1      51.625  17.787 125.284  1.00  0.00     0.102 C 
HETATM   24  C17 UNL     1      52.389  17.076 126.333  1.00  0.00     0.082 C 
BRANCH  22  25
HETATM   25  C12 UNL     1      50.919  19.944 124.442  1.00  0.00     0.088 C 
HETATM   26  C13 UNL     1      51.015  19.898 122.936  1.00  0.00     0.026 C 
HETATM   27  C14 UNL     1      49.512  20.199 122.928  1.00  0.00     0.004 C 
HETATM   28  C15 UNL     1      49.481  19.505 124.298  1.00  0.00     0.026 C 
ENDBRANCH  22  25
ENDBRANCH   4  19
TORSDOF 6
ENDMDL
MODEL 2
REMARK VINA RESULT: -8.746984148      1.420      1.912
REMARK  6 active torsions:
REMARK  status: ('A' for Active; 'I' for Inactive)
REMARK    1  A    between atoms: O1_2  and  C2_3 
REMARK    2  A    between atoms: C5_6  and  N1_7 
REMARK    3  A    between atoms: N1_7  and  C6_9 
REMARK    4  A    between atoms: C6_9  and  N2_11 
REMARK    5  A    between atoms: C9_14  and  N3_15 
REMARK    6  A    between atoms: N4_18  and  C12_19 
ROOT
HETATM    1  N2  UNL     1      54.904  15.508 128.531  1.00  0.00    -0.358 N 
HETATM    2  C7  UNL     1      53.627  14.920 128.342  1.00  0.00     0.127 C 
HETATM    3  C8  UNL     1      52.489  15.940 128.237  1.00  0.00     0.040 C 
HETATM    4  C9  UNL     1      52.981  17.221 127.636  1.00  0.00     0.070 C 
HETATM    5  C18 UNL     1      54.119  16.888 126.704  1.00  0.00     0.040 C 
HETATM    6  C19 UNL     1      55.304  16.565 127.622  1.00  0.00     0.127 C 
ENDROOT
BRANCH   1   7
HETATM    7  C6  UNL     1      55.792  15.108 129.548  1.00  0.00     0.174 C 
HETATM    8  S1  UNL     1      55.529  13.606 130.180  1.00  0.00    -0.041 SA
BRANCH   7   9
HETATM    9  N1  UNL     1      56.815  15.948 130.023  1.00  0.00    -0.333 N 
ATOM     10  H1  UNL     1      57.666  16.007 129.464  1.00  0.00     0.168 HD
BRANCH   9  11
HETATM   11  C5  UNL     1      56.766  16.718 131.212  1.00  0.00     0.034 A 
HETATM   12  C4  UNL     1      57.641  16.642 132.251  1.00  0.00     0.032 A 
HETATM   13  C3  UNL     1      57.467  17.431 133.391  1.00  0.00     0.039 A 
HETATM   14  C2  UNL     1      56.423  18.306 133.506  1.00  0.00     0.068 A 
HETATM   15  C21 UNL     1      55.525  18.407 132.472  1.00  0.00     0.039 A 
HETATM   16  C20 UNL     1      55.699  17.626 131.353  1.00  0.00     0.032 A 
BRANCH  14  17
HETATM   17  O1  UNL     1      56.276  19.069 134.636  1.00  0.00    -0.356 OA
HETATM   18  C1  UNL     1      56.488  20.461 134.610  1.00  0.00     0.210 C 
ENDBRANCH  14  17
ENDBRANCH   9  11
ENDBRANCH   7   9
ENDBRANCH   1   7
BRANCH   4  19
HETATM   19  N3  UNL     1      51.953  18.018 127.049  1.00  0.00    -0.263 NA
HETATM   20  C10 UNL     1      52.455  19.250 126.592  1.00  0.00     0.082 C 
HETATM   21  C11 UNL     1      52.211  19.561 125.138  1.00  0.00     0.102 C 
HETATM   22  N4  UNL     1      50.917  19.234 124.705  1.00  0.00    -0.360 N 
HETATM   23  C16 UNL     1      50.324  18.056 125.196  1.00  0.00     0.102 C 
HETATM   24  C17 UNL     1      51.091  17.290 126.204  1.00  0.00     0.082 C 
BRANCH  22  25
HETATM   25  C12 UNL     1      50.143  20.148 123.992  1.00  0.00     0.088 C 
HETATM   26  C13 UNL     1      50.840  21.128 123.077  1.00  0.00     0.026 C 
HETATM   27  C14 UNL     1      49.554  21.113 122.242  1.00  0.00     0.004 C 
HETATM   28  C15 UNL     1      49.349  19.693 122.790  1.00  0.00     0.026 C 
ENDBRANCH  22  25
ENDBRANCH   4  19
TORSDOF 6
ENDMDL
MODEL 3
REMARK VINA RESULT: -8.730390196      1.458      1.750
REMARK  6 active torsions:
REMARK  status: ('A' for Active; 'I' for Inactive)
REMARK    1  A    between atoms: O1_2  and  C2_3 
REMARK    2  A    between atoms: C5_6  and  N1_7 
REMARK    3  A    between atoms: N1_7  and  C6_9 
REMARK    4  A    between atoms: C6_9  and  N2_11 
REMARK    5  A    between atoms: C9_14  and  N3_15 
REMARK    6  A    between atoms: N4_18  and  C12_19 
ROOT
HETATM    1  N2  UNL     1      54.847  16.181 129.056  1.00  0.00    -0.358 N 
HETATM    2  C7  UNL     1      55.317  16.584 127.779  1.00  0.00     0.127 C 
HETATM    3  C8  UNL     1      54.198  16.951 126.799  1.00  0.00     0.040 C 
HETATM    4  C9  UNL     1      53.014  17.504 127.531  1.00  0.00     0.070 C 
HETATM    5  C18 UNL     1      53.518  18.186 128.779  1.00  0.00     0.040 C 
HETATM    6  C19 UNL     1      53.896  17.044 129.731  1.00  0.00     0.127 C 
ENDROOT
BRANCH   1   7
HETATM    7  C6  UNL     1      55.265  14.996 129.691  1.00  0.00     0.174 C 
HETATM    8  S1  UNL     1      54.166  13.764 129.703  1.00  0.00    -0.041 SA
BRANCH   7   9
HETATM    9  N1  UNL     1      56.522  14.879 130.309  1.00  0.00    -0.333 N 
ATOM     10  H1  UNL     1      56.905  13.939 130.410  1.00  0.00     0.168 HD
BRANCH   9  11
HETATM   11  C5  UNL     1      57.304  15.954 130.802  1.00  0.00     0.034 A 
HETATM   12  C4  UNL     1      56.869  16.949 131.621  1.00  0.00     0.032 A 
HETATM   13  C3  UNL     1      57.727  17.979 132.013  1.00  0.00     0.039 A 
HETATM   14  C2  UNL     1      59.029  18.027 131.596  1.00  0.00     0.068 A 
HETATM   15  C21 UNL     1      59.497  17.035 130.770  1.00  0.00     0.039 A 
HETATM   16  C20 UNL     1      58.647  16.024 130.386  1.00  0.00     0.032 A 
BRANCH  14  17
HETATM   17  O1  UNL     1      59.851  19.050 131.996  1.00  0.00    -0.356 OA
HETATM   18  C1  UNL     1      59.416  20.015 132.924  1.00  0.00     0.210 C 
ENDBRANCH  14  17
ENDBRANCH   9  11
ENDBRANCH   7   9
ENDBRANCH   1   7
BRANCH   4  19
HETATM   19  N3  UNL     1      52.160  18.313 126.724  1.00  0.00    -0.263 NA
HETATM   20  C10 UNL     1      52.514  19.672 126.800  1.00  0.00     0.082 C 
HETATM   21  C11 UNL     1      52.812  20.349 125.486  1.00  0.00     0.102 C 
HETATM   22  N4  UNL     1      51.910  20.013 124.466  1.00  0.00    -0.360 N 
HETATM   23  C16 UNL     1      51.449  18.685 124.390  1.00  0.00     0.102 C 
HETATM   24  C17 UNL     1      51.895  17.759 125.455  1.00  0.00     0.082 C 
BRANCH  22  25
HETATM   25  C12 UNL     1      51.305  20.996 123.686  1.00  0.00     0.088 C 
HETATM   26  C13 UNL     1      52.134  21.699 122.637  1.00  0.00     0.026 C 
HETATM   27  C14 UNL     1      50.823  21.882 121.863  1.00  0.00     0.004 C 
HETATM   28  C15 UNL     1      50.354  20.606 122.578  1.00  0.00     0.026 C 
ENDBRANCH  22  25
ENDBRANCH   4  19
TORSDOF 6
ENDMDL
MODEL 4
REMARK VINA RESULT: -8.663964037      3.821      9.435
REMARK  6 active torsions:
REMARK  status: ('A' for Active; 'I' for Inactive)
REMARK    1  A    between atoms: O1_2  and  C2_3 
REMARK    2  A    between atoms: C5_6  and  N1_7 
REMARK    3  A    between atoms: N1_7  and  C6_9 
REMARK    4  A    between atoms: C6_9  and  N2_11 
REMARK    5  A    between atoms: C9_14  and  N3_15 
REMARK    6  A    between atoms: N4_18  and  C12_19 
ROOT
HETATM    1  N2  UNL     1      51.106  17.866 126.583  1.00  0.00    -0.358 N 
HETATM    2  C7  UNL     1      51.042  16.576 127.169  1.00  0.00     0.127 C 
HETATM    3  C8  UNL     1      52.339  16.152 127.867  1.00  0.00     0.040 C 
HETATM    4  C9  UNL     1      53.063  17.346 128.409  1.00  0.00     0.070 C 
HETATM    5  C18 UNL     1      52.034  18.394 128.756  1.00  0.00     0.040 C 
HETATM    6  C19 UNL     1      51.576  18.963 127.407  1.00  0.00     0.127 C 
ENDROOT
BRANCH   1   7
HETATM    7  C6  UNL     1      50.730  18.125 125.251  1.00  0.00     0.174 C 
HETATM    8  S1  UNL     1      49.167  17.761 124.863  1.00  0.00    -0.041 SA
BRANCH   7   9
HETATM    9  N1  UNL     1      51.636  18.626 124.299  1.00  0.00    -0.333 N 
ATOM     10  H1  UNL     1      52.339  17.980 123.939  1.00  0.00     0.168 HD
BRANCH   9  11
HETATM   11  C5  UNL     1      51.657  19.951 123.797  1.00  0.00     0.034 A 
HETATM   12  C4  UNL     1      50.901  20.431 122.772  1.00  0.00     0.032 A 
HETATM   13  C3  UNL     1      51.036  21.753 122.341  1.00  0.00     0.039 A 
HETATM   14  C2  UNL     1      51.924  22.612 122.927  1.00  0.00     0.068 A 
HETATM   15  C21 UNL     1      52.700  22.158 123.966  1.00  0.00     0.039 A 
HETATM   16  C20 UNL     1      52.563  20.854 124.385  1.00  0.00     0.032 A 
BRANCH  14  17
HETATM   17  O1  UNL     1      52.037  23.905 122.485  1.00  0.00    -0.356 OA
HETATM   18  C1  UNL     1      52.061  24.986 123.387  1.00  0.00     0.210 C 
ENDBRANCH  14  17
ENDBRANCH   9  11
ENDBRANCH   7   9
ENDBRANCH   1   7
BRANCH   4  19
HETATM   19  N3  UNL     1      53.972  17.042 129.466  1.00  0.00    -0.263 NA
HETATM   20  C10 UNL     1      55.306  17.054 129.017  1.00  0.00     0.082 C 
HETATM   21  C11 UNL     1      56.240  17.975 129.758  1.00  0.00     0.102 C 
HETATM   22  N4  UNL     1      56.068  17.947 131.150  1.00  0.00    -0.360 N 
HETATM   23  C16 UNL     1      54.761  17.847 131.661  1.00  0.00     0.102 C 
HETATM   24  C17 UNL     1      53.666  17.696 130.676  1.00  0.00     0.082 C 
BRANCH  22  25
HETATM   25  C12 UNL     1      57.156  17.792 132.007  1.00  0.00     0.088 C 
HETATM   26  C13 UNL     1      56.908  17.788 133.497  1.00  0.00     0.026 C 
HETATM   27  C14 UNL     1      58.147  16.891 133.602  1.00  0.00     0.004 C 
HETATM   28  C15 UNL     1      57.800  16.436 132.177  1.00  0.00     0.026 C 
ENDBRANCH  22  25
ENDBRANCH   4  19
TORSDOF 6
ENDMDL
MODEL 5
REMARK VINA RESULT: -8.655255297      3.771      9.447
REMARK  6 active torsions:
REMARK  status: ('A' for Active; 'I' for Inactive)
REMARK    1  A    between atoms: O1_2  and  C2_3 
REMARK    2  A    between atoms: C5_6  and  N1_7 
REMARK    3  A    between atoms: N1_7  and  C6_9 
REMARK    4  A    between atoms: C6_9  and  N2_11 
REMARK    5  A    between atoms: C9_14  and  N3_15 
REMARK    6  A    between atoms: N4_18  and  C12_19 
ROOT
HETATM    1  N2  UNL     1      51.333  18.017 126.117  1.00  0.00    -0.358 N 
HETATM    2  C7  UNL     1      52.089  16.863 126.443  1.00  0.00     0.127 C 
HETATM    3  C8  UNL     1      53.518  17.172 126.900  1.00  0.00     0.040 C 
HETATM    4  C9  UNL     1      53.579  18.503 127.584  1.00  0.00     0.070 C 
HETATM    5  C18 UNL     1      52.241  18.749 128.238  1.00  0.00     0.040 C 
HETATM    6  C19 UNL     1      51.293  19.098 127.084  1.00  0.00     0.127 C 
ENDROOT
BRANCH   1   7
HETATM    7  C6  UNL     1      50.621  18.155 124.909  1.00  0.00     0.174 C 
HETATM    8  S1  UNL     1      49.046  17.663 124.946  1.00  0.00    -0.041 SA
BRANCH   7   9
HETATM    9  N1  UNL     1      51.222  18.645 123.736  1.00  0.00    -0.333 N 
ATOM     10  H1  UNL     1      51.592  17.958 123.081  1.00  0.00     0.168 HD
BRANCH   9  11
HETATM   11  C5  UNL     1      51.355  20.013 123.386  1.00  0.00     0.034 A 
HETATM   12  C4  UNL     1      50.635  20.670 122.437  1.00  0.00     0.032 A 
HETATM   13  C3  UNL     1      50.883  22.016 122.156  1.00  0.00     0.039 A 
HETATM   14  C2  UNL     1      51.849  22.722 122.818  1.00  0.00     0.068 A 
HETATM   15  C21 UNL     1      52.592  22.085 123.782  1.00  0.00     0.039 A 
HETATM   16  C20 UNL     1      52.344  20.760 124.055  1.00  0.00     0.032 A 
BRANCH  14  17
HETATM   17  O1  UNL     1      52.073  24.042 122.522  1.00  0.00    -0.356 OA
HETATM   18  C1  UNL     1      52.175  25.011 123.539  1.00  0.00     0.210 C 
ENDBRANCH  14  17
ENDBRANCH   9  11
ENDBRANCH   7   9
ENDBRANCH   1   7
BRANCH   4  19
HETATM   19  N3  UNL     1      54.697  18.657 128.456  1.00  0.00    -0.263 NA
HETATM   20  C10 UNL     1      54.352  18.371 129.791  1.00  0.00     0.082 C 
HETATM   21  C11 UNL     1      55.177  17.309 130.470  1.00  0.00     0.102 C 
HETATM   22  N4  UNL     1      56.551  17.413 130.207  1.00  0.00    -0.360 N 
HETATM   23  C16 UNL     1      56.959  17.781 128.911  1.00  0.00     0.102 C 
HETATM   24  C17 UNL     1      55.891  18.112 127.942  1.00  0.00     0.082 C 
BRANCH  22  25
HETATM   25  C12 UNL     1      57.487  17.378 131.239  1.00  0.00     0.088 C 
HETATM   26  C13 UNL     1      57.011  17.599 132.655  1.00  0.00     0.026 C 
HETATM   27  C14 UNL     1      58.189  16.716 133.085  1.00  0.00     0.004 C 
HETATM   28  C15 UNL     1      58.052  16.056 131.705  1.00  0.00     0.026 C 
ENDBRANCH  22  25
ENDBRANCH   4  19
TORSDOF 6
ENDMDL
