MODEL 1
REMARK VINA RESULT: -9.529885102      0.000      0.000
REMARK  4 active torsions:
REMARK  status: ('A' for Active; 'I' for Inactive)
REMARK    1  A    between atoms: O1_2  and  C2_3 
REMARK    2  A    between atoms: C5_6  and  N1_7 
REMARK    3  A    between atoms: C8_10  and  C9_11 
REMARK    4  A    between atoms: C13_15  and  N2_16 
REMARK       I    between atoms: N2_16  and  C14_18 
REMARK       I    between atoms: C14_18  and  N3_20 
ROOT
HETATM    1  C9  UNL     1      53.172  16.229 129.660  1.00  0.00     0.012 C 
HETATM    2  C10 UNL     1      52.536  14.930 129.135  1.00  0.00     0.007 C 
HETATM    3  C11 UNL     1      53.637  14.144 128.465  1.00  0.00     0.002 C 
HETATM    4  C12 UNL     1      54.913  14.937 128.599  1.00  0.00     0.026 C 
HETATM    5  C13 UNL     1      54.574  15.849 129.795  1.00  0.00     0.090 C 
ENDROOT
BRANCH   1   6
HETATM    6  C8  UNL     1      52.788  17.291 128.708  1.00  0.00    -0.005 C 
HETATM    7  C7  UNL     1      52.106  18.512 129.241  1.00  0.00     0.035 C 
HETATM    8  C6  UNL     1      51.956  19.492 128.099  1.00  0.00     0.273 C 
HETATM    9  N1  UNL     1      52.714  19.163 126.914  1.00  0.00     0.093 N 
HETATM   10  C20 UNL     1      52.413  17.893 126.370  1.00  0.00     0.273 C 
HETATM   11  C19 UNL     1      52.053  16.871 127.468  1.00  0.00     0.035 C 
BRANCH   9  12
HETATM   12  C5  UNL     1      52.514  20.217 125.967  1.00  0.00     0.223 C 
HETATM   13  C4  UNL     1      51.761  19.856 124.736  1.00  0.00     0.038 C 
HETATM   14  C3  UNL     1      51.763  20.908 123.682  1.00  0.00     0.034 C 
HETATM   15  C2  UNL     1      53.084  21.584 123.427  1.00  0.00     0.120 C 
HETATM   16  C22 UNL     1      53.520  22.123 124.775  1.00  0.00     0.034 C 
HETATM   17  C21 UNL     1      53.818  20.905 125.617  1.00  0.00     0.038 C 
BRANCH  15  18
HETATM   18  O1  UNL     1      52.890  22.550 122.478  1.00  0.00    -0.391 OA
HETATM   19  C1  UNL     1      51.614  23.004 122.310  1.00  0.00     0.202 C 
ENDBRANCH  15  18
ENDBRANCH   9  12
ENDBRANCH   1   6
BRANCH   5  20
HETATM   20  N2  UNL     1      55.563  16.812 130.055  1.00  0.00    -0.338 N 
HETATM   21  C14 UNL     1      56.825  16.467 130.623  1.00  0.00     0.325 C 
HETATM   22  O2  UNL     1      57.049  15.279 130.884  1.00  0.00    -0.247 OA
HETATM   23  N3  UNL     1      57.801  17.470 130.879  1.00  0.00    -0.270 N 
HETATM   24  C15 UNL     1      57.698  18.910 130.691  1.00  0.00     0.137 C 
HETATM   25  C18 UNL     1      59.128  17.249 131.332  1.00  0.00     0.227 C 
HETATM   26  C16 UNL     1      58.341  19.379 132.003  1.00  0.00     0.029 C 
HETATM   27  C17 UNL     1      59.610  18.514 132.001  1.00  0.00     0.105 C 
HETATM   28  O3  UNL     1      59.818  16.179 131.212  1.00  0.00    -0.273 OA
ATOM     29  H2  UNL     1      55.372  17.789 129.831  1.00  0.00     0.164 HD
ENDBRANCH   5  20
TORSDOF 4
ENDMDL
MODEL 2
REMARK VINA RESULT: -9.303811979      2.793      3.925
REMARK  4 active torsions:
REMARK  status: ('A' for Active; 'I' for Inactive)
REMARK    1  A    between atoms: O1_2  and  C2_3 
REMARK    2  A    between atoms: C5_6  and  N1_7 
REMARK    3  A    between atoms: C8_10  and  C9_11 
REMARK    4  A    between atoms: C13_15  and  N2_16 
REMARK       I    between atoms: N2_16  and  C14_18 
REMARK       I    between atoms: C14_18  and  N3_20 
ROOT
HETATM    1  C9  UNL     1      55.141  17.049 129.670  1.00  0.00     0.012 C 
HETATM    2  C10 UNL     1      55.113  15.511 129.654  1.00  0.00     0.007 C 
HETATM    3  C11 UNL     1      56.153  15.065 128.654  1.00  0.00     0.002 C 
HETATM    4  C12 UNL     1      56.810  16.303 128.095  1.00  0.00     0.026 C 
HETATM    5  C13 UNL     1      56.490  17.334 129.194  1.00  0.00     0.090 C 
ENDROOT
BRANCH   1   6
HETATM    6  C8  UNL     1      53.975  17.492 128.879  1.00  0.00    -0.005 C 
HETATM    7  C7  UNL     1      53.297  18.770 129.264  1.00  0.00     0.035 C 
HETATM    8  C6  UNL     1      52.243  19.065 128.221  1.00  0.00     0.273 C 
HETATM    9  N1  UNL     1      52.328  18.257 127.026  1.00  0.00     0.093 N 
HETATM   10  C20 UNL     1      52.252  16.864 127.264  1.00  0.00     0.273 C 
HETATM   11  C19 UNL     1      52.901  16.478 128.609  1.00  0.00     0.035 C 
BRANCH   9  12
HETATM   12  C5  UNL     1      51.310  18.707 126.127  1.00  0.00     0.223 C 
HETATM   13  C4  UNL     1      50.451  17.651 125.528  1.00  0.00     0.038 C 
HETATM   14  C3  UNL     1      49.557  18.128 124.438  1.00  0.00     0.034 C 
HETATM   15  C2  UNL     1      50.179  19.065 123.437  1.00  0.00     0.120 C 
HETATM   16  C22 UNL     1      50.740  20.208 124.260  1.00  0.00     0.034 C 
HETATM   17  C21 UNL     1      51.879  19.611 125.052  1.00  0.00     0.038 C 
BRANCH  15  18
HETATM   18  O1  UNL     1      49.209  19.442 122.549  1.00  0.00    -0.391 OA
HETATM   19  C1  UNL     1      49.070  20.779 122.316  1.00  0.00     0.202 C 
ENDBRANCH  15  18
ENDBRANCH   9  12
ENDBRANCH   1   6
BRANCH   5  20
HETATM   20  N2  UNL     1      56.876  18.642 128.856  1.00  0.00    -0.338 N 
HETATM   21  C14 UNL     1      56.585  19.213 127.581  1.00  0.00     0.325 C 
HETATM   22  O2  UNL     1      55.965  18.528 126.757  1.00  0.00    -0.247 OA
HETATM   23  N3  UNL     1      56.997  20.538 127.271  1.00  0.00    -0.270 N 
HETATM   24  C15 UNL     1      57.775  21.464 128.083  1.00  0.00     0.137 C 
HETATM   25  C18 UNL     1      56.676  21.258 126.092  1.00  0.00     0.227 C 
HETATM   26  C16 UNL     1      58.731  21.995 127.008  1.00  0.00     0.029 C 
HETATM   27  C17 UNL     1      57.725  22.328 125.898  1.00  0.00     0.105 C 
HETATM   28  O3  UNL     1      55.684  21.060 125.310  1.00  0.00    -0.273 OA
ATOM     29  H2  UNL     1      57.381  19.201 129.544  1.00  0.00     0.164 HD
ENDBRANCH   5  20
TORSDOF 4
ENDMDL
MODEL 3
REMARK VINA RESULT: -9.303512323      2.351      8.204
REMARK  4 active torsions:
REMARK  status: ('A' for Active; 'I' for Inactive)
REMARK    1  A    between atoms: O1_2  and  C2_3 
REMARK    2  A    between atoms: C5_6  and  N1_7 
REMARK    3  A    between atoms: C8_10  and  C9_11 
REMARK    4  A    between atoms: C13_15  and  N2_16 
REMARK       I    between atoms: N2_16  and  C14_18 
REMARK       I    between atoms: C14_18  and  N3_20 
ROOT
HETATM    1  C9  UNL     1      54.885  15.334 128.250  1.00  0.00     0.012 C 
HETATM    2  C10 UNL     1      54.458  14.034 128.952  1.00  0.00     0.007 C 
HETATM    3  C11 UNL     1      53.130  14.312 129.616  1.00  0.00     0.002 C 
HETATM    4  C12 UNL     1      52.753  15.739 129.305  1.00  0.00     0.026 C 
HETATM    5  C13 UNL     1      53.607  16.007 128.051  1.00  0.00     0.090 C 
ENDROOT
BRANCH   1   6
HETATM    6  C8  UNL     1      55.912  15.951 129.112  1.00  0.00    -0.005 C 
HETATM    7  C7  UNL     1      56.709  17.095 128.566  1.00  0.00     0.035 C 
HETATM    8  C6  UNL     1      57.575  17.630 129.683  1.00  0.00     0.273 C 
HETATM    9  N1  UNL     1      57.241  17.136 131.000  1.00  0.00     0.093 N 
HETATM   10  C20 UNL     1      57.290  15.728 131.118  1.00  0.00     0.273 C 
HETATM   11  C19 UNL     1      56.872  15.029 129.808  1.00  0.00     0.035 C 
BRANCH   9  12
HETATM   12  C5  UNL     1      58.104  17.787 131.937  1.00  0.00     0.223 C 
HETATM   13  C4  UNL     1      57.567  17.958 133.313  1.00  0.00     0.038 C 
HETATM   14  C3  UNL     1      58.393  18.828 134.194  1.00  0.00     0.034 C 
HETATM   15  C2  UNL     1      58.913  20.095 133.569  1.00  0.00     0.120 C 
HETATM   16  C22 UNL     1      59.670  19.646 132.334  1.00  0.00     0.034 C 
HETATM   17  C21 UNL     1      58.619  19.105 131.394  1.00  0.00     0.038 C 
BRANCH  15  18
HETATM   18  O1  UNL     1      59.690  20.737 134.495  1.00  0.00    -0.391 OA
HETATM   19  C1  UNL     1      60.991  20.970 134.156  1.00  0.00     0.202 C 
ENDBRANCH  15  18
ENDBRANCH   9  12
ENDBRANCH   1   6
BRANCH   5  20
HETATM   20  N2  UNL     1      53.552  17.343 127.619  1.00  0.00    -0.338 N 
HETATM   21  C14 UNL     1      52.689  17.764 126.563  1.00  0.00     0.325 C 
HETATM   22  O2  UNL     1      51.965  16.918 126.022  1.00  0.00    -0.247 OA
HETATM   23  N3  UNL     1      52.664  19.123 126.148  1.00  0.00    -0.270 N 
HETATM   24  C15 UNL     1      53.475  20.236 126.623  1.00  0.00     0.137 C 
HETATM   25  C18 UNL     1      51.778  19.690 125.195  1.00  0.00     0.227 C 
HETATM   26  C16 UNL     1      53.821  20.884 125.277  1.00  0.00     0.029 C 
HETATM   27  C17 UNL     1      52.425  20.937 124.640  1.00  0.00     0.105 C 
HETATM   28  O3  UNL     1      50.631  19.247 124.846  1.00  0.00    -0.273 OA
ATOM     29  H2  UNL     1      54.147  18.034 128.075  1.00  0.00     0.164 HD
ENDBRANCH   5  20
TORSDOF 4
ENDMDL
MODEL 4
REMARK VINA RESULT: -9.157881934      2.022      8.399
REMARK  4 active torsions:
REMARK  status: ('A' for Active; 'I' for Inactive)
REMARK    1  A    between atoms: O1_2  and  C2_3 
REMARK    2  A    between atoms: C5_6  and  N1_7 
REMARK    3  A    between atoms: C8_10  and  C9_11 
REMARK    4  A    between atoms: C13_15  and  N2_16 
REMARK       I    between atoms: N2_16  and  C14_18 
REMARK       I    between atoms: C14_18  and  N3_20 
ROOT
HETATM    1  C9  UNL     1      53.449  16.639 127.093  1.00  0.00     0.012 C 
HETATM    2  C10 UNL     1      52.664  15.520 127.799  1.00  0.00     0.007 C 
HETATM    3  C11 UNL     1      51.351  16.120 128.242  1.00  0.00     0.002 C 
HETATM    4  C12 UNL     1      51.332  17.561 127.796  1.00  0.00     0.026 C 
HETATM    5  C13 UNL     1      52.383  17.538 126.668  1.00  0.00     0.090 C 
ENDROOT
BRANCH   1   6
HETATM    6  C8  UNL     1      54.461  17.107 128.061  1.00  0.00    -0.005 C 
HETATM    7  C7  UNL     1      55.568  17.986 127.566  1.00  0.00     0.035 C 
HETATM    8  C6  UNL     1      56.370  18.437 128.765  1.00  0.00     0.273 C 
HETATM    9  N1  UNL     1      55.752  18.171 130.044  1.00  0.00     0.093 N 
HETATM   10  C20 UNL     1      55.459  16.806 130.271  1.00  0.00     0.273 C 
HETATM   11  C19 UNL     1      55.076  16.079 128.966  1.00  0.00     0.035 C 
BRANCH   9  12
HETATM   12  C5  UNL     1      56.603  18.716 131.056  1.00  0.00     0.223 C 
HETATM   13  C4  UNL     1      58.045  18.365 130.958  1.00  0.00     0.038 C 
HETATM   14  C3  UNL     1      58.858  18.761 132.141  1.00  0.00     0.034 C 
HETATM   15  C2  UNL     1      58.241  18.487 133.487  1.00  0.00     0.120 C 
HETATM   16  C22 UNL     1      56.897  19.186 133.456  1.00  0.00     0.034 C 
HETATM   17  C21 UNL     1      56.072  18.424 132.445  1.00  0.00     0.038 C 
BRANCH  15  18
HETATM   18  O1  UNL     1      59.093  18.961 134.447  1.00  0.00    -0.391 OA
HETATM   19  C1  UNL     1      59.487  20.262 134.336  1.00  0.00     0.202 C 
ENDBRANCH  15  18
ENDBRANCH   9  12
ENDBRANCH   1   6
BRANCH   5  20
HETATM   20  N2  UNL     1      52.673  18.814 126.156  1.00  0.00    -0.338 N 
HETATM   21  C14 UNL     1      52.022  19.331 124.996  1.00  0.00     0.325 C 
HETATM   22  O2  UNL     1      51.171  18.629 124.435  1.00  0.00    -0.247 OA
HETATM   23  N3  UNL     1      52.345  20.624 124.501  1.00  0.00    -0.270 N 
HETATM   24  C15 UNL     1      53.347  21.562 124.990  1.00  0.00     0.137 C 
HETATM   25  C18 UNL     1      51.697  21.297 123.434  1.00  0.00     0.227 C 
HETATM   26  C16 UNL     1      53.945  22.008 123.650  1.00  0.00     0.029 C 
HETATM   27  C17 UNL     1      52.658  22.320 122.875  1.00  0.00     0.105 C 
HETATM   28  O3  UNL     1      50.513  21.095 122.997  1.00  0.00    -0.273 OA
ATOM     29  H2  UNL     1      53.371  19.388 126.628  1.00  0.00     0.164 HD
ENDBRANCH   5  20
TORSDOF 4
ENDMDL
MODEL 5
REMARK VINA RESULT: -9.147768249      0.928      1.421
REMARK  4 active torsions:
REMARK  status: ('A' for Active; 'I' for Inactive)
REMARK    1  A    between atoms: O1_2  and  C2_3 
REMARK    2  A    between atoms: C5_6  and  N1_7 
REMARK    3  A    between atoms: C8_10  and  C9_11 
REMARK    4  A    between atoms: C13_15  and  N2_16 
REMARK       I    between atoms: N2_16  and  C14_18 
REMARK       I    between atoms: C14_18  and  N3_20 
ROOT
HETATM    1  C9  UNL     1      53.335  15.851 129.650  1.00  0.00     0.012 C 
HETATM    2  C10 UNL     1      52.780  14.463 129.285  1.00  0.00     0.007 C 
HETATM    3  C11 UNL     1      53.944  13.650 128.770  1.00  0.00     0.002 C 
HETATM    4  C12 UNL     1      55.176  14.518 128.840  1.00  0.00     0.026 C 
HETATM    5  C13 UNL     1      54.744  15.564 129.887  1.00  0.00     0.090 C 
ENDROOT
BRANCH   1   6
HETATM    6  C8  UNL     1      52.944  16.754 128.548  1.00  0.00    -0.005 C 
HETATM    7  C7  UNL     1      53.053  18.231 128.765  1.00  0.00     0.035 C 
HETATM    8  C6  UNL     1      52.738  18.914 127.454  1.00  0.00     0.273 C 
HETATM    9  N1  UNL     1      52.694  18.036 126.307  1.00  0.00     0.093 N 
HETATM   10  C20 UNL     1      51.760  16.980 126.423  1.00  0.00     0.273 C 
HETATM   11  C19 UNL     1      51.624  16.495 127.881  1.00  0.00     0.035 C 
BRANCH   9  12
HETATM   12  C5  UNL     1      52.453  18.846 125.152  1.00  0.00     0.223 C 
HETATM   13  C4  UNL     1      52.560  20.316 125.350  1.00  0.00     0.038 C 
HETATM   14  C3  UNL     1      52.089  21.129 124.195  1.00  0.00     0.034 C 
HETATM   15  C2  UNL     1      50.804  20.680 123.552  1.00  0.00     0.120 C 
HETATM   16  C22 UNL     1      51.034  19.230 123.176  1.00  0.00     0.034 C 
HETATM   17  C21 UNL     1      51.139  18.487 124.487  1.00  0.00     0.038 C 
BRANCH  15  18
HETATM   18  O1  UNL     1      50.555  21.499 122.485  1.00  0.00    -0.391 OA
HETATM   19  C1  UNL     1      51.451  22.501 122.252  1.00  0.00     0.202 C 
ENDBRANCH  15  18
ENDBRANCH   9  12
ENDBRANCH   1   6
BRANCH   5  20
HETATM   20  N2  UNL     1      55.677  16.603 130.048  1.00  0.00    -0.338 N 
HETATM   21  C14 UNL     1      56.968  16.381 130.613  1.00  0.00     0.325 C 
HETATM   22  O2  UNL     1      57.269  15.232 130.962  1.00  0.00    -0.247 OA
HETATM   23  N3  UNL     1      57.885  17.457 130.767  1.00  0.00    -0.270 N 
HETATM   24  C15 UNL     1      57.690  18.869 130.469  1.00  0.00     0.137 C 
HETATM   25  C18 UNL     1      59.230  17.352 131.207  1.00  0.00     0.227 C 
HETATM   26  C16 UNL     1      58.326  19.478 131.725  1.00  0.00     0.029 C 
HETATM   27  C17 UNL     1      59.645  18.694 131.763  1.00  0.00     0.105 C 
HETATM   28  O3  UNL     1      59.982  16.320 131.156  1.00  0.00    -0.273 OA
ATOM     29  H2  UNL     1      55.423  17.545 129.752  1.00  0.00     0.164 HD
ENDBRANCH   5  20
TORSDOF 4
ENDMDL
