MODEL 1
REMARK VINA RESULT: -8.863123161      0.000      0.000
REMARK  7 active torsions:
REMARK  status: ('A' for Active; 'I' for Inactive)
REMARK    1  A    between atoms: C7_7  and  N1_8 
REMARK    2  A    between atoms: N1_8  and  C8_10 
REMARK    3  A    between atoms: C9_13  and  C10_14 
REMARK    4  A    between atoms: C10_14  and  O1_15 
REMARK    5  A    between atoms: C10_14  and  N3_17 
REMARK    6  A    between atoms: C15_22  and  C16_23 
REMARK    7  A    between atoms: C16_23  and  N4_24 
ROOT
HETATM    1  C8  UNL     1      52.947  18.938 128.793  1.00  0.00     0.145 A 
HETATM    2  N2  UNL     1      54.092  18.909 129.476  1.00  0.00    -0.333 N 
ATOM      3  H2  UNL     1      54.909  19.403 129.116  1.00  0.00     0.168 HD
HETATM    4  C9  UNL     1      54.177  18.250 130.602  1.00  0.00     0.092 A 
HETATM    5  C21 UNL     1      52.986  17.611 130.997  1.00  0.00     0.087 A 
HETATM    6  S1  UNL     1      51.905  18.002 129.756  1.00  0.00    -0.064 SA
ENDROOT
BRANCH   4   7
HETATM    7  C10 UNL     1      55.346  18.091 131.471  1.00  0.00     0.166 C 
BRANCH   7   8
HETATM    8  O1  UNL     1      55.206  18.411 132.741  1.00  0.00    -0.344 OA
ATOM      9  H1  UNL     1      55.453  17.759 133.386  1.00  0.00     0.219 HD
ENDBRANCH   7   8
BRANCH   7  10
HETATM   10  N3  UNL     1      56.646  17.641 131.195  1.00  0.00    -0.354 N 
HETATM   11  C11 UNL     1      57.821  18.406 131.345  1.00  0.00     0.125 C 
HETATM   12  C12 UNL     1      59.094  17.779 130.819  1.00  0.00     0.020 C 
HETATM   13  C13 UNL     1      59.285  16.342 131.140  1.00  0.00     0.004 C 
HETATM   14  C14 UNL     1      57.994  15.642 131.393  1.00  0.00     0.027 C 
HETATM   15  C15 UNL     1      56.824  16.250 130.724  1.00  0.00     0.114 C 
BRANCH  15  16
HETATM   16  C16 UNL     1      56.848  16.120 129.240  1.00  0.00     0.297 C 
BRANCH  16  17
HETATM   17  N4  UNL     1      55.828  15.145 128.884  1.00  0.00     0.090 N 
HETATM   18  C17 UNL     1      55.279  14.492 130.053  1.00  0.00     0.272 C 
HETATM   19  C18 UNL     1      53.828  14.229 129.783  1.00  0.00     0.032 C 
HETATM   20  C19 UNL     1      53.661  14.633 128.327  1.00  0.00     0.032 C 
HETATM   21  C20 UNL     1      54.700  15.759 128.234  1.00  0.00     0.272 C 
ENDBRANCH  16  17
ENDBRANCH  15  16
ENDBRANCH   7  10
ENDBRANCH   4   7
BRANCH   1  22
HETATM   22  N1  UNL     1      52.685  19.542 127.650  1.00  0.00    -0.365 N 
ATOM     23  H1  UNL     1      53.270  20.314 127.330  1.00  0.00     0.162 HD
BRANCH  22  24
HETATM   24  C7  UNL     1      51.584  19.110 126.872  1.00  0.00     0.087 C 
HETATM   25  C2  UNL     1      51.276  20.128 125.785  1.00  0.00     0.004 C 
HETATM   26  C1  UNL     1      52.508  20.499 125.001  1.00  0.00     0.012 C 
HETATM   27  C3  UNL     1      50.130  19.680 124.927  1.00  0.00     0.006 C 
HETATM   28  C4  UNL     1      50.210  18.262 124.476  1.00  0.00     0.001 C 
HETATM   29  C5  UNL     1      50.668  17.298 125.542  1.00  0.00     0.002 C 
HETATM   30  C6  UNL     1      51.929  17.780 126.224  1.00  0.00     0.025 C 
ENDBRANCH  22  24
ENDBRANCH   1  22
TORSDOF 7
ENDMDL
MODEL 2
REMARK VINA RESULT: -8.723606877      2.484      7.545
REMARK  7 active torsions:
REMARK  status: ('A' for Active; 'I' for Inactive)
REMARK    1  A    between atoms: C7_7  and  N1_8 
REMARK    2  A    between atoms: N1_8  and  C8_10 
REMARK    3  A    between atoms: C9_13  and  C10_14 
REMARK    4  A    between atoms: C10_14  and  O1_15 
REMARK    5  A    between atoms: C10_14  and  N3_17 
REMARK    6  A    between atoms: C15_22  and  C16_23 
REMARK    7  A    between atoms: C16_23  and  N4_24 
ROOT
HETATM    1  C8  UNL     1      55.567  16.445 130.070  1.00  0.00     0.145 A 
HETATM    2  N2  UNL     1      54.479  17.155 129.768  1.00  0.00    -0.333 N 
ATOM      3  H2  UNL     1      54.439  18.146 130.006  1.00  0.00     0.168 HD
HETATM    4  C9  UNL     1      53.463  16.591 129.169  1.00  0.00     0.092 A 
HETATM    5  C21 UNL     1      53.636  15.222 128.889  1.00  0.00     0.087 A 
HETATM    6  S1  UNL     1      55.181  14.894 129.495  1.00  0.00    -0.064 SA
ENDROOT
BRANCH   4   7
HETATM    7  C10 UNL     1      52.189  17.202 128.779  1.00  0.00     0.166 C 
BRANCH   7   8
HETATM    8  O1  UNL     1      51.247  17.276 129.695  1.00  0.00    -0.344 OA
ATOM      9  H1  UNL     1      50.379  16.975 129.455  1.00  0.00     0.219 HD
ENDBRANCH   7   8
BRANCH   7  10
HETATM   10  N3  UNL     1      51.765  17.751 127.559  1.00  0.00    -0.354 N 
HETATM   11  C11 UNL     1      50.818  17.169 126.691  1.00  0.00     0.125 C 
HETATM   12  C12 UNL     1      50.645  17.845 125.349  1.00  0.00     0.020 C 
HETATM   13  C13 UNL     1      50.580  19.328 125.377  1.00  0.00     0.004 C 
HETATM   14  C14 UNL     1      51.258  19.901 126.573  1.00  0.00     0.027 C 
HETATM   15  C15 UNL     1      52.329  19.052 127.139  1.00  0.00     0.114 C 
BRANCH  15  16
HETATM   16  C16 UNL     1      53.523  18.928 126.257  1.00  0.00     0.297 C 
BRANCH  16  17
HETATM   17  N4  UNL     1      54.579  19.728 126.860  1.00  0.00     0.090 N 
HETATM   18  C17 UNL     1      55.779  18.952 127.084  1.00  0.00     0.272 C 
HETATM   19  C18 UNL     1      56.951  19.861 126.866  1.00  0.00     0.032 C 
HETATM   20  C19 UNL     1      56.309  21.224 126.670  1.00  0.00     0.032 C 
HETATM   21  C20 UNL     1      54.988  20.813 126.006  1.00  0.00     0.272 C 
ENDBRANCH  16  17
ENDBRANCH  15  16
ENDBRANCH   7  10
ENDBRANCH   4   7
BRANCH   1  22
HETATM   22  N1  UNL     1      56.671  16.845 130.670  1.00  0.00    -0.365 N 
ATOM     23  H1  UNL     1      57.505  17.061 130.124  1.00  0.00     0.162 HD
BRANCH  22  24
HETATM   24  C7  UNL     1      56.688  16.974 132.080  1.00  0.00     0.087 C 
HETATM   25  C2  UNL     1      58.096  16.750 132.611  1.00  0.00     0.004 C 
HETATM   26  C1  UNL     1      59.111  17.589 131.879  1.00  0.00     0.012 C 
HETATM   27  C3  UNL     1      58.148  16.909 134.102  1.00  0.00     0.006 C 
HETATM   28  C4  UNL     1      57.449  18.117 134.622  1.00  0.00     0.001 C 
HETATM   29  C5  UNL     1      56.121  18.398 133.962  1.00  0.00     0.002 C 
HETATM   30  C6  UNL     1      56.233  18.374 132.455  1.00  0.00     0.025 C 
ENDBRANCH  22  24
ENDBRANCH   1  22
TORSDOF 7
ENDMDL
MODEL 3
REMARK VINA RESULT: -8.718288801      2.686      3.789
REMARK  7 active torsions:
REMARK  status: ('A' for Active; 'I' for Inactive)
REMARK    1  A    between atoms: C7_7  and  N1_8 
REMARK    2  A    between atoms: N1_8  and  C8_10 
REMARK    3  A    between atoms: C9_13  and  C10_14 
REMARK    4  A    between atoms: C10_14  and  O1_15 
REMARK    5  A    between atoms: C10_14  and  N3_17 
REMARK    6  A    between atoms: C15_22  and  C16_23 
REMARK    7  A    between atoms: C16_23  and  N4_24 
ROOT
HETATM    1  C8  UNL     1      54.247  20.727 125.883  1.00  0.00     0.145 A 
HETATM    2  N2  UNL     1      54.525  19.663 126.639  1.00  0.00    -0.333 N 
ATOM      3  H2  UNL     1      53.770  19.049 126.946  1.00  0.00     0.168 HD
HETATM    4  C9  UNL     1      55.757  19.402 126.989  1.00  0.00     0.092 A 
HETATM    5  C21 UNL     1      56.710  20.318 126.505  1.00  0.00     0.087 A 
HETATM    6  S1  UNL     1      55.776  21.423 125.629  1.00  0.00    -0.064 SA
ENDROOT
BRANCH   4   7
HETATM    7  C10 UNL     1      56.246  18.300 127.823  1.00  0.00     0.166 C 
BRANCH   7   8
HETATM    8  O1  UNL     1      57.036  17.414 127.255  1.00  0.00    -0.344 OA
ATOM      9  H1  UNL     1      57.061  16.543 127.634  1.00  0.00     0.219 HD
ENDBRANCH   7   8
BRANCH   7  10
HETATM   10  N3  UNL     1      56.022  17.997 129.175  1.00  0.00    -0.354 N 
HETATM   11  C11 UNL     1      57.016  17.957 130.175  1.00  0.00     0.125 C 
HETATM   12  C12 UNL     1      56.577  17.435 131.526  1.00  0.00     0.020 C 
HETATM   13  C13 UNL     1      55.271  17.938 132.019  1.00  0.00     0.004 C 
HETATM   14  C14 UNL     1      54.378  18.376 130.909  1.00  0.00     0.027 C 
HETATM   15  C15 UNL     1      54.637  17.713 129.613  1.00  0.00     0.114 C 
BRANCH  15  16
HETATM   16  C16 UNL     1      54.294  16.264 129.602  1.00  0.00     0.297 C 
BRANCH  16  17
HETATM   17  N4  UNL     1      53.065  16.126 128.835  1.00  0.00     0.090 N 
HETATM   18  C17 UNL     1      52.042  17.040 129.292  1.00  0.00     0.272 C 
HETATM   19  C18 UNL     1      51.251  17.469 128.092  1.00  0.00     0.032 C 
HETATM   20  C19 UNL     1      51.807  16.600 126.975  1.00  0.00     0.032 C 
HETATM   21  C20 UNL     1      53.260  16.445 127.444  1.00  0.00     0.272 C 
ENDBRANCH  16  17
ENDBRANCH  15  16
ENDBRANCH   7  10
ENDBRANCH   4   7
BRANCH   1  22
HETATM   22  N1  UNL     1      53.074  21.140 125.443  1.00  0.00    -0.365 N 
ATOM     23  H1  UNL     1      52.539  21.827 125.973  1.00  0.00     0.162 HD
BRANCH  22  24
HETATM   24  C7  UNL     1      52.566  20.623 124.228  1.00  0.00     0.087 C 
HETATM   25  C2  UNL     1      51.538  19.537 124.507  1.00  0.00     0.004 C 
HETATM   26  C1  UNL     1      50.495  19.995 125.493  1.00  0.00     0.012 C 
HETATM   27  C3  UNL     1      50.963  18.991 123.234  1.00  0.00     0.006 C 
HETATM   28  C4  UNL     1      50.552  20.025 122.244  1.00  0.00     0.001 C 
HETATM   29  C5  UNL     1      51.525  21.170 122.104  1.00  0.00     0.002 C 
HETATM   30  C6  UNL     1      51.903  21.747 123.450  1.00  0.00     0.025 C 
ENDBRANCH  22  24
ENDBRANCH   1  22
TORSDOF 7
ENDMDL
MODEL 4
REMARK VINA RESULT: -8.682702815      2.118      3.262
REMARK  7 active torsions:
REMARK  status: ('A' for Active; 'I' for Inactive)
REMARK    1  A    between atoms: C7_7  and  N1_8 
REMARK    2  A    between atoms: N1_8  and  C8_10 
REMARK    3  A    between atoms: C9_13  and  C10_14 
REMARK    4  A    between atoms: C10_14  and  O1_15 
REMARK    5  A    between atoms: C10_14  and  N3_17 
REMARK    6  A    between atoms: C15_22  and  C16_23 
REMARK    7  A    between atoms: C16_23  and  N4_24 
ROOT
HETATM    1  C8  UNL     1      52.082  17.026 128.287  1.00  0.00     0.145 A 
HETATM    2  N2  UNL     1      52.892  17.701 129.104  1.00  0.00    -0.333 N 
ATOM      3  H2  UNL     1      52.831  18.718 129.151  1.00  0.00     0.168 HD
HETATM    4  C9  UNL     1      53.764  17.069 129.846  1.00  0.00     0.092 A 
HETATM    5  C21 UNL     1      53.753  15.669 129.697  1.00  0.00     0.087 A 
HETATM    6  S1  UNL     1      52.539  15.410 128.548  1.00  0.00    -0.064 SA
ENDROOT
BRANCH   4   7
HETATM    7  C10 UNL     1      54.739  17.640 130.780  1.00  0.00     0.166 C 
BRANCH   7   8
HETATM    8  O1  UNL     1      54.273  18.360 131.778  1.00  0.00    -0.344 OA
ATOM      9  H1  UNL     1      54.812  19.078 132.088  1.00  0.00     0.219 HD
ENDBRANCH   7   8
BRANCH   7  10
HETATM   10  N3  UNL     1      56.139  17.558 130.814  1.00  0.00    -0.354 N 
HETATM   11  C11 UNL     1      56.915  17.372 131.977  1.00  0.00     0.125 C 
HETATM   12  C12 UNL     1      58.413  17.493 131.802  1.00  0.00     0.020 C 
HETATM   13  C13 UNL     1      58.979  16.818 130.607  1.00  0.00     0.004 C 
HETATM   14  C14 UNL     1      57.973  16.655 129.520  1.00  0.00     0.027 C 
HETATM   15  C15 UNL     1      56.881  17.653 129.538  1.00  0.00     0.114 C 
BRANCH  15  16
HETATM   16  C16 UNL     1      57.328  19.035 129.208  1.00  0.00     0.297 C 
BRANCH  16  17
HETATM   17  N4  UNL     1      57.020  19.254 127.803  1.00  0.00     0.090 N 
HETATM   18  C17 UNL     1      55.594  19.331 127.571  1.00  0.00     0.272 C 
HETATM   19  C18 UNL     1      55.368  20.325 126.472  1.00  0.00     0.032 C 
HETATM   20  C19 UNL     1      56.775  20.662 126.007  1.00  0.00     0.032 C 
HETATM   21  C20 UNL     1      57.545  20.507 127.326  1.00  0.00     0.272 C 
ENDBRANCH  16  17
ENDBRANCH  15  16
ENDBRANCH   7  10
ENDBRANCH   4   7
BRANCH   1  22
HETATM   22  N1  UNL     1      51.156  17.495 127.474  1.00  0.00    -0.365 N 
ATOM     23  H1  UNL     1      50.168  17.409 127.714  1.00  0.00     0.162 HD
BRANCH  22  24
HETATM   24  C7  UNL     1      51.544  18.120 126.264  1.00  0.00     0.087 C 
HETATM   25  C2  UNL     1      50.717  17.584 125.106  1.00  0.00     0.004 C 
HETATM   26  C1  UNL     1      49.241  17.630 125.404  1.00  0.00     0.012 C 
HETATM   27  C3  UNL     1      51.090  18.251 123.815  1.00  0.00     0.006 C 
HETATM   28  C4  UNL     1      51.202  19.735 123.893  1.00  0.00     0.001 C 
HETATM   29  C5  UNL     1      51.895  20.240 125.135  1.00  0.00     0.002 C 
HETATM   30  C6  UNL     1      51.318  19.618 126.386  1.00  0.00     0.025 C 
ENDBRANCH  22  24
ENDBRANCH   1  22
TORSDOF 7
ENDMDL
MODEL 5
REMARK VINA RESULT: -8.624593339      2.196      4.391
REMARK  7 active torsions:
REMARK  status: ('A' for Active; 'I' for Inactive)
REMARK    1  A    between atoms: C7_7  and  N1_8 
REMARK    2  A    between atoms: N1_8  and  C8_10 
REMARK    3  A    between atoms: C9_13  and  C10_14 
REMARK    4  A    between atoms: C10_14  and  O1_15 
REMARK    5  A    between atoms: C10_14  and  N3_17 
REMARK    6  A    between atoms: C15_22  and  C16_23 
REMARK    7  A    between atoms: C16_23  and  N4_24 
ROOT
HETATM    1  C8  UNL     1      51.509  17.711 125.349  1.00  0.00     0.145 A 
HETATM    2  N2  UNL     1      52.784  17.501 125.681  1.00  0.00    -0.333 N 
ATOM      3  H2  UNL     1      53.526  17.776 125.037  1.00  0.00     0.168 HD
HETATM    4  C9  UNL     1      53.090  16.946 126.825  1.00  0.00     0.092 A 
HETATM    5  C21 UNL     1      51.982  16.613 127.628  1.00  0.00     0.087 A 
HETATM    6  S1  UNL     1      50.662  17.110 126.694  1.00  0.00    -0.064 SA
ENDROOT
BRANCH   4   7
HETATM    7  C10 UNL     1      54.421  16.623 127.346  1.00  0.00     0.166 C 
BRANCH   7   8
HETATM    8  O1  UNL     1      55.448  17.257 126.820  1.00  0.00    -0.344 OA
ATOM      9  H1  UNL     1      56.142  16.729 126.443  1.00  0.00     0.219 HD
ENDBRANCH   7   8
BRANCH   7  10
HETATM   10  N3  UNL     1      54.827  15.726 128.346  1.00  0.00    -0.354 N 
HETATM   11  C11 UNL     1      54.158  14.533 128.688  1.00  0.00     0.125 C 
HETATM   12  C12 UNL     1      54.672  13.812 129.915  1.00  0.00     0.020 C 
HETATM   13  C13 UNL     1      56.149  13.711 130.032  1.00  0.00     0.004 C 
HETATM   14  C14 UNL     1      56.851  14.789 129.282  1.00  0.00     0.027 C 
HETATM   15  C15 UNL     1      56.062  16.027 129.102  1.00  0.00     0.114 C 
BRANCH  15  16
HETATM   16  C16 UNL     1      55.820  16.772 130.368  1.00  0.00     0.297 C 
BRANCH  16  17
HETATM   17  N4  UNL     1      57.126  17.092 130.927  1.00  0.00     0.090 N 
HETATM   18  C17 UNL     1      57.722  18.237 130.274  1.00  0.00     0.272 C 
HETATM   19  C18 UNL     1      58.498  18.994 131.310  1.00  0.00     0.032 C 
HETATM   20  C19 UNL     1      58.421  18.096 132.534  1.00  0.00     0.032 C 
HETATM   21  C20 UNL     1      57.043  17.455 132.317  1.00  0.00     0.272 C 
ENDBRANCH  16  17
ENDBRANCH  15  16
ENDBRANCH   7  10
ENDBRANCH   4   7
BRANCH   1  22
HETATM   22  N1  UNL     1      51.022  18.250 124.248  1.00  0.00    -0.365 N 
ATOM     23  H1  UNL     1      50.190  17.858 123.808  1.00  0.00     0.162 HD
BRANCH  22  24
HETATM   24  C7  UNL     1      51.665  19.378 123.684  1.00  0.00     0.087 C 
HETATM   25  C2  UNL     1      50.821  19.955 122.558  1.00  0.00     0.004 C 
HETATM   26  C1  UNL     1      49.394  20.179 122.986  1.00  0.00     0.012 C 
HETATM   27  C3  UNL     1      51.466  21.170 121.960  1.00  0.00     0.006 C 
HETATM   28  C4  UNL     1      51.973  22.157 122.955  1.00  0.00     0.001 C 
HETATM   29  C5  UNL     1      52.673  21.539 124.140  1.00  0.00     0.002 C 
HETATM   30  C6  UNL     1      51.846  20.435 124.761  1.00  0.00     0.025 C 
ENDBRANCH  22  24
ENDBRANCH   1  22
TORSDOF 7
ENDMDL
