MODEL 1
REMARK VINA RESULT: -9.706833090      0.000      0.000
REMARK  4 active torsions:
REMARK  status: ('A' for Active; 'I' for Inactive)
REMARK    1  A    between atoms: C2_2  and  C3_3 
REMARK    2  A    between atoms: C2_2  and  C5_5 
REMARK    3  A    between atoms: C8_8  and  O1_9 
REMARK    4  A    between atoms: O1_9  and  S1_10 
ROOT
HETATM    1  C5  UNL     1      52.944  20.007 125.189  1.00  0.00     0.018 C 
HETATM    2  C6  UNL     1      53.541  21.361 125.514  1.00  0.00     0.012 C 
HETATM    3  C7  UNL     1      55.013  21.452 125.144  1.00  0.00     0.034 C 
HETATM    4  C8  UNL     1      55.761  20.927 126.352  1.00  0.00     0.145 C 
HETATM    5  C9  UNL     1      55.416  19.432 126.408  1.00  0.00     0.039 C 
HETATM    6  C10 UNL     1      54.168  19.207 127.228  1.00  0.00    -0.003 C 
HETATM    7  C11 UNL     1      52.912  19.096 126.350  1.00  0.00    -0.002 C 
HETATM    8  C12 UNL     1      52.797  17.676 125.838  1.00  0.00     0.006 C 
HETATM    9  C13 UNL     1      52.396  16.825 127.016  1.00  0.00     0.013 C 
HETATM   10  C14 UNL     1      53.182  17.107 128.228  1.00  0.00    -0.007 C 
HETATM   11  C15 UNL     1      52.238  17.549 129.334  1.00  0.00     0.019 C 
HETATM   12  C16 UNL     1      54.360  18.022 128.098  1.00  0.00     0.001 C 
HETATM   13  C17 UNL     1      55.517  17.128 127.767  1.00  0.00     0.009 C 
HETATM   14  C18 UNL     1      55.193  15.752 128.251  1.00  0.00     0.041 C 
HETATM   15  C19 UNL     1      53.781  15.780 128.713  1.00  0.00     0.090 A 
HETATM   16  C20 UNL     1      52.967  14.637 128.871  1.00  0.00     0.207 A 
HETATM   17  O5  UNL     1      53.525  15.347 129.988  1.00  0.00    -0.374 OA
ENDROOT
BRANCH   4  18
HETATM   18  O1  UNL     1      57.109  21.150 126.277  1.00  0.00    -0.252 OA
BRANCH  18  19
HETATM   19  S1  UNL     1      57.594  22.508 127.146  1.00  0.00     0.251 S 
HETATM   20  O2  UNL     1      58.541  23.309 126.307  1.00  0.00    -0.572 OA
HETATM   21  O3  UNL     1      56.421  23.402 127.471  1.00  0.00    -0.572 OA
HETATM   22  O4  UNL     1      58.354  22.053 128.562  1.00  0.00    -0.572 OA
ENDBRANCH  18  19
ENDBRANCH   4  18
BRANCH   1  23
HETATM   23  C2  UNL     1      51.590  20.248 124.644  1.00  0.00    -0.085 C 
HETATM   24  C1  UNL     1      51.434  20.825 123.466  1.00  0.00     0.014 C 
BRANCH  23  25
HETATM   25  C3  UNL     1      50.371  19.876 125.446  1.00  0.00     0.029 C 
HETATM   26  C4  UNL     1      49.451  19.050 124.588  1.00  0.00     0.010 C 
ENDBRANCH  23  25
ENDBRANCH   1  23
TORSDOF 4
ENDMDL
MODEL 2
REMARK VINA RESULT: -9.604535100      0.323      1.231
REMARK  4 active torsions:
REMARK  status: ('A' for Active; 'I' for Inactive)
REMARK    1  A    between atoms: C2_2  and  C3_3 
REMARK    2  A    between atoms: C2_2  and  C5_5 
REMARK    3  A    between atoms: C8_8  and  O1_9 
REMARK    4  A    between atoms: O1_9  and  S1_10 
ROOT
HETATM    1  C5  UNL     1      52.969  19.992 125.242  1.00  0.00     0.018 C 
HETATM    2  C6  UNL     1      53.574  21.341 125.575  1.00  0.00     0.012 C 
HETATM    3  C7  UNL     1      55.044  21.427 125.196  1.00  0.00     0.034 C 
HETATM    4  C8  UNL     1      55.797  20.889 126.396  1.00  0.00     0.145 C 
HETATM    5  C9  UNL     1      55.446  19.395 126.441  1.00  0.00     0.039 C 
HETATM    6  C10 UNL     1      54.201  19.170 127.268  1.00  0.00    -0.003 C 
HETATM    7  C11 UNL     1      52.940  19.072 126.397  1.00  0.00    -0.002 C 
HETATM    8  C12 UNL     1      52.815  17.657 125.874  1.00  0.00     0.006 C 
HETATM    9  C13 UNL     1      52.418  16.798 127.048  1.00  0.00     0.013 C 
HETATM   10  C14 UNL     1      53.212  17.067 128.257  1.00  0.00    -0.007 C 
HETATM   11  C15 UNL     1      52.277  17.504 129.372  1.00  0.00     0.019 C 
HETATM   12  C16 UNL     1      54.393  17.978 128.127  1.00  0.00     0.001 C 
HETATM   13  C17 UNL     1      55.544  17.080 127.782  1.00  0.00     0.009 C 
HETATM   14  C18 UNL     1      55.216  15.702 128.257  1.00  0.00     0.041 C 
HETATM   15  C19 UNL     1      53.807  15.733 128.728  1.00  0.00     0.090 A 
HETATM   16  C20 UNL     1      52.989  14.593 128.882  1.00  0.00     0.207 A 
HETATM   17  O5  UNL     1      53.557  15.291 130.001  1.00  0.00    -0.374 OA
ENDROOT
BRANCH   4  18
HETATM   18  O1  UNL     1      57.146  21.107 126.314  1.00  0.00    -0.252 OA
BRANCH  18  19
HETATM   19  S1  UNL     1      57.650  22.424 127.232  1.00  0.00     0.251 S 
HETATM   20  O2  UNL     1      56.450  23.230 127.624  1.00  0.00    -0.572 OA
HETATM   21  O3  UNL     1      58.324  21.981 128.508  1.00  0.00    -0.572 OA
HETATM   22  O4  UNL     1      58.699  23.381 126.353  1.00  0.00    -0.572 OA
ENDBRANCH  18  19
ENDBRANCH   4  18
BRANCH   1  23
HETATM   23  C2  UNL     1      51.613  20.243 124.707  1.00  0.00    -0.085 C 
HETATM   24  C1  UNL     1      50.545  19.859 125.380  1.00  0.00     0.014 C 
BRANCH  23  25
HETATM   25  C3  UNL     1      51.437  20.904 123.365  1.00  0.00     0.029 C 
HETATM   26  C4  UNL     1      50.941  19.883 122.377  1.00  0.00     0.010 C 
ENDBRANCH  23  25
ENDBRANCH   1  23
TORSDOF 4
ENDMDL
MODEL 3
REMARK VINA RESULT: -8.510761867      3.489      5.233
REMARK  4 active torsions:
REMARK  status: ('A' for Active; 'I' for Inactive)
REMARK    1  A    between atoms: C2_2  and  C3_3 
REMARK    2  A    between atoms: C2_2  and  C5_5 
REMARK    3  A    between atoms: C8_8  and  O1_9 
REMARK    4  A    between atoms: O1_9  and  S1_10 
ROOT
HETATM    1  C5  UNL     1      55.291  20.776 126.598  1.00  0.00     0.018 C 
HETATM    2  C6  UNL     1      55.091  21.058 125.123  1.00  0.00     0.012 C 
HETATM    3  C7  UNL     1      53.811  21.830 124.846  1.00  0.00     0.034 C 
HETATM    4  C8  UNL     1      52.732  20.777 124.704  1.00  0.00     0.145 C 
HETATM    5  C9  UNL     1      52.584  20.175 126.110  1.00  0.00     0.039 C 
HETATM    6  C10 UNL     1      53.533  19.013 126.290  1.00  0.00    -0.003 C 
HETATM    7  C11 UNL     1      54.830  19.432 126.997  1.00  0.00    -0.002 C 
HETATM    8  C12 UNL     1      54.594  19.434 128.492  1.00  0.00     0.006 C 
HETATM    9  C13 UNL     1      54.493  17.990 128.914  1.00  0.00     0.013 C 
HETATM   10  C14 UNL     1      53.626  17.189 128.035  1.00  0.00    -0.007 C 
HETATM   11  C15 UNL     1      54.443  16.055 127.440  1.00  0.00     0.019 C 
HETATM   12  C16 UNL     1      52.831  17.913 126.992  1.00  0.00     0.001 C 
HETATM   13  C17 UNL     1      51.534  18.262 127.661  1.00  0.00     0.009 C 
HETATM   14  C18 UNL     1      51.327  17.312 128.796  1.00  0.00     0.041 C 
HETATM   15  C19 UNL     1      52.571  16.508 128.917  1.00  0.00     0.090 A 
HETATM   16  C20 UNL     1      52.951  15.791 130.072  1.00  0.00     0.207 A 
HETATM   17  O5  UNL     1      52.445  15.144 128.893  1.00  0.00    -0.374 OA
ENDROOT
BRANCH   4  18
HETATM   18  O1  UNL     1      51.555  21.287 124.227  1.00  0.00    -0.252 OA
BRANCH  18  19
HETATM   19  S1  UNL     1      50.911  20.373 122.970  1.00  0.00     0.251 S 
HETATM   20  O2  UNL     1      49.453  20.687 122.839  1.00  0.00    -0.572 OA
HETATM   21  O3  UNL     1      51.561  20.714 121.651  1.00  0.00    -0.572 OA
HETATM   22  O4  UNL     1      51.102  18.742 123.277  1.00  0.00    -0.572 OA
ENDBRANCH  18  19
ENDBRANCH   4  18
BRANCH   1  23
HETATM   23  C2  UNL     1      56.729  20.971 126.887  1.00  0.00    -0.085 C 
HETATM   24  C1  UNL     1      57.575  19.963 126.788  1.00  0.00     0.014 C 
BRANCH  23  25
HETATM   25  C3  UNL     1      57.237  22.315 127.341  1.00  0.00     0.029 C 
HETATM   26  C4  UNL     1      58.375  22.735 126.450  1.00  0.00     0.010 C 
ENDBRANCH  23  25
ENDBRANCH   1  23
TORSDOF 4
ENDMDL
MODEL 4
REMARK VINA RESULT: -8.388335954      2.020      2.996
REMARK  4 active torsions:
REMARK  status: ('A' for Active; 'I' for Inactive)
REMARK    1  A    between atoms: C2_2  and  C3_3 
REMARK    2  A    between atoms: C2_2  and  C5_5 
REMARK    3  A    between atoms: C8_8  and  O1_9 
REMARK    4  A    between atoms: O1_9  and  S1_10 
ROOT
HETATM    1  C5  UNL     1      53.316  18.369 127.056  1.00  0.00     0.018 C 
HETATM    2  C6  UNL     1      53.217  19.854 126.774  1.00  0.00     0.012 C 
HETATM    3  C7  UNL     1      54.225  20.316 125.733  1.00  0.00     0.034 C 
HETATM    4  C8  UNL     1      55.485  20.634 126.511  1.00  0.00     0.145 C 
HETATM    5  C9  UNL     1      55.982  19.275 127.025  1.00  0.00     0.039 C 
HETATM    6  C10 UNL     1      55.369  18.963 128.371  1.00  0.00    -0.003 C 
HETATM    7  C11 UNL     1      54.132  18.060 128.246  1.00  0.00    -0.002 C 
HETATM    8  C12 UNL     1      54.587  16.619 128.150  1.00  0.00     0.006 C 
HETATM    9  C13 UNL     1      55.085  16.233 129.521  1.00  0.00     0.013 C 
HETATM   10  C14 UNL     1      55.970  17.243 130.121  1.00  0.00    -0.007 C 
HETATM   11  C15 UNL     1      55.358  17.717 131.429  1.00  0.00     0.019 C 
HETATM   12  C16 UNL     1      56.406  18.388 129.260  1.00  0.00     0.001 C 
HETATM   13  C17 UNL     1      57.671  17.924 128.602  1.00  0.00     0.009 C 
HETATM   14  C18 UNL     1      58.265  16.845 129.448  1.00  0.00     0.041 C 
HETATM   15  C19 UNL     1      57.276  16.541 130.515  1.00  0.00     0.090 A 
HETATM   16  C20 UNL     1      57.254  15.350 131.271  1.00  0.00     0.207 A 
HETATM   17  O5  UNL     1      57.711  16.598 131.813  1.00  0.00    -0.374 OA
ENDROOT
BRANCH   4  18
HETATM   18  O1  UNL     1      56.424  21.281 125.755  1.00  0.00    -0.252 OA
BRANCH  18  19
HETATM   19  S1  UNL     1      57.265  22.452 126.622  1.00  0.00     0.251 S 
HETATM   20  O2  UNL     1      56.340  23.590 126.926  1.00  0.00    -0.572 OA
HETATM   21  O3  UNL     1      57.756  21.912 127.944  1.00  0.00    -0.572 OA
HETATM   22  O4  UNL     1      58.564  23.015 125.735  1.00  0.00    -0.572 OA
ENDBRANCH  18  19
ENDBRANCH   4  18
BRANCH   1  23
HETATM   23  C2  UNL     1      51.933  17.859 127.192  1.00  0.00    -0.085 C 
HETATM   24  C1  UNL     1      51.236  18.098 128.287  1.00  0.00     0.014 C 
BRANCH  23  25
HETATM   25  C3  UNL     1      51.320  17.025 126.098  1.00  0.00     0.029 C 
HETATM   26  C4  UNL     1      50.698  17.937 125.075  1.00  0.00     0.010 C 
ENDBRANCH  23  25
ENDBRANCH   1  23
TORSDOF 4
ENDMDL
MODEL 5
REMARK VINA RESULT: -8.339367688      2.083      2.719
REMARK  4 active torsions:
REMARK  status: ('A' for Active; 'I' for Inactive)
REMARK    1  A    between atoms: C2_2  and  C3_3 
REMARK    2  A    between atoms: C2_2  and  C5_5 
REMARK    3  A    between atoms: C8_8  and  O1_9 
REMARK    4  A    between atoms: O1_9  and  S1_10 
ROOT
HETATM    1  C5  UNL     1      51.753  19.360 124.539  1.00  0.00     0.018 C 
HETATM    2  C6  UNL     1      51.468  20.848 124.498  1.00  0.00     0.012 C 
HETATM    3  C7  UNL     1      52.719  21.672 124.238  1.00  0.00     0.034 C 
HETATM    4  C8  UNL     1      53.329  21.913 125.604  1.00  0.00     0.145 C 
HETATM    5  C9  UNL     1      53.808  20.529 126.069  1.00  0.00     0.039 C 
HETATM    6  C10 UNL     1      52.706  19.813 126.815  1.00  0.00    -0.003 C 
HETATM    7  C11 UNL     1      51.931  18.843 125.910  1.00  0.00    -0.002 C 
HETATM    8  C12 UNL     1      52.690  17.536 125.831  1.00  0.00     0.006 C 
HETATM    9  C13 UNL     1      52.530  16.864 127.172  1.00  0.00     0.013 C 
HETATM   10  C14 UNL     1      52.752  17.774 128.306  1.00  0.00    -0.007 C 
HETATM   11  C15 UNL     1      51.491  17.822 129.152  1.00  0.00     0.019 C 
HETATM   12  C16 UNL     1      53.278  19.144 128.008  1.00  0.00     0.001 C 
HETATM   13  C17 UNL     1      54.771  19.009 128.050  1.00  0.00     0.009 C 
HETATM   14  C18 UNL     1      55.106  17.818 128.890  1.00  0.00     0.041 C 
HETATM   15  C19 UNL     1      53.822  17.141 129.207  1.00  0.00     0.090 A 
HETATM   16  C20 UNL     1      53.706  15.799 129.628  1.00  0.00     0.207 A 
HETATM   17  O5  UNL     1      53.542  16.906 130.528  1.00  0.00    -0.374 OA
ENDROOT
BRANCH   4  18
HETATM   18  O1  UNL     1      54.342  22.833 125.575  1.00  0.00    -0.252 OA
BRANCH  18  19
HETATM   19  S1  UNL     1      53.818  24.389 125.947  1.00  0.00     0.251 S 
HETATM   20  O2  UNL     1      52.816  24.311 127.057  1.00  0.00    -0.572 OA
HETATM   21  O3  UNL     1      54.956  25.252 126.434  1.00  0.00    -0.572 OA
HETATM   22  O4  UNL     1      53.113  25.101 124.611  1.00  0.00    -0.572 OA
ENDBRANCH  18  19
ENDBRANCH   4  18
BRANCH   1  23
HETATM   23  C2  UNL     1      50.638  18.684 123.839  1.00  0.00    -0.085 C 
HETATM   24  C1  UNL     1      50.845  18.060 122.694  1.00  0.00     0.014 C 
BRANCH  23  25
HETATM   25  C3  UNL     1      49.243  18.738 124.405  1.00  0.00     0.029 C 
HETATM   26  C4  UNL     1      48.879  17.380 124.941  1.00  0.00     0.010 C 
ENDBRANCH  23  25
ENDBRANCH   1  23
TORSDOF 4
ENDMDL
