MODEL 1
REMARK VINA RESULT: -9.497379637      0.000      0.000
REMARK  12 active torsions:
REMARK  status: ('A' for Active; 'I' for Inactive)
REMARK    1  A    between atoms: C2_2  and  C3_3 
REMARK    2  A    between atoms: C3_3  and  N1_4 
REMARK    3  A    between atoms: C5_6  and  C6_7 
REMARK       I    between atoms: C6_7  and  N2_9 
REMARK    4  A    between atoms: N2_9  and  C7_11 
REMARK    5  A    between atoms: C7_11  and  C8_12 
REMARK    6  A    between atoms: C8_12  and  C9_13 
REMARK    7  A    between atoms: C9_13  and  N3_14 
REMARK    8  A    between atoms: N4_17  and  C12_18 
REMARK    9  A    between atoms: C12_18  and  C13_19 
REMARK   10  A    between atoms: C13_19  and  C14_20 
REMARK   11  A    between atoms: C14_20  and  N5_21 
REMARK   12  A    between atoms: C27_35  and  O3_36 
ROOT
HETATM    1  N1  UNL     1      18.236  24.075  18.915  1.00  0.00    -0.354 N 
HETATM    2  C4  UNL     1      16.994  23.854  18.395  1.00  0.00     0.112 A 
HETATM    3  C5  UNL     1      16.525  24.288  17.177  1.00  0.00     0.098 A 
HETATM    4  C22 UNL     1      17.385  25.007  16.425  1.00  0.00     0.201 A 
HETATM    5  O2  UNL     1      17.105  25.478  15.289  1.00  0.00    -0.286 OA
HETATM    6  C23 UNL     1      18.649  25.266  16.892  1.00  0.00     0.044 A 
HETATM    7  C24 UNL     1      19.514  26.015  16.100  1.00  0.00     0.031 A 
HETATM    8  C25 UNL     1      20.781  26.310  16.518  1.00  0.00    -0.004 A 
HETATM    9  C26 UNL     1      21.653  27.042  15.760  1.00  0.00     0.056 A 
HETATM   10  C27 UNL     1      22.940  27.330  16.209  1.00  0.00     0.137 A 
HETATM   11  C29 UNL     1      23.254  26.826  17.449  1.00  0.00     0.279 A 
HETATM   12  O4  UNL     1      24.426  27.076  17.881  1.00  0.00    -0.265 OA
HETATM   13  N6  UNL     1      22.408  26.100  18.212  1.00  0.00    -0.319 N 
ATOM     14  H6  UNL     1      22.700  25.753  19.125  1.00  0.00     0.169 HD
HETATM   15  C30 UNL     1      21.170  25.843  17.743  1.00  0.00     0.068 A 
HETATM   16  C31 UNL     1      20.333  25.080  18.584  1.00  0.00     0.100 A 
HETATM   17  C32 UNL     1      20.853  24.694  19.858  1.00  0.00     0.104 C 
HETATM   18  N7  UNL     1      21.345  24.423  20.879  1.00  0.00    -0.191 NA
HETATM   19  C33 UNL     1      19.077  24.794  18.152  1.00  0.00     0.071 A 
ENDROOT
BRANCH   1  20
HETATM   20  C3  UNL     1      18.570  23.472  20.147  1.00  0.00     0.128 C 
BRANCH  20  21
HETATM   21  C2  UNL     1      18.244  21.987  20.225  1.00  0.00     0.016 C 
HETATM   22  C1  UNL     1      18.998  21.267  21.313  1.00  0.00     0.006 C 
ENDBRANCH  20  21
ENDBRANCH   1  20
BRANCH  10  23
HETATM   23  O3  UNL     1      23.843  28.074  15.453  1.00  0.00    -0.351 OA
HETATM   24  C28 UNL     1      23.744  29.485  15.486  1.00  0.00     0.210 C 
ENDBRANCH  10  23
BRANCH   3  25
HETATM   25  C6  UNL     1      15.182  23.930  16.742  1.00  0.00     0.257 C 
HETATM   26  O1  UNL     1      14.363  23.652  17.669  1.00  0.00    -0.267 OA
HETATM   27  N2  UNL     1      14.800  23.885  15.388  1.00  0.00    -0.356 N 
ATOM     28  H2  UNL     1      15.448  24.102  14.631  1.00  0.00     0.162 HD
BRANCH  27  29
HETATM   29  C7  UNL     1      13.401  23.505  15.140  1.00  0.00     0.128 C 
BRANCH  29  30
HETATM   30  C8  UNL     1      13.322  22.057  14.639  1.00  0.00     0.065 C 
BRANCH  30  31
HETATM   31  C9  UNL     1      11.857  21.834  14.328  1.00  0.00     0.069 C 
BRANCH  31  32
HETATM   32  N3  UNL     1      11.329  20.589  14.647  1.00  0.00    -0.351 N 
HETATM   33  C10 UNL     1      11.721  19.903  15.812  1.00  0.00     0.098 C 
HETATM   34  C11 UNL     1      10.498  19.273  16.433  1.00  0.00     0.318 C 
HETATM   35  N4  UNL     1       9.925  18.336  15.505  1.00  0.00     0.098 N 
HETATM   36  C20 UNL     1      10.455  18.376  14.177  1.00  0.00     0.318 C 
HETATM   37  C21 UNL     1      10.682  19.803  13.675  1.00  0.00     0.098 C 
BRANCH  35  38
HETATM   38  C12 UNL     1      10.187  16.985  16.042  1.00  0.00     0.278 C 
BRANCH  38  39
HETATM   39  C13 UNL     1      10.297  17.048  17.531  1.00  0.00     0.074 C 
BRANCH  39  40
HETATM   40  C14 UNL     1      11.555  16.502  18.099  1.00  0.00     0.060 C 
BRANCH  40  41
HETATM   41  N5  UNL     1      12.494  17.371  18.663  1.00  0.00    -0.393 N 
HETATM   42  C15 UNL     1      13.843  17.380  18.303  1.00  0.00     0.122 C 
HETATM   43  C16 UNL     1      14.337  18.844  18.402  1.00  0.00     0.020 C 
HETATM   44  C17 UNL     1      13.392  19.631  19.294  1.00  0.00     0.003 C 
HETATM   45  C18 UNL     1      13.014  18.845  20.524  1.00  0.00     0.020 C 
HETATM   46  C19 UNL     1      12.373  17.557  20.090  1.00  0.00     0.122 C 
ENDBRANCH  40  41
ENDBRANCH  39  40
ENDBRANCH  38  39
ENDBRANCH  35  38
ENDBRANCH  31  32
ENDBRANCH  30  31
ENDBRANCH  29  30
ENDBRANCH  27  29
ENDBRANCH   3  25
TORSDOF 12
ENDMDL
MODEL 2
REMARK VINA RESULT: -9.328728196      2.771     11.740
REMARK  12 active torsions:
REMARK  status: ('A' for Active; 'I' for Inactive)
REMARK    1  A    between atoms: C2_2  and  C3_3 
REMARK    2  A    between atoms: C3_3  and  N1_4 
REMARK    3  A    between atoms: C5_6  and  C6_7 
REMARK       I    between atoms: C6_7  and  N2_9 
REMARK    4  A    between atoms: N2_9  and  C7_11 
REMARK    5  A    between atoms: C7_11  and  C8_12 
REMARK    6  A    between atoms: C8_12  and  C9_13 
REMARK    7  A    between atoms: C9_13  and  N3_14 
REMARK    8  A    between atoms: N4_17  and  C12_18 
REMARK    9  A    between atoms: C12_18  and  C13_19 
REMARK   10  A    between atoms: C13_19  and  C14_20 
REMARK   11  A    between atoms: C14_20  and  N5_21 
REMARK   12  A    between atoms: C27_35  and  O3_36 
ROOT
HETATM    1  N1  UNL     1      13.672  20.192  17.829  1.00  0.00    -0.354 N 
HETATM    2  C4  UNL     1      14.911  20.712  18.066  1.00  0.00     0.112 A 
HETATM    3  C5  UNL     1      15.778  21.226  17.131  1.00  0.00     0.098 A 
HETATM    4  C22 UNL     1      15.356  21.210  15.849  1.00  0.00     0.201 A 
HETATM    5  O2  UNL     1      16.034  21.641  14.877  1.00  0.00    -0.286 OA
HETATM    6  C23 UNL     1      14.119  20.699  15.543  1.00  0.00     0.044 A 
HETATM    7  C24 UNL     1      13.710  20.688  14.214  1.00  0.00     0.031 A 
HETATM    8  C25 UNL     1      12.493  20.185  13.851  1.00  0.00    -0.004 A 
HETATM    9  C26 UNL     1      12.064  20.163  12.552  1.00  0.00     0.056 A 
HETATM   10  C27 UNL     1      10.818  19.644  12.208  1.00  0.00     0.137 A 
HETATM   11  C29 UNL     1      10.072  19.166  13.260  1.00  0.00     0.279 A 
HETATM   12  O4  UNL     1       8.928  18.686  12.969  1.00  0.00    -0.265 OA
HETATM   13  N6  UNL     1      10.477  19.179  14.548  1.00  0.00    -0.319 N 
ATOM     14  H6  UNL     1       9.877  18.810  15.285  1.00  0.00     0.169 HD
HETATM   15  C30 UNL     1      11.690  19.690  14.842  1.00  0.00     0.068 A 
HETATM   16  C31 UNL     1      12.057  19.677  16.203  1.00  0.00     0.100 A 
HETATM   17  C32 UNL     1      11.139  19.091  17.129  1.00  0.00     0.104 C 
HETATM   18  N7  UNL     1      10.343  18.592  17.818  1.00  0.00    -0.191 NA
HETATM   19  C33 UNL     1      13.270  20.185  16.547  1.00  0.00     0.071 A 
ENDROOT
BRANCH   1  20
HETATM   20  C3  UNL     1      12.884  19.793  18.931  1.00  0.00     0.128 C 
BRANCH  20  21
HETATM   21  C2  UNL     1      13.566  18.795  19.858  1.00  0.00     0.016 C 
HETATM   22  C1  UNL     1      12.601  17.861  20.540  1.00  0.00     0.006 C 
ENDBRANCH  20  21
ENDBRANCH   1  20
BRANCH  10  23
HETATM   23  O3  UNL     1      10.363  19.612  10.892  1.00  0.00    -0.351 OA
HETATM   24  C28 UNL     1      10.677  18.484  10.099  1.00  0.00     0.210 C 
ENDBRANCH  10  23
BRANCH   3  25
HETATM   25  C6  UNL     1      17.055  21.788  17.549  1.00  0.00     0.257 C 
HETATM   26  O1  UNL     1      17.915  20.948  17.953  1.00  0.00    -0.267 OA
HETATM   27  N2  UNL     1      17.334  23.167  17.520  1.00  0.00    -0.356 N 
ATOM     28  H2  UNL     1      16.651  23.855  17.201  1.00  0.00     0.162 HD
BRANCH  27  29
HETATM   29  C7  UNL     1      18.678  23.549  17.978  1.00  0.00     0.128 C 
BRANCH  29  30
HETATM   30  C8  UNL     1      18.635  23.999  19.444  1.00  0.00     0.065 C 
BRANCH  30  31
HETATM   31  C9  UNL     1      19.893  23.426  20.062  1.00  0.00     0.069 C 
BRANCH  31  32
HETATM   32  N3  UNL     1      21.081  24.099  19.805  1.00  0.00    -0.351 N 
HETATM   33  C10 UNL     1      21.148  25.504  19.826  1.00  0.00     0.098 C 
HETATM   34  C11 UNL     1      22.434  25.914  20.503  1.00  0.00     0.318 C 
HETATM   35  N4  UNL     1      23.549  25.401  19.754  1.00  0.00     0.098 N 
HETATM   36  C20 UNL     1      23.224  24.460  18.726  1.00  0.00     0.318 C 
HETATM   37  C21 UNL     1      22.156  23.455  19.162  1.00  0.00     0.098 C 
BRANCH  35  38
HETATM   38  C12 UNL     1      24.196  26.557  19.101  1.00  0.00     0.278 C 
BRANCH  38  39
HETATM   39  C13 UNL     1      24.048  26.446  17.619  1.00  0.00     0.074 C 
BRANCH  39  40
HETATM   40  C14 UNL     1      23.729  27.713  16.915  1.00  0.00     0.060 C 
BRANCH  40  41
HETATM   41  N5  UNL     1      22.604  27.782  16.088  1.00  0.00    -0.393 N 
HETATM   42  C15 UNL     1      22.382  28.818  15.180  1.00  0.00     0.122 C 
HETATM   43  C16 UNL     1      21.651  28.212  13.956  1.00  0.00     0.020 C 
HETATM   44  C17 UNL     1      21.007  26.897  14.360  1.00  0.00     0.003 C 
HETATM   45  C18 UNL     1      20.332  27.005  15.705  1.00  0.00     0.020 C 
HETATM   46  C19 UNL     1      21.357  27.420  16.722  1.00  0.00     0.122 C 
ENDBRANCH  40  41
ENDBRANCH  39  40
ENDBRANCH  38  39
ENDBRANCH  35  38
ENDBRANCH  31  32
ENDBRANCH  30  31
ENDBRANCH  29  30
ENDBRANCH  27  29
ENDBRANCH   3  25
TORSDOF 12
ENDMDL
MODEL 3
REMARK VINA RESULT: -9.244149474      1.878      2.431
REMARK  12 active torsions:
REMARK  status: ('A' for Active; 'I' for Inactive)
REMARK    1  A    between atoms: C2_2  and  C3_3 
REMARK    2  A    between atoms: C3_3  and  N1_4 
REMARK    3  A    between atoms: C5_6  and  C6_7 
REMARK       I    between atoms: C6_7  and  N2_9 
REMARK    4  A    between atoms: N2_9  and  C7_11 
REMARK    5  A    between atoms: C7_11  and  C8_12 
REMARK    6  A    between atoms: C8_12  and  C9_13 
REMARK    7  A    between atoms: C9_13  and  N3_14 
REMARK    8  A    between atoms: N4_17  and  C12_18 
REMARK    9  A    between atoms: C12_18  and  C13_19 
REMARK   10  A    between atoms: C13_19  and  C14_20 
REMARK   11  A    between atoms: C14_20  and  N5_21 
REMARK   12  A    between atoms: C27_35  and  O3_36 
ROOT
HETATM    1  N1  UNL     1      16.986  22.991  18.374  1.00  0.00    -0.354 N 
HETATM    2  C4  UNL     1      16.017  22.241  17.773  1.00  0.00     0.112 A 
HETATM    3  C5  UNL     1      15.606  22.327  16.464  1.00  0.00     0.098 A 
HETATM    4  C22 UNL     1      16.227  23.251  15.700  1.00  0.00     0.201 A 
HETATM    5  O2  UNL     1      15.963  23.455  14.484  1.00  0.00    -0.286 OA
HETATM    6  C23 UNL     1      17.210  24.039  16.245  1.00  0.00     0.044 A 
HETATM    7  C24 UNL     1      17.830  24.988  15.439  1.00  0.00     0.031 A 
HETATM    8  C25 UNL     1      18.809  25.805  15.930  1.00  0.00    -0.004 A 
HETATM    9  C26 UNL     1      19.437  26.745  15.159  1.00  0.00     0.056 A 
HETATM   10  C27 UNL     1      20.432  27.566  15.684  1.00  0.00     0.137 A 
HETATM   11  C29 UNL     1      20.725  27.356  17.011  1.00  0.00     0.279 A 
HETATM   12  O4  UNL     1      21.632  28.096  17.514  1.00  0.00    -0.265 OA
HETATM   13  N6  UNL     1      20.117  26.433  17.788  1.00  0.00    -0.319 N 
ATOM     14  H6  UNL     1      20.379  26.325  18.767  1.00  0.00     0.169 HD
HETATM   15  C30 UNL     1      19.158  25.657  17.244  1.00  0.00     0.068 A 
HETATM   16  C31 UNL     1      18.562  24.712  18.103  1.00  0.00     0.100 A 
HETATM   17  C32 UNL     1      18.992  24.694  19.466  1.00  0.00     0.104 C 
HETATM   18  N7  UNL     1      19.391  24.746  20.560  1.00  0.00    -0.191 NA
HETATM   19  C33 UNL     1      17.591  23.906  17.597  1.00  0.00     0.071 A 
ENDROOT
BRANCH   1  20
HETATM   20  C3  UNL     1      17.337  22.698  19.710  1.00  0.00     0.128 C 
BRANCH  20  21
HETATM   21  C2  UNL     1      18.056  21.368  19.890  1.00  0.00     0.016 C 
HETATM   22  C1  UNL     1      18.868  21.297  21.157  1.00  0.00     0.006 C 
ENDBRANCH  20  21
ENDBRANCH   1  20
BRANCH  10  23
HETATM   23  O3  UNL     1      21.083  28.530  14.917  1.00  0.00    -0.351 OA
HETATM   24  C28 UNL     1      21.478  28.189  13.602  1.00  0.00     0.210 C 
ENDBRANCH  10  23
BRANCH   3  25
HETATM   25  C6  UNL     1      14.585  21.421  15.957  1.00  0.00     0.257 C 
HETATM   26  O1  UNL     1      14.460  20.330  16.591  1.00  0.00    -0.267 OA
HETATM   27  N2  UNL     1      13.783  21.715  14.838  1.00  0.00    -0.356 N 
ATOM     28  H2  UNL     1      13.875  22.587  14.316  1.00  0.00     0.162 HD
BRANCH  27  29
HETATM   29  C7  UNL     1      12.804  20.680  14.474  1.00  0.00     0.128 C 
BRANCH  29  30
HETATM   30  C8  UNL     1      13.357  19.792  13.353  1.00  0.00     0.065 C 
BRANCH  30  31
HETATM   31  C9  UNL     1      12.132  19.251  12.647  1.00  0.00     0.069 C 
BRANCH  31  32
HETATM   32  N3  UNL     1      11.548  18.111  13.186  1.00  0.00    -0.351 N 
HETATM   33  C10 UNL     1      10.845  18.153  14.404  1.00  0.00     0.098 C 
HETATM   34  C11 UNL     1       9.609  17.296  14.275  1.00  0.00     0.318 C 
HETATM   35  N4  UNL     1       9.999  15.940  14.003  1.00  0.00     0.098 N 
HETATM   36  C20 UNL     1      11.380  15.744  13.686  1.00  0.00     0.318 C 
HETATM   37  C21 UNL     1      11.931  16.826  12.756  1.00  0.00     0.098 C 
BRANCH  35  38
HETATM   38  C12 UNL     1       9.714  15.158  15.224  1.00  0.00     0.278 C 
BRANCH  38  39
HETATM   39  C13 UNL     1      10.817  15.351  16.214  1.00  0.00     0.074 C 
BRANCH  39  40
HETATM   40  C14 UNL     1      10.405  15.918  17.522  1.00  0.00     0.060 C 
BRANCH  40  41
HETATM   41  N5  UNL     1      11.216  16.867  18.151  1.00  0.00    -0.393 N 
HETATM   42  C15 UNL     1      10.806  18.177  18.407  1.00  0.00     0.122 C 
HETATM   43  C16 UNL     1      11.469  18.617  19.736  1.00  0.00     0.020 C 
HETATM   44  C17 UNL     1      12.666  17.725  20.016  1.00  0.00     0.003 C 
HETATM   45  C18 UNL     1      13.482  17.492  18.770  1.00  0.00     0.020 C 
HETATM   46  C19 UNL     1      12.597  16.868  17.729  1.00  0.00     0.122 C 
ENDBRANCH  40  41
ENDBRANCH  39  40
ENDBRANCH  38  39
ENDBRANCH  35  38
ENDBRANCH  31  32
ENDBRANCH  30  31
ENDBRANCH  29  30
ENDBRANCH  27  29
ENDBRANCH   3  25
TORSDOF 12
ENDMDL
MODEL 4
REMARK VINA RESULT: -9.221214691      2.784     10.868
REMARK  12 active torsions:
REMARK  status: ('A' for Active; 'I' for Inactive)
REMARK    1  A    between atoms: C2_2  and  C3_3 
REMARK    2  A    between atoms: C3_3  and  N1_4 
REMARK    3  A    between atoms: C5_6  and  C6_7 
REMARK       I    between atoms: C6_7  and  N2_9 
REMARK    4  A    between atoms: N2_9  and  C7_11 
REMARK    5  A    between atoms: C7_11  and  C8_12 
REMARK    6  A    between atoms: C8_12  and  C9_13 
REMARK    7  A    between atoms: C9_13  and  N3_14 
REMARK    8  A    between atoms: N4_17  and  C12_18 
REMARK    9  A    between atoms: C12_18  and  C13_19 
REMARK   10  A    between atoms: C13_19  and  C14_20 
REMARK   11  A    between atoms: C14_20  and  N5_21 
REMARK   12  A    between atoms: C27_35  and  O3_36 
ROOT
HETATM    1  N1  UNL     1      13.886  20.877  17.013  1.00  0.00    -0.354 N 
HETATM    2  C4  UNL     1      15.110  21.478  17.038  1.00  0.00     0.112 A 
HETATM    3  C5  UNL     1      15.879  21.821  15.951  1.00  0.00     0.098 A 
HETATM    4  C22 UNL     1      15.365  21.529  14.737  1.00  0.00     0.201 A 
HETATM    5  O2  UNL     1      15.948  21.776  13.647  1.00  0.00    -0.286 OA
HETATM    6  C23 UNL     1      14.138  20.922  14.643  1.00  0.00     0.044 A 
HETATM    7  C24 UNL     1      13.633  20.626  13.381  1.00  0.00     0.031 A 
HETATM    8  C25 UNL     1      12.421  20.015  13.227  1.00  0.00    -0.004 A 
HETATM    9  C26 UNL     1      11.900  19.714  11.999  1.00  0.00     0.056 A 
HETATM   10  C27 UNL     1      10.661  19.091  11.869  1.00  0.00     0.137 A 
HETATM   11  C29 UNL     1      10.020  18.811  13.053  1.00  0.00     0.279 A 
HETATM   12  O4  UNL     1       8.884  18.241  12.960  1.00  0.00    -0.265 OA
HETATM   13  N6  UNL     1      10.517  19.101  14.275  1.00  0.00    -0.319 N 
ATOM     14  H6  UNL     1       9.992  18.869  15.117  1.00  0.00     0.169 HD
HETATM   15  C30 UNL     1      11.720  19.705  14.360  1.00  0.00     0.068 A 
HETATM   16  C31 UNL     1      12.185  19.983  15.662  1.00  0.00     0.100 A 
HETATM   17  C32 UNL     1      11.369  19.565  16.758  1.00  0.00     0.104 C 
HETATM   18  N7  UNL     1      10.653  19.189  17.596  1.00  0.00    -0.191 NA
HETATM   19  C33 UNL     1      13.392  20.593  15.795  1.00  0.00     0.071 A 
ENDROOT
BRANCH   1  20
HETATM   20  C3  UNL     1      13.202  20.682  18.233  1.00  0.00     0.128 C 
BRANCH  20  21
HETATM   21  C2  UNL     1      14.018  19.963  19.299  1.00  0.00     0.016 C 
HETATM   22  C1  UNL     1      13.234  18.913  20.042  1.00  0.00     0.006 C 
ENDBRANCH  20  21
ENDBRANCH   1  20
BRANCH  10  23
HETATM   23  O3  UNL     1      10.113  18.775  10.629  1.00  0.00    -0.351 OA
HETATM   24  C28 UNL     1      10.793  17.841   9.811  1.00  0.00     0.210 C 
ENDBRANCH  10  23
BRANCH   3  25
HETATM   25  C6  UNL     1      17.152  22.502  16.142  1.00  0.00     0.257 C 
HETATM   26  O1  UNL     1      18.028  21.851  16.788  1.00  0.00    -0.267 OA
HETATM   27  N2  UNL     1      17.411  23.797  15.654  1.00  0.00    -0.356 N 
ATOM     28  H2  UNL     1      16.715  24.334  15.137  1.00  0.00     0.162 HD
BRANCH  27  29
HETATM   29  C7  UNL     1      18.754  24.322  15.942  1.00  0.00     0.128 C 
BRANCH  29  30
HETATM   30  C8  UNL     1      18.808  25.831  15.672  1.00  0.00     0.065 C 
BRANCH  30  31
HETATM   31  C9  UNL     1      20.285  26.161  15.612  1.00  0.00     0.069 C 
BRANCH  31  32
HETATM   32  N3  UNL     1      20.932  26.368  16.824  1.00  0.00    -0.351 N 
HETATM   33  C10 UNL     1      21.607  25.324  17.483  1.00  0.00     0.098 C 
HETATM   34  C11 UNL     1      22.899  25.866  18.045  1.00  0.00     0.318 C 
HETATM   35  N4  UNL     1      22.605  26.907  18.991  1.00  0.00     0.098 N 
HETATM   36  C20 UNL     1      21.246  27.353  19.018  1.00  0.00     0.318 C 
HETATM   37  C21 UNL     1      20.643  27.493  17.619  1.00  0.00     0.098 C 
BRANCH  35  38
HETATM   38  C12 UNL     1      22.917  26.370  20.331  1.00  0.00     0.278 C 
BRANCH  38  39
HETATM   39  C13 UNL     1      21.679  25.801  20.945  1.00  0.00     0.074 C 
BRANCH  39  40
HETATM   40  C14 UNL     1      21.627  24.320  21.016  1.00  0.00     0.060 C 
BRANCH  40  41
HETATM   41  N5  UNL     1      20.504  23.642  20.533  1.00  0.00    -0.393 N 
HETATM   42  C15 UNL     1      20.572  22.628  19.576  1.00  0.00     0.122 C 
HETATM   43  C16 UNL     1      19.452  21.610  19.901  1.00  0.00     0.020 C 
HETATM   44  C17 UNL     1      18.405  22.280  20.774  1.00  0.00     0.003 C 
HETATM   45  C18 UNL     1      18.086  23.669  20.282  1.00  0.00     0.020 C 
HETATM   46  C19 UNL     1      19.354  24.476  20.271  1.00  0.00     0.122 C 
ENDBRANCH  40  41
ENDBRANCH  39  40
ENDBRANCH  38  39
ENDBRANCH  35  38
ENDBRANCH  31  32
ENDBRANCH  30  31
ENDBRANCH  29  30
ENDBRANCH  27  29
ENDBRANCH   3  25
TORSDOF 12
ENDMDL
MODEL 5
REMARK VINA RESULT: -9.147317730      2.789     11.739
REMARK  12 active torsions:
REMARK  status: ('A' for Active; 'I' for Inactive)
REMARK    1  A    between atoms: C2_2  and  C3_3 
REMARK    2  A    between atoms: C3_3  and  N1_4 
REMARK    3  A    between atoms: C5_6  and  C6_7 
REMARK       I    between atoms: C6_7  and  N2_9 
REMARK    4  A    between atoms: N2_9  and  C7_11 
REMARK    5  A    between atoms: C7_11  and  C8_12 
REMARK    6  A    between atoms: C8_12  and  C9_13 
REMARK    7  A    between atoms: C9_13  and  N3_14 
REMARK    8  A    between atoms: N4_17  and  C12_18 
REMARK    9  A    between atoms: C12_18  and  C13_19 
REMARK   10  A    between atoms: C13_19  and  C14_20 
REMARK   11  A    between atoms: C14_20  and  N5_21 
REMARK   12  A    between atoms: C27_35  and  O3_36 
ROOT
HETATM    1  N1  UNL     1      13.322  21.371  15.885  1.00  0.00    -0.354 N 
HETATM    2  C4  UNL     1      14.254  21.910  16.724  1.00  0.00     0.112 A 
HETATM    3  C5  UNL     1      14.606  21.442  17.968  1.00  0.00     0.098 A 
HETATM    4  C22 UNL     1      13.960  20.337  18.398  1.00  0.00     0.201 A 
HETATM    5  O2  UNL     1      14.168  19.789  19.514  1.00  0.00    -0.286 OA
HETATM    6  C23 UNL     1      13.011  19.747  17.602  1.00  0.00     0.044 A 
HETATM    7  C24 UNL     1      12.355  18.614  18.071  1.00  0.00     0.031 A 
HETATM    8  C25 UNL     1      11.395  17.990  17.325  1.00  0.00    -0.004 A 
HETATM    9  C26 UNL     1      10.736  16.873  17.760  1.00  0.00     0.056 A 
HETATM   10  C27 UNL     1       9.761  16.256  16.980  1.00  0.00     0.137 A 
HETATM   11  C29 UNL     1       9.523  16.849  15.763  1.00  0.00     0.279 A 
HETATM   12  O4  UNL     1       8.635  16.302  15.032  1.00  0.00    -0.265 OA
HETATM   13  N6  UNL     1      10.164  17.951  15.315  1.00  0.00    -0.319 N 
ATOM     14  H6  UNL     1       9.942  18.344  14.401  1.00  0.00     0.169 HD
HETATM   15  C30 UNL     1      11.101  18.520  16.099  1.00  0.00     0.068 A 
HETATM   16  C31 UNL     1      11.736  19.666  15.577  1.00  0.00     0.100 A 
HETATM   17  C32 UNL     1      11.300  20.138  14.301  1.00  0.00     0.104 C 
HETATM   18  N7  UNL     1      10.887  20.464  13.261  1.00  0.00    -0.191 NA
HETATM   19  C33 UNL     1      12.690  20.273  16.332  1.00  0.00     0.071 A 
ENDROOT
BRANCH   1  20
HETATM   20  C3  UNL     1      13.158  21.939  14.603  1.00  0.00     0.128 C 
BRANCH  20  21
HETATM   21  C2  UNL     1      14.416  22.588  14.041  1.00  0.00     0.016 C 
HETATM   22  C1  UNL     1      15.223  21.666  13.166  1.00  0.00     0.006 C 
ENDBRANCH  20  21
ENDBRANCH   1  20
BRANCH  10  23
HETATM   23  O3  UNL     1       9.078  15.119  17.405  1.00  0.00    -0.351 OA
HETATM   24  C28 UNL     1       9.757  13.878  17.382  1.00  0.00     0.210 C 
ENDBRANCH  10  23
BRANCH   3  25
HETATM   25  C6  UNL     1      15.657  22.106  18.728  1.00  0.00     0.257 C 
HETATM   26  O1  UNL     1      15.506  23.354  18.892  1.00  0.00    -0.267 OA
HETATM   27  N2  UNL     1      16.774  21.426  19.249  1.00  0.00    -0.356 N 
ATOM     28  H2  UNL     1      16.910  20.423  19.121  1.00  0.00     0.162 HD
BRANCH  27  29
HETATM   29  C7  UNL     1      17.730  22.262  19.990  1.00  0.00     0.128 C 
BRANCH  29  30
HETATM   30  C8  UNL     1      19.164  21.769  19.757  1.00  0.00     0.065 C 
BRANCH  30  31
HETATM   31  C9  UNL     1      20.019  22.612  20.679  1.00  0.00     0.069 C 
BRANCH  31  32
HETATM   32  N3  UNL     1      20.699  23.679  20.105  1.00  0.00    -0.351 N 
HETATM   33  C10 UNL     1      20.064  24.912  19.867  1.00  0.00     0.098 C 
HETATM   34  C11 UNL     1      21.020  26.023  20.227  1.00  0.00     0.318 C 
HETATM   35  N4  UNL     1      22.190  25.928  19.397  1.00  0.00     0.098 N 
HETATM   36  C20 UNL     1      22.306  24.731  18.623  1.00  0.00     0.318 C 
HETATM   37  C21 UNL     1      21.906  23.480  19.408  1.00  0.00     0.098 C 
BRANCH  35  38
HETATM   38  C12 UNL     1      22.137  27.059  18.449  1.00  0.00     0.278 C 
BRANCH  38  39
HETATM   39  C13 UNL     1      21.744  26.563  17.095  1.00  0.00     0.074 C 
BRANCH  39  40
HETATM   40  C14 UNL     1      20.396  26.978  16.634  1.00  0.00     0.060 C 
BRANCH  40  41
HETATM   41  N5  UNL     1      19.469  26.007  16.243  1.00  0.00    -0.393 N 
HETATM   42  C15 UNL     1      19.755  24.641  16.215  1.00  0.00     0.122 C 
HETATM   43  C16 UNL     1      18.453  23.888  16.586  1.00  0.00     0.020 C 
HETATM   44  C17 UNL     1      17.264  24.806  16.360  1.00  0.00     0.003 C 
HETATM   45  C18 UNL     1      17.391  25.562  15.061  1.00  0.00     0.020 C 
HETATM   46  C19 UNL     1      18.666  26.356  15.094  1.00  0.00     0.122 C 
ENDBRANCH  40  41
ENDBRANCH  39  40
ENDBRANCH  38  39
ENDBRANCH  35  38
ENDBRANCH  31  32
ENDBRANCH  30  31
ENDBRANCH  29  30
ENDBRANCH  27  29
ENDBRANCH   3  25
TORSDOF 12
ENDMDL
