MODEL 1
REMARK VINA RESULT: -8.896847987      0.000      0.000
REMARK  15 active torsions:
REMARK  status: ('A' for Active; 'I' for Inactive)
REMARK    1  A    between atoms: C2_2  and  N1_3 
REMARK    2  A    between atoms: N2_6  and  C5_7 
REMARK    3  A    between atoms: C5_7  and  C6_8 
REMARK    4  A    between atoms: C6_8  and  C7_9 
REMARK       I    between atoms: C7_9  and  N3_11 
REMARK    5  A    between atoms: N3_11  and  C8_13 
REMARK    6  A    between atoms: C8_13  and  C9_14 
REMARK    7  A    between atoms: C9_14  and  O3_16 
REMARK    8  A    between atoms: O3_16  and  C10_17 
REMARK    9  A    between atoms: C10_17  and  C11_18 
REMARK   10  A    between atoms: C11_18  and  C12_19 
REMARK   11  A    between atoms: C12_19  and  C13_20 
REMARK   12  A    between atoms: C13_20  and  C14_21 
REMARK   13  A    between atoms: C15_22  and  C16_23 
REMARK   14  A    between atoms: C18_26  and  C19_27 
REMARK       I    between atoms: C19_27  and  N5_29 
REMARK   15  A    between atoms: N5_29  and  C20_31 
ROOT
HETATM    1  C11 UNL     1      17.368  23.451  15.396  1.00  0.00     0.028 C 
ENDROOT
BRANCH   1   2
HETATM    2  C10 UNL     1      17.022  24.864  15.777  1.00  0.00     0.178 C 
BRANCH   2   3
HETATM    3  O3  UNL     1      18.172  25.553  16.132  1.00  0.00    -0.320 OA
BRANCH   3   4
HETATM    4  C9  UNL     1      18.938  26.273  15.254  1.00  0.00     0.287 C 
HETATM    5  O2  UNL     1      18.462  26.667  14.172  1.00  0.00    -0.262 OA
BRANCH   4   6
HETATM    6  C8  UNL     1      20.360  26.615  15.557  1.00  0.00     0.120 C 
HETATM    7  C28 UNL     1      20.418  28.130  15.636  1.00  0.00     0.041 C 
HETATM    8  C29 UNL     1      21.739  28.526  15.026  1.00  0.00     0.003 C 
HETATM    9  C30 UNL     1      22.258  27.376  14.243  1.00  0.00     0.003 C 
HETATM   10  C31 UNL     1      21.256  26.263  14.383  1.00  0.00     0.041 C 
BRANCH   6  11
HETATM   11  N3  UNL     1      20.794  25.935  16.711  1.00  0.00    -0.342 N 
HETATM   12  C7  UNL     1      20.968  26.492  18.027  1.00  0.00     0.223 C 
HETATM   13  O1  UNL     1      20.719  27.701  18.183  1.00  0.00    -0.273 OA
ATOM     14  H3  UNL     1      21.008  24.943  16.603  1.00  0.00     0.163 HD
BRANCH  12  15
HETATM   15  C6  UNL     1      21.432  25.578  19.070  1.00  0.00     0.147 C 
BRANCH  15  16
HETATM   16  C5  UNL     1      20.566  25.155  20.162  1.00  0.00     0.067 C 
BRANCH  16  17
HETATM   17  N2  UNL     1      20.035  23.908  20.384  1.00  0.00    -0.390 N 
HETATM   18  C4  UNL     1      20.289  22.764  19.627  1.00  0.00     0.152 C 
HETATM   19  C3  UNL     1      18.972  21.961  19.457  1.00  0.00     0.292 C 
HETATM   20  N1  UNL     1      17.972  22.694  18.761  1.00  0.00     0.091 N 
HETATM   21  C33 UNL     1      17.841  24.028  19.323  1.00  0.00     0.292 C 
HETATM   22  C32 UNL     1      18.585  24.053  20.615  1.00  0.00     0.152 C 
BRANCH  20  23
HETATM   23  C2  UNL     1      16.708  22.024  18.820  1.00  0.00     0.268 C 
HETATM   24  C1  UNL     1      16.743  20.793  17.960  1.00  0.00     0.037 C 
ENDBRANCH  20  23
ENDBRANCH  16  17
ENDBRANCH  15  16
ENDBRANCH  12  15
ENDBRANCH   6  11
ENDBRANCH   4   6
ENDBRANCH   3   4
ENDBRANCH   2   3
ENDBRANCH   1   2
BRANCH   1  25
HETATM   25  C12 UNL     1      16.253  22.724  14.727  1.00  0.00     0.014 C 
BRANCH  25  26
HETATM   26  C13 UNL     1      14.867  23.280  15.061  1.00  0.00     0.094 C 
BRANCH  26  27
HETATM   27  C14 UNL     1      14.101  22.203  15.757  1.00  0.00    -0.100 C 
HETATM   28  C15 UNL     1      13.508  21.305  16.299  1.00  0.00    -0.047 C 
BRANCH  28  29
HETATM   29  C16 UNL     1      12.831  20.207  16.916  1.00  0.00     0.103 A 
HETATM   30  C17 UNL     1      12.129  19.258  16.161  1.00  0.00     0.138 A 
HETATM   31  N4  UNL     1      11.452  18.233  16.707  1.00  0.00    -0.298 N 
HETATM   32  C18 UNL     1      10.703  17.235  16.201  1.00  0.00     0.124 A 
HETATM   33  C25 UNL     1      11.432  18.089  18.042  1.00  0.00     0.135 A 
HETATM   34  C24 UNL     1      10.200  16.451  17.254  1.00  0.00     0.125 A 
HETATM   35  N6  UNL     1      10.673  17.011  18.371  1.00  0.00    -0.348 N 
ATOM     36  H6  UNL     1      10.494  16.681  19.320  1.00  0.00     0.167 HD
HETATM   37  C26 UNL     1      12.117  19.010  18.816  1.00  0.00     0.051 A 
HETATM   38  C27 UNL     1      12.078  18.830  20.290  1.00  0.00     0.072 C 
HETATM   39  N7  UNL     1      12.784  20.022  18.249  1.00  0.00    -0.349 N 
ATOM     40  H7  UNL     1      13.277  20.681  18.852  1.00  0.00     0.166 HD
BRANCH  32  41
HETATM   41  C19 UNL     1      10.478  16.920  14.821  1.00  0.00     0.270 C 
HETATM   42  O4  UNL     1       9.243  16.958  14.441  1.00  0.00    -0.266 OA
HETATM   43  N5  UNL     1      11.399  16.571  13.833  1.00  0.00    -0.348 N 
ATOM     44  H5  UNL     1      12.385  16.509  14.090  1.00  0.00     0.163 HD
BRANCH  43  45
HETATM   45  C20 UNL     1      11.027  16.290  12.452  1.00  0.00     0.022 C 
HETATM   46  C21 UNL     1      10.253  15.021  12.321  1.00  0.00     0.037 C 
HETATM   47  C22 UNL     1      12.298  16.089  11.605  1.00  0.00     0.037 C 
HETATM   48  C23 UNL     1      10.270  17.436  11.831  1.00  0.00     0.037 C 
ENDBRANCH  43  45
ENDBRANCH  32  41
ENDBRANCH  28  29
ENDBRANCH  26  27
ENDBRANCH  25  26
ENDBRANCH   1  25
TORSDOF 15
ENDMDL
MODEL 2
REMARK VINA RESULT: -8.884826884      1.644      2.100
REMARK  15 active torsions:
REMARK  status: ('A' for Active; 'I' for Inactive)
REMARK    1  A    between atoms: C2_2  and  N1_3 
REMARK    2  A    between atoms: N2_6  and  C5_7 
REMARK    3  A    between atoms: C5_7  and  C6_8 
REMARK    4  A    between atoms: C6_8  and  C7_9 
REMARK       I    between atoms: C7_9  and  N3_11 
REMARK    5  A    between atoms: N3_11  and  C8_13 
REMARK    6  A    between atoms: C8_13  and  C9_14 
REMARK    7  A    between atoms: C9_14  and  O3_16 
REMARK    8  A    between atoms: O3_16  and  C10_17 
REMARK    9  A    between atoms: C10_17  and  C11_18 
REMARK   10  A    between atoms: C11_18  and  C12_19 
REMARK   11  A    between atoms: C12_19  and  C13_20 
REMARK   12  A    between atoms: C13_20  and  C14_21 
REMARK   13  A    between atoms: C15_22  and  C16_23 
REMARK   14  A    between atoms: C18_26  and  C19_27 
REMARK       I    between atoms: C19_27  and  N5_29 
REMARK   15  A    between atoms: N5_29  and  C20_31 
ROOT
HETATM    1  C11 UNL     1      17.330  23.147  15.414  1.00  0.00     0.028 C 
ENDROOT
BRANCH   1   2
HETATM    2  C10 UNL     1      18.564  23.295  16.263  1.00  0.00     0.178 C 
BRANCH   2   3
HETATM    3  O3  UNL     1      19.405  24.249  15.710  1.00  0.00    -0.320 OA
BRANCH   3   4
HETATM    4  C9  UNL     1      19.561  25.515  16.206  1.00  0.00     0.287 C 
HETATM    5  O2  UNL     1      18.757  25.974  17.041  1.00  0.00    -0.262 OA
BRANCH   4   6
HETATM    6  C8  UNL     1      20.692  26.391  15.772  1.00  0.00     0.120 C 
HETATM    7  C28 UNL     1      20.124  27.796  15.690  1.00  0.00     0.041 C 
HETATM    8  C29 UNL     1      20.786  28.441  14.498  1.00  0.00     0.003 C 
HETATM    9  C30 UNL     1      21.387  27.372  13.661  1.00  0.00     0.003 C 
HETATM   10  C31 UNL     1      21.103  26.065  14.348  1.00  0.00     0.041 C 
BRANCH   6  11
HETATM   11  N3  UNL     1      21.792  26.236  16.636  1.00  0.00    -0.342 N 
HETATM   12  C7  UNL     1      22.044  26.964  17.852  1.00  0.00     0.223 C 
HETATM   13  O1  UNL     1      21.218  27.828  18.193  1.00  0.00    -0.273 OA
ATOM     14  H3  UNL     1      22.485  25.534  16.372  1.00  0.00     0.163 HD
BRANCH  12  15
HETATM   15  C6  UNL     1      23.265  26.620  18.581  1.00  0.00     0.147 C 
BRANCH  15  16
HETATM   16  C5  UNL     1      23.232  25.836  19.808  1.00  0.00     0.067 C 
BRANCH  16  17
HETATM   17  N2  UNL     1      22.667  24.599  20.004  1.00  0.00    -0.390 N 
HETATM   18  C4  UNL     1      22.266  23.715  19.003  1.00  0.00     0.152 C 
HETATM   19  C3  UNL     1      20.927  23.046  19.419  1.00  0.00     0.292 C 
HETATM   20  N1  UNL     1      19.873  23.988  19.575  1.00  0.00     0.091 N 
HETATM   21  C33 UNL     1      20.312  25.106  20.393  1.00  0.00     0.292 C 
HETATM   22  C32 UNL     1      21.609  24.727  21.025  1.00  0.00     0.152 C 
BRANCH  20  23
HETATM   23  C2  UNL     1      18.724  23.378  20.173  1.00  0.00     0.268 C 
HETATM   24  C1  UNL     1      18.641  21.935  19.764  1.00  0.00     0.037 C 
ENDBRANCH  20  23
ENDBRANCH  16  17
ENDBRANCH  15  16
ENDBRANCH  12  15
ENDBRANCH   6  11
ENDBRANCH   4   6
ENDBRANCH   3   4
ENDBRANCH   2   3
ENDBRANCH   1   2
BRANCH   1  25
HETATM   25  C12 UNL     1      16.188  23.986  15.874  1.00  0.00     0.014 C 
BRANCH  25  26
HETATM   26  C13 UNL     1      15.979  23.964  17.389  1.00  0.00     0.094 C 
BRANCH  26  27
HETATM   27  C14 UNL     1      15.128  22.779  17.714  1.00  0.00    -0.100 C 
HETATM   28  C15 UNL     1      14.431  21.822  17.934  1.00  0.00    -0.047 C 
BRANCH  28  29
HETATM   29  C16 UNL     1      13.590  20.685  18.149  1.00  0.00     0.103 A 
HETATM   30  C17 UNL     1      12.632  20.291  17.204  1.00  0.00     0.138 A 
HETATM   31  N4  UNL     1      11.800  19.251  17.385  1.00  0.00    -0.298 N 
HETATM   32  C18 UNL     1      10.809  18.711  16.652  1.00  0.00     0.124 A 
HETATM   33  C25 UNL     1      11.871  18.537  18.521  1.00  0.00     0.135 A 
HETATM   34  C24 UNL     1      10.245  17.632  17.354  1.00  0.00     0.125 A 
HETATM   35  N6  UNL     1      10.927  17.558  18.500  1.00  0.00    -0.348 N 
ATOM     36  H6  UNL     1      10.767  16.876  19.241  1.00  0.00     0.167 HD
HETATM   37  C26 UNL     1      12.807  18.901  19.473  1.00  0.00     0.051 A 
HETATM   38  C27 UNL     1      12.863  18.097  20.720  1.00  0.00     0.072 C 
HETATM   39  N7  UNL     1      13.624  19.940  19.270  1.00  0.00    -0.349 N 
ATOM     40  H7  UNL     1      14.301  20.179  19.994  1.00  0.00     0.166 HD
BRANCH  32  41
HETATM   41  C19 UNL     1      10.398  19.077  15.328  1.00  0.00     0.270 C 
HETATM   42  O4  UNL     1       9.206  19.570  15.238  1.00  0.00    -0.266 OA
HETATM   43  N5  UNL     1      11.095  18.972  14.124  1.00  0.00    -0.348 N 
ATOM     44  H5  UNL     1      12.034  18.572  14.142  1.00  0.00     0.163 HD
BRANCH  43  45
HETATM   45  C20 UNL     1      10.553  19.405  12.843  1.00  0.00     0.022 C 
HETATM   46  C21 UNL     1       9.415  18.552  12.391  1.00  0.00     0.037 C 
HETATM   47  C22 UNL     1      11.632  19.266  11.752  1.00  0.00     0.037 C 
HETATM   48  C23 UNL     1      10.147  20.856  12.866  1.00  0.00     0.037 C 
ENDBRANCH  43  45
ENDBRANCH  32  41
ENDBRANCH  28  29
ENDBRANCH  26  27
ENDBRANCH  25  26
ENDBRANCH   1  25
TORSDOF 15
ENDMDL
MODEL 3
REMARK VINA RESULT: -8.853194956      1.779     11.591
REMARK  15 active torsions:
REMARK  status: ('A' for Active; 'I' for Inactive)
REMARK    1  A    between atoms: C2_2  and  N1_3 
REMARK    2  A    between atoms: N2_6  and  C5_7 
REMARK    3  A    between atoms: C5_7  and  C6_8 
REMARK    4  A    between atoms: C6_8  and  C7_9 
REMARK       I    between atoms: C7_9  and  N3_11 
REMARK    5  A    between atoms: N3_11  and  C8_13 
REMARK    6  A    between atoms: C8_13  and  C9_14 
REMARK    7  A    between atoms: C9_14  and  O3_16 
REMARK    8  A    between atoms: O3_16  and  C10_17 
REMARK    9  A    between atoms: C10_17  and  C11_18 
REMARK   10  A    between atoms: C11_18  and  C12_19 
REMARK   11  A    between atoms: C12_19  and  C13_20 
REMARK   12  A    between atoms: C13_20  and  C14_21 
REMARK   13  A    between atoms: C15_22  and  C16_23 
REMARK   14  A    between atoms: C18_26  and  C19_27 
REMARK       I    between atoms: C19_27  and  N5_29 
REMARK   15  A    between atoms: N5_29  and  C20_31 
ROOT
HETATM    1  C11 UNL     1      13.257  21.811  14.713  1.00  0.00     0.028 C 
ENDROOT
BRANCH   1   2
HETATM    2  C10 UNL     1      12.146  20.963  15.268  1.00  0.00     0.178 C 
BRANCH   2   3
HETATM    3  O3  UNL     1      12.546  20.383  16.462  1.00  0.00    -0.320 OA
BRANCH   3   4
HETATM    4  C9  UNL     1      11.709  19.697  17.301  1.00  0.00     0.287 C 
HETATM    5  O2  UNL     1      10.533  20.072  17.471  1.00  0.00    -0.262 OA
BRANCH   4   6
HETATM    6  C8  UNL     1      12.167  18.479  18.036  1.00  0.00     0.120 C 
HETATM    7  C28 UNL     1      11.389  18.462  19.340  1.00  0.00     0.041 C 
HETATM    8  C29 UNL     1      12.347  17.951  20.387  1.00  0.00     0.003 C 
HETATM    9  C30 UNL     1      13.728  18.058  19.850  1.00  0.00     0.003 C 
HETATM   10  C31 UNL     1      13.617  18.625  18.462  1.00  0.00     0.041 C 
BRANCH   6  11
HETATM   11  N3  UNL     1      12.018  17.334  17.231  1.00  0.00    -0.342 N 
HETATM   12  C7  UNL     1      10.816  16.567  17.036  1.00  0.00     0.223 C 
HETATM   13  O1  UNL     1       9.789  16.934  17.634  1.00  0.00    -0.273 OA
ATOM     14  H3  UNL     1      12.850  17.013  16.735  1.00  0.00     0.163 HD
BRANCH  12  15
HETATM   15  C6  UNL     1      10.913  15.410  16.145  1.00  0.00     0.147 C 
BRANCH  15  16
HETATM   16  C5  UNL     1      10.110  15.302  14.936  1.00  0.00     0.067 C 
BRANCH  16  17
HETATM   17  N2  UNL     1      10.477  15.610  13.648  1.00  0.00    -0.390 N 
HETATM   18  C4  UNL     1      11.784  15.699  13.169  1.00  0.00     0.152 C 
HETATM   19  C3  UNL     1      11.889  16.902  12.194  1.00  0.00     0.292 C 
HETATM   20  N1  UNL     1      11.603  18.143  12.827  1.00  0.00     0.091 N 
HETATM   21  C33 UNL     1      10.373  18.047  13.594  1.00  0.00     0.292 C 
HETATM   22  C32 UNL     1       9.691  16.778  13.206  1.00  0.00     0.152 C 
BRANCH  20  23
HETATM   23  C2  UNL     1      11.485  19.196  11.863  1.00  0.00     0.268 C 
HETATM   24  C1  UNL     1      10.388  20.138  12.268  1.00  0.00     0.037 C 
ENDBRANCH  20  23
ENDBRANCH  16  17
ENDBRANCH  15  16
ENDBRANCH  12  15
ENDBRANCH   6  11
ENDBRANCH   4   6
ENDBRANCH   3   4
ENDBRANCH   2   3
ENDBRANCH   1   2
BRANCH   1  25
HETATM   25  C12 UNL     1      14.253  21.040  13.916  1.00  0.00     0.014 C 
BRANCH  25  26
HETATM   26  C13 UNL     1      15.443  21.877  13.442  1.00  0.00     0.094 C 
BRANCH  26  27
HETATM   27  C14 UNL     1      16.231  22.270  14.649  1.00  0.00    -0.100 C 
HETATM   28  C15 UNL     1      16.872  22.546  15.631  1.00  0.00    -0.047 C 
BRANCH  28  29
HETATM   29  C16 UNL     1      17.636  22.826  16.807  1.00  0.00     0.103 A 
HETATM   30  C17 UNL     1      18.520  23.912  16.868  1.00  0.00     0.138 A 
HETATM   31  N4  UNL     1      19.281  24.186  17.942  1.00  0.00    -0.298 N 
HETATM   32  C18 UNL     1      20.197  25.133  18.218  1.00  0.00     0.124 A 
HETATM   33  C25 UNL     1      19.209  23.394  19.024  1.00  0.00     0.135 A 
HETATM   34  C24 UNL     1      20.712  24.920  19.509  1.00  0.00     0.125 A 
HETATM   35  N6  UNL     1      20.076  23.839  19.971  1.00  0.00    -0.348 N 
ATOM     36  H6  UNL     1      20.218  23.417  20.888  1.00  0.00     0.167 HD
HETATM   37  C26 UNL     1      18.344  22.314  18.995  1.00  0.00     0.051 A 
HETATM   38  C27 UNL     1      18.284  21.452  20.204  1.00  0.00     0.072 C 
HETATM   39  N7  UNL     1      17.597  22.061  17.915  1.00  0.00    -0.349 N 
ATOM     40  H7  UNL     1      16.971  21.256  17.930  1.00  0.00     0.166 HD
BRANCH  32  41
HETATM   41  C19 UNL     1      20.576  26.251  17.405  1.00  0.00     0.270 C 
HETATM   42  O4  UNL     1      20.442  27.409  17.963  1.00  0.00    -0.266 OA
HETATM   43  N5  UNL     1      21.062  26.268  16.097  1.00  0.00    -0.348 N 
ATOM     44  H5  UNL     1      21.167  25.379  15.608  1.00  0.00     0.163 HD
BRANCH  43  45
HETATM   45  C20 UNL     1      21.427  27.492  15.394  1.00  0.00     0.022 C 
HETATM   46  C21 UNL     1      20.233  28.251  14.921  1.00  0.00     0.037 C 
HETATM   47  C22 UNL     1      22.222  27.138  14.123  1.00  0.00     0.037 C 
HETATM   48  C23 UNL     1      22.317  28.375  16.228  1.00  0.00     0.037 C 
ENDBRANCH  43  45
ENDBRANCH  32  41
ENDBRANCH  28  29
ENDBRANCH  26  27
ENDBRANCH  25  26
ENDBRANCH   1  25
TORSDOF 15
ENDMDL
MODEL 4
REMARK VINA RESULT: -8.766707580      2.309      4.652
REMARK  15 active torsions:
REMARK  status: ('A' for Active; 'I' for Inactive)
REMARK    1  A    between atoms: C2_2  and  N1_3 
REMARK    2  A    between atoms: N2_6  and  C5_7 
REMARK    3  A    between atoms: C5_7  and  C6_8 
REMARK    4  A    between atoms: C6_8  and  C7_9 
REMARK       I    between atoms: C7_9  and  N3_11 
REMARK    5  A    between atoms: N3_11  and  C8_13 
REMARK    6  A    between atoms: C8_13  and  C9_14 
REMARK    7  A    between atoms: C9_14  and  O3_16 
REMARK    8  A    between atoms: O3_16  and  C10_17 
REMARK    9  A    between atoms: C10_17  and  C11_18 
REMARK   10  A    between atoms: C11_18  and  C12_19 
REMARK   11  A    between atoms: C12_19  and  C13_20 
REMARK   12  A    between atoms: C13_20  and  C14_21 
REMARK   13  A    between atoms: C15_22  and  C16_23 
REMARK   14  A    between atoms: C18_26  and  C19_27 
REMARK       I    between atoms: C19_27  and  N5_29 
REMARK   15  A    between atoms: N5_29  and  C20_31 
ROOT
HETATM    1  C11 UNL     1      17.751  23.435  15.738  1.00  0.00     0.028 C 
ENDROOT
BRANCH   1   2
HETATM    2  C10 UNL     1      18.841  24.457  15.913  1.00  0.00     0.178 C 
BRANCH   2   3
HETATM    3  O3  UNL     1      19.725  24.041  16.897  1.00  0.00    -0.320 OA
BRANCH   3   4
HETATM    4  C9  UNL     1      19.846  24.638  18.123  1.00  0.00     0.287 C 
HETATM    5  O2  UNL     1      20.096  25.856  18.214  1.00  0.00    -0.262 OA
BRANCH   4   6
HETATM    6  C8  UNL     1      19.682  23.862  19.390  1.00  0.00     0.120 C 
HETATM    7  C28 UNL     1      19.481  22.417  18.971  1.00  0.00     0.041 C 
HETATM    8  C29 UNL     1      18.472  21.843  19.934  1.00  0.00     0.003 C 
HETATM    9  C30 UNL     1      17.786  22.968  20.619  1.00  0.00     0.003 C 
HETATM   10  C31 UNL     1      18.386  24.239  20.083  1.00  0.00     0.041 C 
BRANCH   6  11
HETATM   11  N3  UNL     1      20.771  24.092  20.252  1.00  0.00    -0.342 N 
HETATM   12  C7  UNL     1      22.141  23.707  20.034  1.00  0.00     0.223 C 
HETATM   13  O1  UNL     1      22.414  23.102  18.982  1.00  0.00    -0.273 OA
ATOM     14  H3  UNL     1      20.568  24.584  21.123  1.00  0.00     0.163 HD
BRANCH  12  15
HETATM   15  C6  UNL     1      23.097  24.061  21.083  1.00  0.00     0.147 C 
BRANCH  15  16
HETATM   16  C5  UNL     1      24.270  24.880  20.809  1.00  0.00     0.067 C 
BRANCH  16  17
HETATM   17  N2  UNL     1      24.335  26.045  20.085  1.00  0.00    -0.390 N 
HETATM   18  C4  UNL     1      23.252  26.727  19.532  1.00  0.00     0.152 C 
HETATM   19  C3  UNL     1      23.648  27.261  18.129  1.00  0.00     0.292 C 
HETATM   20  N1  UNL     1      23.977  26.217  17.221  1.00  0.00     0.091 N 
HETATM   21  C33 UNL     1      24.908  25.287  17.838  1.00  0.00     0.292 C 
HETATM   22  C32 UNL     1      25.418  25.916  19.091  1.00  0.00     0.152 C 
BRANCH  20  23
HETATM   23  C2  UNL     1      24.552  26.743  16.020  1.00  0.00     0.268 C 
HETATM   24  C1  UNL     1      23.770  27.942  15.563  1.00  0.00     0.037 C 
ENDBRANCH  20  23
ENDBRANCH  16  17
ENDBRANCH  15  16
ENDBRANCH  12  15
ENDBRANCH   6  11
ENDBRANCH   4   6
ENDBRANCH   3   4
ENDBRANCH   2   3
ENDBRANCH   1   2
BRANCH   1  25
HETATM   25  C12 UNL     1      16.387  23.967  16.015  1.00  0.00     0.014 C 
BRANCH  25  26
HETATM   26  C13 UNL     1      16.038  24.021  17.504  1.00  0.00     0.094 C 
BRANCH  26  27
HETATM   27  C14 UNL     1      15.162  22.850  17.808  1.00  0.00    -0.100 C 
HETATM   28  C15 UNL     1      14.461  21.892  18.014  1.00  0.00    -0.047 C 
BRANCH  28  29
HETATM   29  C16 UNL     1      13.633  20.742  18.210  1.00  0.00     0.103 A 
HETATM   30  C17 UNL     1      12.670  20.360  17.265  1.00  0.00     0.138 A 
HETATM   31  N4  UNL     1      11.850  19.308  17.430  1.00  0.00    -0.298 N 
HETATM   32  C18 UNL     1      10.857  18.775  16.693  1.00  0.00     0.124 A 
HETATM   33  C25 UNL     1      11.938  18.569  18.548  1.00  0.00     0.135 A 
HETATM   34  C24 UNL     1      10.310  17.675  17.376  1.00  0.00     0.125 A 
HETATM   35  N6  UNL     1      11.004  17.582  18.514  1.00  0.00    -0.348 N 
ATOM     36  H6  UNL     1      10.857  16.882  19.241  1.00  0.00     0.167 HD
HETATM   37  C26 UNL     1      12.879  18.921  19.500  1.00  0.00     0.051 A 
HETATM   38  C27 UNL     1      12.955  18.089  20.728  1.00  0.00     0.072 C 
HETATM   39  N7  UNL     1      13.684  19.972  19.313  1.00  0.00    -0.349 N 
ATOM     40  H7  UNL     1      14.366  20.201  20.037  1.00  0.00     0.166 HD
BRANCH  32  41
HETATM   41  C19 UNL     1      10.430  19.168  15.382  1.00  0.00     0.270 C 
HETATM   42  O4  UNL     1       9.245  19.682  15.320  1.00  0.00    -0.266 OA
HETATM   43  N5  UNL     1      11.105  19.068  14.165  1.00  0.00    -0.348 N 
ATOM     44  H5  UNL     1      12.037  18.652  14.162  1.00  0.00     0.163 HD
BRANCH  43  45
HETATM   45  C20 UNL     1      10.549  19.529  12.900  1.00  0.00     0.022 C 
HETATM   46  C21 UNL     1       9.419  18.673  12.432  1.00  0.00     0.037 C 
HETATM   47  C22 UNL     1      11.623  19.434  11.799  1.00  0.00     0.037 C 
HETATM   48  C23 UNL     1      10.124  20.973  12.965  1.00  0.00     0.037 C 
ENDBRANCH  43  45
ENDBRANCH  32  41
ENDBRANCH  28  29
ENDBRANCH  26  27
ENDBRANCH  25  26
ENDBRANCH   1  25
TORSDOF 15
ENDMDL
MODEL 5
REMARK VINA RESULT: -8.678900349      3.044     11.771
REMARK  15 active torsions:
REMARK  status: ('A' for Active; 'I' for Inactive)
REMARK    1  A    between atoms: C2_2  and  N1_3 
REMARK    2  A    between atoms: N2_6  and  C5_7 
REMARK    3  A    between atoms: C5_7  and  C6_8 
REMARK    4  A    between atoms: C6_8  and  C7_9 
REMARK       I    between atoms: C7_9  and  N3_11 
REMARK    5  A    between atoms: N3_11  and  C8_13 
REMARK    6  A    between atoms: C8_13  and  C9_14 
REMARK    7  A    between atoms: C9_14  and  O3_16 
REMARK    8  A    between atoms: O3_16  and  C10_17 
REMARK    9  A    between atoms: C10_17  and  C11_18 
REMARK   10  A    between atoms: C11_18  and  C12_19 
REMARK   11  A    between atoms: C12_19  and  C13_20 
REMARK   12  A    between atoms: C13_20  and  C14_21 
REMARK   13  A    between atoms: C15_22  and  C16_23 
REMARK   14  A    between atoms: C18_26  and  C19_27 
REMARK       I    between atoms: C19_27  and  N5_29 
REMARK   15  A    between atoms: N5_29  and  C20_31 
ROOT
HETATM    1  C11 UNL     1      18.838  21.569  19.523  1.00  0.00     0.028 C 
ENDROOT
BRANCH   1   2
HETATM    2  C10 UNL     1      17.347  21.591  19.324  1.00  0.00     0.178 C 
BRANCH   2   3
HETATM    3  O3  UNL     1      17.027  21.032  18.096  1.00  0.00    -0.320 OA
BRANCH   3   4
HETATM    4  C9  UNL     1      17.348  21.593  16.889  1.00  0.00     0.287 C 
HETATM    5  O2  UNL     1      18.208  21.070  16.154  1.00  0.00    -0.262 OA
BRANCH   4   6
HETATM    6  C8  UNL     1      16.685  22.843  16.408  1.00  0.00     0.120 C 
HETATM    7  C28 UNL     1      17.641  23.464  15.406  1.00  0.00     0.041 C 
HETATM    8  C29 UNL     1      17.543  24.955  15.608  1.00  0.00     0.003 C 
HETATM    9  C30 UNL     1      16.903  25.207  16.924  1.00  0.00     0.003 C 
HETATM   10  C31 UNL     1      16.594  23.865  17.527  1.00  0.00     0.041 C 
BRANCH   6  11
HETATM   11  N3  UNL     1      15.398  22.557  15.915  1.00  0.00    -0.342 N 
HETATM   12  C7  UNL     1      15.067  22.047  14.610  1.00  0.00     0.223 C 
HETATM   13  O1  UNL     1      16.000  21.832  13.817  1.00  0.00    -0.273 OA
ATOM     14  H3  UNL     1      14.617  22.731  16.549  1.00  0.00     0.163 HD
BRANCH  12  15
HETATM   15  C6  UNL     1      13.647  21.830  14.331  1.00  0.00     0.147 C 
BRANCH  15  16
HETATM   16  C5  UNL     1      12.713  21.426  15.373  1.00  0.00     0.067 C 
BRANCH  16  17
HETATM   17  N2  UNL     1      12.536  20.174  15.909  1.00  0.00    -0.390 N 
HETATM   18  C4  UNL     1      11.334  19.651  16.386  1.00  0.00     0.152 C 
HETATM   19  C3  UNL     1      11.609  18.837  17.679  1.00  0.00     0.292 C 
HETATM   20  N1  UNL     1      12.146  19.639  18.724  1.00  0.00     0.091 N 
HETATM   21  C33 UNL     1      13.249  20.443  18.227  1.00  0.00     0.292 C 
HETATM   22  C32 UNL     1      13.620  19.925  16.879  1.00  0.00     0.152 C 
BRANCH  20  23
HETATM   23  C2  UNL     1      12.597  18.828  19.814  1.00  0.00     0.268 C 
HETATM   24  C1  UNL     1      12.481  17.375  19.451  1.00  0.00     0.037 C 
ENDBRANCH  20  23
ENDBRANCH  16  17
ENDBRANCH  15  16
ENDBRANCH  12  15
ENDBRANCH   6  11
ENDBRANCH   4   6
ENDBRANCH   3   4
ENDBRANCH   2   3
ENDBRANCH   1   2
BRANCH   1  25
HETATM   25  C12 UNL     1      19.297  22.403  20.670  1.00  0.00     0.014 C 
BRANCH  25  26
HETATM   26  C13 UNL     1      18.741  23.829  20.656  1.00  0.00     0.094 C 
BRANCH  26  27
HETATM   27  C14 UNL     1      19.552  24.624  19.686  1.00  0.00    -0.100 C 
HETATM   28  C15 UNL     1      20.171  25.285  18.892  1.00  0.00    -0.047 C 
BRANCH  28  29
HETATM   29  C16 UNL     1      20.863  26.093  17.936  1.00  0.00     0.103 A 
HETATM   30  C17 UNL     1      22.234  26.359  18.054  1.00  0.00     0.138 A 
HETATM   31  N4  UNL     1      22.912  27.141  17.196  1.00  0.00    -0.298 N 
HETATM   32  C18 UNL     1      24.191  27.551  17.120  1.00  0.00     0.124 A 
HETATM   33  C25 UNL     1      22.265  27.707  16.164  1.00  0.00     0.135 A 
HETATM   34  C24 UNL     1      24.343  28.400  16.009  1.00  0.00     0.125 A 
HETATM   35  N6  UNL     1      23.133  28.469  15.447  1.00  0.00    -0.348 N 
ATOM     36  H6  UNL     1      22.898  29.008  14.614  1.00  0.00     0.167 HD
HETATM   37  C26 UNL     1      20.910  27.462  16.019  1.00  0.00     0.051 A 
HETATM   38  C27 UNL     1      20.218  28.100  14.871  1.00  0.00     0.072 C 
HETATM   39  N7  UNL     1      20.258  26.680  16.886  1.00  0.00    -0.349 N 
ATOM     40  H7  UNL     1      19.260  26.523  16.747  1.00  0.00     0.166 HD
BRANCH  32  41
HETATM   41  C19 UNL     1      25.289  27.161  17.955  1.00  0.00     0.270 C 
HETATM   42  O4  UNL     1      25.771  28.098  18.705  1.00  0.00    -0.266 OA
HETATM   43  N5  UNL     1      25.915  25.920  18.070  1.00  0.00    -0.348 N 
ATOM     44  H5  UNL     1      25.582  25.154  17.484  1.00  0.00     0.163 HD
BRANCH  43  45
HETATM   45  C20 UNL     1      27.021  25.660  18.984  1.00  0.00     0.022 C 
HETATM   46  C21 UNL     1      28.240  26.449  18.637  1.00  0.00     0.037 C 
HETATM   47  C22 UNL     1      27.441  24.182  18.879  1.00  0.00     0.037 C 
HETATM   48  C23 UNL     1      26.630  25.898  20.419  1.00  0.00     0.037 C 
ENDBRANCH  43  45
ENDBRANCH  32  41
ENDBRANCH  28  29
ENDBRANCH  26  27
ENDBRANCH  25  26
ENDBRANCH   1  25
TORSDOF 15
ENDMDL
