MODEL 1
REMARK VINA RESULT: -8.702443334      0.000      0.000
REMARK  14 active torsions:
REMARK  status: ('A' for Active; 'I' for Inactive)
REMARK    1  A    between atoms: C2_2  and  O1_3 
REMARK    2  A    between atoms: O1_3  and  C3_4 
REMARK    3  A    between atoms: C3_4  and  C4_6 
REMARK    4  A    between atoms: C5_7  and  C6_8 
REMARK    5  A    between atoms: C6_8  and  N1_9 
REMARK       I    between atoms: N2_12  and  C9_13 
REMARK    6  A    between atoms: C9_13  and  C10_15 
REMARK    7  A    between atoms: C10_15  and  C11_16 
REMARK    8  A    between atoms: C11_16  and  C12_17 
REMARK    9  A    between atoms: C12_17  and  C13_18 
REMARK   10  A    between atoms: C17_29  and  C18_30 
REMARK   11  A    between atoms: C20_32  and  O7_33 
REMARK   12  A    between atoms: C22_35  and  O8_36 
REMARK   13  A    between atoms: C24_38  and  O9_39 
REMARK   14  A    between atoms: C26_41  and  C27_42 
ROOT
HETATM    1  C4  UNL     1      21.367  25.514  18.194  1.00  0.00     0.160 C 
HETATM    2  C5  UNL     1      20.405  25.133  19.340  1.00  0.00     0.035 C 
HETATM    3  N3  UNL     1      20.400  25.768  20.459  1.00  0.00    -0.314 N 
ATOM      4  H3  UNL     1      19.746  25.492  21.191  1.00  0.00     0.170 HD
HETATM    5  C16 UNL     1      21.294  26.846  20.686  1.00  0.00     0.320 C 
HETATM    6  O6  UNL     1      21.387  27.551  21.707  1.00  0.00    -0.247 OA
HETATM    7  N4  UNL     1      22.187  27.140  19.585  1.00  0.00    -0.333 N 
ATOM      8  H4  UNL     1      22.447  28.087  19.309  1.00  0.00     0.165 HD
HETATM    9  C17 UNL     1      22.679  25.932  18.907  1.00  0.00     0.139 C 
ENDROOT
BRANCH   9  10
HETATM   10  C18 UNL     1      23.763  26.054  17.988  1.00  0.00    -0.022 A 
HETATM   11  C19 UNL     1      23.753  27.070  17.013  1.00  0.00     0.049 A 
HETATM   12  C20 UNL     1      24.776  27.312  16.123  1.00  0.00     0.104 A 
HETATM   13  C22 UNL     1      25.889  26.537  16.158  1.00  0.00     0.135 A 
HETATM   14  C24 UNL     1      25.932  25.512  17.118  1.00  0.00     0.112 A 
HETATM   15  C26 UNL     1      24.920  25.243  18.015  1.00  0.00    -0.006 A 
BRANCH  12  16
HETATM   16  O7  UNL     1      24.592  28.361  15.227  1.00  0.00    -0.353 OA
HETATM   17  C21 UNL     1      23.536  29.284  15.342  1.00  0.00     0.210 C 
ENDBRANCH  12  16
BRANCH  13  18
HETATM   18  O8  UNL     1      26.936  26.765  15.271  1.00  0.00    -0.351 OA
HETATM   19  C23 UNL     1      27.775  27.902  15.372  1.00  0.00     0.210 C 
ENDBRANCH  13  18
BRANCH  14  20
HETATM   20  O9  UNL     1      27.135  24.811  17.049  1.00  0.00    -0.352 OA
HETATM   21  C25 UNL     1      28.189  25.405  17.879  1.00  0.00     0.210 C 
ENDBRANCH  14  20
BRANCH  15  22
HETATM   22  C27 UNL     1      25.016  24.083  18.855  1.00  0.00    -0.021 C 
HETATM   23  C28 UNL     1      25.594  24.571  20.227  1.00  0.00     0.019 C 
HETATM   24  C29 UNL     1      23.654  23.538  19.378  1.00  0.00     0.019 C 
HETATM   25  C30 UNL     1      25.762  22.864  18.537  1.00  0.00     0.019 C 
ENDBRANCH  15  22
ENDBRANCH   9  10
BRANCH   1  26
HETATM   26  C3  UNL     1      20.630  26.573  17.519  1.00  0.00     0.271 C 
HETATM   27  O2  UNL     1      20.610  27.769  18.001  1.00  0.00    -0.264 OA
BRANCH  26  28
HETATM   28  O1  UNL     1      19.925  26.423  16.368  1.00  0.00    -0.321 OA
BRANCH  28  29
HETATM   29  C2  UNL     1      20.088  27.315  15.288  1.00  0.00     0.174 C 
HETATM   30  C1  UNL     1      21.104  26.733  14.324  1.00  0.00     0.034 C 
ENDBRANCH  28  29
ENDBRANCH  26  28
ENDBRANCH   1  26
BRANCH   2  31
HETATM   31  C6  UNL     1      19.496  24.013  19.088  1.00  0.00     0.326 C 
BRANCH  31  32
HETATM   32  N1  UNL     1      18.107  24.328  19.359  1.00  0.00     0.096 N 
HETATM   33  C7  UNL     1      17.537  23.180  20.034  1.00  0.00     0.292 C 
HETATM   34  C8  UNL     1      17.120  22.100  19.070  1.00  0.00     0.156 C 
HETATM   35  N2  UNL     1      16.037  22.642  18.282  1.00  0.00    -0.349 N 
HETATM   36  C9  UNL     1      15.019  21.780  17.807  1.00  0.00     0.219 C 
HETATM   37  C14 UNL     1      16.045  24.062  18.017  1.00  0.00     0.156 C 
HETATM   38  O3  UNL     1      14.080  22.286  17.102  1.00  0.00    -0.273 OA
HETATM   39  C15 UNL     1      17.412  24.676  18.146  1.00  0.00     0.292 C 
BRANCH  36  40
HETATM   40  C10 UNL     1      15.000  20.328  18.092  1.00  0.00     0.103 C 
BRANCH  40  41
HETATM   41  C11 UNL     1      14.027  19.987  19.199  1.00  0.00     0.020 C 
BRANCH  41  42
HETATM   42  C12 UNL     1      13.271  18.721  18.868  1.00  0.00     0.113 C 
BRANCH  42  43
HETATM   43  C13 UNL     1      11.813  18.962  19.143  1.00  0.00     0.172 C 
HETATM   44  O4  UNL     1      11.323  18.789  20.272  1.00  0.00    -0.648 OA
HETATM   45  O5  UNL     1      11.061  19.383  18.079  1.00  0.00    -0.648 OA
ENDBRANCH  42  43
ENDBRANCH  41  42
ENDBRANCH  40  41
ENDBRANCH  36  40
ENDBRANCH  31  32
ENDBRANCH   2  31
TORSDOF 14
ENDMDL
MODEL 2
REMARK VINA RESULT: -8.431088985      1.064      1.233
REMARK  14 active torsions:
REMARK  status: ('A' for Active; 'I' for Inactive)
REMARK    1  A    between atoms: C2_2  and  O1_3 
REMARK    2  A    between atoms: O1_3  and  C3_4 
REMARK    3  A    between atoms: C3_4  and  C4_6 
REMARK    4  A    between atoms: C5_7  and  C6_8 
REMARK    5  A    between atoms: C6_8  and  N1_9 
REMARK       I    between atoms: N2_12  and  C9_13 
REMARK    6  A    between atoms: C9_13  and  C10_15 
REMARK    7  A    between atoms: C10_15  and  C11_16 
REMARK    8  A    between atoms: C11_16  and  C12_17 
REMARK    9  A    between atoms: C12_17  and  C13_18 
REMARK   10  A    between atoms: C17_29  and  C18_30 
REMARK   11  A    between atoms: C20_32  and  O7_33 
REMARK   12  A    between atoms: C22_35  and  O8_36 
REMARK   13  A    between atoms: C24_38  and  O9_39 
REMARK   14  A    between atoms: C26_41  and  C27_42 
ROOT
HETATM    1  C4  UNL     1      21.914  25.783  18.116  1.00  0.00     0.160 C 
HETATM    2  C5  UNL     1      20.674  25.510  18.995  1.00  0.00     0.035 C 
HETATM    3  N3  UNL     1      20.430  26.200  20.053  1.00  0.00    -0.314 N 
ATOM      4  H3  UNL     1      19.598  25.997  20.606  1.00  0.00     0.170 HD
HETATM    5  C16 UNL     1      21.304  27.241  20.459  1.00  0.00     0.320 C 
HETATM    6  O6  UNL     1      21.184  27.991  21.444  1.00  0.00    -0.247 OA
HETATM    7  N4  UNL     1      22.461  27.433  19.609  1.00  0.00    -0.333 N 
ATOM      8  H4  UNL     1      22.841  28.349  19.374  1.00  0.00     0.165 HD
HETATM    9  C17 UNL     1      23.030  26.168  19.121  1.00  0.00     0.139 C 
ENDROOT
BRANCH   9  10
HETATM   10  C18 UNL     1      24.314  26.187  18.502  1.00  0.00    -0.022 A 
HETATM   11  C19 UNL     1      24.743  27.329  17.797  1.00  0.00     0.049 A 
HETATM   12  C20 UNL     1      25.985  27.472  17.219  1.00  0.00     0.104 A 
HETATM   13  C22 UNL     1      26.887  26.463  17.314  1.00  0.00     0.135 A 
HETATM   14  C24 UNL     1      26.492  25.308  18.009  1.00  0.00     0.112 A 
HETATM   15  C26 UNL     1      25.253  25.134  18.590  1.00  0.00    -0.006 A 
BRANCH  12  16
HETATM   16  O7  UNL     1      26.235  28.672  16.560  1.00  0.00    -0.353 OA
HETATM   17  C21 UNL     1      25.520  29.076  15.417  1.00  0.00     0.210 C 
ENDBRANCH  12  16
BRANCH  13  18
HETATM   18  O8  UNL     1      28.148  26.587  16.740  1.00  0.00    -0.351 OA
HETATM   19  C23 UNL     1      28.384  26.308  15.371  1.00  0.00     0.210 C 
ENDBRANCH  13  18
BRANCH  14  20
HETATM   20  O9  UNL     1      27.518  24.365  18.041  1.00  0.00    -0.352 OA
HETATM   21  C25 UNL     1      28.560  24.690  19.022  1.00  0.00     0.210 C 
ENDBRANCH  14  20
BRANCH  15  22
HETATM   22  C27 UNL     1      24.913  23.858  19.152  1.00  0.00    -0.021 C 
HETATM   23  C28 UNL     1      25.788  22.795  18.405  1.00  0.00     0.019 C 
HETATM   24  C29 UNL     1      25.455  23.610  20.590  1.00  0.00     0.019 C 
HETATM   25  C30 UNL     1      23.568  23.282  19.198  1.00  0.00     0.019 C 
ENDBRANCH  15  22
ENDBRANCH   9  10
BRANCH   1  26
HETATM   26  C3  UNL     1      21.436  26.843  17.239  1.00  0.00     0.271 C 
HETATM   27  O2  UNL     1      20.445  27.589  17.591  1.00  0.00    -0.264 OA
BRANCH  26  28
HETATM   28  O1  UNL     1      21.961  27.147  16.024  1.00  0.00    -0.321 OA
BRANCH  28  29
HETATM   29  C2  UNL     1      21.755  28.411  15.433  1.00  0.00     0.174 C 
HETATM   30  C1  UNL     1      21.449  28.216  13.960  1.00  0.00     0.034 C 
ENDBRANCH  28  29
ENDBRANCH  26  28
ENDBRANCH   1  26
BRANCH   2  31
HETATM   31  C6  UNL     1      19.789  24.427  18.563  1.00  0.00     0.326 C 
BRANCH  31  32
HETATM   32  N1  UNL     1      18.388  24.802  18.551  1.00  0.00     0.096 N 
HETATM   33  C7  UNL     1      17.706  23.915  19.471  1.00  0.00     0.292 C 
HETATM   34  C8  UNL     1      17.373  22.587  18.845  1.00  0.00     0.156 C 
HETATM   35  N2  UNL     1      16.409  22.849  17.801  1.00  0.00    -0.349 N 
HETATM   36  C9  UNL     1      15.428  21.874  17.495  1.00  0.00     0.219 C 
HETATM   37  C14 UNL     1      16.493  24.117  17.114  1.00  0.00     0.156 C 
HETATM   38  O3  UNL     1      14.596  22.130  16.559  1.00  0.00    -0.273 OA
HETATM   39  C15 UNL     1      17.853  24.750  17.213  1.00  0.00     0.292 C 
BRANCH  36  40
HETATM   40  C10 UNL     1      15.330  20.583  18.211  1.00  0.00     0.103 C 
BRANCH  40  41
HETATM   41  C11 UNL     1      14.059  20.489  19.027  1.00  0.00     0.020 C 
BRANCH  41  42
HETATM   42  C12 UNL     1      13.523  19.076  19.010  1.00  0.00     0.113 C 
BRANCH  42  43
HETATM   43  C13 UNL     1      12.029  19.143  19.173  1.00  0.00     0.172 C 
HETATM   44  O4  UNL     1      11.470  18.786  20.225  1.00  0.00    -0.648 OA
HETATM   45  O5  UNL     1      11.327  19.619  18.099  1.00  0.00    -0.648 OA
ENDBRANCH  42  43
ENDBRANCH  41  42
ENDBRANCH  40  41
ENDBRANCH  36  40
ENDBRANCH  31  32
ENDBRANCH   2  31
TORSDOF 14
ENDMDL
MODEL 3
REMARK VINA RESULT: -8.194956807      4.768     14.306
REMARK  14 active torsions:
REMARK  status: ('A' for Active; 'I' for Inactive)
REMARK    1  A    between atoms: C2_2  and  O1_3 
REMARK    2  A    between atoms: O1_3  and  C3_4 
REMARK    3  A    between atoms: C3_4  and  C4_6 
REMARK    4  A    between atoms: C5_7  and  C6_8 
REMARK    5  A    between atoms: C6_8  and  N1_9 
REMARK       I    between atoms: N2_12  and  C9_13 
REMARK    6  A    between atoms: C9_13  and  C10_15 
REMARK    7  A    between atoms: C10_15  and  C11_16 
REMARK    8  A    between atoms: C11_16  and  C12_17 
REMARK    9  A    between atoms: C12_17  and  C13_18 
REMARK   10  A    between atoms: C17_29  and  C18_30 
REMARK   11  A    between atoms: C20_32  and  O7_33 
REMARK   12  A    between atoms: C22_35  and  O8_36 
REMARK   13  A    between atoms: C24_38  and  O9_39 
REMARK   14  A    between atoms: C26_41  and  C27_42 
ROOT
HETATM    1  C4  UNL     1      11.952  19.186  15.808  1.00  0.00     0.160 C 
HETATM    2  C5  UNL     1      12.157  20.689  15.515  1.00  0.00     0.035 C 
HETATM    3  N3  UNL     1      11.174  21.458  15.205  1.00  0.00    -0.314 N 
ATOM      4  H3  UNL     1      11.346  22.447  15.025  1.00  0.00     0.170 HD
HETATM    5  C16 UNL     1       9.854  20.948  15.111  1.00  0.00     0.320 C 
HETATM    6  O6  UNL     1       8.816  21.576  14.838  1.00  0.00    -0.247 OA
HETATM    7  N4  UNL     1       9.728  19.529  15.373  1.00  0.00    -0.333 N 
ATOM      8  H4  UNL     1       8.949  19.118  15.887  1.00  0.00     0.165 HD
HETATM    9  C17 UNL     1      10.841  18.743  14.821  1.00  0.00     0.139 C 
ENDROOT
BRANCH   9  10
HETATM   10  C18 UNL     1      10.719  17.323  14.768  1.00  0.00    -0.022 A 
HETATM   11  C19 UNL     1      10.293  16.606  15.903  1.00  0.00     0.049 A 
HETATM   12  C20 UNL     1      10.083  15.246  15.937  1.00  0.00     0.104 A 
HETATM   13  C22 UNL     1      10.289  14.509  14.816  1.00  0.00     0.135 A 
HETATM   14  C24 UNL     1      10.716  15.192  13.665  1.00  0.00     0.112 A 
HETATM   15  C26 UNL     1      10.942  16.551  13.605  1.00  0.00    -0.006 A 
BRANCH  12  16
HETATM   16  O7  UNL     1       9.662  14.707  17.149  1.00  0.00    -0.353 OA
HETATM   17  C21 UNL     1       8.376  14.928  17.675  1.00  0.00     0.210 C 
ENDBRANCH  12  16
BRANCH  13  18
HETATM   18  O8  UNL     1      10.080  13.134  14.826  1.00  0.00    -0.351 OA
HETATM   19  C23 UNL     1       8.781  12.570  14.851  1.00  0.00     0.210 C 
ENDBRANCH  13  18
BRANCH  14  20
HETATM   20  O9  UNL     1      10.872  14.317  12.591  1.00  0.00    -0.352 OA
HETATM   21  C25 UNL     1       9.637  14.136  11.820  1.00  0.00     0.210 C 
ENDBRANCH  14  20
BRANCH  15  22
HETATM   22  C27 UNL     1      11.512  17.117  12.415  1.00  0.00    -0.021 C 
HETATM   23  C28 UNL     1      10.312  17.610  11.536  1.00  0.00     0.019 C 
HETATM   24  C29 UNL     1      12.211  18.494  12.614  1.00  0.00     0.019 C 
HETATM   25  C30 UNL     1      12.405  16.421  11.487  1.00  0.00     0.019 C 
ENDBRANCH  15  22
ENDBRANCH   9  10
BRANCH   1  26
HETATM   26  C3  UNL     1      11.597  19.199  17.220  1.00  0.00     0.271 C 
HETATM   27  O2  UNL     1      10.856  20.137  17.703  1.00  0.00    -0.264 OA
BRANCH  26  28
HETATM   28  O1  UNL     1      11.986  18.269  18.131  1.00  0.00    -0.321 OA
BRANCH  28  29
HETATM   29  C2  UNL     1      11.632  18.385  19.492  1.00  0.00     0.174 C 
HETATM   30  C1  UNL     1      12.894  18.605  20.305  1.00  0.00     0.034 C 
ENDBRANCH  28  29
ENDBRANCH  26  28
ENDBRANCH   1  26
BRANCH   2  31
HETATM   31  C6  UNL     1      13.529  21.194  15.609  1.00  0.00     0.326 C 
BRANCH  31  32
HETATM   32  N1  UNL     1      13.616  22.505  16.223  1.00  0.00     0.096 N 
HETATM   33  C7  UNL     1      14.331  23.358  15.296  1.00  0.00     0.292 C 
HETATM   34  C8  UNL     1      15.824  23.191  15.401  1.00  0.00     0.156 C 
HETATM   35  N2  UNL     1      16.205  23.668  16.711  1.00  0.00    -0.349 N 
HETATM   36  C9  UNL     1      17.473  24.270  16.894  1.00  0.00     0.219 C 
HETATM   37  C14 UNL     1      15.252  23.507  17.785  1.00  0.00     0.156 C 
HETATM   38  O3  UNL     1      17.787  24.671  18.067  1.00  0.00    -0.273 OA
HETATM   39  C15 UNL     1      14.242  22.425  17.519  1.00  0.00     0.292 C 
BRANCH  36  40
HETATM   40  C10 UNL     1      18.442  24.451  15.791  1.00  0.00     0.103 C 
BRANCH  40  41
HETATM   41  C11 UNL     1      18.700  25.914  15.506  1.00  0.00     0.020 C 
BRANCH  41  42
HETATM   42  C12 UNL     1      20.184  26.174  15.380  1.00  0.00     0.113 C 
BRANCH  42  43
HETATM   43  C13 UNL     1      20.466  27.543  15.936  1.00  0.00     0.172 C 
HETATM   44  O4  UNL     1      20.862  27.706  17.103  1.00  0.00    -0.648 OA
HETATM   45  O5  UNL     1      20.261  28.593  15.082  1.00  0.00    -0.648 OA
ENDBRANCH  42  43
ENDBRANCH  41  42
ENDBRANCH  40  41
ENDBRANCH  36  40
ENDBRANCH  31  32
ENDBRANCH   2  31
TORSDOF 14
ENDMDL
MODEL 4
REMARK VINA RESULT: -8.167795662      4.931     14.398
REMARK  14 active torsions:
REMARK  status: ('A' for Active; 'I' for Inactive)
REMARK    1  A    between atoms: C2_2  and  O1_3 
REMARK    2  A    between atoms: O1_3  and  C3_4 
REMARK    3  A    between atoms: C3_4  and  C4_6 
REMARK    4  A    between atoms: C5_7  and  C6_8 
REMARK    5  A    between atoms: C6_8  and  N1_9 
REMARK       I    between atoms: N2_12  and  C9_13 
REMARK    6  A    between atoms: C9_13  and  C10_15 
REMARK    7  A    between atoms: C10_15  and  C11_16 
REMARK    8  A    between atoms: C11_16  and  C12_17 
REMARK    9  A    between atoms: C12_17  and  C13_18 
REMARK   10  A    between atoms: C17_29  and  C18_30 
REMARK   11  A    between atoms: C20_32  and  O7_33 
REMARK   12  A    between atoms: C22_35  and  O8_36 
REMARK   13  A    between atoms: C24_38  and  O9_39 
REMARK   14  A    between atoms: C26_41  and  C27_42 
ROOT
HETATM    1  C4  UNL     1      11.714  19.087  15.652  1.00  0.00     0.160 C 
HETATM    2  C5  UNL     1      12.036  20.588  15.486  1.00  0.00     0.035 C 
HETATM    3  N3  UNL     1      11.115  21.457  15.256  1.00  0.00    -0.314 N 
ATOM      4  H3  UNL     1      11.364  22.441  15.160  1.00  0.00     0.170 HD
HETATM    5  C16 UNL     1       9.758  21.062  15.135  1.00  0.00     0.320 C 
HETATM    6  O6  UNL     1       8.772  21.791  14.930  1.00  0.00    -0.247 OA
HETATM    7  N4  UNL     1       9.522  19.640  15.275  1.00  0.00    -0.333 N 
ATOM      8  H4  UNL     1       8.716  19.248  15.761  1.00  0.00     0.165 HD
HETATM    9  C17 UNL     1      10.566  18.820  14.644  1.00  0.00     0.139 C 
ENDROOT
BRANCH   9  10
HETATM   10  C18 UNL     1      10.331  17.424  14.470  1.00  0.00    -0.022 A 
HETATM   11  C19 UNL     1       9.613  16.701  15.441  1.00  0.00     0.049 A 
HETATM   12  C20 UNL     1       9.279  15.369  15.338  1.00  0.00     0.104 A 
HETATM   13  C22 UNL     1       9.651  14.669  14.236  1.00  0.00     0.135 A 
HETATM   14  C24 UNL     1      10.372  15.360  13.247  1.00  0.00     0.112 A 
HETATM   15  C26 UNL     1      10.726  16.690  13.328  1.00  0.00    -0.006 A 
BRANCH  12  16
HETATM   16  O7  UNL     1       8.565  14.817  16.398  1.00  0.00    -0.353 OA
HETATM   17  C21 UNL     1       9.169  14.460  17.618  1.00  0.00     0.210 C 
ENDBRANCH  12  16
BRANCH  13  18
HETATM   18  O8  UNL     1       9.322  13.324  14.110  1.00  0.00    -0.351 OA
HETATM   19  C23 UNL     1      10.048  12.305  14.775  1.00  0.00     0.210 C 
ENDBRANCH  13  18
BRANCH  14  20
HETATM   20  O9  UNL     1      10.672  14.526  12.171  1.00  0.00    -0.352 OA
HETATM   21  C25 UNL     1       9.519  14.286  11.297  1.00  0.00     0.210 C 
ENDBRANCH  14  20
BRANCH  15  22
HETATM   22  C27 UNL     1      11.583  17.251  12.322  1.00  0.00    -0.021 C 
HETATM   23  C28 UNL     1      12.680  16.175  12.020  1.00  0.00     0.019 C 
HETATM   24  C29 UNL     1      10.958  17.326  10.897  1.00  0.00     0.019 C 
HETATM   25  C30 UNL     1      12.308  18.518  12.435  1.00  0.00     0.019 C 
ENDBRANCH  15  22
ENDBRANCH   9  10
BRANCH   1  26
HETATM   26  C3  UNL     1      11.369  19.005  17.064  1.00  0.00     0.271 C 
HETATM   27  O2  UNL     1      10.893  20.030  17.684  1.00  0.00    -0.264 OA
BRANCH  26  28
HETATM   28  O1  UNL     1      11.500  17.895  17.836  1.00  0.00    -0.321 OA
BRANCH  28  29
HETATM   29  C2  UNL     1      12.733  17.560  18.433  1.00  0.00     0.174 C 
HETATM   30  C1  UNL     1      12.568  17.588  19.941  1.00  0.00     0.034 C 
ENDBRANCH  28  29
ENDBRANCH  26  28
ENDBRANCH   1  26
BRANCH   2  31
HETATM   31  C6  UNL     1      13.444  20.974  15.607  1.00  0.00     0.326 C 
BRANCH  31  32
HETATM   32  N1  UNL     1      13.654  22.109  16.485  1.00  0.00     0.096 N 
HETATM   33  C7  UNL     1      14.230  23.166  15.679  1.00  0.00     0.292 C 
HETATM   34  C8  UNL     1      15.717  23.005  15.503  1.00  0.00     0.156 C 
HETATM   35  N2  UNL     1      16.310  23.172  16.811  1.00  0.00    -0.349 N 
HETATM   36  C9  UNL     1      17.604  23.737  16.924  1.00  0.00     0.219 C 
HETATM   37  C14 UNL     1      15.538  22.750  17.956  1.00  0.00     0.156 C 
HETATM   38  O3  UNL     1      18.108  23.861  18.092  1.00  0.00    -0.273 OA
HETATM   39  C15 UNL     1      14.476  21.743  17.611  1.00  0.00     0.292 C 
BRANCH  36  40
HETATM   40  C10 UNL     1      18.389  24.185  15.752  1.00  0.00     0.103 C 
BRANCH  40  41
HETATM   41  C11 UNL     1      18.326  25.686  15.577  1.00  0.00     0.020 C 
BRANCH  41  42
HETATM   42  C12 UNL     1      19.597  26.331  16.082  1.00  0.00     0.113 C 
BRANCH  42  43
HETATM   43  C13 UNL     1      20.113  27.248  15.007  1.00  0.00     0.172 C 
HETATM   44  O4  UNL     1      20.345  26.842  13.856  1.00  0.00    -0.648 OA
HETATM   45  O5  UNL     1      20.310  28.552  15.373  1.00  0.00    -0.648 OA
ENDBRANCH  42  43
ENDBRANCH  41  42
ENDBRANCH  40  41
ENDBRANCH  36  40
ENDBRANCH  31  32
ENDBRANCH   2  31
TORSDOF 14
ENDMDL
MODEL 5
REMARK VINA RESULT: -8.113570978      2.157      3.440
REMARK  14 active torsions:
REMARK  status: ('A' for Active; 'I' for Inactive)
REMARK    1  A    between atoms: C2_2  and  O1_3 
REMARK    2  A    between atoms: O1_3  and  C3_4 
REMARK    3  A    between atoms: C3_4  and  C4_6 
REMARK    4  A    between atoms: C5_7  and  C6_8 
REMARK    5  A    between atoms: C6_8  and  N1_9 
REMARK       I    between atoms: N2_12  and  C9_13 
REMARK    6  A    between atoms: C9_13  and  C10_15 
REMARK    7  A    between atoms: C10_15  and  C11_16 
REMARK    8  A    between atoms: C11_16  and  C12_17 
REMARK    9  A    between atoms: C12_17  and  C13_18 
REMARK   10  A    between atoms: C17_29  and  C18_30 
REMARK   11  A    between atoms: C20_32  and  O7_33 
REMARK   12  A    between atoms: C22_35  and  O8_36 
REMARK   13  A    between atoms: C24_38  and  O9_39 
REMARK   14  A    between atoms: C26_41  and  C27_42 
ROOT
HETATM    1  C4  UNL     1      18.589  24.105  17.523  1.00  0.00     0.160 C 
HETATM    2  C5  UNL     1      17.695  22.983  18.093  1.00  0.00     0.035 C 
HETATM    3  N3  UNL     1      17.405  22.918  19.344  1.00  0.00    -0.314 N 
ATOM      4  H3  UNL     1      16.806  22.167  19.684  1.00  0.00     0.170 HD
HETATM    5  C16 UNL     1      17.911  23.879  20.258  1.00  0.00     0.320 C 
HETATM    6  O6  UNL     1      17.702  23.944  21.482  1.00  0.00    -0.247 OA
HETATM    7  N4  UNL     1      18.763  24.891  19.669  1.00  0.00    -0.333 N 
ATOM      8  H4  UNL     1      18.748  25.871  19.948  1.00  0.00     0.165 HD
HETATM    9  C17 UNL     1      19.650  24.357  18.625  1.00  0.00     0.139 C 
ENDROOT
BRANCH   9  10
HETATM   10  C18 UNL     1      20.720  25.173  18.151  1.00  0.00    -0.022 A 
HETATM   11  C19 UNL     1      20.450  26.294  17.342  1.00  0.00     0.049 A 
HETATM   12  C20 UNL     1      21.402  27.178  16.887  1.00  0.00     0.104 A 
HETATM   13  C22 UNL     1      22.704  26.990  17.221  1.00  0.00     0.135 A 
HETATM   14  C24 UNL     1      23.009  25.880  18.026  1.00  0.00     0.112 A 
HETATM   15  C26 UNL     1      22.078  24.975  18.489  1.00  0.00    -0.006 A 
BRANCH  12  16
HETATM   16  O7  UNL     1      20.952  28.231  16.095  1.00  0.00    -0.353 OA
HETATM   17  C21 UNL     1      21.034  28.215  14.690  1.00  0.00     0.210 C 
ENDBRANCH  12  16
BRANCH  13  18
HETATM   18  O8  UNL     1      23.682  27.873  16.775  1.00  0.00    -0.351 OA
HETATM   19  C23 UNL     1      24.458  27.616  15.617  1.00  0.00     0.210 C 
ENDBRANCH  13  18
BRANCH  14  20
HETATM   20  O9  UNL     1      24.375  25.821  18.302  1.00  0.00    -0.352 OA
HETATM   21  C25 UNL     1      24.759  26.641  19.456  1.00  0.00     0.210 C 
ENDBRANCH  14  20
BRANCH  15  22
HETATM   22  C27 UNL     1      22.524  23.802  19.186  1.00  0.00    -0.021 C 
HETATM   23  C28 UNL     1      22.586  24.182  20.705  1.00  0.00     0.019 C 
HETATM   24  C29 UNL     1      21.469  22.662  19.293  1.00  0.00     0.019 C 
HETATM   25  C30 UNL     1      23.770  23.080  18.922  1.00  0.00     0.019 C 
ENDBRANCH  15  22
ENDBRANCH   9  10
BRANCH   1  26
HETATM   26  C3  UNL     1      17.626  25.173  17.293  1.00  0.00     0.271 C 
HETATM   27  O2  UNL     1      16.630  25.343  18.094  1.00  0.00    -0.264 OA
BRANCH  26  28
HETATM   28  O1  UNL     1      17.676  26.061  16.266  1.00  0.00    -0.321 OA
BRANCH  28  29
HETATM   29  C2  UNL     1      17.523  25.643  14.929  1.00  0.00     0.174 C 
HETATM   30  C1  UNL     1      18.125  26.696  14.017  1.00  0.00     0.034 C 
ENDBRANCH  28  29
ENDBRANCH  26  28
ENDBRANCH   1  26
BRANCH   2  31
HETATM   31  C6  UNL     1      17.190  21.997  17.135  1.00  0.00     0.326 C 
BRANCH  31  32
HETATM   32  N1  UNL     1      16.098  22.495  16.321  1.00  0.00     0.096 N 
HETATM   33  C7  UNL     1      14.947  22.625  17.191  1.00  0.00     0.292 C 
HETATM   34  C8  UNL     1      14.227  21.317  17.385  1.00  0.00     0.156 C 
HETATM   35  N2  UNL     1      13.679  20.949  16.099  1.00  0.00    -0.349 N 
HETATM   36  C9  UNL     1      12.465  20.223  16.039  1.00  0.00     0.219 C 
HETATM   37  C14 UNL     1      14.409  21.353  14.919  1.00  0.00     0.156 C 
HETATM   38  O3  UNL     1      12.011  19.902  14.888  1.00  0.00    -0.273 OA
HETATM   39  C15 UNL     1      15.861  21.630  15.192  1.00  0.00     0.292 C 
BRANCH  36  40
HETATM   40  C10 UNL     1      11.707  19.825  17.246  1.00  0.00     0.103 C 
BRANCH  40  41
HETATM   41  C11 UNL     1      11.599  18.321  17.369  1.00  0.00     0.020 C 
BRANCH  41  42
HETATM   42  C12 UNL     1      12.521  17.811  18.453  1.00  0.00     0.113 C 
BRANCH  42  43
HETATM   43  C13 UNL     1      12.239  18.590  19.709  1.00  0.00     0.172 C 
HETATM   44  O4  UNL     1      11.087  18.706  20.162  1.00  0.00    -0.648 OA
HETATM   45  O5  UNL     1      13.323  19.159  20.319  1.00  0.00    -0.648 OA
ENDBRANCH  42  43
ENDBRANCH  41  42
ENDBRANCH  40  41
ENDBRANCH  36  40
ENDBRANCH  31  32
ENDBRANCH   2  31
TORSDOF 14
ENDMDL
