MODEL 1
REMARK VINA RESULT: -8.645141432      0.000      0.000
REMARK  14 active torsions:
REMARK  status: ('A' for Active; 'I' for Inactive)
REMARK    1  A    between atoms: C5_9  and  C6_10 
REMARK    2  A    between atoms: C6_10  and  C7_11 
REMARK    3  A    between atoms: C7_11  and  C8_12 
REMARK    4  A    between atoms: C8_12  and  N3_13 
REMARK    5  A    between atoms: N4_16  and  C11_17 
REMARK    6  A    between atoms: C11_17  and  C12_18 
REMARK    7  A    between atoms: C12_18  and  C13_19 
REMARK    8  A    between atoms: C13_19  and  C14_20 
REMARK    9  A    between atoms: C14_20  and  C15_21 
REMARK   10  A    between atoms: C15_21  and  C16_22 
REMARK       I    between atoms: C16_22  and  N5_24 
REMARK   11  A    between atoms: N5_24  and  C17_26 
REMARK   12  A    between atoms: C21_34  and  O5_35 
REMARK   13  A    between atoms: O5_35  and  C22_36 
REMARK   14  A    between atoms: C22_36  and  C23_38 
ROOT
HETATM    1  C16 UNL     1      16.915  20.750  17.611  1.00  0.00     0.218 C 
HETATM    2  O1  UNL     1      17.531  20.900  16.523  1.00  0.00    -0.274 OA
HETATM    3  N5  UNL     1      17.307  21.411  18.798  1.00  0.00    -0.345 N 
ATOM      4  H5  UNL     1      16.786  21.277  19.664  1.00  0.00     0.163 HD
ENDROOT
BRANCH   1   5
HETATM    5  C15 UNL     1      15.708  19.828  17.648  1.00  0.00     0.103 C 
BRANCH   5   6
HETATM    6  C14 UNL     1      14.780  20.347  18.684  1.00  0.00     0.009 C 
BRANCH   6   7
HETATM    7  C13 UNL     1      13.736  19.508  19.249  1.00  0.00     0.002 C 
BRANCH   7   8
HETATM    8  C12 UNL     1      12.344  19.494  18.773  1.00  0.00     0.030 C 
BRANCH   8   9
HETATM    9  C11 UNL     1      11.750  18.246  18.270  1.00  0.00     0.275 C 
BRANCH   9  10
HETATM   10  N4  UNL     1      10.559  18.542  17.443  1.00  0.00     0.118 N 
HETATM   11  C10 UNL     1      10.563  17.617  16.304  1.00  0.00     0.304 C 
HETATM   12  C9  UNL     1      10.674  18.503  15.102  1.00  0.00     0.304 C 
HETATM   13  N3  UNL     1      11.136  19.752  15.564  1.00  0.00     0.118 N 
HETATM   14  C29 UNL     1      10.675  19.866  16.904  1.00  0.00     0.542 C 
BRANCH  13  15
HETATM   15  C8  UNL     1      10.878  20.893  14.709  1.00  0.00     0.275 C 
BRANCH  15  16
HETATM   16  C7  UNL     1      12.009  21.835  14.636  1.00  0.00     0.035 C 
BRANCH  16  17
HETATM   17  C6  UNL     1      13.202  21.406  15.417  1.00  0.00     0.044 C 
BRANCH  17  18
HETATM   18  C5  UNL     1      14.416  22.218  15.271  1.00  0.00    -0.011 A 
HETATM   19  C2  UNL     1      14.910  23.161  16.114  1.00  0.00     0.030 A 
HETATM   20  C1  UNL     1      14.464  23.630  17.458  1.00  0.00     0.070 C 
HETATM   21  N1  UNL     1      16.027  23.659  15.519  1.00  0.00    -0.305 N 
HETATM   22  N2  UNL     1      16.229  23.063  14.369  1.00  0.00    -0.305 N 
ATOM     23  H1  UNL     1      16.622  24.390  15.911  1.00  0.00     0.186 HD
HETATM   24  C3  UNL     1      15.273  22.172  14.167  1.00  0.00     0.030 A 
ATOM     25  H2  UNL     1      17.000  23.256  13.731  1.00  0.00     0.186 HD
HETATM   26  C4  UNL     1      15.112  21.266  12.995  1.00  0.00     0.070 C 
ENDBRANCH  17  18
ENDBRANCH  16  17
ENDBRANCH  15  16
ENDBRANCH  13  15
ENDBRANCH   9  10
ENDBRANCH   8   9
ENDBRANCH   7   8
ENDBRANCH   6   7
ENDBRANCH   5   6
ENDBRANCH   1   5
BRANCH   3  27
HETATM   27  C17 UNL     1      18.450  22.271  18.759  1.00  0.00     0.210 C 
HETATM   28  C18 UNL     1      19.087  22.407  20.091  1.00  0.00     0.255 C 
HETATM   29  O2  UNL     1      19.353  21.574  20.990  1.00  0.00    -0.270 OA
HETATM   30  N6  UNL     1      19.247  23.822  19.894  1.00  0.00    -0.245 N 
HETATM   31  C19 UNL     1      20.054  24.886  20.372  1.00  0.00     0.375 C 
HETATM   32  C28 UNL     1      18.181  23.758  18.936  1.00  0.00     0.192 C 
HETATM   33  O3  UNL     1      20.443  24.816  21.579  1.00  0.00    -0.237 OA
HETATM   34  O4  UNL     1      20.454  26.003  19.623  1.00  0.00    -0.263 OA
HETATM   35  C20 UNL     1      20.819  25.996  18.267  1.00  0.00     0.090 C 
HETATM   36  C21 UNL     1      21.688  26.898  17.906  1.00  0.00     0.179 C 
HETATM   37  C27 UNL     1      20.303  25.063  17.247  1.00  0.00     0.143 C 
HETATM   38  S1  UNL     1      18.521  24.761  17.464  1.00  0.00    -0.134 SA
BRANCH  36  39
HETATM   39  O5  UNL     1      22.123  26.991  16.605  1.00  0.00    -0.288 OA
BRANCH  39  40
HETATM   40  C22 UNL     1      21.719  27.932  15.697  1.00  0.00     0.271 C 
HETATM   41  O6  UNL     1      21.935  29.138  15.968  1.00  0.00    -0.264 OA
BRANCH  40  42
HETATM   42  C23 UNL     1      21.044  27.545  14.421  1.00  0.00     0.037 C 
HETATM   43  C24 UNL     1      21.470  28.435  13.301  1.00  0.00     0.025 C 
HETATM   44  C25 UNL     1      19.532  27.673  14.543  1.00  0.00     0.025 C 
HETATM   45  C26 UNL     1      21.371  26.107  14.084  1.00  0.00     0.025 C 
ENDBRANCH  40  42
ENDBRANCH  39  40
ENDBRANCH  36  39
ENDBRANCH   3  27
TORSDOF 14
ENDMDL
MODEL 2
REMARK VINA RESULT: -8.614200374      1.962      4.236
REMARK  14 active torsions:
REMARK  status: ('A' for Active; 'I' for Inactive)
REMARK    1  A    between atoms: C5_9  and  C6_10 
REMARK    2  A    between atoms: C6_10  and  C7_11 
REMARK    3  A    between atoms: C7_11  and  C8_12 
REMARK    4  A    between atoms: C8_12  and  N3_13 
REMARK    5  A    between atoms: N4_16  and  C11_17 
REMARK    6  A    between atoms: C11_17  and  C12_18 
REMARK    7  A    between atoms: C12_18  and  C13_19 
REMARK    8  A    between atoms: C13_19  and  C14_20 
REMARK    9  A    between atoms: C14_20  and  C15_21 
REMARK   10  A    between atoms: C15_21  and  C16_22 
REMARK       I    between atoms: C16_22  and  N5_24 
REMARK   11  A    between atoms: N5_24  and  C17_26 
REMARK   12  A    between atoms: C21_34  and  O5_35 
REMARK   13  A    between atoms: O5_35  and  C22_36 
REMARK   14  A    between atoms: C22_36  and  C23_38 
ROOT
HETATM    1  C16 UNL     1      14.940  21.638  14.655  1.00  0.00     0.218 C 
HETATM    2  O1  UNL     1      15.746  21.775  13.698  1.00  0.00    -0.274 OA
HETATM    3  N5  UNL     1      15.248  22.060  15.969  1.00  0.00    -0.345 N 
ATOM      4  H5  UNL     1      14.573  21.943  16.725  1.00  0.00     0.163 HD
ENDROOT
BRANCH   1   5
HETATM    5  C15 UNL     1      13.588  20.997  14.389  1.00  0.00     0.103 C 
BRANCH   5   6
HETATM    6  C14 UNL     1      13.752  20.066  13.244  1.00  0.00     0.009 C 
BRANCH   6   7
HETATM    7  C13 UNL     1      12.601  19.540  12.530  1.00  0.00     0.002 C 
BRANCH   7   8
HETATM    8  C12 UNL     1      12.179  18.131  12.572  1.00  0.00     0.030 C 
BRANCH   8   9
HETATM    9  C11 UNL     1      10.795  17.787  12.933  1.00  0.00     0.275 C 
BRANCH   9  10
HETATM   10  N4  UNL     1      10.739  16.422  13.503  1.00  0.00     0.118 N 
HETATM   11  C10 UNL     1       9.376  15.913  13.314  1.00  0.00     0.304 C 
HETATM   12  C9  UNL     1       8.863  15.689  14.703  1.00  0.00     0.304 C 
HETATM   13  N3  UNL     1       9.702  16.427  15.564  1.00  0.00     0.118 N 
HETATM   14  C29 UNL     1      10.965  16.491  14.918  1.00  0.00     0.542 C 
BRANCH  13  15
HETATM   15  C8  UNL     1       9.723  16.014  16.953  1.00  0.00     0.275 C 
BRANCH  15  16
HETATM   16  C7  UNL     1      10.924  16.468  17.677  1.00  0.00     0.035 C 
BRANCH  16  17
HETATM   17  C6  UNL     1      10.687  17.644  18.560  1.00  0.00     0.044 C 
BRANCH  17  18
HETATM   18  C5  UNL     1      11.533  18.822  18.334  1.00  0.00    -0.011 A 
HETATM   19  C2  UNL     1      11.438  19.758  17.354  1.00  0.00     0.030 A 
HETATM   20  C1  UNL     1      10.443  19.958  16.260  1.00  0.00     0.070 C 
HETATM   21  N1  UNL     1      12.472  20.620  17.545  1.00  0.00    -0.305 N 
HETATM   22  N2  UNL     1      13.178  20.251  18.587  1.00  0.00    -0.305 N 
ATOM     23  H1  UNL     1      12.670  21.434  16.962  1.00  0.00     0.186 HD
HETATM   24  C3  UNL     1      12.649  19.158  19.108  1.00  0.00     0.030 A 
ATOM     25  H2  UNL     1      14.005  20.732  18.939  1.00  0.00     0.186 HD
HETATM   26  C4  UNL     1      13.123  18.401  20.300  1.00  0.00     0.070 C 
ENDBRANCH  17  18
ENDBRANCH  16  17
ENDBRANCH  15  16
ENDBRANCH  13  15
ENDBRANCH   9  10
ENDBRANCH   8   9
ENDBRANCH   7   8
ENDBRANCH   6   7
ENDBRANCH   5   6
ENDBRANCH   1   5
BRANCH   3  27
HETATM   27  C17 UNL     1      16.526  22.655  16.217  1.00  0.00     0.210 C 
HETATM   28  C18 UNL     1      17.474  21.696  16.832  1.00  0.00     0.255 C 
HETATM   29  O2  UNL     1      17.730  20.490  16.596  1.00  0.00    -0.270 OA
HETATM   30  N6  UNL     1      17.930  22.702  17.751  1.00  0.00    -0.245 N 
HETATM   31  C19 UNL     1      19.066  22.987  18.551  1.00  0.00     0.375 C 
HETATM   32  C28 UNL     1      16.685  23.384  17.542  1.00  0.00     0.192 C 
HETATM   33  O3  UNL     1      19.700  21.994  19.025  1.00  0.00    -0.237 OA
HETATM   34  O4  UNL     1      19.541  24.271  18.859  1.00  0.00    -0.263 OA
HETATM   35  C20 UNL     1      19.560  25.372  17.989  1.00  0.00     0.090 C 
HETATM   36  C21 UNL     1      20.515  26.238  18.185  1.00  0.00     0.179 C 
HETATM   37  C27 UNL     1      18.601  25.613  16.893  1.00  0.00     0.143 C 
HETATM   38  S1  UNL     1      16.904  25.177  17.388  1.00  0.00    -0.134 SA
BRANCH  36  39
HETATM   39  O5  UNL     1      20.637  27.356  17.396  1.00  0.00    -0.288 OA
BRANCH  39  40
HETATM   40  C22 UNL     1      21.676  27.619  16.543  1.00  0.00     0.271 C 
HETATM   41  O6  UNL     1      22.810  27.816  17.044  1.00  0.00    -0.264 OA
BRANCH  40  42
HETATM   42  C23 UNL     1      21.475  27.669  15.063  1.00  0.00     0.037 C 
HETATM   43  C24 UNL     1      21.593  26.307  14.463  1.00  0.00     0.025 C 
HETATM   44  C25 UNL     1      22.531  28.542  14.399  1.00  0.00     0.025 C 
HETATM   45  C26 UNL     1      20.114  28.251  14.750  1.00  0.00     0.025 C 
ENDBRANCH  40  42
ENDBRANCH  39  40
ENDBRANCH  36  39
ENDBRANCH   3  27
TORSDOF 14
ENDMDL
MODEL 3
REMARK VINA RESULT: -8.558851003      1.964      4.131
REMARK  14 active torsions:
REMARK  status: ('A' for Active; 'I' for Inactive)
REMARK    1  A    between atoms: C5_9  and  C6_10 
REMARK    2  A    between atoms: C6_10  and  C7_11 
REMARK    3  A    between atoms: C7_11  and  C8_12 
REMARK    4  A    between atoms: C8_12  and  N3_13 
REMARK    5  A    between atoms: N4_16  and  C11_17 
REMARK    6  A    between atoms: C11_17  and  C12_18 
REMARK    7  A    between atoms: C12_18  and  C13_19 
REMARK    8  A    between atoms: C13_19  and  C14_20 
REMARK    9  A    between atoms: C14_20  and  C15_21 
REMARK   10  A    between atoms: C15_21  and  C16_22 
REMARK       I    between atoms: C16_22  and  N5_24 
REMARK   11  A    between atoms: N5_24  and  C17_26 
REMARK   12  A    between atoms: C21_34  and  O5_35 
REMARK   13  A    between atoms: O5_35  and  C22_36 
REMARK   14  A    between atoms: C22_36  and  C23_38 
ROOT
HETATM    1  C16 UNL     1      14.910  21.496  14.768  1.00  0.00     0.218 C 
HETATM    2  O1  UNL     1      15.709  21.611  13.802  1.00  0.00    -0.274 OA
HETATM    3  N5  UNL     1      15.222  21.962  16.066  1.00  0.00    -0.345 N 
ATOM      4  H5  UNL     1      14.553  21.862  16.830  1.00  0.00     0.163 HD
ENDROOT
BRANCH   1   5
HETATM    5  C15 UNL     1      13.563  20.834  14.530  1.00  0.00     0.103 C 
BRANCH   5   6
HETATM    6  C14 UNL     1      13.532  20.377  13.118  1.00  0.00     0.009 C 
BRANCH   6   7
HETATM    7  C13 UNL     1      13.241  18.994  12.781  1.00  0.00     0.002 C 
BRANCH   7   8
HETATM    8  C12 UNL     1      11.999  18.550  12.128  1.00  0.00     0.030 C 
BRANCH   8   9
HETATM    9  C11 UNL     1      11.104  19.535  11.501  1.00  0.00     0.275 C 
BRANCH   9  10
HETATM   10  N4  UNL     1       9.790  19.539  12.181  1.00  0.00     0.118 N 
HETATM   11  C10 UNL     1       9.258  20.905  12.123  1.00  0.00     0.304 C 
HETATM   12  C9  UNL     1       9.145  21.325  13.555  1.00  0.00     0.304 C 
HETATM   13  N3  UNL     1       9.955  20.441  14.298  1.00  0.00     0.118 N 
HETATM   14  C29 UNL     1       9.974  19.223  13.568  1.00  0.00     0.542 C 
BRANCH  13  15
HETATM   15  C8  UNL     1       9.656  20.326  15.711  1.00  0.00     0.275 C 
BRANCH  15  16
HETATM   16  C7  UNL     1      10.147  19.071  16.310  1.00  0.00     0.035 C 
BRANCH  16  17
HETATM   17  C6  UNL     1      10.693  19.234  17.686  1.00  0.00     0.044 C 
BRANCH  17  18
HETATM   18  C5  UNL     1      11.988  18.599  17.964  1.00  0.00    -0.011 A 
HETATM   19  C2  UNL     1      13.174  19.191  18.257  1.00  0.00     0.030 A 
HETATM   20  C1  UNL     1      13.551  20.619  18.470  1.00  0.00     0.070 C 
HETATM   21  N1  UNL     1      14.082  18.187  18.387  1.00  0.00    -0.305 N 
HETATM   22  N2  UNL     1      13.501  17.028  18.190  1.00  0.00    -0.305 N 
ATOM     23  H1  UNL     1      15.070  18.316  18.605  1.00  0.00     0.186 HD
HETATM   24  C3  UNL     1      12.220  17.221  17.927  1.00  0.00     0.030 A 
ATOM     25  H2  UNL     1      13.964  16.120  18.232  1.00  0.00     0.186 HD
HETATM   26  C4  UNL     1      11.186  16.186  17.646  1.00  0.00     0.070 C 
ENDBRANCH  17  18
ENDBRANCH  16  17
ENDBRANCH  15  16
ENDBRANCH  13  15
ENDBRANCH   9  10
ENDBRANCH   8   9
ENDBRANCH   7   8
ENDBRANCH   6   7
ENDBRANCH   5   6
ENDBRANCH   1   5
BRANCH   3  27
HETATM   27  C17 UNL     1      16.495  22.577  16.286  1.00  0.00     0.210 C 
HETATM   28  C18 UNL     1      17.463  21.642  16.909  1.00  0.00     0.255 C 
HETATM   29  O2  UNL     1      17.731  20.435  16.693  1.00  0.00    -0.270 OA
HETATM   30  N6  UNL     1      17.917  22.671  17.803  1.00  0.00    -0.245 N 
HETATM   31  C19 UNL     1      19.059  22.986  18.583  1.00  0.00     0.375 C 
HETATM   32  C28 UNL     1      16.662  23.334  17.595  1.00  0.00     0.192 C 
HETATM   33  O3  UNL     1      19.711  22.010  19.069  1.00  0.00    -0.237 OA
HETATM   34  O4  UNL     1      19.522  24.281  18.861  1.00  0.00    -0.263 OA
HETATM   35  C20 UNL     1      19.517  25.365  17.969  1.00  0.00     0.090 C 
HETATM   36  C21 UNL     1      20.463  26.246  18.136  1.00  0.00     0.179 C 
HETATM   37  C27 UNL     1      18.543  25.572  16.880  1.00  0.00     0.143 C 
HETATM   38  S1  UNL     1      16.857  25.126  17.404  1.00  0.00    -0.134 SA
BRANCH  36  39
HETATM   39  O5  UNL     1      20.563  27.350  17.324  1.00  0.00    -0.288 OA
BRANCH  39  40
HETATM   40  C22 UNL     1      21.608  27.628  16.484  1.00  0.00     0.271 C 
HETATM   41  O6  UNL     1      22.728  27.859  17.000  1.00  0.00    -0.264 OA
BRANCH  40  42
HETATM   42  C23 UNL     1      21.429  27.657  15.001  1.00  0.00     0.037 C 
HETATM   43  C24 UNL     1      22.425  28.566  14.361  1.00  0.00     0.025 C 
HETATM   44  C25 UNL     1      20.046  28.176  14.628  1.00  0.00     0.025 C 
HETATM   45  C26 UNL     1      21.577  26.260  14.440  1.00  0.00     0.025 C 
ENDBRANCH  40  42
ENDBRANCH  39  40
ENDBRANCH  36  39
ENDBRANCH   3  27
TORSDOF 14
ENDMDL
MODEL 4
REMARK VINA RESULT: -8.555957366      1.968      4.092
REMARK  14 active torsions:
REMARK  status: ('A' for Active; 'I' for Inactive)
REMARK    1  A    between atoms: C5_9  and  C6_10 
REMARK    2  A    between atoms: C6_10  and  C7_11 
REMARK    3  A    between atoms: C7_11  and  C8_12 
REMARK    4  A    between atoms: C8_12  and  N3_13 
REMARK    5  A    between atoms: N4_16  and  C11_17 
REMARK    6  A    between atoms: C11_17  and  C12_18 
REMARK    7  A    between atoms: C12_18  and  C13_19 
REMARK    8  A    between atoms: C13_19  and  C14_20 
REMARK    9  A    between atoms: C14_20  and  C15_21 
REMARK   10  A    between atoms: C15_21  and  C16_22 
REMARK       I    between atoms: C16_22  and  N5_24 
REMARK   11  A    between atoms: N5_24  and  C17_26 
REMARK   12  A    between atoms: C21_34  and  O5_35 
REMARK   13  A    between atoms: O5_35  and  C22_36 
REMARK   14  A    between atoms: C22_36  and  C23_38 
ROOT
HETATM    1  C16 UNL     1      14.972  21.615  14.682  1.00  0.00     0.218 C 
HETATM    2  O1  UNL     1      15.773  21.755  13.722  1.00  0.00    -0.274 OA
HETATM    3  N5  UNL     1      15.283  22.041  15.994  1.00  0.00    -0.345 N 
ATOM      4  H5  UNL     1      14.612  21.921  16.753  1.00  0.00     0.163 HD
ENDROOT
BRANCH   1   5
HETATM    5  C15 UNL     1      13.623  20.965  14.423  1.00  0.00     0.103 C 
BRANCH   5   6
HETATM    6  C14 UNL     1      13.769  20.092  13.231  1.00  0.00     0.009 C 
BRANCH   6   7
HETATM    7  C13 UNL     1      12.623  19.413  12.650  1.00  0.00     0.002 C 
BRANCH   7   8
HETATM    8  C12 UNL     1      11.702  18.554  13.411  1.00  0.00     0.030 C 
BRANCH   8   9
HETATM    9  C11 UNL     1      10.715  17.723  12.703  1.00  0.00     0.275 C 
BRANCH   9  10
HETATM   10  N4  UNL     1      10.679  16.363  13.286  1.00  0.00     0.118 N 
HETATM   11  C10 UNL     1       9.338  15.814  13.060  1.00  0.00     0.304 C 
HETATM   12  C9  UNL     1       8.789  15.590  14.435  1.00  0.00     0.304 C 
HETATM   13  N3  UNL     1       9.579  16.359  15.314  1.00  0.00     0.118 N 
HETATM   14  C29 UNL     1      10.860  16.452  14.706  1.00  0.00     0.542 C 
BRANCH  13  15
HETATM   15  C8  UNL     1       9.569  15.960  16.707  1.00  0.00     0.275 C 
BRANCH  15  16
HETATM   16  C7  UNL     1      10.751  16.425  17.455  1.00  0.00     0.035 C 
BRANCH  16  17
HETATM   17  C6  UNL     1      10.496  17.624  18.300  1.00  0.00     0.044 C 
BRANCH  17  18
HETATM   18  C5  UNL     1      11.463  18.724  18.199  1.00  0.00    -0.011 A 
HETATM   19  C2  UNL     1      12.596  18.924  18.920  1.00  0.00     0.030 A 
HETATM   20  C1  UNL     1      13.272  18.100  19.965  1.00  0.00     0.070 C 
HETATM   21  N1  UNL     1      13.124  20.100  18.487  1.00  0.00    -0.305 N 
HETATM   22  N2  UNL     1      12.369  20.612  17.545  1.00  0.00    -0.305 N 
ATOM     23  H1  UNL     1      13.981  20.523  18.844  1.00  0.00     0.186 HD
HETATM   24  C3  UNL     1      11.340  19.811  17.328  1.00  0.00     0.030 A 
ATOM     25  H2  UNL     1      12.548  21.489  17.057  1.00  0.00     0.186 HD
HETATM   26  C4  UNL     1      10.237  19.999  16.344  1.00  0.00     0.070 C 
ENDBRANCH  17  18
ENDBRANCH  16  17
ENDBRANCH  15  16
ENDBRANCH  13  15
ENDBRANCH   9  10
ENDBRANCH   8   9
ENDBRANCH   7   8
ENDBRANCH   6   7
ENDBRANCH   5   6
ENDBRANCH   1   5
BRANCH   3  27
HETATM   27  C17 UNL     1      16.558  22.645  16.235  1.00  0.00     0.210 C 
HETATM   28  C18 UNL     1      17.513  21.695  16.854  1.00  0.00     0.255 C 
HETATM   29  O2  UNL     1      17.775  20.489  16.625  1.00  0.00    -0.270 OA
HETATM   30  N6  UNL     1      17.965  22.709  17.766  1.00  0.00    -0.245 N 
HETATM   31  C19 UNL     1      19.101  23.006  18.562  1.00  0.00     0.375 C 
HETATM   32  C28 UNL     1      16.716  23.383  17.555  1.00  0.00     0.192 C 
HETATM   33  O3  UNL     1      19.742  22.019  19.040  1.00  0.00    -0.237 OA
HETATM   34  O4  UNL     1      19.570  24.294  18.861  1.00  0.00    -0.263 OA
HETATM   35  C20 UNL     1      19.581  25.390  17.984  1.00  0.00     0.090 C 
HETATM   36  C21 UNL     1      20.531  26.262  18.172  1.00  0.00     0.179 C 
HETATM   37  C27 UNL     1      18.619  25.618  16.888  1.00  0.00     0.143 C 
HETATM   38  S1  UNL     1      16.925  25.176  17.390  1.00  0.00    -0.134 SA
BRANCH  36  39
HETATM   39  O5  UNL     1      20.646  27.376  17.376  1.00  0.00    -0.288 OA
BRANCH  39  40
HETATM   40  C22 UNL     1      21.683  27.641  16.522  1.00  0.00     0.271 C 
HETATM   41  O6  UNL     1      22.816  27.843  17.022  1.00  0.00    -0.264 OA
BRANCH  40  42
HETATM   42  C23 UNL     1      21.481  27.688  15.042  1.00  0.00     0.037 C 
HETATM   43  C24 UNL     1      22.494  28.573  14.394  1.00  0.00     0.025 C 
HETATM   44  C25 UNL     1      20.110  28.252  14.696  1.00  0.00     0.025 C 
HETATM   45  C26 UNL     1      21.578  26.292  14.467  1.00  0.00     0.025 C 
ENDBRANCH  40  42
ENDBRANCH  39  40
ENDBRANCH  36  39
ENDBRANCH   3  27
TORSDOF 14
ENDMDL
MODEL 5
REMARK VINA RESULT: -8.526306970      3.112     10.496
REMARK  14 active torsions:
REMARK  status: ('A' for Active; 'I' for Inactive)
REMARK    1  A    between atoms: C5_9  and  C6_10 
REMARK    2  A    between atoms: C6_10  and  C7_11 
REMARK    3  A    between atoms: C7_11  and  C8_12 
REMARK    4  A    between atoms: C8_12  and  N3_13 
REMARK    5  A    between atoms: N4_16  and  C11_17 
REMARK    6  A    between atoms: C11_17  and  C12_18 
REMARK    7  A    between atoms: C12_18  and  C13_19 
REMARK    8  A    between atoms: C13_19  and  C14_20 
REMARK    9  A    between atoms: C14_20  and  C15_21 
REMARK   10  A    between atoms: C15_21  and  C16_22 
REMARK       I    between atoms: C16_22  and  N5_24 
REMARK   11  A    between atoms: N5_24  and  C17_26 
REMARK   12  A    between atoms: C21_34  and  O5_35 
REMARK   13  A    between atoms: O5_35  and  C22_36 
REMARK   14  A    between atoms: C22_36  and  C23_38 
ROOT
HETATM    1  C16 UNL     1      18.580  25.862  15.181  1.00  0.00     0.218 C 
HETATM    2  O1  UNL     1      17.785  26.420  14.381  1.00  0.00    -0.274 OA
HETATM    3  N5  UNL     1      18.179  24.809  16.035  1.00  0.00    -0.345 N 
ATOM      4  H5  UNL     1      18.846  24.370  16.669  1.00  0.00     0.163 HD
ENDROOT
BRANCH   1   5
HETATM    5  C15 UNL     1      20.023  26.336  15.229  1.00  0.00     0.103 C 
BRANCH   5   6
HETATM    6  C14 UNL     1      20.116  27.572  14.411  1.00  0.00     0.009 C 
BRANCH   6   7
HETATM    7  C13 UNL     1      21.403  28.125  14.026  1.00  0.00     0.002 C 
BRANCH   7   8
HETATM    8  C12 UNL     1      22.415  28.599  14.983  1.00  0.00     0.030 C 
BRANCH   8   9
HETATM    9  C11 UNL     1      23.411  27.662  15.527  1.00  0.00     0.275 C 
BRANCH   9  10
HETATM   10  N4  UNL     1      23.413  27.719  17.006  1.00  0.00     0.118 N 
HETATM   11  C10 UNL     1      24.798  27.548  17.459  1.00  0.00     0.304 C 
HETATM   12  C9  UNL     1      24.775  26.289  18.269  1.00  0.00     0.304 C 
HETATM   13  N3  UNL     1      23.591  25.607  17.917  1.00  0.00     0.118 N 
HETATM   14  C29 UNL     1      22.666  26.610  17.524  1.00  0.00     0.542 C 
BRANCH  13  15
HETATM   15  C8  UNL     1      23.100  24.633  18.871  1.00  0.00     0.275 C 
BRANCH  15  16
HETATM   16  C7  UNL     1      21.804  24.044  18.487  1.00  0.00     0.035 C 
BRANCH  16  17
HETATM   17  C6  UNL     1      21.190  23.198  19.547  1.00  0.00     0.044 C 
BRANCH  17  18
HETATM   18  C5  UNL     1      19.828  23.548  19.968  1.00  0.00    -0.011 A 
HETATM   19  C2  UNL     1      18.669  22.885  19.721  1.00  0.00     0.030 A 
HETATM   20  C1  UNL     1      18.387  21.588  19.039  1.00  0.00     0.070 C 
HETATM   21  N1  UNL     1      17.676  23.627  20.281  1.00  0.00    -0.305 N 
HETATM   22  N2  UNL     1      18.179  24.696  20.850  1.00  0.00    -0.305 N 
ATOM     23  H1  UNL     1      16.684  23.387  20.260  1.00  0.00     0.186 HD
HETATM   24  C3  UNL     1      19.491  24.698  20.689  1.00  0.00     0.030 A 
ATOM     25  H2  UNL     1      17.643  25.412  21.339  1.00  0.00     0.186 HD
HETATM   26  C4  UNL     1      20.462  25.717  21.177  1.00  0.00     0.070 C 
ENDBRANCH  17  18
ENDBRANCH  16  17
ENDBRANCH  15  16
ENDBRANCH  13  15
ENDBRANCH   9  10
ENDBRANCH   8   9
ENDBRANCH   7   8
ENDBRANCH   6   7
ENDBRANCH   5   6
ENDBRANCH   1   5
BRANCH   3  27
HETATM   27  C17 UNL     1      16.817  24.372  15.992  1.00  0.00     0.210 C 
HETATM   28  C18 UNL     1      16.200  24.347  17.340  1.00  0.00     0.255 C 
HETATM   29  O2  UNL     1      16.241  25.149  18.304  1.00  0.00    -0.270 OA
HETATM   30  N6  UNL     1      15.581  23.081  17.057  1.00  0.00    -0.245 N 
HETATM   31  C19 UNL     1      14.481  22.303  17.499  1.00  0.00     0.375 C 
HETATM   32  C28 UNL     1      16.588  22.870  16.057  1.00  0.00     0.192 C 
HETATM   33  O3  UNL     1      14.163  22.402  18.726  1.00  0.00    -0.237 OA
HETATM   34  O4  UNL     1      13.721  21.439  16.697  1.00  0.00    -0.263 OA
HETATM   35  C20 UNL     1      13.349  21.670  15.363  1.00  0.00     0.090 C 
HETATM   36  C21 UNL     1      12.224  21.130  14.983  1.00  0.00     0.179 C 
HETATM   37  C27 UNL     1      14.119  22.462  14.385  1.00  0.00     0.143 C 
HETATM   38  S1  UNL     1      15.906  22.150  14.539  1.00  0.00    -0.134 SA
BRANCH  36  39
HETATM   39  O5  UNL     1      11.755  21.286  13.701  1.00  0.00    -0.288 OA
BRANCH  39  40
HETATM   40  C22 UNL     1      10.477  21.023  13.285  1.00  0.00     0.271 C 
HETATM   41  O6  UNL     1       9.555  21.752  13.726  1.00  0.00    -0.264 OA
BRANCH  40  42
HETATM   42  C23 UNL     1      10.181  19.907  12.336  1.00  0.00     0.037 C 
HETATM   43  C24 UNL     1       9.099  20.292  11.381  1.00  0.00     0.025 C 
HETATM   44  C25 UNL     1       9.698  18.670  13.081  1.00  0.00     0.025 C 
HETATM   45  C26 UNL     1      11.432  19.539  11.570  1.00  0.00     0.025 C 
ENDBRANCH  40  42
ENDBRANCH  39  40
ENDBRANCH  36  39
ENDBRANCH   3  27
TORSDOF 14
ENDMDL
