MODEL 1
REMARK VINA RESULT: -10.733252849      0.000      0.000
REMARK  7 active torsions:
REMARK  status: ('A' for Active; 'I' for Inactive)
REMARK    1  A    between atoms: C2_2  and  O1_3 
REMARK    2  A    between atoms: O1_3  and  C3_4 
REMARK    3  A    between atoms: C7_8  and  C8_9 
REMARK    4  A    between atoms: C9_10  and  C10_11 
REMARK    5  A    between atoms: C14_17  and  O2_18 
REMARK    6  A    between atoms: O2_18  and  C15_19 
REMARK    7  A    between atoms: C23_28  and  O3_29 
ROOT
HETATM    1  C10 UNL     1      14.016  25.243   6.570  1.00  0.00     0.046 A 
HETATM    2  C11 UNL     1      15.007  25.922   5.894  1.00  0.00     0.110 A 
HETATM    3  N1  UNL     1      15.199  25.414   4.686  1.00  0.00    -0.364 N 
ATOM      4  H1  UNL     1      15.874  25.740   3.994  1.00  0.00     0.165 HD
HETATM    5  C12 UNL     1      14.326  24.377   4.537  1.00  0.00     0.046 A 
HETATM    6  C13 UNL     1      14.075  23.501   3.519  1.00  0.00     0.070 A 
HETATM    7  C14 UNL     1      13.098  22.499   3.624  1.00  0.00     0.111 A 
HETATM    8  C23 UNL     1      12.400  22.429   4.792  1.00  0.00     0.103 A 
HETATM    9  C25 UNL     1      12.622  23.307   5.864  1.00  0.00     0.055 A 
HETATM   10  C26 UNL     1      13.587  24.263   5.703  1.00  0.00     0.013 A 
ENDROOT
BRANCH   1  11
HETATM   11  C9  UNL     1      13.484  25.443   7.886  1.00  0.00    -0.059 C 
HETATM   12  C8  UNL     1      13.033  25.633   8.993  1.00  0.00    -0.061 C 
BRANCH  12  13
HETATM   13  C7  UNL     1      12.514  25.843  10.322  1.00  0.00     0.020 A 
HETATM   14  C6  UNL     1      11.750  24.892  10.967  1.00  0.00     0.021 A 
HETATM   15  C5  UNL     1      11.249  25.073  12.232  1.00  0.00     0.004 A 
HETATM   16  C4  UNL     1      11.498  26.244  12.920  1.00  0.00     0.037 A 
HETATM   17  C3  UNL     1      12.253  27.226  12.322  1.00  0.00     0.070 A 
HETATM   18  C27 UNL     1      12.751  26.999  11.021  1.00  0.00     0.057 A 
BRANCH  17  19
HETATM   19  O1  UNL     1      12.543  28.424  12.944  1.00  0.00    -0.351 OA
BRANCH  19  20
HETATM   20  C2  UNL     1      13.694  28.659  13.683  1.00  0.00     0.171 C 
HETATM   21  C1  UNL     1      13.875  30.107  14.013  1.00  0.00     0.034 C 
ENDBRANCH  19  20
ENDBRANCH  17  19
ENDBRANCH  12  13
ENDBRANCH   1  11
BRANCH   8  22
HETATM   22  O3  UNL     1      11.424  21.438   4.921  1.00  0.00    -0.353 OA
HETATM   23  C24 UNL     1      10.695  21.313   6.109  1.00  0.00     0.210 C 
ENDBRANCH   8  22
BRANCH   7  24
HETATM   24  O2  UNL     1      12.977  21.708   2.515  1.00  0.00    -0.306 OA
BRANCH  24  25
HETATM   25  C15 UNL     1      12.039  20.811   2.144  1.00  0.00     0.103 A 
HETATM   26  C16 UNL     1      12.334  19.454   1.956  1.00  0.00    -0.026 A 
HETATM   27  C17 UNL     1      13.725  18.979   2.169  1.00  0.00     0.051 C 
HETATM   28  C18 UNL     1      11.351  18.580   1.576  1.00  0.00     0.016 A 
HETATM   29  C19 UNL     1      10.049  18.960   1.363  1.00  0.00    -0.060 A 
HETATM   30  C20 UNL     1       9.013  17.958   0.949  1.00  0.00     0.048 C 
HETATM   31  C21 UNL     1       9.741  20.287   1.542  1.00  0.00     0.033 A 
HETATM   32  C22 UNL     1      10.739  21.190   1.930  1.00  0.00     0.069 A 
HETATM   33 CL1  UNL     1      10.197  22.869   2.046  1.00  0.00    -0.081 Cl
ENDBRANCH  24  25
ENDBRANCH   7  24
TORSDOF 7
ENDMDL
MODEL 2
REMARK VINA RESULT: -10.425378418      1.006      1.558
REMARK  7 active torsions:
REMARK  status: ('A' for Active; 'I' for Inactive)
REMARK    1  A    between atoms: C2_2  and  O1_3 
REMARK    2  A    between atoms: O1_3  and  C3_4 
REMARK    3  A    between atoms: C7_8  and  C8_9 
REMARK    4  A    between atoms: C9_10  and  C10_11 
REMARK    5  A    between atoms: C14_17  and  O2_18 
REMARK    6  A    between atoms: O2_18  and  C15_19 
REMARK    7  A    between atoms: C23_28  and  O3_29 
ROOT
HETATM    1  C10 UNL     1      13.960  25.300   6.521  1.00  0.00     0.046 A 
HETATM    2  C11 UNL     1      14.919  26.008   5.828  1.00  0.00     0.110 A 
HETATM    3  N1  UNL     1      15.095  25.516   4.611  1.00  0.00    -0.364 N 
ATOM      4  H1  UNL     1      15.746  25.863   3.907  1.00  0.00     0.165 HD
HETATM    5  C12 UNL     1      14.243  24.459   4.473  1.00  0.00     0.046 A 
HETATM    6  C13 UNL     1      13.989  23.586   3.453  1.00  0.00     0.070 A 
HETATM    7  C14 UNL     1      13.038  22.561   3.571  1.00  0.00     0.111 A 
HETATM    8  C23 UNL     1      12.369  22.464   4.753  1.00  0.00     0.103 A 
HETATM    9  C25 UNL     1      12.596  23.338   5.828  1.00  0.00     0.055 A 
HETATM   10  C26 UNL     1      13.534  24.318   5.654  1.00  0.00     0.013 A 
ENDROOT
BRANCH   1  11
HETATM   11  C9  UNL     1      13.454  25.476   7.849  1.00  0.00    -0.059 C 
HETATM   12  C8  UNL     1      13.010  25.612   8.968  1.00  0.00    -0.061 C 
BRANCH  12  13
HETATM   13  C7  UNL     1      12.486  25.799  10.298  1.00  0.00     0.020 A 
HETATM   14  C6  UNL     1      11.737  24.828  10.931  1.00  0.00     0.021 A 
HETATM   15  C5  UNL     1      11.231  24.987  12.198  1.00  0.00     0.004 A 
HETATM   16  C4  UNL     1      11.460  26.154  12.899  1.00  0.00     0.037 A 
HETATM   17  C3  UNL     1      12.200  27.155  12.313  1.00  0.00     0.070 A 
HETATM   18  C27 UNL     1      12.703  26.950  11.010  1.00  0.00     0.057 A 
BRANCH  17  19
HETATM   19  O1  UNL     1      12.470  28.351  12.949  1.00  0.00    -0.351 OA
BRANCH  19  20
HETATM   20  C2  UNL     1      13.667  28.639  13.589  1.00  0.00     0.171 C 
HETATM   21  C1  UNL     1      13.889  30.110  13.749  1.00  0.00     0.034 C 
ENDBRANCH  19  20
ENDBRANCH  17  19
ENDBRANCH  12  13
ENDBRANCH   1  11
BRANCH   8  22
HETATM   22  O3  UNL     1      11.420  21.450   4.895  1.00  0.00    -0.353 OA
HETATM   23  C24 UNL     1      10.684  21.329   6.080  1.00  0.00     0.210 C 
ENDBRANCH   8  22
BRANCH   7  24
HETATM   24  O2  UNL     1      12.910  21.777   2.457  1.00  0.00    -0.306 OA
BRANCH  24  25
HETATM   25  C15 UNL     1      11.986  20.862   2.100  1.00  0.00     0.103 A 
HETATM   26  C16 UNL     1      10.646  21.201   1.868  1.00  0.00    -0.026 A 
HETATM   27  C17 UNL     1      10.221  22.616   2.019  1.00  0.00     0.051 C 
HETATM   28  C18 UNL     1       9.741  20.237   1.510  1.00  0.00     0.016 A 
HETATM   29  C19 UNL     1      10.074  18.914   1.357  1.00  0.00    -0.060 A 
HETATM   30  C20 UNL     1       9.041  17.902   0.962  1.00  0.00     0.048 C 
HETATM   31  C21 UNL     1      11.384  18.562   1.581  1.00  0.00     0.033 A 
HETATM   32  C22 UNL     1      12.317  19.540   1.948  1.00  0.00     0.069 A 
HETATM   33 CL1  UNL     1      13.939  18.914   2.270  1.00  0.00    -0.081 Cl
ENDBRANCH  24  25
ENDBRANCH   7  24
TORSDOF 7
ENDMDL
MODEL 3
REMARK VINA RESULT: -9.373387336      1.294      1.402
REMARK  7 active torsions:
REMARK  status: ('A' for Active; 'I' for Inactive)
REMARK    1  A    between atoms: C2_2  and  O1_3 
REMARK    2  A    between atoms: O1_3  and  C3_4 
REMARK    3  A    between atoms: C7_8  and  C8_9 
REMARK    4  A    between atoms: C9_10  and  C10_11 
REMARK    5  A    between atoms: C14_17  and  O2_18 
REMARK    6  A    between atoms: O2_18  and  C15_19 
REMARK    7  A    between atoms: C23_28  and  O3_29 
ROOT
HETATM    1  C10 UNL     1      14.294  24.274   7.545  1.00  0.00     0.046 A 
HETATM    2  C11 UNL     1      15.591  23.877   7.298  1.00  0.00     0.110 A 
HETATM    3  N1  UNL     1      15.712  23.356   6.086  1.00  0.00    -0.364 N 
ATOM      4  H1  UNL     1      16.568  22.990   5.669  1.00  0.00     0.165 HD
HETATM    5  C12 UNL     1      14.482  23.400   5.500  1.00  0.00     0.046 A 
HETATM    6  C13 UNL     1      14.010  23.012   4.278  1.00  0.00     0.070 A 
HETATM    7  C14 UNL     1      12.665  23.172   3.914  1.00  0.00     0.111 A 
HETATM    8  C23 UNL     1      11.833  23.736   4.834  1.00  0.00     0.103 A 
HETATM    9  C25 UNL     1      12.272  24.151   6.101  1.00  0.00     0.055 A 
HETATM   10  C26 UNL     1      13.595  23.969   6.398  1.00  0.00     0.013 A 
ENDROOT
BRANCH   1  11
HETATM   11  C9  UNL     1      13.713  24.880   8.706  1.00  0.00    -0.059 C 
HETATM   12  C8  UNL     1      13.241  25.400   9.692  1.00  0.00    -0.061 C 
BRANCH  12  13
HETATM   13  C7  UNL     1      12.666  25.997  10.872  1.00  0.00     0.020 A 
HETATM   14  C6  UNL     1      11.642  25.392  11.572  1.00  0.00     0.021 A 
HETATM   15  C5  UNL     1      11.083  25.945  12.698  1.00  0.00     0.004 A 
HETATM   16  C4  UNL     1      11.538  27.156  13.180  1.00  0.00     0.037 A 
HETATM   17  C3  UNL     1      12.556  27.801  12.518  1.00  0.00     0.070 A 
HETATM   18  C27 UNL     1      13.104  27.199  11.366  1.00  0.00     0.057 A 
BRANCH  17  19
HETATM   19  O1  UNL     1      13.063  29.016  12.937  1.00  0.00    -0.351 OA
BRANCH  19  20
HETATM   20  C2  UNL     1      13.338  29.330  14.261  1.00  0.00     0.171 C 
HETATM   21  C1  UNL     1      13.475  30.803  14.482  1.00  0.00     0.034 C 
ENDBRANCH  19  20
ENDBRANCH  17  19
ENDBRANCH  12  13
ENDBRANCH   1  11
BRANCH   8  22
HETATM   22  O3  UNL     1      10.488  23.903   4.496  1.00  0.00    -0.353 OA
HETATM   23  C24 UNL     1       9.969  25.184   4.273  1.00  0.00     0.210 C 
ENDBRANCH   8  22
BRANCH   7  24
HETATM   24  O2  UNL     1      12.362  22.729   2.656  1.00  0.00    -0.306 OA
BRANCH  24  25
HETATM   25  C15 UNL     1      11.735  21.618   2.218  1.00  0.00     0.103 A 
HETATM   26  C16 UNL     1      12.387  20.383   2.110  1.00  0.00    -0.026 A 
HETATM   27  C17 UNL     1      13.819  20.285   2.490  1.00  0.00     0.051 C 
HETATM   28  C18 UNL     1      11.711  19.281   1.657  1.00  0.00     0.016 A 
HETATM   29  C19 UNL     1      10.388  19.310   1.290  1.00  0.00    -0.060 A 
HETATM   30  C20 UNL     1       9.698  18.072   0.802  1.00  0.00     0.048 C 
HETATM   31  C21 UNL     1       9.731  20.514   1.388  1.00  0.00     0.033 A 
HETATM   32  C22 UNL     1      10.414  21.646   1.850  1.00  0.00     0.069 A 
HETATM   33 CL1  UNL     1       9.450  23.129   1.847  1.00  0.00    -0.081 Cl
ENDBRANCH  24  25
ENDBRANCH   7  24
TORSDOF 7
ENDMDL
MODEL 4
REMARK VINA RESULT: -9.300799161      1.544      2.053
REMARK  7 active torsions:
REMARK  status: ('A' for Active; 'I' for Inactive)
REMARK    1  A    between atoms: C2_2  and  O1_3 
REMARK    2  A    between atoms: O1_3  and  C3_4 
REMARK    3  A    between atoms: C7_8  and  C8_9 
REMARK    4  A    between atoms: C9_10  and  C10_11 
REMARK    5  A    between atoms: C14_17  and  O2_18 
REMARK    6  A    between atoms: O2_18  and  C15_19 
REMARK    7  A    between atoms: C23_28  and  O3_29 
ROOT
HETATM    1  C10 UNL     1      14.266  24.272   7.497  1.00  0.00     0.046 A 
HETATM    2  C11 UNL     1      15.561  23.879   7.238  1.00  0.00     0.110 A 
HETATM    3  N1  UNL     1      15.674  23.366   6.022  1.00  0.00    -0.364 N 
ATOM      4  H1  UNL     1      16.528  23.004   5.596  1.00  0.00     0.165 HD
HETATM    5  C12 UNL     1      14.439  23.411   5.445  1.00  0.00     0.046 A 
HETATM    6  C13 UNL     1      13.960  23.029   4.224  1.00  0.00     0.070 A 
HETATM    7  C14 UNL     1      12.611  23.189   3.872  1.00  0.00     0.111 A 
HETATM    8  C23 UNL     1      11.785  23.745   4.802  1.00  0.00     0.103 A 
HETATM    9  C25 UNL     1      12.233  24.153   6.068  1.00  0.00     0.055 A 
HETATM   10  C26 UNL     1      13.558  23.972   6.354  1.00  0.00     0.013 A 
ENDROOT
BRANCH   1  11
HETATM   11  C9  UNL     1      13.692  24.869   8.666  1.00  0.00    -0.059 C 
HETATM   12  C8  UNL     1      13.225  25.369   9.665  1.00  0.00    -0.061 C 
BRANCH  12  13
HETATM   13  C7  UNL     1      12.646  25.952  10.850  1.00  0.00     0.020 A 
HETATM   14  C6  UNL     1      11.635  25.329  11.552  1.00  0.00     0.021 A 
HETATM   15  C5  UNL     1      11.073  25.868  12.683  1.00  0.00     0.004 A 
HETATM   16  C4  UNL     1      11.511  27.084  13.168  1.00  0.00     0.037 A 
HETATM   17  C3  UNL     1      12.517  27.748  12.505  1.00  0.00     0.070 A 
HETATM   18  C27 UNL     1      13.069  27.158  11.348  1.00  0.00     0.057 A 
BRANCH  17  19
HETATM   19  O1  UNL     1      13.007  28.968  12.927  1.00  0.00    -0.351 OA
BRANCH  19  20
HETATM   20  C2  UNL     1      13.578  29.188  14.173  1.00  0.00     0.171 C 
HETATM   21  C1  UNL     1      13.673  30.643  14.508  1.00  0.00     0.034 C 
ENDBRANCH  19  20
ENDBRANCH  17  19
ENDBRANCH  12  13
ENDBRANCH   1  11
BRANCH   8  22
HETATM   22  O3  UNL     1      10.437  23.911   4.475  1.00  0.00    -0.353 OA
HETATM   23  C24 UNL     1       9.913  25.192   4.266  1.00  0.00     0.210 C 
ENDBRANCH   8  22
BRANCH   7  24
HETATM   24  O2  UNL     1      12.299  22.753   2.613  1.00  0.00    -0.306 OA
BRANCH  24  25
HETATM   25  C15 UNL     1      11.678  21.639   2.173  1.00  0.00     0.103 A 
HETATM   26  C16 UNL     1      10.327  21.633   1.800  1.00  0.00    -0.026 A 
HETATM   27  C17 UNL     1       9.546  22.893   1.890  1.00  0.00     0.051 C 
HETATM   28  C18 UNL     1       9.736  20.478   1.361  1.00  0.00     0.016 A 
HETATM   29  C19 UNL     1      10.407  19.284   1.258  1.00  0.00    -0.060 A 
HETATM   30  C20 UNL     1       9.709  18.050   0.770  1.00  0.00     0.048 C 
HETATM   31  C21 UNL     1      11.732  19.271   1.620  1.00  0.00     0.033 A 
HETATM   32  C22 UNL     1      12.346  20.446   2.070  1.00  0.00     0.069 A 
HETATM   33 CL1  UNL     1      14.032  20.244   2.566  1.00  0.00    -0.081 Cl
ENDBRANCH  24  25
ENDBRANCH   7  24
TORSDOF 7
ENDMDL
MODEL 5
REMARK VINA RESULT: -8.979524678      1.294      1.549
REMARK  7 active torsions:
REMARK  status: ('A' for Active; 'I' for Inactive)
REMARK    1  A    between atoms: C2_2  and  O1_3 
REMARK    2  A    between atoms: O1_3  and  C3_4 
REMARK    3  A    between atoms: C7_8  and  C8_9 
REMARK    4  A    between atoms: C9_10  and  C10_11 
REMARK    5  A    between atoms: C14_17  and  O2_18 
REMARK    6  A    between atoms: O2_18  and  C15_19 
REMARK    7  A    between atoms: C23_28  and  O3_29 
ROOT
HETATM    1  C10 UNL     1      13.909  25.557   7.469  1.00  0.00     0.046 A 
HETATM    2  C11 UNL     1      14.723  26.157   6.532  1.00  0.00     0.110 A 
HETATM    3  N1  UNL     1      14.870  25.391   5.462  1.00  0.00    -0.364 N 
ATOM      4  H1  UNL     1      15.422  25.610   4.633  1.00  0.00     0.165 HD
HETATM    5  C12 UNL     1      14.145  24.254   5.672  1.00  0.00     0.046 A 
HETATM    6  C13 UNL     1      13.926  23.130   4.928  1.00  0.00     0.070 A 
HETATM    7  C14 UNL     1      13.118  22.079   5.388  1.00  0.00     0.111 A 
HETATM    8  C23 UNL     1      12.552  22.221   6.619  1.00  0.00     0.103 A 
HETATM    9  C25 UNL     1      12.747  23.358   7.419  1.00  0.00     0.055 A 
HETATM   10  C26 UNL     1      13.545  24.349   6.917  1.00  0.00     0.013 A 
ENDROOT
BRANCH   1  11
HETATM   11  C9  UNL     1      13.482  26.015   8.758  1.00  0.00    -0.059 C 
HETATM   12  C8  UNL     1      13.141  26.401   9.854  1.00  0.00    -0.061 C 
BRANCH  12  13
HETATM   13  C7  UNL     1      12.716  26.844  11.158  1.00  0.00     0.020 A 
HETATM   14  C6  UNL     1      11.599  26.323  11.779  1.00  0.00     0.021 A 
HETATM   15  C5  UNL     1      11.179  26.732  13.021  1.00  0.00     0.004 A 
HETATM   16  C4  UNL     1      11.879  27.703  13.708  1.00  0.00     0.037 A 
HETATM   17  C3  UNL     1      12.999  28.257  13.134  1.00  0.00     0.070 A 
HETATM   18  C27 UNL     1      13.397  27.808  11.857  1.00  0.00     0.057 A 
BRANCH  17  19
HETATM   19  O1  UNL     1      13.749  29.234  13.758  1.00  0.00    -0.351 OA
BRANCH  19  20
HETATM   20  C2  UNL     1      13.207  30.309  14.450  1.00  0.00     0.171 C 
HETATM   21  C1  UNL     1      13.470  31.616  13.771  1.00  0.00     0.034 C 
ENDBRANCH  19  20
ENDBRANCH  17  19
ENDBRANCH  12  13
ENDBRANCH   1  11
BRANCH   8  22
HETATM   22  O3  UNL     1      11.745  21.187   7.100  1.00  0.00    -0.353 OA
HETATM   23  C24 UNL     1      10.398  21.420   7.397  1.00  0.00     0.210 C 
ENDBRANCH   8  22
BRANCH   7  24
HETATM   24  O2  UNL     1      13.006  21.029   4.519  1.00  0.00    -0.306 OA
BRANCH  24  25
HETATM   25  C15 UNL     1      12.259  20.851   3.410  1.00  0.00     0.103 A 
HETATM   26  C16 UNL     1      12.587  19.907   2.429  1.00  0.00    -0.026 A 
HETATM   27  C17 UNL     1      13.799  19.068   2.608  1.00  0.00     0.051 C 
HETATM   28  C18 UNL     1      11.800  19.763   1.317  1.00  0.00     0.016 A 
HETATM   29  C19 UNL     1      10.669  20.511   1.095  1.00  0.00    -0.060 A 
HETATM   30  C20 UNL     1       9.845  20.309  -0.140  1.00  0.00     0.048 C 
HETATM   31  C21 UNL     1      10.332  21.443   2.047  1.00  0.00     0.033 A 
HETATM   32  C22 UNL     1      11.130  21.598   3.188  1.00  0.00     0.069 A 
HETATM   33 CL1  UNL     1      10.601  22.887   4.277  1.00  0.00    -0.081 Cl
ENDBRANCH  24  25
ENDBRANCH   7  24
TORSDOF 7
ENDMDL
