MODEL 1
REMARK VINA RESULT: -6.907433127      0.000      0.000
REMARK  9 active torsions:
REMARK  status: ('A' for Active; 'I' for Inactive)
REMARK    1  A    between atoms: C3_3  and  C4_4 
REMARK    2  A    between atoms: C5_5  and  O1_6 
REMARK    3  A    between atoms: C6_8  and  C7_9 
REMARK    4  A    between atoms: C9_12  and  C10_13 
REMARK    5  A    between atoms: C13_16  and  C14_17 
REMARK    6  A    between atoms: C19_23  and  C20_24 
REMARK    7  A    between atoms: C20_24  and  C21_25 
REMARK    8  A    between atoms: C20_24  and  C24_28 
REMARK    9  A    between atoms: C21_25  and  C22_26 
ROOT
HETATM    1  C1  UNL     1      17.929  26.666   4.188  1.00  0.00     0.112 C 
HETATM    2  C2  UNL     1      16.690  26.183   4.817  1.00  0.00    -0.105 C 
HETATM    3  C3  UNL     1      15.693  25.801   5.354  1.00  0.00    -0.064 C 
ENDROOT
BRANCH   3   4
HETATM    4  C4  UNL     1      14.523  25.342   6.027  1.00  0.00     0.067 C 
HETATM    5  C5  UNL     1      14.483  25.421   7.430  1.00  0.00     0.100 C 
HETATM    6  C6  UNL     1      13.400  25.111   8.257  1.00  0.00     0.055 C 
HETATM    7  C9  UNL     1      12.566  23.955   8.098  1.00  0.00    -0.007 C 
HETATM    8  C13 UNL     1      12.207  23.426   6.838  1.00  0.00     0.012 C 
HETATM    9  C18 UNL     1      12.377  24.159   5.621  1.00  0.00     0.192 C 
HETATM   10  O3  UNL     1      11.379  24.117   4.890  1.00  0.00    -0.287 OA
HETATM   11  C19 UNL     1      13.510  24.886   5.203  1.00  0.00     0.047 C 
BRANCH   5  12
HETATM   12  O1  UNL     1      15.622  25.854   8.057  1.00  0.00    -0.358 OA
ATOM     13  H1  UNL     1      15.540  26.105   8.969  1.00  0.00     0.217 HD
ENDBRANCH   5  12
BRANCH   6  14
HETATM   14  C7  UNL     1      13.109  26.033   9.306  1.00  0.00     0.159 C 
HETATM   15  C8  UNL     1      11.993  26.985   9.211  1.00  0.00     0.097 C 
HETATM   16  O2  UNL     1      13.755  26.103  10.348  1.00  0.00    -0.293 OA
ENDBRANCH   6  14
BRANCH   7  17
HETATM   17  C10 UNL     1      12.313  23.278   9.288  1.00  0.00    -0.076 C 
HETATM   18  C11 UNL     1      11.229  23.593  10.270  1.00  0.00     0.044 C 
HETATM   19  C12 UNL     1      13.541  22.769  10.034  1.00  0.00     0.044 C 
ENDBRANCH   7  17
BRANCH   8  20
HETATM   20  C14 UNL     1      11.709  22.091   6.682  1.00  0.00    -0.019 C 
HETATM   21  C15 UNL     1      10.508  21.545   7.349  1.00  0.00     0.019 C 
HETATM   22  C16 UNL     1      11.344  21.813   5.197  1.00  0.00     0.019 C 
HETATM   23  C17 UNL     1      12.898  21.053   6.766  1.00  0.00     0.019 C 
ENDBRANCH   8  20
BRANCH  11  24
HETATM   24  C20 UNL     1      13.592  25.148   3.786  1.00  0.00    -0.014 C 
BRANCH  24  25
HETATM   25  C21 UNL     1      12.775  26.019   3.254  1.00  0.00    -0.014 C 
BRANCH  25  26
HETATM   26  C22 UNL     1      11.738  25.659   2.239  1.00  0.00     0.023 C 
HETATM   27  C23 UNL     1      10.834  26.889   2.048  1.00  0.00     0.009 C 
ENDBRANCH  25  26
ENDBRANCH  24  25
BRANCH  24  28
HETATM   28  C24 UNL     1      14.594  24.498   2.972  1.00  0.00    -0.025 A 
HETATM   29  C25 UNL     1      14.885  23.172   3.129  1.00  0.00     0.015 A 
HETATM   30  C26 UNL     1      15.878  22.564   2.378  1.00  0.00     0.043 A 
HETATM   31  C27 UNL     1      16.598  23.248   1.463  1.00  0.00     0.116 A 
HETATM   32  F1  UNL     1      17.571  22.634   0.735  1.00  0.00    -0.206 F 
HETATM   33  C28 UNL     1      16.341  24.599   1.260  1.00  0.00     0.043 A 
HETATM   34  C29 UNL     1      15.344  25.180   2.024  1.00  0.00     0.015 A 
ENDBRANCH  24  28
ENDBRANCH  11  24
ENDBRANCH   3   4
TORSDOF 9
ENDMDL
MODEL 2
REMARK VINA RESULT: -6.768621711      2.223      2.927
REMARK  9 active torsions:
REMARK  status: ('A' for Active; 'I' for Inactive)
REMARK    1  A    between atoms: C3_3  and  C4_4 
REMARK    2  A    between atoms: C5_5  and  O1_6 
REMARK    3  A    between atoms: C6_8  and  C7_9 
REMARK    4  A    between atoms: C9_12  and  C10_13 
REMARK    5  A    between atoms: C13_16  and  C14_17 
REMARK    6  A    between atoms: C19_23  and  C20_24 
REMARK    7  A    between atoms: C20_24  and  C21_25 
REMARK    8  A    between atoms: C20_24  and  C24_28 
REMARK    9  A    between atoms: C21_25  and  C22_26 
ROOT
HETATM    1  C1  UNL     1      16.296  24.400   1.628  1.00  0.00     0.112 C 
HETATM    2  C2  UNL     1      15.371  24.378   2.772  1.00  0.00    -0.105 C 
HETATM    3  C3  UNL     1      14.626  24.331   3.706  1.00  0.00    -0.064 C 
ENDROOT
BRANCH   3   4
HETATM    4  C4  UNL     1      13.733  24.239   4.813  1.00  0.00     0.067 C 
HETATM    5  C5  UNL     1      14.190  24.644   6.078  1.00  0.00     0.100 C 
HETATM    6  C6  UNL     1      13.444  24.715   7.257  1.00  0.00     0.055 C 
HETATM    7  C9  UNL     1      12.521  23.707   7.692  1.00  0.00    -0.007 C 
HETATM    8  C13 UNL     1      11.706  22.968   6.805  1.00  0.00     0.012 C 
HETATM    9  C18 UNL     1      11.496  23.364   5.446  1.00  0.00     0.192 C 
HETATM   10  O3  UNL     1      10.306  23.318   5.109  1.00  0.00    -0.287 OA
HETATM   11  C19 UNL     1      12.465  23.777   4.509  1.00  0.00     0.047 C 
BRANCH   5  12
HETATM   12  O1  UNL     1      15.507  25.016   6.169  1.00  0.00    -0.358 OA
ATOM     13  H1  UNL     1      15.730  25.638   6.852  1.00  0.00     0.217 HD
ENDBRANCH   5  12
BRANCH   6  14
HETATM   14  C7  UNL     1      13.608  25.889   8.052  1.00  0.00     0.159 C 
HETATM   15  C8  UNL     1      12.468  26.744   8.412  1.00  0.00     0.097 C 
HETATM   16  O2  UNL     1      14.691  26.270   8.486  1.00  0.00    -0.293 OA
ENDBRANCH   6  14
BRANCH   7  17
HETATM   17  C10 UNL     1      12.647  23.373   9.038  1.00  0.00    -0.076 C 
HETATM   18  C11 UNL     1      11.888  23.982  10.174  1.00  0.00     0.044 C 
HETATM   19  C12 UNL     1      14.056  23.018   9.502  1.00  0.00     0.044 C 
ENDBRANCH   7  17
BRANCH   8  20
HETATM   20  C14 UNL     1      11.084  21.734   7.185  1.00  0.00    -0.019 C 
HETATM   21  C15 UNL     1      10.002  21.595   8.182  1.00  0.00     0.019 C 
HETATM   22  C16 UNL     1      10.409  21.060   5.957  1.00  0.00     0.019 C 
HETATM   23  C17 UNL     1      12.181  20.619   7.413  1.00  0.00     0.019 C 
ENDBRANCH   8  20
BRANCH  11  24
HETATM   24  C20 UNL     1      12.067  23.689   3.124  1.00  0.00    -0.014 C 
BRANCH  24  25
HETATM   25  C21 UNL     1      11.909  24.791   2.438  1.00  0.00    -0.014 C 
BRANCH  25  26
HETATM   26  C22 UNL     1      10.954  25.872   2.829  1.00  0.00     0.023 C 
HETATM   27  C23 UNL     1       9.547  25.424   2.397  1.00  0.00     0.009 C 
ENDBRANCH  25  26
ENDBRANCH  24  25
BRANCH  24  28
HETATM   28  C24 UNL     1      11.894  22.404   2.487  1.00  0.00    -0.025 A 
HETATM   29  C25 UNL     1      10.683  22.017   1.986  1.00  0.00     0.015 A 
HETATM   30  C26 UNL     1      10.510  20.766   1.417  1.00  0.00     0.043 A 
HETATM   31  C27 UNL     1      11.523  19.877   1.332  1.00  0.00     0.116 A 
HETATM   32  F1  UNL     1      11.334  18.651   0.770  1.00  0.00    -0.206 F 
HETATM   33  C28 UNL     1      12.778  20.220   1.823  1.00  0.00     0.043 A 
HETATM   34  C29 UNL     1      12.920  21.476   2.386  1.00  0.00     0.015 A 
ENDBRANCH  24  28
ENDBRANCH  11  24
ENDBRANCH   3   4
TORSDOF 9
ENDMDL
MODEL 3
REMARK VINA RESULT: -6.601562307      2.592      5.379
REMARK  9 active torsions:
REMARK  status: ('A' for Active; 'I' for Inactive)
REMARK    1  A    between atoms: C3_3  and  C4_4 
REMARK    2  A    between atoms: C5_5  and  O1_6 
REMARK    3  A    between atoms: C6_8  and  C7_9 
REMARK    4  A    between atoms: C9_12  and  C10_13 
REMARK    5  A    between atoms: C13_16  and  C14_17 
REMARK    6  A    between atoms: C19_23  and  C20_24 
REMARK    7  A    between atoms: C20_24  and  C21_25 
REMARK    8  A    between atoms: C20_24  and  C24_28 
REMARK    9  A    between atoms: C21_25  and  C22_26 
ROOT
HETATM    1  C1  UNL     1      13.348  26.559   9.154  1.00  0.00     0.112 C 
HETATM    2  C2  UNL     1      13.084  25.908   7.861  1.00  0.00    -0.105 C 
HETATM    3  C3  UNL     1      12.849  25.401   6.804  1.00  0.00    -0.064 C 
ENDROOT
BRANCH   3   4
HETATM    4  C4  UNL     1      12.534  24.811   5.545  1.00  0.00     0.067 C 
HETATM    5  C5  UNL     1      11.333  25.177   4.915  1.00  0.00     0.100 C 
HETATM    6  C6  UNL     1      10.896  24.783   3.648  1.00  0.00     0.055 C 
HETATM    7  C9  UNL     1      10.988  23.444   3.141  1.00  0.00    -0.007 C 
HETATM    8  C13 UNL     1      12.070  22.582   3.422  1.00  0.00     0.012 C 
HETATM    9  C18 UNL     1      13.306  23.054   3.968  1.00  0.00     0.192 C 
HETATM   10  O3  UNL     1      14.297  22.598   3.383  1.00  0.00    -0.287 OA
HETATM   11  C19 UNL     1      13.489  23.941   5.048  1.00  0.00     0.047 C 
BRANCH   5  12
HETATM   12  O1  UNL     1      10.501  26.015   5.612  1.00  0.00    -0.358 OA
ATOM     13  H1  UNL     1       9.626  26.136   5.263  1.00  0.00     0.217 HD
ENDBRANCH   5  12
BRANCH   6  14
HETATM   14  C7  UNL     1      10.350  25.802   2.812  1.00  0.00     0.159 C 
HETATM   15  C8  UNL     1      11.156  26.467   1.778  1.00  0.00     0.097 C 
HETATM   16  O2  UNL     1       9.189  26.195   2.889  1.00  0.00    -0.293 OA
ENDBRANCH   6  14
BRANCH   7  17
HETATM   17  C10 UNL     1       9.822  22.997   2.523  1.00  0.00    -0.076 C 
HETATM   18  C11 UNL     1       9.606  22.846   1.050  1.00  0.00     0.044 C 
HETATM   19  C12 UNL     1       8.517  23.422   3.187  1.00  0.00     0.044 C 
ENDBRANCH   7  17
BRANCH   8  20
HETATM   20  C14 UNL     1      11.985  21.162   3.243  1.00  0.00    -0.019 C 
HETATM   21  C15 UNL     1      12.263  20.443   1.981  1.00  0.00     0.019 C 
HETATM   22  C16 UNL     1      12.972  20.429   4.195  1.00  0.00     0.019 C 
HETATM   23  C17 UNL     1      10.661  20.608   3.905  1.00  0.00     0.019 C 
ENDBRANCH   8  20
BRANCH  11  24
HETATM   24  C20 UNL     1      14.791  23.904   5.669  1.00  0.00    -0.014 C 
BRANCH  24  25
HETATM   25  C21 UNL     1      15.004  23.064   6.648  1.00  0.00    -0.014 C 
BRANCH  25  26
HETATM   26  C22 UNL     1      15.480  23.482   8.001  1.00  0.00     0.023 C 
HETATM   27  C23 UNL     1      14.440  23.000   9.026  1.00  0.00     0.009 C 
ENDBRANCH  25  26
ENDBRANCH  24  25
BRANCH  24  28
HETATM   28  C24 UNL     1      15.862  24.746   5.188  1.00  0.00    -0.025 A 
HETATM   29  C25 UNL     1      15.969  26.052   5.576  1.00  0.00     0.015 A 
HETATM   30  C26 UNL     1      16.970  26.868   5.076  1.00  0.00     0.043 A 
HETATM   31  C27 UNL     1      17.881  26.414   4.189  1.00  0.00     0.116 A 
HETATM   32  F1  UNL     1      18.858  27.232   3.707  1.00  0.00    -0.206 F 
HETATM   33  C28 UNL     1      17.822  25.092   3.761  1.00  0.00     0.043 A 
HETATM   34  C29 UNL     1      16.811  24.301   4.277  1.00  0.00     0.015 A 
ENDBRANCH  24  28
ENDBRANCH  11  24
ENDBRANCH   3   4
TORSDOF 9
ENDMDL
MODEL 4
REMARK VINA RESULT: -6.042147958      3.037      6.675
REMARK  9 active torsions:
REMARK  status: ('A' for Active; 'I' for Inactive)
REMARK    1  A    between atoms: C3_3  and  C4_4 
REMARK    2  A    between atoms: C5_5  and  O1_6 
REMARK    3  A    between atoms: C6_8  and  C7_9 
REMARK    4  A    between atoms: C9_12  and  C10_13 
REMARK    5  A    between atoms: C13_16  and  C14_17 
REMARK    6  A    between atoms: C19_23  and  C20_24 
REMARK    7  A    between atoms: C20_24  and  C21_25 
REMARK    8  A    between atoms: C20_24  and  C24_28 
REMARK    9  A    between atoms: C21_25  and  C22_26 
ROOT
HETATM    1  C1  UNL     1      10.608  19.671   1.827  1.00  0.00     0.112 C 
HETATM    2  C2  UNL     1      11.483  20.738   2.338  1.00  0.00    -0.105 C 
HETATM    3  C3  UNL     1      12.177  21.625   2.740  1.00  0.00    -0.064 C 
ENDROOT
BRANCH   3   4
HETATM    4  C4  UNL     1      12.993  22.704   3.189  1.00  0.00     0.067 C 
HETATM    5  C5  UNL     1      14.272  22.856   2.626  1.00  0.00     0.100 C 
HETATM    6  C6  UNL     1      15.176  23.894   2.865  1.00  0.00     0.055 C 
HETATM    7  C9  UNL     1      15.463  24.433   4.163  1.00  0.00    -0.007 C 
HETATM    8  C13 UNL     1      14.489  24.577   5.176  1.00  0.00     0.012 C 
HETATM    9  C18 UNL     1      13.086  24.495   4.907  1.00  0.00     0.192 C 
HETATM   10  O3  UNL     1      12.439  25.405   5.441  1.00  0.00    -0.287 OA
HETATM   11  C19 UNL     1      12.410  23.529   4.134  1.00  0.00     0.047 C 
BRANCH   5  12
HETATM   12  O1  UNL     1      14.677  21.889   1.743  1.00  0.00    -0.358 OA
ATOM     13  H1  UNL     1      14.549  22.071   0.820  1.00  0.00     0.217 HD
ENDBRANCH   5  12
BRANCH   6  14
HETATM   14  C7  UNL     1      15.824  24.456   1.725  1.00  0.00     0.159 C 
HETATM   15  C8  UNL     1      16.864  23.723   0.989  1.00  0.00     0.097 C 
HETATM   16  O2  UNL     1      15.571  25.572   1.282  1.00  0.00    -0.293 OA
ENDBRANCH   6  14
BRANCH   7  17
HETATM   17  C10 UNL     1      16.823  24.607   4.410  1.00  0.00    -0.076 C 
HETATM   18  C11 UNL     1      17.577  25.897   4.330  1.00  0.00     0.044 C 
HETATM   19  C12 UNL     1      17.727  23.462   3.968  1.00  0.00     0.044 C 
ENDBRANCH   7  17
BRANCH   8  20
HETATM   20  C14 UNL     1      14.837  24.749   6.555  1.00  0.00    -0.019 C 
HETATM   21  C15 UNL     1      15.330  26.004   7.161  1.00  0.00     0.019 C 
HETATM   22  C16 UNL     1      13.611  24.471   7.469  1.00  0.00     0.019 C 
HETATM   23  C17 UNL     1      15.706  23.526   7.054  1.00  0.00     0.019 C 
ENDBRANCH   8  20
BRANCH  11  24
HETATM   24  C20 UNL     1      10.993  23.413   4.383  1.00  0.00    -0.014 C 
BRANCH  24  25
HETATM   25  C21 UNL     1      10.548  22.376   5.044  1.00  0.00    -0.014 C 
BRANCH  25  26
HETATM   26  C22 UNL     1      11.198  21.850   6.283  1.00  0.00     0.023 C 
HETATM   27  C23 UNL     1      10.078  21.455   7.259  1.00  0.00     0.009 C 
ENDBRANCH  25  26
ENDBRANCH  24  25
BRANCH  24  28
HETATM   28  C24 UNL     1      10.081  24.449   3.955  1.00  0.00    -0.025 A 
HETATM   29  C25 UNL     1      10.171  25.004   2.709  1.00  0.00     0.015 A 
HETATM   30  C26 UNL     1       9.324  26.029   2.320  1.00  0.00     0.043 A 
HETATM   31  C27 UNL     1       8.378  26.523   3.146  1.00  0.00     0.116 A 
HETATM   32  F1  UNL     1       7.556  27.532   2.746  1.00  0.00    -0.206 F 
HETATM   33  C28 UNL     1       8.240  25.993   4.425  1.00  0.00     0.043 A 
HETATM   34  C29 UNL     1       9.100  24.971   4.786  1.00  0.00     0.015 A 
ENDBRANCH  24  28
ENDBRANCH  11  24
ENDBRANCH   3   4
TORSDOF 9
ENDMDL
MODEL 5
REMARK VINA RESULT: -5.262512853      2.103      3.255
REMARK  9 active torsions:
REMARK  status: ('A' for Active; 'I' for Inactive)
REMARK    1  A    between atoms: C3_3  and  C4_4 
REMARK    2  A    between atoms: C5_5  and  O1_6 
REMARK    3  A    between atoms: C6_8  and  C7_9 
REMARK    4  A    between atoms: C9_12  and  C10_13 
REMARK    5  A    between atoms: C13_16  and  C14_17 
REMARK    6  A    between atoms: C19_23  and  C20_24 
REMARK    7  A    between atoms: C20_24  and  C21_25 
REMARK    8  A    between atoms: C20_24  and  C24_28 
REMARK    9  A    between atoms: C21_25  and  C22_26 
ROOT
HETATM    1  C1  UNL     1      17.343  24.170   3.180  1.00  0.00     0.112 C 
HETATM    2  C2  UNL     1      16.185  24.162   4.087  1.00  0.00    -0.105 C 
HETATM    3  C3  UNL     1      15.258  24.137   4.842  1.00  0.00    -0.064 C 
ENDROOT
BRANCH   3   4
HETATM    4  C4  UNL     1      14.164  24.072   5.753  1.00  0.00     0.067 C 
HETATM    5  C5  UNL     1      14.387  24.425   7.095  1.00  0.00     0.100 C 
HETATM    6  C6  UNL     1      13.431  24.514   8.110  1.00  0.00     0.055 C 
HETATM    7  C9  UNL     1      12.390  23.550   8.327  1.00  0.00    -0.007 C 
HETATM    8  C13 UNL     1      11.726  22.878   7.277  1.00  0.00     0.012 C 
HETATM    9  C18 UNL     1      11.805  23.312   5.916  1.00  0.00     0.192 C 
HETATM   10  O3  UNL     1      10.702  23.341   5.355  1.00  0.00    -0.287 OA
HETATM   11  C19 UNL     1      12.956  23.690   5.196  1.00  0.00     0.047 C 
BRANCH   5  12
HETATM   12  O1  UNL     1      15.678  24.720   7.449  1.00  0.00    -0.358 OA
ATOM     13  H1  UNL     1      15.842  24.888   8.370  1.00  0.00     0.217 HD
ENDBRANCH   5  12
BRANCH   6  14
HETATM   14  C7  UNL     1      13.498  25.660   8.957  1.00  0.00     0.159 C 
HETATM   15  C8  UNL     1      12.503  26.739   8.877  1.00  0.00     0.097 C 
HETATM   16  O2  UNL     1      14.374  25.831   9.800  1.00  0.00    -0.293 OA
ENDBRANCH   6  14
BRANCH   7  17
HETATM   17  C10 UNL     1      12.236  23.182   9.661  1.00  0.00    -0.076 C 
HETATM   18  C11 UNL     1      11.315  23.821  10.653  1.00  0.00     0.044 C 
HETATM   19  C12 UNL     1      13.503  22.718  10.370  1.00  0.00     0.044 C 
ENDBRANCH   7  17
BRANCH   8  20
HETATM   20  C14 UNL     1      10.980  21.673   7.491  1.00  0.00    -0.019 C 
HETATM   21  C15 UNL     1       9.832  21.532   8.412  1.00  0.00     0.019 C 
HETATM   22  C16 UNL     1      10.324  21.192   6.166  1.00  0.00     0.019 C 
HETATM   23  C17 UNL     1      11.962  20.445   7.654  1.00  0.00     0.019 C 
ENDBRANCH   8  20
BRANCH  11  24
HETATM   24  C20 UNL     1      12.831  23.653   3.759  1.00  0.00    -0.014 C 
BRANCH  24  25
HETATM   25  C21 UNL     1      13.302  22.622   3.107  1.00  0.00    -0.014 C 
BRANCH  25  26
HETATM   26  C22 UNL     1      12.900  21.213   3.397  1.00  0.00     0.023 C 
HETATM   27  C23 UNL     1      11.611  20.929   2.607  1.00  0.00     0.009 C 
ENDBRANCH  25  26
ENDBRANCH  24  25
BRANCH  24  28
HETATM   28  C24 UNL     1      12.151  24.714   3.050  1.00  0.00    -0.025 A 
HETATM   29  C25 UNL     1      12.772  25.902   2.786  1.00  0.00     0.015 A 
HETATM   30  C26 UNL     1      12.101  26.933   2.148  1.00  0.00     0.043 A 
HETATM   31  C27 UNL     1      10.814  26.811   1.759  1.00  0.00     0.116 A 
HETATM   32  F1  UNL     1      10.171  27.836   1.134  1.00  0.00    -0.206 F 
HETATM   33  C28 UNL     1      10.135  25.622   2.000  1.00  0.00     0.043 A 
HETATM   34  C29 UNL     1      10.830  24.611   2.640  1.00  0.00     0.015 A 
ENDBRANCH  24  28
ENDBRANCH  11  24
ENDBRANCH   3   4
TORSDOF 9
ENDMDL
