MODEL 1
REMARK VINA RESULT: -10.095104000      0.000      0.000
REMARK  8 active torsions:
REMARK  status: ('A' for Active; 'I' for Inactive)
REMARK    1  A    between atoms: C2_2  and  C3_3 
REMARK    2  A    between atoms: C3_3  and  C4_4 
REMARK    3  A    between atoms: C7_7  and  S1_8 
REMARK    4  A    between atoms: S1_8  and  C8_11 
REMARK    5  A    between atoms: C8_11  and  C11_14 
REMARK    6  A    between atoms: C13_16  and  C14_17 
REMARK    7  A    between atoms: C17_20  and  O3_21 
REMARK    8  A    between atoms: C18_23  and  C19_24 
ROOT
HETATM    1  C8  UNL     1      12.706  22.807   6.421  1.00  0.00     0.088 C 
HETATM    2  C9  UNL     1      12.952  21.410   5.830  1.00  0.00     0.037 C 
HETATM    3  C10 UNL     1      11.386  22.740   7.148  1.00  0.00     0.037 C 
ENDROOT
BRANCH   1   4
HETATM    4  S1  UNL     1      13.980  23.108   7.628  1.00  0.00     0.187 S 
HETATM    5  O1  UNL     1      14.397  21.875   8.338  1.00  0.00    -0.221 OA
HETATM    6  O2  UNL     1      15.086  23.883   7.014  1.00  0.00    -0.221 OA
BRANCH   4   7
HETATM    7  C7  UNL     1      13.233  24.171   8.845  1.00  0.00     0.062 A 
HETATM    8  C6  UNL     1      13.488  25.526   8.751  1.00  0.00     0.024 A 
HETATM    9  C5  UNL     1      12.929  26.374   9.685  1.00  0.00     0.011 A 
HETATM   10  C4  UNL     1      12.128  25.921  10.708  1.00  0.00    -0.033 A 
HETATM   11  C25 UNL     1      11.902  24.574  10.764  1.00  0.00     0.042 A 
HETATM   12  C24 UNL     1      12.440  23.696   9.851  1.00  0.00     0.047 A 
HETATM   13 CL1  UNL     1      10.881  23.881  12.021  1.00  0.00    -0.084 Cl
BRANCH  10  14
HETATM   14  C3  UNL     1      11.524  26.831  11.720  1.00  0.00     0.066 C 
BRANCH  14  15
HETATM   15  C2  UNL     1      12.367  26.971  12.916  1.00  0.00    -0.032 C 
HETATM   16  C1  UNL     1      12.723  28.169  13.334  1.00  0.00     0.007 C 
ENDBRANCH  14  15
ENDBRANCH  10  14
ENDBRANCH   4   7
ENDBRANCH   1   4
BRANCH   1  17
HETATM   17  C11 UNL     1      12.721  23.747   5.301  1.00  0.00    -0.034 A 
HETATM   18  C12 UNL     1      13.851  24.261   4.709  1.00  0.00     0.019 A 
HETATM   19  C13 UNL     1      13.819  25.125   3.634  1.00  0.00    -0.020 A 
HETATM   20  C17 UNL     1      12.558  25.480   3.143  1.00  0.00     0.079 A 
HETATM   21  C18 UNL     1      11.401  24.994   3.702  1.00  0.00    -0.016 A 
HETATM   22  C23 UNL     1      11.503  24.134   4.776  1.00  0.00     0.019 A 
BRANCH  19  23
HETATM   23  C14 UNL     1      15.030  25.711   3.024  1.00  0.00     0.013 C 
HETATM   24  C15 UNL     1      15.589  24.721   1.985  1.00  0.00     0.015 C 
HETATM   25  C16 UNL     1      16.084  25.955   4.086  1.00  0.00     0.015 C 
ENDBRANCH  19  23
BRANCH  20  26
HETATM   26  O3  UNL     1      12.410  26.330   2.075  1.00  0.00    -0.360 OA
ATOM     27  H3  UNL     1      11.557  26.525   1.706  1.00  0.00     0.217 HD
ENDBRANCH  20  26
BRANCH  21  28
HETATM   28  C19 UNL     1      10.075  25.318   3.183  1.00  0.00    -0.021 C 
HETATM   29  C20 UNL     1      10.004  26.479   2.256  1.00  0.00     0.019 C 
HETATM   30  C21 UNL     1       9.490  24.104   2.516  1.00  0.00     0.019 C 
HETATM   31  C22 UNL     1       9.101  25.630   4.335  1.00  0.00     0.019 C 
ENDBRANCH  21  28
ENDBRANCH   1  17
TORSDOF 8
ENDMDL
MODEL 2
REMARK VINA RESULT: -10.013238108      2.038      2.698
REMARK  8 active torsions:
REMARK  status: ('A' for Active; 'I' for Inactive)
REMARK    1  A    between atoms: C2_2  and  C3_3 
REMARK    2  A    between atoms: C3_3  and  C4_4 
REMARK    3  A    between atoms: C7_7  and  S1_8 
REMARK    4  A    between atoms: S1_8  and  C8_11 
REMARK    5  A    between atoms: C8_11  and  C11_14 
REMARK    6  A    between atoms: C13_16  and  C14_17 
REMARK    7  A    between atoms: C17_20  and  O3_21 
REMARK    8  A    between atoms: C18_23  and  C19_24 
ROOT
HETATM    1  C8  UNL     1      13.875  24.673   6.439  1.00  0.00     0.088 C 
HETATM    2  C9  UNL     1      12.471  25.279   6.593  1.00  0.00     0.037 C 
HETATM    3  C10 UNL     1      14.846  25.827   6.465  1.00  0.00     0.037 C 
ENDROOT
BRANCH   1   4
HETATM    4  S1  UNL     1      14.182  23.667   7.876  1.00  0.00     0.187 S 
HETATM    5  O1  UNL     1      13.610  22.305   7.752  1.00  0.00    -0.221 OA
HETATM    6  O2  UNL     1      15.622  23.713   8.228  1.00  0.00    -0.221 OA
BRANCH   4   7
HETATM    7  C7  UNL     1      13.311  24.469   9.206  1.00  0.00     0.062 A 
HETATM    8  C6  UNL     1      13.600  25.798   9.448  1.00  0.00     0.024 A 
HETATM    9  C5  UNL     1      12.947  26.444  10.478  1.00  0.00     0.011 A 
HETATM   10  C4  UNL     1      12.019  25.813  11.274  1.00  0.00    -0.033 A 
HETATM   11  C25 UNL     1      11.763  24.498  11.000  1.00  0.00     0.042 A 
HETATM   12  C24 UNL     1      12.393  23.819   9.982  1.00  0.00     0.047 A 
HETATM   13 CL1  UNL     1      10.585  23.591  11.944  1.00  0.00    -0.084 Cl
BRANCH  10  14
HETATM   14  C3  UNL     1      11.313  26.504  12.388  1.00  0.00     0.066 C 
BRANCH  14  15
HETATM   15  C2  UNL     1      12.241  26.997  13.415  1.00  0.00    -0.032 C 
HETATM   16  C1  UNL     1      12.564  28.274  13.450  1.00  0.00     0.007 C 
ENDBRANCH  14  15
ENDBRANCH  10  14
ENDBRANCH   4   7
ENDBRANCH   1   4
BRANCH   1  17
HETATM   17  C11 UNL     1      13.875  23.924   5.184  1.00  0.00    -0.034 A 
HETATM   18  C12 UNL     1      14.893  23.919   4.260  1.00  0.00     0.019 A 
HETATM   19  C13 UNL     1      14.862  23.173   3.100  1.00  0.00    -0.020 A 
HETATM   20  C17 UNL     1      13.723  22.392   2.878  1.00  0.00     0.079 A 
HETATM   21  C18 UNL     1      12.679  22.364   3.771  1.00  0.00    -0.016 A 
HETATM   22  C23 UNL     1      12.773  23.135   4.912  1.00  0.00     0.019 A 
BRANCH  19  23
HETATM   23  C14 UNL     1      15.936  23.199   2.086  1.00  0.00     0.013 C 
HETATM   24  C15 UNL     1      17.258  23.584   2.776  1.00  0.00     0.015 C 
HETATM   25  C16 UNL     1      15.622  24.228   1.018  1.00  0.00     0.015 C 
ENDBRANCH  19  23
BRANCH  20  26
HETATM   26  O3  UNL     1      13.589  21.608   1.759  1.00  0.00    -0.360 OA
ATOM     27  H3  UNL     1      12.873  20.992   1.662  1.00  0.00     0.217 HD
ENDBRANCH  20  26
BRANCH  21  28
HETATM   28  C19 UNL     1      11.498  21.528   3.582  1.00  0.00    -0.021 C 
HETATM   29  C20 UNL     1      11.728  20.215   2.920  1.00  0.00     0.019 C 
HETATM   30  C21 UNL     1      10.822  21.312   4.908  1.00  0.00     0.019 C 
HETATM   31  C22 UNL     1      10.444  22.259   2.728  1.00  0.00     0.019 C 
ENDBRANCH  21  28
ENDBRANCH   1  17
TORSDOF 8
ENDMDL
MODEL 3
REMARK VINA RESULT: -9.732833240      4.026      6.481
REMARK  8 active torsions:
REMARK  status: ('A' for Active; 'I' for Inactive)
REMARK    1  A    between atoms: C2_2  and  C3_3 
REMARK    2  A    between atoms: C3_3  and  C4_4 
REMARK    3  A    between atoms: C7_7  and  S1_8 
REMARK    4  A    between atoms: S1_8  and  C8_11 
REMARK    5  A    between atoms: C8_11  and  C11_14 
REMARK    6  A    between atoms: C13_16  and  C14_17 
REMARK    7  A    between atoms: C17_20  and  O3_21 
REMARK    8  A    between atoms: C18_23  and  C19_24 
ROOT
HETATM    1  C8  UNL     1      12.145  22.362   5.947  1.00  0.00     0.088 C 
HETATM    2  C9  UNL     1      13.118  21.187   5.762  1.00  0.00     0.037 C 
HETATM    3  C10 UNL     1      11.242  21.995   7.098  1.00  0.00     0.037 C 
ENDROOT
BRANCH   1   4
HETATM    4  S1  UNL     1      13.105  23.779   6.435  1.00  0.00     0.187 S 
HETATM    5  O1  UNL     1      12.341  25.046   6.343  1.00  0.00    -0.221 OA
HETATM    6  O2  UNL     1      13.747  23.528   7.749  1.00  0.00    -0.221 OA
BRANCH   4   7
HETATM    7  C7  UNL     1      14.422  23.888   5.242  1.00  0.00     0.062 A 
HETATM    8  C6  UNL     1      15.719  23.890   5.721  1.00  0.00     0.024 A 
HETATM    9  C5  UNL     1      16.760  23.982   4.821  1.00  0.00     0.011 A 
HETATM   10  C4  UNL     1      16.557  24.072   3.463  1.00  0.00    -0.033 A 
HETATM   11  C25 UNL     1      15.259  24.065   3.032  1.00  0.00     0.042 A 
HETATM   12  C24 UNL     1      14.193  23.975   3.898  1.00  0.00     0.047 A 
HETATM   13 CL1  UNL     1      14.876  24.162   1.315  1.00  0.00    -0.084 Cl
BRANCH  10  14
HETATM   14  C3  UNL     1      17.676  24.173   2.486  1.00  0.00     0.066 C 
BRANCH  14  15
HETATM   15  C2  UNL     1      18.132  22.854   2.024  1.00  0.00    -0.032 C 
HETATM   16  C1  UNL     1      19.404  22.660   1.742  1.00  0.00     0.007 C 
ENDBRANCH  14  15
ENDBRANCH  10  14
ENDBRANCH   4   7
ENDBRANCH   1   4
BRANCH   1  17
HETATM   17  C11 UNL     1      11.446  22.534   4.674  1.00  0.00    -0.034 A 
HETATM   18  C12 UNL     1      10.857  23.698   4.241  1.00  0.00     0.019 A 
HETATM   19  C13 UNL     1      10.232  23.823   3.017  1.00  0.00    -0.020 A 
HETATM   20  C17 UNL     1      10.211  22.690   2.197  1.00  0.00     0.079 A 
HETATM   21  C18 UNL     1      10.785  21.504   2.586  1.00  0.00    -0.016 A 
HETATM   22  C23 UNL     1      11.393  21.446   3.824  1.00  0.00     0.019 A 
BRANCH  19  23
HETATM   23  C14 UNL     1       9.561  25.061   2.568  1.00  0.00     0.013 C 
HETATM   24  C15 UNL     1      10.634  26.059   2.094  1.00  0.00     0.015 C 
HETATM   25  C16 UNL     1       8.786  25.680   3.714  1.00  0.00     0.015 C 
ENDBRANCH  19  23
BRANCH  20  26
HETATM   26  O3  UNL     1       9.619  22.704   0.958  1.00  0.00    -0.360 OA
ATOM     27  H3  UNL     1       9.555  21.920   0.425  1.00  0.00     0.217 HD
ENDBRANCH  20  26
BRANCH  21  28
HETATM   28  C19 UNL     1      10.811  20.320   1.733  1.00  0.00    -0.021 C 
HETATM   29  C20 UNL     1      11.102  20.560   0.294  1.00  0.00     0.019 C 
HETATM   30  C21 UNL     1      11.794  19.326   2.287  1.00  0.00     0.019 C 
HETATM   31  C22 UNL     1       9.457  19.586   1.778  1.00  0.00     0.019 C 
ENDBRANCH  21  28
ENDBRANCH   1  17
TORSDOF 8
ENDMDL
MODEL 4
REMARK VINA RESULT: -9.698013688      0.591      3.172
REMARK  8 active torsions:
REMARK  status: ('A' for Active; 'I' for Inactive)
REMARK    1  A    between atoms: C2_2  and  C3_3 
REMARK    2  A    between atoms: C3_3  and  C4_4 
REMARK    3  A    between atoms: C7_7  and  S1_8 
REMARK    4  A    between atoms: S1_8  and  C8_11 
REMARK    5  A    between atoms: C8_11  and  C11_14 
REMARK    6  A    between atoms: C13_16  and  C14_17 
REMARK    7  A    between atoms: C17_20  and  O3_21 
REMARK    8  A    between atoms: C18_23  and  C19_24 
ROOT
HETATM    1  C8  UNL     1      12.721  22.606   6.737  1.00  0.00     0.088 C 
HETATM    2  C9  UNL     1      13.004  21.151   6.331  1.00  0.00     0.037 C 
HETATM    3  C10 UNL     1      11.423  22.592   7.507  1.00  0.00     0.037 C 
ENDROOT
BRANCH   1   4
HETATM    4  S1  UNL     1      14.014  23.109   7.854  1.00  0.00     0.187 S 
HETATM    5  O1  UNL     1      14.614  21.966   8.584  1.00  0.00    -0.221 OA
HETATM    6  O2  UNL     1      14.983  23.980   7.146  1.00  0.00    -0.221 OA
BRANCH   4   7
HETATM    7  C7  UNL     1      13.211  24.130   9.071  1.00  0.00     0.062 A 
HETATM    8  C6  UNL     1      13.488  25.484   9.051  1.00  0.00     0.024 A 
HETATM    9  C5  UNL     1      12.887  26.300   9.988  1.00  0.00     0.011 A 
HETATM   10  C4  UNL     1      12.024  25.816  10.943  1.00  0.00    -0.033 A 
HETATM   11  C25 UNL     1      11.778  24.471  10.927  1.00  0.00     0.042 A 
HETATM   12  C24 UNL     1      12.357  23.624  10.010  1.00  0.00     0.047 A 
HETATM   13 CL1  UNL     1      10.679  23.740  12.094  1.00  0.00    -0.084 Cl
BRANCH  10  14
HETATM   14  C3  UNL     1      11.374  26.690  11.958  1.00  0.00     0.066 C 
BRANCH  14  15
HETATM   15  C2  UNL     1      12.253  26.960  13.104  1.00  0.00    -0.032 C 
HETATM   16  C1  UNL     1      12.842  28.133  13.219  1.00  0.00     0.007 C 
ENDBRANCH  14  15
ENDBRANCH  10  14
ENDBRANCH   4   7
ENDBRANCH   1   4
BRANCH   1  17
HETATM   17  C11 UNL     1      12.673  23.386   5.502  1.00  0.00    -0.034 A 
HETATM   18  C12 UNL     1      11.532  23.891   4.923  1.00  0.00     0.019 A 
HETATM   19  C13 UNL     1      11.536  24.647   3.770  1.00  0.00    -0.020 A 
HETATM   20  C17 UNL     1      12.780  24.897   3.180  1.00  0.00     0.079 A 
HETATM   21  C18 UNL     1      13.947  24.413   3.720  1.00  0.00    -0.016 A 
HETATM   22  C23 UNL     1      13.872  23.662   4.875  1.00  0.00     0.019 A 
BRANCH  19  23
HETATM   23  C14 UNL     1      10.308  25.154   3.124  1.00  0.00     0.013 C 
HETATM   24  C15 UNL     1       9.352  25.669   4.216  1.00  0.00     0.015 C 
HETATM   25  C16 UNL     1       9.623  24.039   2.358  1.00  0.00     0.015 C 
ENDBRANCH  19  23
BRANCH  20  26
HETATM   26  O3  UNL     1      12.900  25.641   2.033  1.00  0.00    -0.360 OA
ATOM     27  H3  UNL     1      12.463  25.393   1.226  1.00  0.00     0.217 HD
ENDBRANCH  20  26
BRANCH  21  28
HETATM   28  C19 UNL     1      15.259  24.693   3.145  1.00  0.00    -0.021 C 
HETATM   29  C20 UNL     1      15.415  24.390   1.697  1.00  0.00     0.019 C 
HETATM   30  C21 UNL     1      15.620  26.131   3.401  1.00  0.00     0.019 C 
HETATM   31  C22 UNL     1      16.354  23.888   3.871  1.00  0.00     0.019 C 
ENDBRANCH  21  28
ENDBRANCH   1  17
TORSDOF 8
ENDMDL
MODEL 5
REMARK VINA RESULT: -9.623978793      2.052      3.909
REMARK  8 active torsions:
REMARK  status: ('A' for Active; 'I' for Inactive)
REMARK    1  A    between atoms: C2_2  and  C3_3 
REMARK    2  A    between atoms: C3_3  and  C4_4 
REMARK    3  A    between atoms: C7_7  and  S1_8 
REMARK    4  A    between atoms: S1_8  and  C8_11 
REMARK    5  A    between atoms: C8_11  and  C11_14 
REMARK    6  A    between atoms: C13_16  and  C14_17 
REMARK    7  A    between atoms: C17_20  and  O3_21 
REMARK    8  A    between atoms: C18_23  and  C19_24 
ROOT
HETATM    1  C8  UNL     1      13.879  24.744   6.494  1.00  0.00     0.088 C 
HETATM    2  C9  UNL     1      12.444  25.286   6.587  1.00  0.00     0.037 C 
HETATM    3  C10 UNL     1      14.797  25.933   6.632  1.00  0.00     0.037 C 
ENDROOT
BRANCH   1   4
HETATM    4  S1  UNL     1      14.142  23.683   7.899  1.00  0.00     0.187 S 
HETATM    5  O1  UNL     1      13.541  22.339   7.720  1.00  0.00    -0.221 OA
HETATM    6  O2  UNL     1      15.577  23.684   8.273  1.00  0.00    -0.221 OA
BRANCH   4   7
HETATM    7  C7  UNL     1      13.269  24.459   9.243  1.00  0.00     0.062 A 
HETATM    8  C6  UNL     1      13.556  25.784   9.509  1.00  0.00     0.024 A 
HETATM    9  C5  UNL     1      12.901  26.410  10.550  1.00  0.00     0.011 A 
HETATM   10  C4  UNL     1      11.974  25.764  11.334  1.00  0.00    -0.033 A 
HETATM   11  C25 UNL     1      11.720  24.454  11.037  1.00  0.00     0.042 A 
HETATM   12  C24 UNL     1      12.352  23.794  10.007  1.00  0.00     0.047 A 
HETATM   13 CL1  UNL     1      10.543  23.528  11.964  1.00  0.00    -0.084 Cl
BRANCH  10  14
HETATM   14  C3  UNL     1      11.266  26.433  12.461  1.00  0.00     0.066 C 
BRANCH  14  15
HETATM   15  C2  UNL     1      12.197  26.981  13.457  1.00  0.00    -0.032 C 
HETATM   16  C1  UNL     1      12.532  28.255  13.414  1.00  0.00     0.007 C 
ENDBRANCH  14  15
ENDBRANCH  10  14
ENDBRANCH   4   7
ENDBRANCH   1   4
BRANCH   1  17
HETATM   17  C11 UNL     1      13.986  24.056   5.208  1.00  0.00    -0.034 A 
HETATM   18  C12 UNL     1      13.015  23.261   4.648  1.00  0.00     0.019 A 
HETATM   19  C13 UNL     1      13.149  22.652   3.417  1.00  0.00    -0.020 A 
HETATM   20  C17 UNL     1      14.345  22.873   2.726  1.00  0.00     0.079 A 
HETATM   21  C18 UNL     1      15.345  23.659   3.245  1.00  0.00    -0.016 A 
HETATM   22  C23 UNL     1      15.149  24.238   4.483  1.00  0.00     0.019 A 
BRANCH  19  23
HETATM   23  C14 UNL     1      12.124  21.763   2.832  1.00  0.00     0.013 C 
HETATM   24  C15 UNL     1      10.738  22.209   3.335  1.00  0.00     0.015 C 
HETATM   25  C16 UNL     1      12.366  20.331   3.266  1.00  0.00     0.015 C 
ENDBRANCH  19  23
BRANCH  20  26
HETATM   26  O3  UNL     1      14.581  22.320   1.492  1.00  0.00    -0.360 OA
ATOM     27  H3  UNL     1      14.242  22.711   0.695  1.00  0.00     0.217 HD
ENDBRANCH  20  26
BRANCH  21  28
HETATM   28  C19 UNL     1      16.585  23.937   2.527  1.00  0.00    -0.021 C 
HETATM   29  C20 UNL     1      17.348  22.749   2.059  1.00  0.00     0.019 C 
HETATM   30  C21 UNL     1      16.295  24.841   1.361  1.00  0.00     0.019 C 
HETATM   31  C22 UNL     1      17.555  24.747   3.409  1.00  0.00     0.019 C 
ENDBRANCH  21  28
ENDBRANCH   1  17
TORSDOF 8
ENDMDL
