MODEL 1
REMARK VINA RESULT: -8.132378295      0.000      0.000
REMARK  5 active torsions:
REMARK  status: ('A' for Active; 'I' for Inactive)
REMARK    1  A    between atoms: C3_3  and  C4_4 
REMARK    2  A    between atoms: C4_4  and  C5_5 
REMARK    3  A    between atoms: C7_7  and  C8_8 
REMARK    4  A    between atoms: C13_15  and  O1_16 
REMARK    5  A    between atoms: N2_20  and  C16_21 
ROOT
HETATM    1  C1  UNL     1      -7.230   7.347  11.686  1.00  0.00     0.044 C 
HETATM    2  C2  UNL     1      -6.151   7.380  10.948  1.00  0.00     0.040 A 
HETATM    3  C3  UNL     1      -4.900   6.930  11.282  1.00  0.00    -0.007 A 
HETATM    4  C14 UNL     1      -4.100   7.193  10.156  1.00  0.00     0.031 A 
HETATM    5  C15 UNL     1      -4.892   7.772   9.226  1.00  0.00     0.098 A 
HETATM    6  N2  UNL     1      -6.123   7.886   9.700  1.00  0.00    -0.321 N 
ENDROOT
BRANCH   3   7
HETATM    7  C4  UNL     1      -4.414   6.371  12.348  1.00  0.00     0.029 C 
BRANCH   7   8
HETATM    8  C5  UNL     1      -4.615   5.044  12.892  1.00  0.00     0.018 A 
HETATM    9  C6  UNL     1      -5.086   4.658  14.152  1.00  0.00     0.046 A 
HETATM   10  C7  UNL     1      -5.084   3.287  14.257  1.00  0.00     0.054 A 
HETATM   11  N1  UNL     1      -4.621   2.825  13.086  1.00  0.00    -0.330 N 
HETATM   12  C12 UNL     1      -4.455   1.422  12.764  1.00  0.00     0.158 C 
HETATM   13  C13 UNL     1      -4.334   3.828  12.254  1.00  0.00     0.152 A 
BRANCH  10  14
HETATM   14  C8  UNL     1      -5.497   2.471  15.407  1.00  0.00     0.031 A 
HETATM   15  C9  UNL     1      -6.681   2.495  16.088  1.00  0.00     0.021 A 
HETATM   16  C10 UNL     1      -6.820   1.644  17.111  1.00  0.00     0.008 A 
HETATM   17  C11 UNL     1      -5.767   0.817  17.393  1.00  0.00     0.050 A 
HETATM   18  S1  UNL     1      -4.615   1.261  16.214  1.00  0.00    -0.100 SA
ENDBRANCH  10  14
BRANCH  13  19
HETATM   19  O1  UNL     1      -3.839   3.754  10.963  1.00  0.00    -0.345 OA
ATOM     20  H1  UNL     1      -3.437   2.970  10.609  1.00  0.00     0.219 HD
ENDBRANCH  13  19
ENDBRANCH   7   8
ENDBRANCH   3   7
BRANCH   6  21
HETATM   21  C16 UNL     1      -7.212   8.466   8.949  1.00  0.00     0.054 A 
HETATM   22  C17 UNL     1      -8.279   7.691   8.551  1.00  0.00     0.033 A 
HETATM   23  C18 UNL     1      -9.316   8.279   7.826  1.00  0.00     0.027 A 
HETATM   24  C19 UNL     1      -9.309   9.619   7.494  1.00  0.00     0.007 A 
HETATM   25  C20 UNL     1     -10.429  10.245   6.715  1.00  0.00     0.068 C 
HETATM   26  N3  UNL     1      -8.252  10.347   7.899  1.00  0.00    -0.363 N 
HETATM   27  C21 UNL     1      -8.182  11.764   7.582  1.00  0.00     0.155 C 
HETATM   28  C22 UNL     1      -7.228   9.800   8.605  1.00  0.00     0.120 A 
ENDBRANCH   6  21
TORSDOF 5
ENDMDL
MODEL 2
REMARK VINA RESULT: -7.597965911      6.032      9.524
REMARK  5 active torsions:
REMARK  status: ('A' for Active; 'I' for Inactive)
REMARK    1  A    between atoms: C3_3  and  C4_4 
REMARK    2  A    between atoms: C4_4  and  C5_5 
REMARK    3  A    between atoms: C7_7  and  C8_8 
REMARK    4  A    between atoms: C13_15  and  O1_16 
REMARK    5  A    between atoms: N2_20  and  C16_21 
ROOT
HETATM    1  C1  UNL     1      -1.539   3.872  14.333  1.00  0.00     0.044 C 
HETATM    2  C2  UNL     1      -2.199   3.751  13.210  1.00  0.00     0.040 A 
HETATM    3  C3  UNL     1      -1.813   4.184  11.968  1.00  0.00    -0.007 A 
HETATM    4  C14 UNL     1      -2.863   3.816  11.107  1.00  0.00     0.031 A 
HETATM    5  C15 UNL     1      -3.800   3.195  11.858  1.00  0.00     0.098 A 
HETATM    6  N2  UNL     1      -3.403   3.155  13.120  1.00  0.00    -0.321 N 
ENDROOT
BRANCH   3   7
HETATM    7  C4  UNL     1      -0.759   4.804  11.532  1.00  0.00     0.029 C 
BRANCH   7   8
HETATM    8  C5  UNL     1       0.116   4.506  10.417  1.00  0.00     0.018 A 
HETATM    9  C6  UNL     1       1.317   3.790  10.394  1.00  0.00     0.046 A 
HETATM   10  C7  UNL     1       1.837   3.781   9.121  1.00  0.00     0.054 A 
HETATM   11  N1  UNL     1       0.976   4.478   8.363  1.00  0.00    -0.330 N 
HETATM   12  C12 UNL     1       1.140   4.717   6.944  1.00  0.00     0.158 C 
HETATM   13  C13 UNL     1      -0.051   4.921   9.090  1.00  0.00     0.152 A 
BRANCH  10  14
HETATM   14  C8  UNL     1       3.079   3.146   8.658  1.00  0.00     0.031 A 
HETATM   15  C9  UNL     1       3.267   1.871   8.206  1.00  0.00     0.021 A 
HETATM   16  C10 UNL     1       4.507   1.526   7.838  1.00  0.00     0.008 A 
HETATM   17  C11 UNL     1       5.485   2.476   7.943  1.00  0.00     0.050 A 
HETATM   18  S1  UNL     1       4.636   3.824   8.555  1.00  0.00    -0.100 SA
ENDBRANCH  10  14
BRANCH  13  19
HETATM   19  O1  UNL     1      -1.135   5.672   8.668  1.00  0.00    -0.345 OA
ATOM     20  H1  UNL     1      -1.218   6.008   7.783  1.00  0.00     0.219 HD
ENDBRANCH  13  19
ENDBRANCH   7   8
ENDBRANCH   3   7
BRANCH   6  21
HETATM   21  C16 UNL     1      -4.183   2.556  14.178  1.00  0.00     0.054 A 
HETATM   22  C17 UNL     1      -4.030   1.224  14.491  1.00  0.00     0.033 A 
HETATM   23  C18 UNL     1      -4.797   0.672  15.518  1.00  0.00     0.027 A 
HETATM   24  C19 UNL     1      -5.707   1.422  16.235  1.00  0.00     0.007 A 
HETATM   25  C20 UNL     1      -6.529   0.822  17.340  1.00  0.00     0.068 C 
HETATM   26  N3  UNL     1      -5.832   2.720  15.904  1.00  0.00    -0.363 N 
HETATM   27  C21 UNL     1      -6.774   3.565  16.619  1.00  0.00     0.155 C 
HETATM   28  C22 UNL     1      -5.098   3.283  14.907  1.00  0.00     0.120 A 
ENDBRANCH   6  21
TORSDOF 5
ENDMDL
MODEL 3
REMARK VINA RESULT: -7.534551824      5.847      9.034
REMARK  5 active torsions:
REMARK  status: ('A' for Active; 'I' for Inactive)
REMARK    1  A    between atoms: C3_3  and  C4_4 
REMARK    2  A    between atoms: C4_4  and  C5_5 
REMARK    3  A    between atoms: C7_7  and  C8_8 
REMARK    4  A    between atoms: C13_15  and  O1_16 
REMARK    5  A    between atoms: N2_20  and  C16_21 
ROOT
HETATM    1  C1  UNL     1      -3.182   3.638  12.350  1.00  0.00     0.044 C 
HETATM    2  C2  UNL     1      -3.093   4.744  13.043  1.00  0.00     0.040 A 
HETATM    3  C3  UNL     1      -2.363   5.863  12.734  1.00  0.00    -0.007 A 
HETATM    4  C14 UNL     1      -2.603   6.761  13.790  1.00  0.00     0.031 A 
HETATM    5  C15 UNL     1      -3.443   6.151  14.655  1.00  0.00     0.098 A 
HETATM    6  N2  UNL     1      -3.739   4.940  14.208  1.00  0.00    -0.321 N 
ENDROOT
BRANCH   3   7
HETATM    7  C4  UNL     1      -1.586   6.169  11.741  1.00  0.00     0.029 C 
BRANCH   7   8
HETATM    8  C5  UNL     1      -0.274   5.671  11.383  1.00  0.00     0.018 A 
HETATM    9  C6  UNL     1       0.985   6.058  11.855  1.00  0.00     0.046 A 
HETATM   10  C7  UNL     1       1.970   5.344  11.214  1.00  0.00     0.054 A 
HETATM   11  N1  UNL     1       1.338   4.525  10.359  1.00  0.00    -0.330 N 
HETATM   12  C12 UNL     1       2.003   3.589   9.476  1.00  0.00     0.158 C 
HETATM   13  C13 UNL     1       0.015   4.688  10.429  1.00  0.00     0.152 A 
BRANCH  10  14
HETATM   14  C8  UNL     1       3.423   5.438  11.407  1.00  0.00     0.031 A 
HETATM   15  C9  UNL     1       4.170   5.026  12.475  1.00  0.00     0.021 A 
HETATM   16  C10 UNL     1       5.492   5.224  12.413  1.00  0.00     0.008 A 
HETATM   17  C11 UNL     1       5.991   5.822  11.288  1.00  0.00     0.050 A 
HETATM   18  S1  UNL     1       4.588   6.088  10.352  1.00  0.00    -0.100 SA
ENDBRANCH  10  14
BRANCH  13  19
HETATM   19  O1  UNL     1      -0.967   4.029   9.708  1.00  0.00    -0.345 OA
ATOM     20  H1  UNL     1      -0.776   3.317   9.108  1.00  0.00     0.219 HD
ENDBRANCH  13  19
ENDBRANCH   7   8
ENDBRANCH   3   7
BRANCH   6  21
HETATM   21  C16 UNL     1      -4.617   4.030  14.906  1.00  0.00     0.054 A 
HETATM   22  C17 UNL     1      -5.841   4.456  15.370  1.00  0.00     0.033 A 
HETATM   23  C18 UNL     1      -6.668   3.554  16.040  1.00  0.00     0.027 A 
HETATM   24  C19 UNL     1      -6.299   2.242  16.253  1.00  0.00     0.007 A 
HETATM   25  C20 UNL     1      -7.194   1.276  16.975  1.00  0.00     0.068 C 
HETATM   26  N3  UNL     1      -5.097   1.858  15.787  1.00  0.00    -0.363 N 
HETATM   27  C21 UNL     1      -4.646   0.489  15.978  1.00  0.00     0.155 C 
HETATM   28  C22 UNL     1      -4.270   2.716  15.131  1.00  0.00     0.120 A 
ENDBRANCH   6  21
TORSDOF 5
ENDMDL
MODEL 4
REMARK VINA RESULT: -7.481744163      2.907      8.825
REMARK  5 active torsions:
REMARK  status: ('A' for Active; 'I' for Inactive)
REMARK    1  A    between atoms: C3_3  and  C4_4 
REMARK    2  A    between atoms: C4_4  and  C5_5 
REMARK    3  A    between atoms: C7_7  and  C8_8 
REMARK    4  A    between atoms: C13_15  and  O1_16 
REMARK    5  A    between atoms: N2_20  and  C16_21 
ROOT
HETATM    1  C1  UNL     1      -4.215   3.528  11.968  1.00  0.00     0.044 C 
HETATM    2  C2  UNL     1      -3.938   4.559  12.723  1.00  0.00     0.040 A 
HETATM    3  C3  UNL     1      -3.526   5.801  12.316  1.00  0.00    -0.007 A 
HETATM    4  C14 UNL     1      -3.364   6.542  13.500  1.00  0.00     0.031 A 
HETATM    5  C15 UNL     1      -3.679   5.727  14.531  1.00  0.00     0.098 A 
HETATM    6  N2  UNL     1      -4.024   4.536  14.067  1.00  0.00    -0.321 N 
ENDROOT
BRANCH   3   7
HETATM    7  C4  UNL     1      -3.294   6.321  11.149  1.00  0.00     0.029 C 
BRANCH   7   8
HETATM    8  C5  UNL     1      -4.198   6.644  10.065  1.00  0.00     0.018 A 
HETATM    9  C6  UNL     1      -5.388   7.381  10.086  1.00  0.00     0.046 A 
HETATM   10  C7  UNL     1      -5.947   7.411   8.830  1.00  0.00     0.054 A 
HETATM   11  N1  UNL     1      -5.122   6.706   8.039  1.00  0.00    -0.330 N 
HETATM   12  C12 UNL     1      -5.335   6.483   6.624  1.00  0.00     0.158 C 
HETATM   13  C13 UNL     1      -4.081   6.238   8.729  1.00  0.00     0.152 A 
BRANCH  10  14
HETATM   14  C8  UNL     1      -7.191   8.071   8.412  1.00  0.00     0.031 A 
HETATM   15  C9  UNL     1      -8.461   7.566   8.398  1.00  0.00     0.021 A 
HETATM   16  C10 UNL     1      -9.439   8.373   7.970  1.00  0.00     0.008 A 
HETATM   17  C11 UNL     1      -9.091   9.638   7.581  1.00  0.00     0.050 A 
HETATM   18  S1  UNL     1      -7.402   9.655   7.829  1.00  0.00    -0.100 SA
ENDBRANCH  10  14
BRANCH  13  19
HETATM   19  O1  UNL     1      -3.023   5.473   8.267  1.00  0.00    -0.345 OA
ATOM     20  H1  UNL     1      -2.498   5.720   7.516  1.00  0.00     0.219 HD
ENDBRANCH  13  19
ENDBRANCH   7   8
ENDBRANCH   3   7
BRANCH   6  21
HETATM   21  C16 UNL     1      -4.418   3.437  14.917  1.00  0.00     0.054 A 
HETATM   22  C17 UNL     1      -3.503   2.476  15.287  1.00  0.00     0.033 A 
HETATM   23  C18 UNL     1      -3.913   1.426  16.109  1.00  0.00     0.027 A 
HETATM   24  C19 UNL     1      -5.210   1.317  16.566  1.00  0.00     0.007 A 
HETATM   25  C20 UNL     1      -5.644   0.184  17.451  1.00  0.00     0.068 C 
HETATM   26  N3  UNL     1      -6.078   2.272  16.185  1.00  0.00    -0.363 N 
HETATM   27  C21 UNL     1      -7.461   2.217  16.631  1.00  0.00     0.155 C 
HETATM   28  C22 UNL     1      -5.707   3.306  15.385  1.00  0.00     0.120 A 
ENDBRANCH   6  21
TORSDOF 5
ENDMDL
MODEL 5
REMARK VINA RESULT: -7.453408919      2.987      8.747
REMARK  5 active torsions:
REMARK  status: ('A' for Active; 'I' for Inactive)
REMARK    1  A    between atoms: C3_3  and  C4_4 
REMARK    2  A    between atoms: C4_4  and  C5_5 
REMARK    3  A    between atoms: C7_7  and  C8_8 
REMARK    4  A    between atoms: C13_15  and  O1_16 
REMARK    5  A    between atoms: N2_20  and  C16_21 
ROOT
HETATM    1  C1  UNL     1      -4.911   4.818  12.032  1.00  0.00     0.044 C 
HETATM    2  C2  UNL     1      -4.256   5.559  12.888  1.00  0.00     0.040 A 
HETATM    3  C3  UNL     1      -3.502   6.671  12.620  1.00  0.00    -0.007 A 
HETATM    4  C14 UNL     1      -3.014   7.095  13.869  1.00  0.00     0.031 A 
HETATM    5  C15 UNL     1      -3.488   6.237  14.799  1.00  0.00     0.098 A 
HETATM    6  N2  UNL     1      -4.234   5.314  14.212  1.00  0.00    -0.321 N 
ENDROOT
BRANCH   3   7
HETATM    7  C4  UNL     1      -3.212   7.303  11.523  1.00  0.00     0.029 C 
BRANCH   7   8
HETATM    8  C5  UNL     1      -4.024   7.590  10.359  1.00  0.00     0.018 A 
HETATM    9  C6  UNL     1      -5.273   8.215  10.275  1.00  0.00     0.046 A 
HETATM   10  C7  UNL     1      -5.697   8.249   8.967  1.00  0.00     0.054 A 
HETATM   11  N1  UNL     1      -4.731   7.658   8.248  1.00  0.00    -0.330 N 
HETATM   12  C12 UNL     1      -4.770   7.478   6.811  1.00  0.00     0.158 C 
HETATM   13  C13 UNL     1      -3.728   7.256   9.031  1.00  0.00     0.152 A 
BRANCH  10  14
HETATM   14  C8  UNL     1      -6.947   8.811   8.439  1.00  0.00     0.031 A 
HETATM   15  C9  UNL     1      -8.123   8.170   8.167  1.00  0.00     0.021 A 
HETATM   16  C10 UNL     1      -9.130   8.909   7.688  1.00  0.00     0.008 A 
HETATM   17  C11 UNL     1      -8.904  10.246   7.508  1.00  0.00     0.050 A 
HETATM   18  S1  UNL     1      -7.284  10.424   8.017  1.00  0.00    -0.100 SA
ENDBRANCH  10  14
BRANCH  13  19
HETATM   19  O1  UNL     1      -2.560   6.611   8.661  1.00  0.00    -0.345 OA
ATOM     20  H1  UNL     1      -2.253   5.817   9.084  1.00  0.00     0.219 HD
ENDBRANCH  13  19
ENDBRANCH   7   8
ENDBRANCH   3   7
BRANCH   6  21
HETATM   21  C16 UNL     1      -4.889   4.247  14.933  1.00  0.00     0.054 A 
HETATM   22  C17 UNL     1      -6.090   4.468  15.571  1.00  0.00     0.033 A 
HETATM   23  C18 UNL     1      -6.699   3.419  16.259  1.00  0.00     0.027 A 
HETATM   24  C19 UNL     1      -6.136   2.160  16.322  1.00  0.00     0.007 A 
HETATM   25  C20 UNL     1      -6.798   1.035  17.065  1.00  0.00     0.068 C 
HETATM   26  N3  UNL     1      -4.963   1.979  15.689  1.00  0.00    -0.363 N 
HETATM   27  C21 UNL     1      -4.316   0.677  15.716  1.00  0.00     0.155 C 
HETATM   28  C22 UNL     1      -4.347   2.983  15.011  1.00  0.00     0.120 A 
ENDBRANCH   6  21
TORSDOF 5
ENDMDL
