MODEL 1
REMARK VINA RESULT: -8.262354569      0.000      0.000
REMARK  4 active torsions:
REMARK  status: ('A' for Active; 'I' for Inactive)
REMARK    1  A    between atoms: N1_2  and  C3_4 
REMARK    2  A    between atoms: C6_7  and  C7_8 
REMARK       I    between atoms: C7_8  and  N2_10 
REMARK    3  A    between atoms: N2_10  and  C8_11 
REMARK    4  A    between atoms: C9_14  and  C10_15 
ROOT
HETATM    1  C8  UNL     1      -2.358   6.171  12.863  1.00  0.00     0.197 A 
HETATM    2  N3  UNL     1      -1.741   5.476  11.834  1.00  0.00    -0.316 N 
ATOM      3  H3  UNL     1      -2.252   4.723  11.374  1.00  0.00     0.170 HD
HETATM    4  C9  UNL     1      -0.516   5.753  11.428  1.00  0.00     0.118 A 
HETATM    5  N5  UNL     1       0.151   6.767  12.057  1.00  0.00    -0.341 N 
ATOM      6  H5  UNL     1       1.098   6.988  11.748  1.00  0.00     0.167 HD
HETATM    7  C15 UNL     1      -0.372   7.487  13.057  1.00  0.00     0.048 A 
HETATM    8  C16 UNL     1       0.383   8.514  13.651  1.00  0.00     0.030 A 
HETATM    9  C17 UNL     1      -0.170   9.236  14.669  1.00  0.00     0.002 A 
HETATM   10  C18 UNL     1      -1.447   8.981  15.125  1.00  0.00     0.001 A 
HETATM   11  C19 UNL     1      -2.162   7.955  14.511  1.00  0.00     0.018 A 
HETATM   12  C20 UNL     1      -1.643   7.203  13.483  1.00  0.00     0.049 A 
ENDROOT
BRANCH   1  13
HETATM   13  N2  UNL     1      -3.474   5.875  13.219  1.00  0.00    -0.347 NA
HETATM   14  C7  UNL     1      -4.701   5.424  13.335  1.00  0.00     0.328 C 
HETATM   15  O1  UNL     1      -5.687   5.731  12.567  1.00  0.00    -0.251 OA
BRANCH  14  16
HETATM   16  C6  UNL     1      -5.076   4.477  14.414  1.00  0.00     0.046 A 
HETATM   17  C5  UNL     1      -6.258   4.581  15.115  1.00  0.00     0.020 A 
HETATM   18  C4  UNL     1      -6.500   3.656  16.117  1.00  0.00     0.030 A 
HETATM   19  C3  UNL     1      -5.607   2.645  16.433  1.00  0.00     0.029 A 
HETATM   20  C22 UNL     1      -4.437   2.579  15.706  1.00  0.00     0.030 A 
HETATM   21  C21 UNL     1      -4.173   3.479  14.712  1.00  0.00     0.020 A 
BRANCH  19  22
HETATM   22  N1  UNL     1      -5.879   1.732  17.469  1.00  0.00    -0.390 N 
HETATM   23  C1  UNL     1      -6.168   2.254  18.790  1.00  0.00     0.149 C 
HETATM   24  C2  UNL     1      -5.891   0.304  17.260  1.00  0.00     0.149 C 
ENDBRANCH  19  22
ENDBRANCH  14  16
ENDBRANCH   1  13
BRANCH   4  25
HETATM   25  C10 UNL     1       0.161   5.043  10.348  1.00  0.00     0.011 A 
HETATM   26  C11 UNL     1       1.282   4.289  10.610  1.00  0.00     0.032 A 
HETATM   27  C12 UNL     1       1.938   3.604   9.578  1.00  0.00     0.088 A 
HETATM   28  N4  UNL     1       1.482   3.675   8.321  1.00  0.00    -0.375 N 
HETATM   29  C13 UNL     1       0.392   4.405   8.053  1.00  0.00     0.088 A 
ATOM     30  H4  UNL     1       1.962   3.176   7.572  1.00  0.00     0.164 HD
HETATM   31  C14 UNL     1      -0.294   5.107   9.064  1.00  0.00     0.032 A 
ENDBRANCH   4  25
TORSDOF 4
ENDMDL
MODEL 2
REMARK VINA RESULT: -8.219379675      0.993      1.600
REMARK  4 active torsions:
REMARK  status: ('A' for Active; 'I' for Inactive)
REMARK    1  A    between atoms: N1_2  and  C3_4 
REMARK    2  A    between atoms: C6_7  and  C7_8 
REMARK       I    between atoms: C7_8  and  N2_10 
REMARK    3  A    between atoms: N2_10  and  C8_11 
REMARK    4  A    between atoms: C9_14  and  C10_15 
ROOT
HETATM    1  C8  UNL     1      -1.776   5.798  12.850  1.00  0.00     0.197 A 
HETATM    2  N3  UNL     1      -0.836   5.209  12.018  1.00  0.00    -0.316 N 
ATOM      3  H3  UNL     1      -1.075   4.336  11.548  1.00  0.00     0.170 HD
HETATM    4  C9  UNL     1       0.356   5.736  11.812  1.00  0.00     0.118 A 
HETATM    5  N5  UNL     1       0.655   6.908  12.451  1.00  0.00    -0.341 N 
ATOM      6  H5  UNL     1       1.574   7.322  12.296  1.00  0.00     0.167 HD
HETATM    7  C15 UNL     1      -0.194   7.542  13.268  1.00  0.00     0.048 A 
HETATM    8  C16 UNL     1       0.192   8.744  13.887  1.00  0.00     0.030 A 
HETATM    9  C17 UNL     1      -0.690   9.374  14.716  1.00  0.00     0.002 A 
HETATM   10  C18 UNL     1      -1.946   8.859  14.959  1.00  0.00     0.001 A 
HETATM   11  C19 UNL     1      -2.292   7.666  14.329  1.00  0.00     0.018 A 
HETATM   12  C20 UNL     1      -1.434   6.998  13.486  1.00  0.00     0.049 A 
ENDROOT
BRANCH   1  13
HETATM   13  N2  UNL     1      -2.851   5.275  13.027  1.00  0.00    -0.347 NA
HETATM   14  C7  UNL     1      -3.927   4.524  13.000  1.00  0.00     0.328 C 
HETATM   15  O1  UNL     1      -4.704   4.367  11.986  1.00  0.00    -0.251 OA
BRANCH  14  16
HETATM   16  C6  UNL     1      -4.364   3.758  14.193  1.00  0.00     0.046 A 
HETATM   17  C5  UNL     1      -3.551   2.844  14.827  1.00  0.00     0.020 A 
HETATM   18  C4  UNL     1      -4.067   2.167  15.920  1.00  0.00     0.030 A 
HETATM   19  C3  UNL     1      -5.353   2.377  16.390  1.00  0.00     0.029 A 
HETATM   20  C22 UNL     1      -6.132   3.301  15.725  1.00  0.00     0.030 A 
HETATM   21  C21 UNL     1      -5.647   3.982  14.644  1.00  0.00     0.020 A 
BRANCH  19  22
HETATM   22  N1  UNL     1      -5.849   1.659  17.495  1.00  0.00    -0.390 N 
HETATM   23  C1  UNL     1      -5.903   0.214  17.411  1.00  0.00     0.149 C 
HETATM   24  C2  UNL     1      -6.293   2.310  18.704  1.00  0.00     0.149 C 
ENDBRANCH  19  22
ENDBRANCH  14  16
ENDBRANCH   1  13
BRANCH   4  25
HETATM   25  C10 UNL     1       1.367   5.143  10.943  1.00  0.00     0.011 A 
HETATM   26  C11 UNL     1       2.654   5.628  10.947  1.00  0.00     0.032 A 
HETATM   27  C12 UNL     1       3.631   5.064  10.114  1.00  0.00     0.088 A 
HETATM   28  N4  UNL     1       3.323   4.043   9.303  1.00  0.00    -0.375 N 
HETATM   29  C13 UNL     1       2.073   3.562   9.292  1.00  0.00     0.088 A 
ATOM     30  H4  UNL     1       4.035   3.635   8.699  1.00  0.00     0.164 HD
HETATM   31  C14 UNL     1       1.066   4.103  10.114  1.00  0.00     0.032 A 
ENDBRANCH   4  25
TORSDOF 4
ENDMDL
MODEL 3
REMARK VINA RESULT: -8.200337785      4.128      7.588
REMARK  4 active torsions:
REMARK  status: ('A' for Active; 'I' for Inactive)
REMARK    1  A    between atoms: N1_2  and  C3_4 
REMARK    2  A    between atoms: C6_7  and  C7_8 
REMARK       I    between atoms: C7_8  and  N2_10 
REMARK    3  A    between atoms: N2_10  and  C8_11 
REMARK    4  A    between atoms: C9_14  and  C10_15 
ROOT
HETATM    1  C8  UNL     1      -3.998   5.909  12.271  1.00  0.00     0.197 A 
HETATM    2  N3  UNL     1      -4.469   4.836  13.012  1.00  0.00    -0.316 N 
ATOM      3  H3  UNL     1      -5.023   4.120  12.542  1.00  0.00     0.170 HD
HETATM    4  C9  UNL     1      -4.228   4.708  14.303  1.00  0.00     0.118 A 
HETATM    5  N5  UNL     1      -3.482   5.678  14.913  1.00  0.00    -0.341 N 
ATOM      6  H5  UNL     1      -3.290   5.585  15.911  1.00  0.00     0.167 HD
HETATM    7  C15 UNL     1      -2.989   6.744  14.271  1.00  0.00     0.048 A 
HETATM    8  C16 UNL     1      -2.230   7.697  14.974  1.00  0.00     0.030 A 
HETATM    9  C17 UNL     1      -1.736   8.776  14.299  1.00  0.00     0.002 A 
HETATM   10  C18 UNL     1      -1.964   8.950  12.949  1.00  0.00     0.001 A 
HETATM   11  C19 UNL     1      -2.720   7.985  12.289  1.00  0.00     0.018 A 
HETATM   12  C20 UNL     1      -3.237   6.882  12.930  1.00  0.00     0.049 A 
ENDROOT
BRANCH   1  13
HETATM   13  N2  UNL     1      -4.255   6.001  11.094  1.00  0.00    -0.347 NA
HETATM   14  C7  UNL     1      -4.636   5.820   9.851  1.00  0.00     0.328 C 
HETATM   15  O1  UNL     1      -4.188   4.913   9.055  1.00  0.00    -0.251 OA
BRANCH  14  16
HETATM   16  C6  UNL     1      -5.663   6.688   9.224  1.00  0.00     0.046 A 
HETATM   17  C5  UNL     1      -6.725   7.210   9.929  1.00  0.00     0.020 A 
HETATM   18  C4  UNL     1      -7.638   7.993   9.241  1.00  0.00     0.030 A 
HETATM   19  C3  UNL     1      -7.520   8.262   7.887  1.00  0.00     0.029 A 
HETATM   20  C22 UNL     1      -6.441   7.719   7.221  1.00  0.00     0.030 A 
HETATM   21  C21 UNL     1      -5.526   6.944   7.876  1.00  0.00     0.020 A 
BRANCH  19  22
HETATM   22  N1  UNL     1      -8.476   9.048   7.217  1.00  0.00    -0.390 N 
HETATM   23  C1  UNL     1      -8.041   9.862   6.100  1.00  0.00     0.149 C 
HETATM   24  C2  UNL     1      -9.869   9.062   7.596  1.00  0.00     0.149 C 
ENDBRANCH  19  22
ENDBRANCH  14  16
ENDBRANCH   1  13
BRANCH   4  25
HETATM   25  C10 UNL     1      -4.708   3.591  15.112  1.00  0.00     0.011 A 
HETATM   26  C11 UNL     1      -3.853   2.571  15.459  1.00  0.00     0.032 A 
HETATM   27  C12 UNL     1      -4.307   1.494  16.235  1.00  0.00     0.088 A 
HETATM   28  N4  UNL     1      -5.579   1.447  16.649  1.00  0.00    -0.375 N 
HETATM   29  C13 UNL     1      -6.420   2.435  16.317  1.00  0.00     0.088 A 
ATOM     30  H4  UNL     1      -5.907   0.662  17.213  1.00  0.00     0.164 HD
HETATM   31  C14 UNL     1      -6.001   3.532  15.540  1.00  0.00     0.032 A 
ENDBRANCH   4  25
TORSDOF 4
ENDMDL
MODEL 4
REMARK VINA RESULT: -8.099432319      4.336      8.008
REMARK  4 active torsions:
REMARK  status: ('A' for Active; 'I' for Inactive)
REMARK    1  A    between atoms: N1_2  and  C3_4 
REMARK    2  A    between atoms: C6_7  and  C7_8 
REMARK       I    between atoms: C7_8  and  N2_10 
REMARK    3  A    between atoms: N2_10  and  C8_11 
REMARK    4  A    between atoms: C9_14  and  C10_15 
ROOT
HETATM    1  C8  UNL     1      -4.586   6.306  12.346  1.00  0.00     0.197 A 
HETATM    2  N3  UNL     1      -5.112   5.332  13.180  1.00  0.00    -0.316 N 
ATOM      3  H3  UNL     1      -5.969   4.855  12.899  1.00  0.00     0.170 HD
HETATM    4  C9  UNL     1      -4.546   4.999  14.325  1.00  0.00     0.118 A 
HETATM    5  N5  UNL     1      -3.397   5.650  14.682  1.00  0.00    -0.341 N 
ATOM      6  H5  UNL     1      -2.953   5.397  15.564  1.00  0.00     0.167 HD
HETATM    7  C15 UNL     1      -2.824   6.600  13.934  1.00  0.00     0.048 A 
HETATM    8  C16 UNL     1      -1.641   7.221  14.375  1.00  0.00     0.030 A 
HETATM    9  C17 UNL     1      -1.073   8.187  13.596  1.00  0.00     0.002 A 
HETATM   10  C18 UNL     1      -1.630   8.566  12.392  1.00  0.00     0.001 A 
HETATM   11  C19 UNL     1      -2.802   7.928  11.991  1.00  0.00     0.018 A 
HETATM   12  C20 UNL     1      -3.408   6.950  12.744  1.00  0.00     0.049 A 
ENDROOT
BRANCH   1  13
HETATM   13  N2  UNL     1      -5.144   6.596  11.313  1.00  0.00    -0.347 NA
HETATM   14  C7  UNL     1      -5.987   6.781  10.325  1.00  0.00     0.328 C 
HETATM   15  O1  UNL     1      -6.603   5.851   9.683  1.00  0.00    -0.251 OA
BRANCH  14  16
HETATM   16  C6  UNL     1      -6.316   8.142   9.836  1.00  0.00     0.046 A 
HETATM   17  C5  UNL     1      -5.714   9.276  10.336  1.00  0.00     0.020 A 
HETATM   18  C4  UNL     1      -6.111  10.501   9.822  1.00  0.00     0.030 A 
HETATM   19  C3  UNL     1      -7.078  10.619   8.837  1.00  0.00     0.029 A 
HETATM   20  C22 UNL     1      -7.654   9.458   8.366  1.00  0.00     0.030 A 
HETATM   21  C21 UNL     1      -7.281   8.239   8.856  1.00  0.00     0.020 A 
BRANCH  19  22
HETATM   22  N1  UNL     1      -7.468  11.881   8.351  1.00  0.00    -0.390 N 
HETATM   23  C1  UNL     1      -6.460  12.914   8.226  1.00  0.00     0.149 C 
HETATM   24  C2  UNL     1      -8.827  12.176   7.964  1.00  0.00     0.149 C 
ENDBRANCH  19  22
ENDBRANCH  14  16
ENDBRANCH   1  13
BRANCH   4  25
HETATM   25  C10 UNL     1      -5.073   3.979  15.225  1.00  0.00     0.011 A 
HETATM   26  C11 UNL     1      -4.338   2.848  15.496  1.00  0.00     0.032 A 
HETATM   27  C12 UNL     1      -4.837   1.862  16.359  1.00  0.00     0.088 A 
HETATM   28  N4  UNL     1      -6.039   2.010  16.932  1.00  0.00    -0.375 N 
HETATM   29  C13 UNL     1      -6.763   3.107  16.677  1.00  0.00     0.088 A 
ATOM     30  H4  UNL     1      -6.400   1.292  17.560  1.00  0.00     0.164 HD
HETATM   31  C14 UNL     1      -6.295   4.118  15.815  1.00  0.00     0.032 A 
ENDBRANCH   4  25
TORSDOF 4
ENDMDL
MODEL 5
REMARK VINA RESULT: -8.044308975      1.762      4.669
REMARK  4 active torsions:
REMARK  status: ('A' for Active; 'I' for Inactive)
REMARK    1  A    between atoms: N1_2  and  C3_4 
REMARK    2  A    between atoms: C6_7  and  C7_8 
REMARK       I    between atoms: C7_8  and  N2_10 
REMARK    3  A    between atoms: N2_10  and  C8_11 
REMARK    4  A    between atoms: C9_14  and  C10_15 
ROOT
HETATM    1  C8  UNL     1      -2.391   6.603  13.420  1.00  0.00     0.197 A 
HETATM    2  N3  UNL     1      -2.082   7.875  13.876  1.00  0.00    -0.316 N 
ATOM      3  H3  UNL     1      -2.794   8.402  14.381  1.00  0.00     0.170 HD
HETATM    4  C9  UNL     1      -0.900   8.429  13.681  1.00  0.00     0.118 A 
HETATM    5  N5  UNL     1       0.041   7.704  13.002  1.00  0.00    -0.341 N 
ATOM      6  H5  UNL     1       0.957   8.126  12.849  1.00  0.00     0.167 HD
HETATM    7  C15 UNL     1      -0.176   6.471  12.530  1.00  0.00     0.048 A 
HETATM    8  C16 UNL     1       0.847   5.793  11.842  1.00  0.00     0.030 A 
HETATM    9  C17 UNL     1       0.604   4.536  11.370  1.00  0.00     0.002 A 
HETATM   10  C18 UNL     1      -0.616   3.919  11.551  1.00  0.00     0.001 A 
HETATM   11  C19 UNL     1      -1.603   4.623  12.237  1.00  0.00     0.018 A 
HETATM   12  C20 UNL     1      -1.402   5.891  12.730  1.00  0.00     0.049 A 
ENDROOT
BRANCH   1  13
HETATM   13  N2  UNL     1      -3.491   6.137  13.602  1.00  0.00    -0.347 NA
HETATM   14  C7  UNL     1      -4.634   5.496  13.536  1.00  0.00     0.328 C 
HETATM   15  O1  UNL     1      -5.516   5.632  12.609  1.00  0.00    -0.251 OA
BRANCH  14  16
HETATM   16  C6  UNL     1      -5.031   4.515  14.576  1.00  0.00     0.046 A 
HETATM   17  C5  UNL     1      -6.231   4.589  15.249  1.00  0.00     0.020 A 
HETATM   18  C4  UNL     1      -6.492   3.632  16.216  1.00  0.00     0.030 A 
HETATM   19  C3  UNL     1      -5.599   2.619  16.525  1.00  0.00     0.029 A 
HETATM   20  C22 UNL     1      -4.410   2.583  15.827  1.00  0.00     0.030 A 
HETATM   21  C21 UNL     1      -4.128   3.514  14.868  1.00  0.00     0.020 A 
BRANCH  19  22
HETATM   22  N1  UNL     1      -5.891   1.673  17.526  1.00  0.00    -0.390 N 
HETATM   23  C1  UNL     1      -6.231   2.153  18.850  1.00  0.00     0.149 C 
HETATM   24  C2  UNL     1      -5.874   0.252  17.276  1.00  0.00     0.149 C 
ENDBRANCH  19  22
ENDBRANCH  14  16
ENDBRANCH   1  13
BRANCH   4  25
HETATM   25  C10 UNL     1      -0.542   9.764  14.148  1.00  0.00     0.011 A 
HETATM   26  C11 UNL     1      -1.211  10.868  13.672  1.00  0.00     0.032 A 
HETATM   27  C12 UNL     1      -0.873  12.154  14.116  1.00  0.00     0.088 A 
HETATM   28  N4  UNL     1       0.108  12.324  15.012  1.00  0.00    -0.375 N 
HETATM   29  C13 UNL     1       0.766  11.258  15.484  1.00  0.00     0.088 A 
ATOM     30  H4  UNL     1       0.352  13.261  15.334  1.00  0.00     0.164 HD
HETATM   31  C14 UNL     1       0.454   9.951  15.061  1.00  0.00     0.032 A 
ENDBRANCH   4  25
TORSDOF 4
ENDMDL
