MODEL 1
REMARK VINA RESULT: -8.381209577      0.000      0.000
REMARK  7 active torsions:
REMARK  status: ('A' for Active; 'I' for Inactive)
REMARK    1  A    between atoms: O1_1  and  C1_3 
REMARK    2  A    between atoms: C1_3  and  C2_4 
REMARK    3  A    between atoms: C1_3  and  N1_10 
REMARK    4  A    between atoms: N2_13  and  C10_14 
REMARK    5  A    between atoms: C10_14  and  C11_19 
REMARK    6  A    between atoms: N3_15  and  O2_17 
REMARK    7  A    between atoms: N4_22  and  C14_23 
ROOT
HETATM    1  C10 UNL     1      -3.009   4.899  11.501  1.00  0.00     0.135 C 
HETATM    2  N3  UNL     1      -1.797   5.343  11.358  1.00  0.00    -0.252 N 
ATOM      3  H3  UNL     1      -1.023   4.724  11.598  1.00  0.00     0.196 HD
ENDROOT
BRANCH   1   4
HETATM    4  N2  UNL     1      -3.143   3.555  11.992  1.00  0.00    -0.362 N 
HETATM    5  C9  UNL     1      -4.363   2.803  11.779  1.00  0.00     0.144 C 
HETATM    6  C8  UNL     1      -4.231   1.476  12.488  1.00  0.00     0.145 C 
HETATM    7  N1  UNL     1      -3.856   1.732  13.917  1.00  0.00    -0.358 N 
HETATM    8  C22 UNL     1      -2.672   2.515  14.095  1.00  0.00     0.145 C 
HETATM    9  C21 UNL     1      -2.071   2.903  12.716  1.00  0.00     0.144 C 
BRANCH   7  10
HETATM   10  C1  UNL     1      -4.664   1.200  14.906  1.00  0.00     0.148 C 
BRANCH  10  11
HETATM   11  O1  UNL     1      -4.782  -0.109  14.821  1.00  0.00    -0.346 OA
ATOM     12  H1  UNL     1      -5.522  -0.432  14.322  1.00  0.00     0.219 HD
ENDBRANCH  10  11
BRANCH  10  13
HETATM   13  C2  UNL     1      -5.374   1.833  15.980  1.00  0.00     0.015 A 
HETATM   14  C3  UNL     1      -5.476   1.409  17.255  1.00  0.00     0.016 A 
HETATM   15  C4  UNL     1      -6.194   2.080  18.266  1.00  0.00     0.001 A 
HETATM   16  C5  UNL     1      -6.834   3.243  17.933  1.00  0.00     0.000 A 
HETATM   17  C6  UNL     1      -6.751   3.704  16.641  1.00  0.00     0.001 A 
HETATM   18  C7  UNL     1      -6.053   3.047  15.670  1.00  0.00     0.016 A 
ENDBRANCH  10  13
ENDBRANCH   7  10
ENDBRANCH   1   4
BRANCH   1  19
HETATM   19  C11 UNL     1      -4.174   5.716  11.182  1.00  0.00     0.027 A 
HETATM   20  C12 UNL     1      -5.048   6.260  12.108  1.00  0.00     0.034 A 
HETATM   21  C13 UNL     1      -6.023   6.970  11.414  1.00  0.00     0.097 A 
HETATM   22  N4  UNL     1      -5.755   6.864  10.099  1.00  0.00    -0.332 N 
HETATM   23  C20 UNL     1      -4.645   6.112   9.949  1.00  0.00     0.112 A 
BRANCH  22  24
HETATM   24  C14 UNL     1      -6.567   7.481   9.100  1.00  0.00     0.038 A 
HETATM   25  C15 UNL     1      -6.031   8.007   7.941  1.00  0.00     0.030 A 
HETATM   26  C16 UNL     1      -6.846   8.596   6.996  1.00  0.00     0.002 A 
HETATM   27  C17 UNL     1      -8.213   8.679   7.174  1.00  0.00     0.000 A 
HETATM   28  C18 UNL     1      -8.763   8.163   8.315  1.00  0.00     0.002 A 
HETATM   29  C19 UNL     1      -7.943   7.579   9.249  1.00  0.00     0.030 A 
ENDBRANCH  22  24
ENDBRANCH   1  19
BRANCH   2  30
HETATM   30  O2  UNL     1      -1.507   6.587  10.907  1.00  0.00    -0.288 OA
ATOM     31  H2  UNL     1      -0.869   6.761  10.224  1.00  0.00     0.244 HD
ENDBRANCH   2  30
TORSDOF 7
ENDMDL
MODEL 2
REMARK VINA RESULT: -8.334339371      0.810      1.167
REMARK  7 active torsions:
REMARK  status: ('A' for Active; 'I' for Inactive)
REMARK    1  A    between atoms: O1_1  and  C1_3 
REMARK    2  A    between atoms: C1_3  and  C2_4 
REMARK    3  A    between atoms: C1_3  and  N1_10 
REMARK    4  A    between atoms: N2_13  and  C10_14 
REMARK    5  A    between atoms: C10_14  and  C11_19 
REMARK    6  A    between atoms: N3_15  and  O2_17 
REMARK    7  A    between atoms: N4_22  and  C14_23 
ROOT
HETATM    1  C10 UNL     1      -3.299   5.225  11.539  1.00  0.00     0.135 C 
HETATM    2  N3  UNL     1      -2.633   5.996  12.344  1.00  0.00    -0.252 N 
ATOM      3  H3  UNL     1      -2.183   5.574  13.156  1.00  0.00     0.196 HD
ENDROOT
BRANCH   1   4
HETATM    4  N2  UNL     1      -3.338   3.829  11.877  1.00  0.00    -0.362 N 
HETATM    5  C9  UNL     1      -4.544   3.050  11.683  1.00  0.00     0.144 C 
HETATM    6  C8  UNL     1      -4.300   1.658  12.217  1.00  0.00     0.145 C 
HETATM    7  N1  UNL     1      -3.806   1.766  13.628  1.00  0.00    -0.358 N 
HETATM    8  C22 UNL     1      -2.641   2.580  13.795  1.00  0.00     0.145 C 
HETATM    9  C21 UNL     1      -2.182   3.150  12.425  1.00  0.00     0.144 C 
BRANCH   7  10
HETATM   10  C1  UNL     1      -4.501   1.088  14.613  1.00  0.00     0.148 C 
BRANCH  10  11
HETATM   11  O1  UNL     1      -4.494  -0.217  14.437  1.00  0.00    -0.346 OA
ATOM     12  H1  UNL     1      -3.726  -0.579  14.011  1.00  0.00     0.219 HD
ENDBRANCH  10  11
BRANCH  10  13
HETATM   13  C2  UNL     1      -5.209   1.569  15.765  1.00  0.00     0.015 A 
HETATM   14  C3  UNL     1      -5.233   1.024  16.997  1.00  0.00     0.016 A 
HETATM   15  C4  UNL     1      -5.954   1.548  18.089  1.00  0.00     0.001 A 
HETATM   16  C5  UNL     1      -6.681   2.690  17.889  1.00  0.00     0.000 A 
HETATM   17  C6  UNL     1      -6.679   3.272  16.644  1.00  0.00     0.001 A 
HETATM   18  C7  UNL     1      -5.977   2.757  15.593  1.00  0.00     0.016 A 
ENDBRANCH  10  13
ENDBRANCH   7  10
ENDBRANCH   1   4
BRANCH   1  19
HETATM   19  C11 UNL     1      -3.972   5.743  10.353  1.00  0.00     0.027 A 
HETATM   20  C12 UNL     1      -3.525   5.596   9.051  1.00  0.00     0.034 A 
HETATM   21  C13 UNL     1      -4.437   6.225   8.209  1.00  0.00     0.097 A 
HETATM   22  N4  UNL     1      -5.416   6.744   8.973  1.00  0.00    -0.332 N 
HETATM   23  C20 UNL     1      -5.145   6.459  10.264  1.00  0.00     0.112 A 
BRANCH  22  24
HETATM   24  C14 UNL     1      -6.520   7.462   8.421  1.00  0.00     0.038 A 
HETATM   25  C15 UNL     1      -6.359   8.388   7.410  1.00  0.00     0.030 A 
HETATM   26  C16 UNL     1      -7.448   9.064   6.899  1.00  0.00     0.002 A 
HETATM   27  C17 UNL     1      -8.725   8.840   7.377  1.00  0.00     0.000 A 
HETATM   28  C18 UNL     1      -8.904   7.926   8.379  1.00  0.00     0.002 A 
HETATM   29  C19 UNL     1      -7.814   7.260   8.880  1.00  0.00     0.030 A 
ENDBRANCH  22  24
ENDBRANCH   1  19
BRANCH   2  30
HETATM   30  O2  UNL     1      -2.504   7.332  12.161  1.00  0.00    -0.288 OA
ATOM     31  H2  UNL     1      -1.857   7.862  12.612  1.00  0.00     0.244 HD
ENDBRANCH   2  30
TORSDOF 7
ENDMDL
MODEL 3
REMARK VINA RESULT: -8.327915050      3.284      4.946
REMARK  7 active torsions:
REMARK  status: ('A' for Active; 'I' for Inactive)
REMARK    1  A    between atoms: O1_1  and  C1_3 
REMARK    2  A    between atoms: C1_3  and  C2_4 
REMARK    3  A    between atoms: C1_3  and  N1_10 
REMARK    4  A    between atoms: N2_13  and  C10_14 
REMARK    5  A    between atoms: C10_14  and  C11_19 
REMARK    6  A    between atoms: N3_15  and  O2_17 
REMARK    7  A    between atoms: N4_22  and  C14_23 
ROOT
HETATM    1  C10 UNL     1      -3.531   4.296  11.271  1.00  0.00     0.135 C 
HETATM    2  N3  UNL     1      -4.492   4.496  10.421  1.00  0.00    -0.252 N 
ATOM      3  H3  UNL     1      -5.162   3.743  10.262  1.00  0.00     0.196 HD
ENDROOT
BRANCH   1   4
HETATM    4  N2  UNL     1      -3.505   3.013  11.917  1.00  0.00    -0.362 N 
HETATM    5  C9  UNL     1      -4.637   2.114  11.832  1.00  0.00     0.144 C 
HETATM    6  C8  UNL     1      -4.344   0.901  12.684  1.00  0.00     0.145 C 
HETATM    7  N1  UNL     1      -3.970   1.362  14.060  1.00  0.00    -0.358 N 
HETATM    8  C22 UNL     1      -2.878   2.285  14.108  1.00  0.00     0.145 C 
HETATM    9  C21 UNL     1      -2.352   2.570  12.674  1.00  0.00     0.144 C 
BRANCH   7  10
HETATM   10  C1  UNL     1      -4.693   0.865  15.130  1.00  0.00     0.148 C 
BRANCH  10  11
HETATM   11  O1  UNL     1      -4.729  -0.451  15.157  1.00  0.00    -0.346 OA
ATOM     12  H1  UNL     1      -4.906  -0.849  16.000  1.00  0.00     0.219 HD
ENDBRANCH  10  11
BRANCH  10  13
HETATM   13  C2  UNL     1      -5.391   1.540  16.186  1.00  0.00     0.015 A 
HETATM   14  C3  UNL     1      -5.495   1.158  17.474  1.00  0.00     0.016 A 
HETATM   15  C4  UNL     1      -6.201   1.869  18.466  1.00  0.00     0.001 A 
HETATM   16  C5  UNL     1      -6.827   3.029  18.099  1.00  0.00     0.000 A 
HETATM   17  C6  UNL     1      -6.742   3.449  16.793  1.00  0.00     0.001 A 
HETATM   18  C7  UNL     1      -6.056   2.753  15.841  1.00  0.00     0.016 A 
ENDBRANCH  10  13
ENDBRANCH   7  10
ENDBRANCH   1   4
BRANCH   1  19
HETATM   19  C11 UNL     1      -2.531   5.317  11.560  1.00  0.00     0.027 A 
HETATM   20  C12 UNL     1      -1.507   5.697  10.709  1.00  0.00     0.034 A 
HETATM   21  C13 UNL     1      -0.770   6.694  11.341  1.00  0.00     0.097 A 
HETATM   22  N4  UNL     1      -1.325   6.919  12.546  1.00  0.00    -0.332 N 
HETATM   23  C20 UNL     1      -2.385   6.097  12.687  1.00  0.00     0.112 A 
BRANCH  22  24
HETATM   24  C14 UNL     1      -0.810   7.889  13.459  1.00  0.00     0.038 A 
HETATM   25  C15 UNL     1      -1.404   8.134  14.681  1.00  0.00     0.030 A 
HETATM   26  C16 UNL     1      -0.879   9.079  15.539  1.00  0.00     0.002 A 
HETATM   27  C17 UNL     1       0.248   9.806  15.207  1.00  0.00     0.000 A 
HETATM   28  C18 UNL     1       0.850   9.578  14.001  1.00  0.00     0.002 A 
HETATM   29  C19 UNL     1       0.319   8.636  13.155  1.00  0.00     0.030 A 
ENDBRANCH  22  24
ENDBRANCH   1  19
BRANCH   2  30
HETATM   30  O2  UNL     1      -4.652   5.652   9.733  1.00  0.00    -0.288 OA
ATOM     31  H2  UNL     1      -4.017   5.980   9.106  1.00  0.00     0.244 HD
ENDBRANCH   2  30
TORSDOF 7
ENDMDL
MODEL 4
REMARK VINA RESULT: -8.138889823      3.291      5.113
REMARK  7 active torsions:
REMARK  status: ('A' for Active; 'I' for Inactive)
REMARK    1  A    between atoms: O1_1  and  C1_3 
REMARK    2  A    between atoms: C1_3  and  C2_4 
REMARK    3  A    between atoms: C1_3  and  N1_10 
REMARK    4  A    between atoms: N2_13  and  C10_14 
REMARK    5  A    between atoms: C10_14  and  C11_19 
REMARK    6  A    between atoms: N3_15  and  O2_17 
REMARK    7  A    between atoms: N4_22  and  C14_23 
ROOT
HETATM    1  C10 UNL     1      -3.200   4.884  11.756  1.00  0.00     0.135 C 
HETATM    2  N3  UNL     1      -3.616   5.151  10.555  1.00  0.00    -0.252 N 
ATOM      3  H3  UNL     1      -3.955   4.381   9.978  1.00  0.00     0.196 HD
ENDROOT
BRANCH   1   4
HETATM    4  N2  UNL     1      -3.258   3.507  12.161  1.00  0.00    -0.362 N 
HETATM    5  C9  UNL     1      -4.460   2.723  11.965  1.00  0.00     0.144 C 
HETATM    6  C8  UNL     1      -4.241   1.359  12.575  1.00  0.00     0.145 C 
HETATM    7  N1  UNL     1      -3.794   1.535  13.994  1.00  0.00    -0.358 N 
HETATM    8  C22 UNL     1      -2.631   2.352  14.160  1.00  0.00     0.145 C 
HETATM    9  C21 UNL     1      -2.123   2.852  12.780  1.00  0.00     0.144 C 
BRANCH   7  10
HETATM   10  C1  UNL     1      -4.524   0.907  14.988  1.00  0.00     0.148 C 
BRANCH  10  11
HETATM   11  O1  UNL     1      -4.536  -0.404  14.863  1.00  0.00    -0.346 OA
ATOM     12  H1  UNL     1      -4.808  -0.742  14.019  1.00  0.00     0.219 HD
ENDBRANCH  10  11
BRANCH  10  13
HETATM   13  C2  UNL     1      -5.251   1.446  16.102  1.00  0.00     0.015 A 
HETATM   14  C3  UNL     1      -5.299   0.962  17.359  1.00  0.00     0.016 A 
HETATM   15  C4  UNL     1      -6.037   1.540  18.411  1.00  0.00     0.001 A 
HETATM   16  C5  UNL     1      -6.757   2.673  18.142  1.00  0.00     0.000 A 
HETATM   17  C6  UNL     1      -6.731   3.194  16.870  1.00  0.00     0.001 A 
HETATM   18  C7  UNL     1      -6.012   2.626  15.858  1.00  0.00     0.016 A 
ENDBRANCH  10  13
ENDBRANCH   7  10
ENDBRANCH   1   4
BRANCH   1  19
HETATM   19  C11 UNL     1      -2.701   5.923  12.649  1.00  0.00     0.027 A 
HETATM   20  C12 UNL     1      -3.373   6.421  13.753  1.00  0.00     0.034 A 
HETATM   21  C13 UNL     1      -2.571   7.393  14.342  1.00  0.00     0.097 A 
HETATM   22  N4  UNL     1      -1.439   7.490  13.621  1.00  0.00    -0.332 N 
HETATM   23  C20 UNL     1      -1.507   6.610  12.600  1.00  0.00     0.112 A 
BRANCH  22  24
HETATM   24  C14 UNL     1      -0.393   8.402  13.955  1.00  0.00     0.038 A 
HETATM   25  C15 UNL     1       0.751   8.518  13.191  1.00  0.00     0.030 A 
HETATM   26  C16 UNL     1       1.743   9.410  13.544  1.00  0.00     0.002 A 
HETATM   27  C17 UNL     1       1.627  10.212  14.663  1.00  0.00     0.000 A 
HETATM   28  C18 UNL     1       0.500  10.112  15.432  1.00  0.00     0.002 A 
HETATM   29  C19 UNL     1      -0.479   9.221  15.073  1.00  0.00     0.030 A 
ENDBRANCH  22  24
ENDBRANCH   1  19
BRANCH   2  30
HETATM   30  O2  UNL     1      -3.625   6.399  10.028  1.00  0.00    -0.288 OA
ATOM     31  H2  UNL     1      -3.672   6.574   9.096  1.00  0.00     0.244 HD
ENDBRANCH   2  30
TORSDOF 7
ENDMDL
MODEL 5
REMARK VINA RESULT: -8.082466346      1.792      8.217
REMARK  7 active torsions:
REMARK  status: ('A' for Active; 'I' for Inactive)
REMARK    1  A    between atoms: O1_1  and  C1_3 
REMARK    2  A    between atoms: C1_3  and  C2_4 
REMARK    3  A    between atoms: C1_3  and  N1_10 
REMARK    4  A    between atoms: N2_13  and  C10_14 
REMARK    5  A    between atoms: C10_14  and  C11_19 
REMARK    6  A    between atoms: N3_15  and  O2_17 
REMARK    7  A    between atoms: N4_22  and  C14_23 
ROOT
HETATM    1  C10 UNL     1      -2.780   4.569  11.155  1.00  0.00     0.135 C 
HETATM    2  N3  UNL     1      -1.505   4.358  11.028  1.00  0.00    -0.252 N 
ATOM      3  H3  UNL     1      -0.975   4.962  10.400  1.00  0.00     0.196 HD
ENDROOT
BRANCH   1   4
HETATM    4  N2  UNL     1      -3.329   5.651  10.386  1.00  0.00    -0.362 N 
HETATM    5  C9  UNL     1      -4.616   6.225  10.721  1.00  0.00     0.144 C 
HETATM    6  C8  UNL     1      -4.956   7.266   9.680  1.00  0.00     0.145 C 
HETATM    7  N1  UNL     1      -4.847   6.639   8.323  1.00  0.00    -0.358 N 
HETATM    8  C22 UNL     1      -3.580   6.041   8.038  1.00  0.00     0.145 C 
HETATM    9  C21 UNL     1      -2.621   6.207   9.250  1.00  0.00     0.144 C 
BRANCH   7  10
HETATM   10  C1  UNL     1      -5.951   6.697   7.491  1.00  0.00     0.148 C 
BRANCH  10  11
HETATM   11  O1  UNL     1      -5.867   5.867   6.472  1.00  0.00    -0.346 OA
ATOM     12  H1  UNL     1      -6.024   4.951   6.663  1.00  0.00     0.219 HD
ENDBRANCH  10  11
BRANCH  10  13
HETATM   13  C2  UNL     1      -7.140   7.497   7.561  1.00  0.00     0.015 A 
HETATM   14  C3  UNL     1      -8.272   7.223   8.238  1.00  0.00     0.016 A 
HETATM   15  C4  UNL     1      -9.411   8.053   8.264  1.00  0.00     0.001 A 
HETATM   16  C5  UNL     1      -9.367   9.223   7.554  1.00  0.00     0.000 A 
HETATM   17  C6  UNL     1      -8.227   9.534   6.852  1.00  0.00     0.001 A 
HETATM   18  C7  UNL     1      -7.130   8.722   6.834  1.00  0.00     0.016 A 
ENDBRANCH  10  13
ENDBRANCH   7  10
ENDBRANCH   1   4
BRANCH   1  19
HETATM   19  C11 UNL     1      -3.614   3.754  12.031  1.00  0.00     0.027 A 
HETATM   20  C12 UNL     1      -4.286   2.604  11.653  1.00  0.00     0.034 A 
HETATM   21  C13 UNL     1      -4.967   2.118  12.766  1.00  0.00     0.097 A 
HETATM   22  N4  UNL     1      -4.719   2.947  13.797  1.00  0.00    -0.332 N 
HETATM   23  C20 UNL     1      -3.907   3.934  13.365  1.00  0.00     0.112 A 
BRANCH  22  24
HETATM   24  C14 UNL     1      -5.270   2.738  15.098  1.00  0.00     0.038 A 
HETATM   25  C15 UNL     1      -4.928   1.646  15.871  1.00  0.00     0.030 A 
HETATM   26  C16 UNL     1      -5.479   1.474  17.124  1.00  0.00     0.002 A 
HETATM   27  C17 UNL     1      -6.383   2.379  17.644  1.00  0.00     0.000 A 
HETATM   28  C18 UNL     1      -6.734   3.468  16.893  1.00  0.00     0.002 A 
HETATM   29  C19 UNL     1      -6.180   3.628  15.648  1.00  0.00     0.030 A 
ENDBRANCH  22  24
ENDBRANCH   1  19
BRANCH   2  30
HETATM   30  O2  UNL     1      -0.841   3.377  11.686  1.00  0.00    -0.288 OA
ATOM     31  H2  UNL     1      -1.164   2.969  12.481  1.00  0.00     0.244 HD
ENDBRANCH   2  30
TORSDOF 7
ENDMDL
