MODEL 1
REMARK VINA RESULT: -6.274867315      0.000      0.000
REMARK  9 active torsions:
REMARK  status: ('A' for Active; 'I' for Inactive)
REMARK    1  A    between atoms: O1_2  and  C2_3 
REMARK    2  A    between atoms: C5_6  and  C6_7 
REMARK    3  A    between atoms: C6_7  and  O2_8 
REMARK    4  A    between atoms: C6_7  and  N1_10 
REMARK    5  A    between atoms: N1_10  and  N2_11 
REMARK    6  A    between atoms: N1_10  and  C12_20 
REMARK    7  A    between atoms: N2_11  and  C7_13 
REMARK    8  A    between atoms: C7_13  and  C8_15 
REMARK    9  A    between atoms: C12_20  and  N3_22 
ROOT
HETATM    1  N1  UNL     1      -1.961   4.581  12.902  1.00  0.00    -0.205 N 
ENDROOT
BRANCH   1   2
HETATM    2  C6  UNL     1      -2.149   3.928  14.111  1.00  0.00     0.174 C 
BRANCH   2   3
HETATM    3  C5  UNL     1      -3.312   3.504  14.850  1.00  0.00     0.017 A 
HETATM    4  C4  UNL     1      -3.383   2.331  15.547  1.00  0.00     0.018 A 
HETATM    5  C3  UNL     1      -4.559   1.924  16.184  1.00  0.00     0.037 A 
HETATM    6  C2  UNL     1      -5.685   2.708  16.123  1.00  0.00     0.068 A 
HETATM    7  C16 UNL     1      -5.659   3.910  15.428  1.00  0.00     0.037 A 
HETATM    8  C15 UNL     1      -4.485   4.264  14.820  1.00  0.00     0.018 A 
BRANCH   6   9
HETATM    9  O1  UNL     1      -6.889   2.377  16.725  1.00  0.00    -0.356 OA
HETATM   10  C1  UNL     1      -7.251   1.028  17.009  1.00  0.00     0.210 C 
ENDBRANCH   6   9
ENDBRANCH   2   3
BRANCH   2  11
HETATM   11  O2  UNL     1      -1.026   3.605  14.750  1.00  0.00    -0.344 OA
ATOM     12  H2  UNL     1      -0.262   3.933  14.291  1.00  0.00     0.219 HD
ENDBRANCH   2  11
ENDBRANCH   1   2
BRANCH   1  13
HETATM   13  N2  UNL     1      -2.296   3.803  11.716  1.00  0.00    -0.278 N 
ATOM     14  H2  UNL     1      -1.599   3.247  11.222  1.00  0.00     0.188 HD
BRANCH  13  15
HETATM   15  C7  UNL     1      -3.634   3.863  11.294  1.00  0.00     0.133 C 
HETATM   16  S1  UNL     1      -4.593   2.547  11.226  1.00  0.00    -0.058 SA
BRANCH  15  17
HETATM   17  C8  UNL     1      -4.198   5.176  10.894  1.00  0.00     0.044 A 
HETATM   18  C9  UNL     1      -4.980   6.007  11.657  1.00  0.00     0.022 A 
HETATM   19  C10 UNL     1      -5.385   7.160  11.085  1.00  0.00     0.009 A 
HETATM   20  C11 UNL     1      -4.985   7.398   9.803  1.00  0.00     0.050 A 
HETATM   21  S2  UNL     1      -4.058   6.020   9.424  1.00  0.00    -0.099 SA
ENDBRANCH  15  17
ENDBRANCH  13  15
ENDBRANCH   1  13
BRANCH   1  22
HETATM   22  C12 UNL     1      -1.237   5.774  12.683  1.00  0.00     0.197 C 
HETATM   23  S3  UNL     1       0.332   5.768  12.097  1.00  0.00    -0.039 SA
BRANCH  22  24
HETATM   24  N3  UNL     1      -1.695   7.083  12.981  1.00  0.00    -0.365 N 
HETATM   25  C13 UNL     1      -2.057   7.484  14.295  1.00  0.00     0.151 C 
HETATM   26  C14 UNL     1      -1.811   8.061  11.916  1.00  0.00     0.151 C 
ENDBRANCH  22  24
ENDBRANCH   1  22
TORSDOF 9
ENDMDL
MODEL 2
REMARK VINA RESULT: -6.201103302      0.951      1.196
REMARK  9 active torsions:
REMARK  status: ('A' for Active; 'I' for Inactive)
REMARK    1  A    between atoms: O1_2  and  C2_3 
REMARK    2  A    between atoms: C5_6  and  C6_7 
REMARK    3  A    between atoms: C6_7  and  O2_8 
REMARK    4  A    between atoms: C6_7  and  N1_10 
REMARK    5  A    between atoms: N1_10  and  N2_11 
REMARK    6  A    between atoms: N1_10  and  C12_20 
REMARK    7  A    between atoms: N2_11  and  C7_13 
REMARK    8  A    between atoms: C7_13  and  C8_15 
REMARK    9  A    between atoms: C12_20  and  N3_22 
ROOT
HETATM    1  N1  UNL     1      -1.963   4.710  13.025  1.00  0.00    -0.205 N 
ENDROOT
BRANCH   1   2
HETATM    2  C6  UNL     1      -2.167   3.974  14.183  1.00  0.00     0.174 C 
BRANCH   2   3
HETATM    3  C5  UNL     1      -3.340   3.537  14.899  1.00  0.00     0.017 A 
HETATM    4  C4  UNL     1      -3.415   2.359  15.586  1.00  0.00     0.018 A 
HETATM    5  C3  UNL     1      -4.600   1.940  16.200  1.00  0.00     0.037 A 
HETATM    6  C2  UNL     1      -5.729   2.717  16.125  1.00  0.00     0.068 A 
HETATM    7  C16 UNL     1      -5.699   3.924  15.439  1.00  0.00     0.037 A 
HETATM    8  C15 UNL     1      -4.517   4.290  14.854  1.00  0.00     0.018 A 
BRANCH   6   9
HETATM    9  O1  UNL     1      -6.942   2.375  16.704  1.00  0.00    -0.356 OA
HETATM   10  C1  UNL     1      -7.287   1.024  16.999  1.00  0.00     0.210 C 
ENDBRANCH   6   9
ENDBRANCH   2   3
BRANCH   2  11
HETATM   11  O2  UNL     1      -1.053   3.562  14.785  1.00  0.00    -0.344 OA
ATOM     12  H2  UNL     1      -0.284   3.781  14.273  1.00  0.00     0.219 HD
ENDBRANCH   2  11
ENDBRANCH   1   2
BRANCH   1  13
HETATM   13  N2  UNL     1      -2.231   4.000  11.782  1.00  0.00    -0.278 N 
ATOM     14  H2  UNL     1      -1.493   3.526  11.262  1.00  0.00     0.188 HD
BRANCH  13  15
HETATM   15  C7  UNL     1      -3.563   4.004  11.340  1.00  0.00     0.133 C 
HETATM   16  S1  UNL     1      -4.472   2.653  11.277  1.00  0.00    -0.058 SA
BRANCH  15  17
HETATM   17  C8  UNL     1      -4.170   5.291  10.914  1.00  0.00     0.044 A 
HETATM   18  C9  UNL     1      -4.921   6.144  11.681  1.00  0.00     0.022 A 
HETATM   19  C10 UNL     1      -5.375   7.265  11.082  1.00  0.00     0.009 A 
HETATM   20  C11 UNL     1      -5.050   7.451   9.771  1.00  0.00     0.050 A 
HETATM   21  S2  UNL     1      -4.123   6.069   9.402  1.00  0.00    -0.099 SA
ENDBRANCH  15  17
ENDBRANCH  13  15
ENDBRANCH   1  13
BRANCH   1  22
HETATM   22  C12 UNL     1      -1.276   5.938  12.909  1.00  0.00     0.197 C 
HETATM   23  S3  UNL     1      -1.551   7.216  13.955  1.00  0.00    -0.039 SA
BRANCH  22  24
HETATM   24  N3  UNL     1      -0.346   6.268  11.889  1.00  0.00    -0.365 N 
HETATM   25  C13 UNL     1       0.969   5.732  11.852  1.00  0.00     0.151 C 
HETATM   26  C14 UNL     1      -0.734   7.190  10.838  1.00  0.00     0.151 C 
ENDBRANCH  22  24
ENDBRANCH   1  22
TORSDOF 9
ENDMDL
MODEL 3
REMARK VINA RESULT: -6.196265814      2.109      3.631
REMARK  9 active torsions:
REMARK  status: ('A' for Active; 'I' for Inactive)
REMARK    1  A    between atoms: O1_2  and  C2_3 
REMARK    2  A    between atoms: C5_6  and  C6_7 
REMARK    3  A    between atoms: C6_7  and  O2_8 
REMARK    4  A    between atoms: C6_7  and  N1_10 
REMARK    5  A    between atoms: N1_10  and  N2_11 
REMARK    6  A    between atoms: N1_10  and  C12_20 
REMARK    7  A    between atoms: N2_11  and  C7_13 
REMARK    8  A    between atoms: C7_13  and  C8_15 
REMARK    9  A    between atoms: C12_20  and  N3_22 
ROOT
HETATM    1  N1  UNL     1      -2.173   4.826  12.429  1.00  0.00    -0.205 N 
ENDROOT
BRANCH   1   2
HETATM    2  C6  UNL     1      -2.003   3.945  13.486  1.00  0.00     0.174 C 
BRANCH   2   3
HETATM    3  C5  UNL     1      -2.798   2.875  14.037  1.00  0.00     0.017 A 
HETATM    4  C4  UNL     1      -3.394   1.906  13.281  1.00  0.00     0.018 A 
HETATM    5  C3  UNL     1      -4.222   0.934  13.852  1.00  0.00     0.037 A 
HETATM    6  C2  UNL     1      -4.455   0.933  15.205  1.00  0.00     0.068 A 
HETATM    7  C16 UNL     1      -3.868   1.898  16.013  1.00  0.00     0.037 A 
HETATM    8  C15 UNL     1      -3.068   2.828  15.408  1.00  0.00     0.018 A 
BRANCH   6   9
HETATM    9  O1  UNL     1      -5.261   0.007  15.848  1.00  0.00    -0.356 OA
HETATM   10  C1  UNL     1      -5.784   0.232  17.155  1.00  0.00     0.210 C 
ENDBRANCH   6   9
ENDBRANCH   2   3
BRANCH   2  11
HETATM   11  O2  UNL     1      -0.861   4.092  14.156  1.00  0.00    -0.344 OA
ATOM     12  H2  UNL     1      -0.391   3.269  14.220  1.00  0.00     0.219 HD
ENDBRANCH   2  11
ENDBRANCH   1   2
BRANCH   1  13
HETATM   13  N2  UNL     1      -3.307   5.733  12.553  1.00  0.00    -0.278 N 
ATOM     14  H2  UNL     1      -4.248   5.395  12.754  1.00  0.00     0.188 HD
BRANCH  13  15
HETATM   15  C7  UNL     1      -3.030   7.098  12.379  1.00  0.00     0.133 C 
HETATM   16  S1  UNL     1      -3.573   7.949  11.100  1.00  0.00    -0.058 SA
BRANCH  15  17
HETATM   17  C8  UNL     1      -2.210   7.796  13.402  1.00  0.00     0.044 A 
HETATM   18  C9  UNL     1      -2.359   7.734  14.764  1.00  0.00     0.022 A 
HETATM   19  C10 UNL     1      -1.494   8.457  15.506  1.00  0.00     0.009 A 
HETATM   20  C11 UNL     1      -0.552   9.184  14.842  1.00  0.00     0.050 A 
HETATM   21  S2  UNL     1      -0.887   8.848  13.205  1.00  0.00    -0.099 SA
ENDBRANCH  15  17
ENDBRANCH  13  15
ENDBRANCH   1  13
BRANCH   1  22
HETATM   22  C12 UNL     1      -1.564   4.757  11.157  1.00  0.00     0.197 C 
HETATM   23  S3  UNL     1      -2.425   4.353   9.779  1.00  0.00    -0.039 SA
BRANCH  22  24
HETATM   24  N3  UNL     1      -0.183   4.945  10.894  1.00  0.00    -0.365 N 
HETATM   25  C13 UNL     1       0.760   3.884  10.966  1.00  0.00     0.151 C 
HETATM   26  C14 UNL     1       0.305   6.264  10.541  1.00  0.00     0.151 C 
ENDBRANCH  22  24
ENDBRANCH   1  22
TORSDOF 9
ENDMDL
MODEL 4
REMARK VINA RESULT: -6.152106422      2.132      3.728
REMARK  9 active torsions:
REMARK  status: ('A' for Active; 'I' for Inactive)
REMARK    1  A    between atoms: O1_2  and  C2_3 
REMARK    2  A    between atoms: C5_6  and  C6_7 
REMARK    3  A    between atoms: C6_7  and  O2_8 
REMARK    4  A    between atoms: C6_7  and  N1_10 
REMARK    5  A    between atoms: N1_10  and  N2_11 
REMARK    6  A    between atoms: N1_10  and  C12_20 
REMARK    7  A    between atoms: N2_11  and  C7_13 
REMARK    8  A    between atoms: C7_13  and  C8_15 
REMARK    9  A    between atoms: C12_20  and  N3_22 
ROOT
HETATM    1  N1  UNL     1      -2.202   4.803  12.565  1.00  0.00    -0.205 N 
ENDROOT
BRANCH   1   2
HETATM    2  C6  UNL     1      -2.024   3.894  13.597  1.00  0.00     0.174 C 
BRANCH   2   3
HETATM    3  C5  UNL     1      -2.828   2.827  14.141  1.00  0.00     0.017 A 
HETATM    4  C4  UNL     1      -3.400   1.845  13.383  1.00  0.00     0.018 A 
HETATM    5  C3  UNL     1      -4.237   0.876  13.946  1.00  0.00     0.037 A 
HETATM    6  C2  UNL     1      -4.503   0.891  15.293  1.00  0.00     0.068 A 
HETATM    7  C16 UNL     1      -3.942   1.868  16.102  1.00  0.00     0.037 A 
HETATM    8  C15 UNL     1      -3.131   2.795  15.505  1.00  0.00     0.018 A 
BRANCH   6   9
HETATM    9  O1  UNL     1      -5.321  -0.032  15.927  1.00  0.00    -0.356 OA
HETATM   10  C1  UNL     1      -5.914   0.226  17.197  1.00  0.00     0.210 C 
ENDBRANCH   6   9
ENDBRANCH   2   3
BRANCH   2  11
HETATM   11  O2  UNL     1      -0.865   4.003  14.242  1.00  0.00    -0.344 OA
ATOM     12  H2  UNL     1      -0.177   3.522  13.798  1.00  0.00     0.219 HD
ENDBRANCH   2  11
ENDBRANCH   1   2
BRANCH   1  13
HETATM   13  N2  UNL     1      -3.251   5.791  12.781  1.00  0.00    -0.278 N 
ATOM     14  H2  UNL     1      -4.186   5.525  13.088  1.00  0.00     0.188 HD
BRANCH  13  15
HETATM   15  C7  UNL     1      -2.900   7.129  12.543  1.00  0.00     0.133 C 
HETATM   16  S1  UNL     1      -3.419   7.954  11.237  1.00  0.00    -0.058 SA
BRANCH  15  17
HETATM   17  C8  UNL     1      -2.022   7.821  13.519  1.00  0.00     0.044 A 
HETATM   18  C9  UNL     1      -2.227   7.949  14.870  1.00  0.00     0.022 A 
HETATM   19  C10 UNL     1      -1.291   8.625  15.568  1.00  0.00     0.009 A 
HETATM   20  C11 UNL     1      -0.228   9.123  14.875  1.00  0.00     0.050 A 
HETATM   21  S2  UNL     1      -0.551   8.640  13.272  1.00  0.00    -0.099 SA
ENDBRANCH  15  17
ENDBRANCH  13  15
ENDBRANCH   1  13
BRANCH   1  22
HETATM   22  C12 UNL     1      -1.692   4.709  11.251  1.00  0.00     0.197 C 
HETATM   23  S3  UNL     1      -0.113   5.121  10.878  1.00  0.00    -0.039 SA
BRANCH  22  24
HETATM   24  N3  UNL     1      -2.437   4.335  10.104  1.00  0.00    -0.365 N 
HETATM   25  C13 UNL     1      -3.714   3.717  10.190  1.00  0.00     0.151 C 
HETATM   26  C14 UNL     1      -1.888   4.579   8.783  1.00  0.00     0.151 C 
ENDBRANCH  22  24
ENDBRANCH   1  22
TORSDOF 9
ENDMDL
MODEL 5
REMARK VINA RESULT: -6.101098770      1.795      2.137
REMARK  9 active torsions:
REMARK  status: ('A' for Active; 'I' for Inactive)
REMARK    1  A    between atoms: O1_2  and  C2_3 
REMARK    2  A    between atoms: C5_6  and  C6_7 
REMARK    3  A    between atoms: C6_7  and  O2_8 
REMARK    4  A    between atoms: C6_7  and  N1_10 
REMARK    5  A    between atoms: N1_10  and  N2_11 
REMARK    6  A    between atoms: N1_10  and  C12_20 
REMARK    7  A    between atoms: N2_11  and  C7_13 
REMARK    8  A    between atoms: C7_13  and  C8_15 
REMARK    9  A    between atoms: C12_20  and  N3_22 
ROOT
HETATM    1  N1  UNL     1      -2.418   4.948  12.509  1.00  0.00    -0.205 N 
ENDROOT
BRANCH   1   2
HETATM    2  C6  UNL     1      -2.072   3.754  13.123  1.00  0.00     0.174 C 
BRANCH   2   3
HETATM    3  C5  UNL     1      -2.820   2.714  13.785  1.00  0.00     0.017 A 
HETATM    4  C4  UNL     1      -3.444   1.692  13.127  1.00  0.00     0.018 A 
HETATM    5  C3  UNL     1      -4.225   0.750  13.805  1.00  0.00     0.037 A 
HETATM    6  C2  UNL     1      -4.383   0.834  15.166  1.00  0.00     0.068 A 
HETATM    7  C16 UNL     1      -3.766   1.855  15.877  1.00  0.00     0.037 A 
HETATM    8  C15 UNL     1      -3.013   2.753  15.169  1.00  0.00     0.018 A 
BRANCH   6   9
HETATM    9  O1  UNL     1      -5.140  -0.057  15.911  1.00  0.00    -0.356 OA
HETATM   10  C1  UNL     1      -5.770   0.318  17.133  1.00  0.00     0.210 C 
ENDBRANCH   6   9
ENDBRANCH   2   3
BRANCH   2  11
HETATM   11  O2  UNL     1      -0.769   3.478  13.112  1.00  0.00    -0.344 OA
ATOM     12  H2  UNL     1      -0.318   3.976  12.441  1.00  0.00     0.219 HD
ENDBRANCH   2  11
ENDBRANCH   1   2
BRANCH   1  13
HETATM   13  N2  UNL     1      -3.663   4.920  11.753  1.00  0.00    -0.278 N 
ATOM     14  H2  UNL     1      -3.758   4.385  10.890  1.00  0.00     0.188 HD
BRANCH  13  15
HETATM   15  C7  UNL     1      -4.725   5.670  12.280  1.00  0.00     0.133 C 
HETATM   16  S1  UNL     1      -5.431   5.313  13.705  1.00  0.00    -0.058 SA
BRANCH  15  17
HETATM   17  C8  UNL     1      -5.227   6.837  11.510  1.00  0.00     0.044 A 
HETATM   18  C9  UNL     1      -6.535   7.203  11.324  1.00  0.00     0.022 A 
HETATM   19  C10 UNL     1      -6.761   8.308  10.582  1.00  0.00     0.009 A 
HETATM   20  C11 UNL     1      -5.673   8.960  10.082  1.00  0.00     0.050 A 
HETATM   21  S2  UNL     1      -4.366   8.028  10.653  1.00  0.00    -0.099 SA
ENDBRANCH  15  17
ENDBRANCH  13  15
ENDBRANCH   1  13
BRANCH   1  22
HETATM   22  C12 UNL     1      -1.586   6.071  12.302  1.00  0.00     0.197 C 
HETATM   23  S3  UNL     1      -0.776   6.325  10.859  1.00  0.00    -0.039 SA
BRANCH  22  24
HETATM   24  N3  UNL     1      -1.282   7.060  13.272  1.00  0.00    -0.365 N 
HETATM   25  C13 UNL     1      -0.100   7.846  13.216  1.00  0.00     0.151 C 
HETATM   26  C14 UNL     1      -2.197   7.288  14.373  1.00  0.00     0.151 C 
ENDBRANCH  22  24
ENDBRANCH   1  22
TORSDOF 9
ENDMDL
