MODEL 1
REMARK VINA RESULT: -6.146907937      0.000      0.000
REMARK  4 active torsions:
REMARK  status: ('A' for Active; 'I' for Inactive)
REMARK    1  A    between atoms: N1_1  and  C1_4 
REMARK    2  A    between atoms: C2_5  and  C3_6 
REMARK       I    between atoms: C3_6  and  N2_8 
REMARK    3  A    between atoms: N2_8  and  N3_10 
REMARK    4  A    between atoms: N6_19  and  N7_20 
ROOT
HETATM    1  C1  UNL     1      25.290  -0.638  12.226  1.00  0.00     0.159 A 
HETATM    2  C2  UNL     1      24.877  -1.080  13.478  1.00  0.00     0.163 A 
HETATM    3  N4  UNL     1      25.173  -0.271  14.522  1.00  0.00    -0.288 N 
ATOM      4  H4  UNL     1      24.887  -0.561  15.457  1.00  0.00     0.187 HD
HETATM    5  N5  UNL     1      25.815   0.876  14.390  1.00  0.00    -0.249 N 
ATOM      6  H5  UNL     1      26.007   1.439  15.218  1.00  0.00     0.192 HD
HETATM    7  C4  UNL     1      26.220   1.317  13.185  1.00  0.00     0.361 A 
HETATM    8  O2  UNL     1      26.833   2.406  13.033  1.00  0.00    -0.243 OA
HETATM    9  N6  UNL     1      25.941   0.533  12.118  1.00  0.00    -0.192 N 
ENDROOT
BRANCH   2  10
HETATM   10  C3  UNL     1      24.178  -2.328  13.634  1.00  0.00     0.291 C 
HETATM   11  O1  UNL     1      24.745  -3.396  13.370  1.00  0.00    -0.264 OA
HETATM   12  N2  UNL     1      22.838  -2.320  14.092  1.00  0.00    -0.271 N 
ATOM     13  H2  UNL     1      22.391  -1.428  14.304  1.00  0.00     0.189 HD
BRANCH  12  14
HETATM   14  N3  UNL     1      22.114  -3.502  14.260  1.00  0.00    -0.342 N 
ATOM     15  H32 UNL     1      22.486  -4.358  13.848  1.00  0.00     0.176 HD
ATOM     16  H31 UNL     1      21.237  -3.522  14.779  1.00  0.00     0.176 HD
ENDBRANCH  12  14
ENDBRANCH   2  10
BRANCH   1  17
HETATM   17  N1  UNL     1      25.031  -1.377  11.202  1.00  0.00    -0.382 N 
ATOM     18  H12 UNL     1      25.677  -2.093  10.870  1.00  0.00     0.157 HD
ATOM     19  H11 UNL     1      24.147  -1.233  10.714  1.00  0.00     0.157 HD
ENDBRANCH   1  17
BRANCH   9  20
HETATM   20  N7  UNL     1      26.362   0.991  10.876  1.00  0.00    -0.333 N 
ATOM     21  H72 UNL     1      26.025   0.482  10.059  1.00  0.00     0.177 HD
ATOM     22  H71 UNL     1      26.979   1.801  10.807  1.00  0.00     0.177 HD
ENDBRANCH   9  20
TORSDOF 4
ENDMDL
MODEL 2
REMARK VINA RESULT: -5.954033883      1.887      1.911
REMARK  4 active torsions:
REMARK  status: ('A' for Active; 'I' for Inactive)
REMARK    1  A    between atoms: N1_1  and  C1_4 
REMARK    2  A    between atoms: C2_5  and  C3_6 
REMARK       I    between atoms: C3_6  and  N2_8 
REMARK    3  A    between atoms: N2_8  and  N3_10 
REMARK    4  A    between atoms: N6_19  and  N7_20 
ROOT
HETATM    1  C1  UNL     1      25.946   0.089  12.734  1.00  0.00     0.159 A 
HETATM    2  C2  UNL     1      25.473  -0.606  13.842  1.00  0.00     0.163 A 
HETATM    3  N4  UNL     1      25.074   0.149  14.892  1.00  0.00    -0.288 N 
ATOM      4  H4  UNL     1      24.720  -0.324  15.724  1.00  0.00     0.187 HD
HETATM    5  N5  UNL     1      25.120   1.469  14.893  1.00  0.00    -0.249 N 
ATOM      6  H5  UNL     1      24.804   1.980  15.719  1.00  0.00     0.192 HD
HETATM    7  C4  UNL     1      25.574   2.155  13.829  1.00  0.00     0.361 A 
HETATM    8  O2  UNL     1      25.629   3.413  13.806  1.00  0.00    -0.243 OA
HETATM    9  N6  UNL     1      25.982   1.432  12.760  1.00  0.00    -0.192 N 
ENDROOT
BRANCH   2  10
HETATM   10  C3  UNL     1      25.418  -2.044  13.852  1.00  0.00     0.291 C 
HETATM   11  O1  UNL     1      24.553  -2.637  13.195  1.00  0.00    -0.264 OA
HETATM   12  N2  UNL     1      26.361  -2.769  14.619  1.00  0.00    -0.271 N 
ATOM     13  H2  UNL     1      27.065  -2.259  15.153  1.00  0.00     0.189 HD
BRANCH  12  14
HETATM   14  N3  UNL     1      26.351  -4.164  14.664  1.00  0.00    -0.342 N 
ATOM     15  H32 UNL     1      27.059  -4.668  14.129  1.00  0.00     0.176 HD
ATOM     16  H31 UNL     1      25.662  -4.677  15.214  1.00  0.00     0.176 HD
ENDBRANCH  12  14
ENDBRANCH   2  10
BRANCH   1  17
HETATM   17  N1  UNL     1      26.337  -0.590  11.710  1.00  0.00    -0.382 N 
ATOM     18  H12 UNL     1      26.413  -1.607  11.728  1.00  0.00     0.157 HD
ATOM     19  H11 UNL     1      26.578  -0.083  10.859  1.00  0.00     0.157 HD
ENDBRANCH   1  17
BRANCH   9  20
HETATM   20  N7  UNL     1      26.452   2.144  11.664  1.00  0.00    -0.333 N 
ATOM     21  H72 UNL     1      26.843   1.600  10.896  1.00  0.00     0.177 HD
ATOM     22  H71 UNL     1      26.398   3.162  11.648  1.00  0.00     0.177 HD
ENDBRANCH   9  20
TORSDOF 4
ENDMDL
MODEL 3
REMARK VINA RESULT: -5.853440362      1.435      5.132
REMARK  4 active torsions:
REMARK  status: ('A' for Active; 'I' for Inactive)
REMARK    1  A    between atoms: N1_1  and  C1_4 
REMARK    2  A    between atoms: C2_5  and  C3_6 
REMARK       I    between atoms: C3_6  and  N2_8 
REMARK    3  A    between atoms: N2_8  and  N3_10 
REMARK    4  A    between atoms: N6_19  and  N7_20 
ROOT
HETATM    1  C1  UNL     1      25.340   0.667  13.728  1.00  0.00     0.159 A 
HETATM    2  C2  UNL     1      25.994   0.929  12.530  1.00  0.00     0.163 A 
HETATM    3  N4  UNL     1      26.033  -0.090  11.638  1.00  0.00    -0.288 N 
ATOM      4  H4  UNL     1      26.504   0.064  10.747  1.00  0.00     0.187 HD
HETATM    5  N5  UNL     1      25.491  -1.272  11.867  1.00  0.00    -0.249 N 
ATOM      6  H5  UNL     1      25.557  -1.998  11.152  1.00  0.00     0.192 HD
HETATM    7  C4  UNL     1      24.855  -1.540  13.021  1.00  0.00     0.361 A 
HETATM    8  O2  UNL     1      24.331  -2.659  13.263  1.00  0.00    -0.243 OA
HETATM    9  N6  UNL     1      24.796  -0.545  13.936  1.00  0.00    -0.192 N 
ENDROOT
BRANCH   2  10
HETATM   10  C3  UNL     1      26.589   2.214  12.270  1.00  0.00     0.291 C 
HETATM   11  O1  UNL     1      27.015   2.901  13.206  1.00  0.00    -0.264 OA
HETATM   12  N2  UNL     1      26.679   2.680  10.936  1.00  0.00    -0.271 N 
ATOM     13  H2  UNL     1      26.321   2.095  10.181  1.00  0.00     0.189 HD
BRANCH  12  14
HETATM   14  N3  UNL     1      27.245   3.918  10.630  1.00  0.00    -0.342 N 
ATOM     15  H32 UNL     1      27.212   4.236   9.661  1.00  0.00     0.176 HD
ATOM     16  H31 UNL     1      27.683   4.498  11.345  1.00  0.00     0.176 HD
ENDBRANCH  12  14
ENDBRANCH   2  10
BRANCH   1  17
HETATM   17  N1  UNL     1      25.279   1.608  14.608  1.00  0.00    -0.382 N 
ATOM     18  H12 UNL     1      25.990   1.724  15.331  1.00  0.00     0.157 HD
ATOM     19  H11 UNL     1      24.489   2.251  14.571  1.00  0.00     0.157 HD
ENDBRANCH   1  17
BRANCH   9  20
HETATM   20  N7  UNL     1      24.140  -0.826  15.127  1.00  0.00    -0.333 N 
ATOM     21  H72 UNL     1      23.471  -0.132  15.459  1.00  0.00     0.177 HD
ATOM     22  H71 UNL     1      24.332  -1.692  15.631  1.00  0.00     0.177 HD
ENDBRANCH   9  20
TORSDOF 4
ENDMDL
MODEL 4
REMARK VINA RESULT: -5.785743060     12.764     13.782
REMARK  4 active torsions:
REMARK  status: ('A' for Active; 'I' for Inactive)
REMARK    1  A    between atoms: N1_1  and  C1_4 
REMARK    2  A    between atoms: C2_5  and  C3_6 
REMARK       I    between atoms: C3_6  and  N2_8 
REMARK    3  A    between atoms: N2_8  and  N3_10 
REMARK    4  A    between atoms: N6_19  and  N7_20 
ROOT
HETATM    1  C1  UNL     1      15.488   8.643  15.314  1.00  0.00     0.159 A 
HETATM    2  C2  UNL     1      16.549   8.499  14.427  1.00  0.00     0.163 A 
HETATM    3  N4  UNL     1      16.220   8.181  13.152  1.00  0.00    -0.288 N 
ATOM      4  H4  UNL     1      16.971   8.066  12.472  1.00  0.00     0.187 HD
HETATM    5  N5  UNL     1      14.974   8.011  12.747  1.00  0.00    -0.249 N 
ATOM      6  H5  UNL     1      14.795   7.771  11.772  1.00  0.00     0.192 HD
HETATM    7  C4  UNL     1      13.938   8.148  13.594  1.00  0.00     0.361 A 
HETATM    8  O2  UNL     1      12.742   7.991  13.232  1.00  0.00    -0.243 OA
HETATM    9  N6  UNL     1      14.230   8.466  14.877  1.00  0.00    -0.192 N 
ENDROOT
BRANCH   2  10
HETATM   10  C3  UNL     1      17.911   8.681  14.857  1.00  0.00     0.291 C 
HETATM   11  O1  UNL     1      18.331   8.084  15.856  1.00  0.00    -0.264 OA
HETATM   12  N2  UNL     1      18.759   9.548  14.127  1.00  0.00    -0.271 N 
ATOM     13  H2  UNL     1      18.390  10.029  13.306  1.00  0.00     0.189 HD
BRANCH  12  14
HETATM   14  N3  UNL     1      20.087   9.760  14.501  1.00  0.00    -0.342 N 
ATOM     15  H32 UNL     1      20.272  10.109  15.442  1.00  0.00     0.176 HD
ATOM     16  H31 UNL     1      20.859   9.575  13.862  1.00  0.00     0.176 HD
ENDBRANCH  12  14
ENDBRANCH   2  10
BRANCH   1  17
HETATM   17  N1  UNL     1      15.754   8.945  16.539  1.00  0.00    -0.382 N 
ATOM     18  H12 UNL     1      16.698   8.884  16.922  1.00  0.00     0.157 HD
ATOM     19  H11 UNL     1      14.988   9.255  17.136  1.00  0.00     0.157 HD
ENDBRANCH   1  17
BRANCH   9  20
HETATM   20  N7  UNL     1      13.157   8.605  15.747  1.00  0.00    -0.333 N 
ATOM     21  H72 UNL     1      13.340   8.429  16.735  1.00  0.00     0.177 HD
ATOM     22  H71 UNL     1      12.238   8.873  15.395  1.00  0.00     0.177 HD
ENDBRANCH   9  20
TORSDOF 4
ENDMDL
MODEL 5
REMARK VINA RESULT: -5.730666702      2.733      5.058
REMARK  4 active torsions:
REMARK  status: ('A' for Active; 'I' for Inactive)
REMARK    1  A    between atoms: N1_1  and  C1_4 
REMARK    2  A    between atoms: C2_5  and  C3_6 
REMARK       I    between atoms: C3_6  and  N2_8 
REMARK    3  A    between atoms: N2_8  and  N3_10 
REMARK    4  A    between atoms: N6_19  and  N7_20 
ROOT
HETATM    1  C1  UNL     1      23.474  -0.134  15.444  1.00  0.00     0.159 A 
HETATM    2  C2  UNL     1      23.995  -0.961  14.456  1.00  0.00     0.163 A 
HETATM    3  N4  UNL     1      23.228  -2.016  14.098  1.00  0.00    -0.288 N 
ATOM      4  H4  UNL     1      23.576  -2.647  13.375  1.00  0.00     0.187 HD
HETATM    5  N5  UNL     1      22.049  -2.271  14.638  1.00  0.00    -0.249 N 
ATOM      6  H5  UNL     1      21.521  -3.085  14.323  1.00  0.00     0.192 HD
HETATM    7  C4  UNL     1      21.532  -1.480  15.594  1.00  0.00     0.361 A 
HETATM    8  O2  UNL     1      20.411  -1.701  16.125  1.00  0.00    -0.243 OA
HETATM    9  N6  UNL     1      22.272  -0.414  15.978  1.00  0.00    -0.192 N 
ENDROOT
BRANCH   2  10
HETATM   10  C3  UNL     1      25.278  -0.693  13.861  1.00  0.00     0.291 C 
HETATM   11  O1  UNL     1      25.389   0.180  12.991  1.00  0.00    -0.264 OA
HETATM   12  N2  UNL     1      26.407  -1.437  14.280  1.00  0.00    -0.271 N 
ATOM     13  H2  UNL     1      26.291  -2.151  15.000  1.00  0.00     0.189 HD
BRANCH  12  14
HETATM   14  N3  UNL     1      27.673  -1.218  13.735  1.00  0.00    -0.342 N 
ATOM     15  H32 UNL     1      27.809  -1.407  12.741  1.00  0.00     0.176 HD
ATOM     16  H31 UNL     1      28.449  -0.879  14.303  1.00  0.00     0.176 HD
ENDBRANCH  12  14
ENDBRANCH   2  10
BRANCH   1  17
HETATM   17  N1  UNL     1      24.171   0.885  15.818  1.00  0.00    -0.382 N 
ATOM     18  H12 UNL     1      23.747   1.701  16.261  1.00  0.00     0.157 HD
ATOM     19  H11 UNL     1      25.178   0.865  15.662  1.00  0.00     0.157 HD
ENDBRANCH   1  17
BRANCH   9  20
HETATM   20  N7  UNL     1      21.735   0.400  16.966  1.00  0.00    -0.333 N 
ATOM     21  H72 UNL     1      22.337   0.620  17.759  1.00  0.00     0.177 HD
ATOM     22  H71 UNL     1      20.780   0.751  16.884  1.00  0.00     0.177 HD
ENDBRANCH   9  20
TORSDOF 4
ENDMDL
