MODEL 1
REMARK VINA RESULT: -6.660106715      0.000      0.000
REMARK  3 active torsions:
REMARK  status: ('A' for Active; 'I' for Inactive)
REMARK    1  A    between atoms: N1_1  and  N2_4 
REMARK    2  A    between atoms: C4_14  and  C5_15 
REMARK       I    between atoms: C5_15  and  N5_17 
REMARK    3  A    between atoms: N5_17  and  N6_19 
ROOT
HETATM    1  N2  UNL     1      24.006  -0.296  15.472  1.00  0.00    -0.291 N 
ATOM      2  H2  UNL     1      23.966  -1.309  15.590  1.00  0.00     0.188 HD
HETATM    3  C1  UNL     1      24.848   0.223  14.647  1.00  0.00     0.140 A 
HETATM    4  N3  UNL     1      24.890   1.585  14.499  1.00  0.00    -0.293 N 
ATOM      5  H3  UNL     1      24.240   2.167  15.027  1.00  0.00     0.172 HD
HETATM    6  C2  UNL     1      25.772   2.166  13.674  1.00  0.00     0.325 A 
HETATM    7  O1  UNL     1      25.786   3.420  13.559  1.00  0.00    -0.247 OA
HETATM    8  N4  UNL     1      26.617   1.373  12.991  1.00  0.00    -0.318 N 
ATOM      9  H4  UNL     1      27.291   1.809  12.361  1.00  0.00     0.170 HD
HETATM   10  C3  UNL     1      26.617   0.041  13.099  1.00  0.00     0.114 A 
HETATM   11  C4  UNL     1      25.699  -0.590  13.959  1.00  0.00     0.094 A 
ENDROOT
BRANCH  11  12
HETATM   12  C5  UNL     1      25.716  -2.063  14.008  1.00  0.00     0.274 C 
HETATM   13  O2  UNL     1      24.814  -2.684  13.330  1.00  0.00    -0.266 OA
HETATM   14  N5  UNL     1      26.606  -2.870  14.716  1.00  0.00    -0.272 N 
ATOM     15  H5  UNL     1      27.344  -2.451  15.281  1.00  0.00     0.189 HD
BRANCH  14  16
HETATM   16  N6  UNL     1      26.476  -4.264  14.643  1.00  0.00    -0.342 N 
ATOM     17  H62 UNL     1      26.821  -4.840  15.410  1.00  0.00     0.176 HD
ATOM     18  H61 UNL     1      26.036  -4.682  13.822  1.00  0.00     0.176 HD
ENDBRANCH  14  16
ENDBRANCH  11  12
BRANCH   1  19
HETATM   19  N1  UNL     1      23.157   0.520  16.199  1.00  0.00    -0.344 N 
ATOM     20  H12 UNL     1      22.983   1.470  15.871  1.00  0.00     0.176 HD
ATOM     21  H11 UNL     1      22.716   0.169  17.049  1.00  0.00     0.176 HD
ENDBRANCH   1  19
TORSDOF 3
ENDMDL
MODEL 2
REMARK VINA RESULT: -6.093238859      1.785      4.499
REMARK  3 active torsions:
REMARK  status: ('A' for Active; 'I' for Inactive)
REMARK    1  A    between atoms: N1_1  and  N2_4 
REMARK    2  A    between atoms: C4_14  and  C5_15 
REMARK       I    between atoms: C5_15  and  N5_17 
REMARK    3  A    between atoms: N5_17  and  N6_19 
ROOT
HETATM    1  N2  UNL     1      25.030   1.154  14.732  1.00  0.00    -0.291 N 
ATOM      2  H2  UNL     1      25.415   2.088  14.593  1.00  0.00     0.188 HD
HETATM    3  C1  UNL     1      25.183   0.252  13.826  1.00  0.00     0.140 A 
HETATM    4  N3  UNL     1      24.660  -0.999  14.029  1.00  0.00    -0.293 N 
ATOM      5  H3  UNL     1      24.178  -1.205  14.904  1.00  0.00     0.172 HD
HETATM    6  C2  UNL     1      24.772  -1.957  13.098  1.00  0.00     0.325 A 
HETATM    7  O1  UNL     1      24.282  -3.096  13.314  1.00  0.00    -0.247 OA
HETATM    8  N4  UNL     1      25.414  -1.656  11.954  1.00  0.00    -0.318 N 
ATOM      9  H4  UNL     1      25.502  -2.381  11.242  1.00  0.00     0.170 HD
HETATM   10  C3  UNL     1      25.941  -0.454  11.708  1.00  0.00     0.114 A 
HETATM   11  C4  UNL     1      25.837   0.566  12.672  1.00  0.00     0.094 A 
ENDROOT
BRANCH  11  12
HETATM   12  C5  UNL     1      26.471   1.860  12.364  1.00  0.00     0.274 C 
HETATM   13  O2  UNL     1      27.038   2.484  13.338  1.00  0.00    -0.266 OA
HETATM   14  N5  UNL     1      26.526   2.496  11.124  1.00  0.00    -0.272 N 
ATOM     15  H5  UNL     1      26.094   2.067  10.305  1.00  0.00     0.189 HD
BRANCH  14  16
HETATM   16  N6  UNL     1      27.181   3.730  11.013  1.00  0.00    -0.342 N 
ATOM     17  H62 UNL     1      27.085   4.273  10.155  1.00  0.00     0.176 HD
ATOM     18  H61 UNL     1      27.745   4.068  11.794  1.00  0.00     0.176 HD
ENDBRANCH  14  16
ENDBRANCH  11  12
BRANCH   1  19
HETATM   19  N1  UNL     1      24.343   0.855  15.896  1.00  0.00    -0.344 N 
ATOM     20  H12 UNL     1      24.739   1.142  16.792  1.00  0.00     0.176 HD
ATOM     21  H11 UNL     1      23.456   0.355  15.850  1.00  0.00     0.176 HD
ENDBRANCH   1  19
TORSDOF 3
ENDMDL
MODEL 3
REMARK VINA RESULT: -6.041136319      1.243      2.453
REMARK  3 active torsions:
REMARK  status: ('A' for Active; 'I' for Inactive)
REMARK    1  A    between atoms: N1_1  and  N2_4 
REMARK    2  A    between atoms: C4_14  and  C5_15 
REMARK       I    between atoms: C5_15  and  N5_17 
REMARK    3  A    between atoms: N5_17  and  N6_19 
ROOT
HETATM    1  N2  UNL     1      25.738  -0.683  11.630  1.00  0.00    -0.291 N 
ATOM      2  H2  UNL     1      25.754  -1.702  11.577  1.00  0.00     0.188 HD
HETATM    3  C1  UNL     1      25.651  -0.098  12.774  1.00  0.00     0.140 A 
HETATM    4  N3  UNL     1      25.631   1.272  12.827  1.00  0.00    -0.293 N 
ATOM      5  H3  UNL     1      25.710   1.809  11.964  1.00  0.00     0.172 HD
HETATM    6  C2  UNL     1      25.511   1.918  13.995  1.00  0.00     0.325 A 
HETATM    7  O1  UNL     1      25.497   3.177  14.012  1.00  0.00    -0.247 OA
HETATM    8  N4  UNL     1      25.410   1.183  15.118  1.00  0.00    -0.318 N 
ATOM      9  H4  UNL     1      25.317   1.670  16.010  1.00  0.00     0.170 HD
HETATM   10  C3  UNL     1      25.424  -0.152  15.120  1.00  0.00     0.114 A 
HETATM   11  C4  UNL     1      25.550  -0.852  13.905  1.00  0.00     0.094 A 
ENDROOT
BRANCH  11  12
HETATM   12  C5  UNL     1      25.600  -2.323  13.970  1.00  0.00     0.274 C 
HETATM   13  O2  UNL     1      24.698  -2.971  13.317  1.00  0.00    -0.266 OA
HETATM   14  N5  UNL     1      26.522  -3.103  14.667  1.00  0.00    -0.272 N 
ATOM     15  H5  UNL     1      27.263  -2.663  15.212  1.00  0.00     0.189 HD
BRANCH  14  16
HETATM   16  N6  UNL     1      26.421  -4.500  14.611  1.00  0.00    -0.342 N 
ATOM     17  H62 UNL     1      25.633  -4.926  14.122  1.00  0.00     0.176 HD
ATOM     18  H61 UNL     1      27.137  -5.072  15.060  1.00  0.00     0.176 HD
ENDBRANCH  14  16
ENDBRANCH  11  12
BRANCH   1  19
HETATM   19  N1  UNL     1      25.811   0.070  10.471  1.00  0.00    -0.344 N 
ATOM     20  H12 UNL     1      26.298   0.967  10.494  1.00  0.00     0.176 HD
ATOM     21  H11 UNL     1      25.381  -0.272   9.612  1.00  0.00     0.176 HD
ENDBRANCH   1  19
TORSDOF 3
ENDMDL
MODEL 4
REMARK VINA RESULT: -6.034506555      5.274      6.163
REMARK  3 active torsions:
REMARK  status: ('A' for Active; 'I' for Inactive)
REMARK    1  A    between atoms: N1_1  and  N2_4 
REMARK    2  A    between atoms: C4_14  and  C5_15 
REMARK       I    between atoms: C5_15  and  N5_17 
REMARK    3  A    between atoms: N5_17  and  N6_19 
ROOT
HETATM    1  N2  UNL     1      20.851   1.208  19.008  1.00  0.00    -0.291 N 
ATOM      2  H2  UNL     1      21.314   0.299  18.999  1.00  0.00     0.188 HD
HETATM    3  C1  UNL     1      20.470   1.748  17.903  1.00  0.00     0.140 A 
HETATM    4  N3  UNL     1      19.848   2.969  17.932  1.00  0.00    -0.293 N 
ATOM      5  H3  UNL     1      19.675   3.423  18.829  1.00  0.00     0.172 HD
HETATM    6  C2  UNL     1      19.464   3.578  16.802  1.00  0.00     0.325 A 
HETATM    7  O1  UNL     1      18.895   4.700  16.861  1.00  0.00    -0.247 OA
HETATM    8  N4  UNL     1      19.706   2.957  15.633  1.00  0.00    -0.318 N 
ATOM      9  H4  UNL     1      19.416   3.416  14.770  1.00  0.00     0.170 HD
HETATM   10  C3  UNL     1      20.308   1.767  15.551  1.00  0.00     0.114 A 
HETATM   11  C4  UNL     1      20.718   1.108  16.725  1.00  0.00     0.094 A 
ENDROOT
BRANCH  11  12
HETATM   12  C5  UNL     1      21.341  -0.219  16.577  1.00  0.00     0.274 C 
HETATM   13  O2  UNL     1      22.546  -0.354  17.011  1.00  0.00    -0.266 OA
HETATM   14  N5  UNL     1      20.768  -1.358  16.013  1.00  0.00    -0.272 N 
ATOM     15  H5  UNL     1      19.819  -1.328  15.641  1.00  0.00     0.189 HD
BRANCH  14  16
HETATM   16  N6  UNL     1      21.510  -2.546  15.960  1.00  0.00    -0.342 N 
ATOM     17  H62 UNL     1      21.083  -3.387  15.574  1.00  0.00     0.176 HD
ATOM     18  H61 UNL     1      22.469  -2.552  16.310  1.00  0.00     0.176 HD
ENDBRANCH  14  16
ENDBRANCH  11  12
BRANCH   1  19
HETATM   19  N1  UNL     1      20.631   1.860  20.208  1.00  0.00    -0.344 N 
ATOM     20  H12 UNL     1      21.179   2.692  20.428  1.00  0.00     0.176 HD
ATOM     21  H11 UNL     1      19.929   1.508  20.859  1.00  0.00     0.176 HD
ENDBRANCH   1  19
TORSDOF 3
ENDMDL
MODEL 5
REMARK VINA RESULT: -6.034457392      1.272      1.272
REMARK  3 active torsions:
REMARK  status: ('A' for Active; 'I' for Inactive)
REMARK    1  A    between atoms: N1_1  and  N2_4 
REMARK    2  A    between atoms: C4_14  and  C5_15 
REMARK       I    between atoms: C5_15  and  N5_17 
REMARK    3  A    between atoms: N5_17  and  N6_19 
ROOT
HETATM    1  N2  UNL     1      24.365   0.112  15.058  1.00  0.00    -0.291 N 
ATOM      2  H2  UNL     1      23.991  -0.837  15.097  1.00  0.00     0.188 HD
HETATM    3  C1  UNL     1      25.069   0.486  14.046  1.00  0.00     0.140 A 
HETATM    4  N3  UNL     1      25.563   1.764  14.009  1.00  0.00    -0.293 N 
ATOM      5  H3  UNL     1      25.348   2.408  14.770  1.00  0.00     0.172 HD
HETATM    6  C2  UNL     1      26.324   2.183  12.988  1.00  0.00     0.325 A 
HETATM    7  O1  UNL     1      26.764   3.363  12.981  1.00  0.00    -0.247 OA
HETATM    8  N4  UNL     1      26.592   1.311  11.998  1.00  0.00    -0.318 N 
ATOM      9  H4  UNL     1      27.171   1.624  11.219  1.00  0.00     0.170 HD
HETATM   10  C3  UNL     1      26.134   0.056  11.988  1.00  0.00     0.114 A 
HETATM   11  C4  UNL     1      25.332  -0.404  13.048  1.00  0.00     0.094 A 
ENDROOT
BRANCH  11  12
HETATM   12  C5  UNL     1      24.822  -1.785  12.965  1.00  0.00     0.274 C 
HETATM   13  O2  UNL     1      24.019  -2.057  11.995  1.00  0.00    -0.266 OA
HETATM   14  N5  UNL     1      25.111  -2.841  13.828  1.00  0.00    -0.272 N 
ATOM     15  H5  UNL     1      25.734  -2.701  14.623  1.00  0.00     0.189 HD
BRANCH  14  16
HETATM   16  N6  UNL     1      24.536  -4.097  13.592  1.00  0.00    -0.342 N 
ATOM     17  H62 UNL     1      25.061  -4.797  13.067  1.00  0.00     0.176 HD
ATOM     18  H61 UNL     1      23.601  -4.294  13.949  1.00  0.00     0.176 HD
ENDBRANCH  14  16
ENDBRANCH  11  12
BRANCH   1  19
HETATM   19  N1  UNL     1      24.115   0.997  16.092  1.00  0.00    -0.344 N 
ATOM     20  H12 UNL     1      23.476   0.720  16.838  1.00  0.00     0.176 HD
ATOM     21  H11 UNL     1      24.567   1.912  16.101  1.00  0.00     0.176 HD
ENDBRANCH   1  19
TORSDOF 3
ENDMDL
