MODEL 1
REMARK VINA RESULT: -6.199064591      0.000      0.000
REMARK  5 active torsions:
REMARK  status: ('A' for Active; 'I' for Inactive)
REMARK    1  A    between atoms: N1_1  and  C1_4 
REMARK    2  A    between atoms: C3_8  and  C4_9 
REMARK       I    between atoms: C4_9  and  N3_11 
REMARK    3  A    between atoms: N3_11  and  N4_13 
REMARK    4  A    between atoms: C5_16  and  N5_17 
REMARK    5  A    between atoms: N5_17  and  N6_19 
ROOT
HETATM    1  C1  UNL     1      25.725   2.029  13.364  1.00  0.00     0.677 A 
HETATM    2  N2  UNL     1      26.189   1.207  12.403  1.00  0.00    -0.201 N 
ATOM      3  H2  UNL     1      26.617   1.606  11.567  1.00  0.00     0.183 HD
HETATM    4  C2  UNL     1      26.096  -0.151  12.529  1.00  0.00     0.127 A 
HETATM    5  C3  UNL     1      25.525  -0.736  13.636  1.00  0.00     0.095 A 
HETATM    6  C5  UNL     1      25.048   0.115  14.612  1.00  0.00     0.152 A 
HETATM    7  N7  UNL     1      25.166   1.454  14.444  1.00  0.00    -0.175 N 
ATOM      8  H7  UNL     1      24.809   2.062  15.181  1.00  0.00     0.186 HD
ENDROOT
BRANCH   5   9
HETATM    9  C4  UNL     1      25.481  -2.190  13.805  1.00  0.00     0.274 C 
HETATM   10  O1  UNL     1      24.521  -2.879  13.320  1.00  0.00    -0.266 OA
HETATM   11  N3  UNL     1      26.511  -2.843  14.504  1.00  0.00    -0.272 N 
ATOM     12  H3  UNL     1      27.289  -2.309  14.892  1.00  0.00     0.189 HD
BRANCH  11  13
HETATM   13  N4  UNL     1      26.462  -4.238  14.665  1.00  0.00    -0.342 N 
ATOM     14  H42 UNL     1      26.802  -4.839  13.915  1.00  0.00     0.176 HD
ATOM     15  H41 UNL     1      26.087  -4.630  15.528  1.00  0.00     0.176 HD
ENDBRANCH  11  13
ENDBRANCH   5   9
BRANCH   6  16
HETATM   16  N5  UNL     1      24.492  -0.391  15.659  1.00  0.00    -0.291 N 
ATOM     17  H5  UNL     1      25.056  -0.787  16.411  1.00  0.00     0.188 HD
BRANCH  16  18
HETATM   18  N6  UNL     1      23.072  -0.382  15.738  1.00  0.00    -0.344 N 
ATOM     19  H62 UNL     1      22.613  -0.215  16.634  1.00  0.00     0.176 HD
ATOM     20  H61 UNL     1      22.540  -0.545  14.883  1.00  0.00     0.176 HD
ENDBRANCH  16  18
ENDBRANCH   6  16
BRANCH   1  21
HETATM   21  N1  UNL     1      25.849   3.315  13.271  1.00  0.00    -0.234 N 
ATOM     22  H12 UNL     1      25.042   3.935  13.345  1.00  0.00     0.174 HD
ATOM     23  H11 UNL     1      26.763   3.753  13.152  1.00  0.00     0.174 HD
ENDBRANCH   1  21
TORSDOF 5
ENDMDL
MODEL 2
REMARK VINA RESULT: -5.955590150      2.196      4.366
REMARK  5 active torsions:
REMARK  status: ('A' for Active; 'I' for Inactive)
REMARK    1  A    between atoms: N1_1  and  C1_4 
REMARK    2  A    between atoms: C3_8  and  C4_9 
REMARK       I    between atoms: C4_9  and  N3_11 
REMARK    3  A    between atoms: N3_11  and  N4_13 
REMARK    4  A    between atoms: C5_16  and  N5_17 
REMARK    5  A    between atoms: N5_17  and  N6_19 
ROOT
HETATM    1  C1  UNL     1      24.844  -2.051  13.363  1.00  0.00     0.677 A 
HETATM    2  N2  UNL     1      25.462  -1.645  12.237  1.00  0.00    -0.201 N 
ATOM      3  H2  UNL     1      25.616  -2.314  11.482  1.00  0.00     0.183 HD
HETATM    4  C2  UNL     1      25.886  -0.354  12.089  1.00  0.00     0.127 A 
HETATM    5  C3  UNL     1      25.704   0.584  13.080  1.00  0.00     0.095 A 
HETATM    6  C5  UNL     1      25.074   0.156  14.231  1.00  0.00     0.152 A 
HETATM    7  N7  UNL     1      24.669  -1.132  14.331  1.00  0.00    -0.175 N 
ATOM      8  H7  UNL     1      24.203  -1.423  15.190  1.00  0.00     0.186 HD
ENDROOT
BRANCH   5   9
HETATM    9  C4  UNL     1      26.097   1.983  12.901  1.00  0.00     0.274 C 
HETATM   10  O1  UNL     1      25.895   2.844  13.822  1.00  0.00    -0.266 OA
HETATM   11  N3  UNL     1      26.713   2.388  11.704  1.00  0.00    -0.272 N 
ATOM     12  H3  UNL     1      26.888   1.711  10.962  1.00  0.00     0.189 HD
BRANCH  11  13
HETATM   13  N4  UNL     1      27.085   3.732  11.538  1.00  0.00    -0.342 N 
ATOM     14  H42 UNL     1      28.069   3.990  11.606  1.00  0.00     0.176 HD
ATOM     15  H41 UNL     1      26.367   4.432  11.351  1.00  0.00     0.176 HD
ENDBRANCH  11  13
ENDBRANCH   5   9
BRANCH   6  16
HETATM   16  N5  UNL     1      24.896   0.999  15.191  1.00  0.00    -0.291 N 
ATOM     17  H5  UNL     1      25.566   1.750  15.358  1.00  0.00     0.188 HD
BRANCH  16  18
HETATM   18  N6  UNL     1      23.743   0.853  16.010  1.00  0.00    -0.344 N 
ATOM     19  H62 UNL     1      22.932   0.341  15.661  1.00  0.00     0.176 HD
ATOM     20  H61 UNL     1      23.755   1.271  16.941  1.00  0.00     0.176 HD
ENDBRANCH  16  18
ENDBRANCH   6  16
BRANCH   1  21
HETATM   21  N1  UNL     1      24.402  -3.261  13.492  1.00  0.00    -0.234 N 
ATOM     22  H12 UNL     1      23.480  -3.531  13.148  1.00  0.00     0.174 HD
ATOM     23  H11 UNL     1      24.973  -3.993  13.914  1.00  0.00     0.174 HD
ENDBRANCH   1  21
TORSDOF 5
ENDMDL
MODEL 3
REMARK VINA RESULT: -5.861959817      3.103      5.038
REMARK  5 active torsions:
REMARK  status: ('A' for Active; 'I' for Inactive)
REMARK    1  A    between atoms: N1_1  and  C1_4 
REMARK    2  A    between atoms: C3_8  and  C4_9 
REMARK       I    between atoms: C4_9  and  N3_11 
REMARK    3  A    between atoms: N3_11  and  N4_13 
REMARK    4  A    between atoms: C5_16  and  N5_17 
REMARK    5  A    between atoms: N5_17  and  N6_19 
ROOT
HETATM    1  C1  UNL     1      24.892  -0.689  14.456  1.00  0.00     0.677 A 
HETATM    2  N2  UNL     1      25.081   0.451  15.148  1.00  0.00    -0.201 N 
ATOM      3  H2  UNL     1      25.984   0.924  15.098  1.00  0.00     0.183 HD
HETATM    4  C2  UNL     1      24.085   0.985  15.916  1.00  0.00     0.127 A 
HETATM    5  C3  UNL     1      22.851   0.383  16.018  1.00  0.00     0.095 A 
HETATM    6  C5  UNL     1      22.670  -0.787  15.310  1.00  0.00     0.152 A 
HETATM    7  N7  UNL     1      23.686  -1.276  14.560  1.00  0.00    -0.175 N 
ATOM      8  H7  UNL     1      23.526  -2.141  14.042  1.00  0.00     0.186 HD
ENDROOT
BRANCH   5   9
HETATM    9  C4  UNL     1      21.759   0.985  16.788  1.00  0.00     0.274 C 
HETATM   10  O1  UNL     1      21.230   0.366  17.771  1.00  0.00    -0.266 OA
HETATM   11  N3  UNL     1      21.288   2.266  16.447  1.00  0.00    -0.272 N 
ATOM     12  H3  UNL     1      21.705   2.777  15.669  1.00  0.00     0.189 HD
BRANCH  11  13
HETATM   13  N4  UNL     1      20.240   2.836  17.187  1.00  0.00    -0.342 N 
ATOM     14  H42 UNL     1      19.584   2.226  17.676  1.00  0.00     0.176 HD
ATOM     15  H41 UNL     1      20.147   3.851  17.227  1.00  0.00     0.176 HD
ENDBRANCH  11  13
ENDBRANCH   5   9
BRANCH   6  16
HETATM   16  N5  UNL     1      21.534  -1.391  15.389  1.00  0.00    -0.291 N 
ATOM     17  H5  UNL     1      20.779  -1.176  14.737  1.00  0.00     0.188 HD
BRANCH  16  18
HETATM   18  N6  UNL     1      21.360  -2.366  16.411  1.00  0.00    -0.344 N 
ATOM     19  H62 UNL     1      21.517  -3.353  16.205  1.00  0.00     0.176 HD
ATOM     20  H61 UNL     1      21.077  -2.048  17.338  1.00  0.00     0.176 HD
ENDBRANCH  16  18
ENDBRANCH   6  16
BRANCH   1  21
HETATM   21  N1  UNL     1      25.818  -1.177  13.693  1.00  0.00    -0.234 N 
ATOM     22  H12 UNL     1      26.685  -1.551  14.079  1.00  0.00     0.174 HD
ATOM     23  H11 UNL     1      25.698  -1.232  12.681  1.00  0.00     0.174 HD
ENDBRANCH   1  21
TORSDOF 5
ENDMDL
MODEL 4
REMARK VINA RESULT: -5.826846584      1.759      1.929
REMARK  5 active torsions:
REMARK  status: ('A' for Active; 'I' for Inactive)
REMARK    1  A    between atoms: N1_1  and  C1_4 
REMARK    2  A    between atoms: C3_8  and  C4_9 
REMARK       I    between atoms: C4_9  and  N3_11 
REMARK    3  A    between atoms: N3_11  and  N4_13 
REMARK    4  A    between atoms: C5_16  and  N5_17 
REMARK    5  A    between atoms: N5_17  and  N6_19 
ROOT
HETATM    1  C1  UNL     1      26.194   1.059  12.602  1.00  0.00     0.677 A 
HETATM    2  N2  UNL     1      25.939   0.134  11.656  1.00  0.00    -0.201 N 
ATOM      3  H2  UNL     1      26.262   0.292  10.701  1.00  0.00     0.183 HD
HETATM    4  C2  UNL     1      25.256  -1.012  11.954  1.00  0.00     0.127 A 
HETATM    5  C3  UNL     1      24.798  -1.269  13.226  1.00  0.00     0.095 A 
HETATM    6  C5  UNL     1      25.059  -0.313  14.185  1.00  0.00     0.152 A 
HETATM    7  N7  UNL     1      25.742   0.805  13.844  1.00  0.00    -0.175 N 
ATOM      8  H7  UNL     1      25.926   1.496  14.572  1.00  0.00     0.186 HD
ENDROOT
BRANCH   5   9
HETATM    9  C4  UNL     1      24.122  -2.525  13.564  1.00  0.00     0.274 C 
HETATM   10  O1  UNL     1      24.750  -3.636  13.532  1.00  0.00    -0.266 OA
HETATM   11  N3  UNL     1      22.767  -2.510  13.937  1.00  0.00    -0.272 N 
ATOM     12  H3  UNL     1      22.253  -1.630  13.974  1.00  0.00     0.189 HD
BRANCH  11  13
HETATM   13  N4  UNL     1      22.125  -3.718  14.257  1.00  0.00    -0.342 N 
ATOM     14  H42 UNL     1      21.206  -3.693  14.699  1.00  0.00     0.176 HD
ATOM     15  H41 UNL     1      22.586  -4.603  14.044  1.00  0.00     0.176 HD
ENDBRANCH  11  13
ENDBRANCH   5   9
BRANCH   6  16
HETATM   16  N5  UNL     1      24.634  -0.507  15.387  1.00  0.00    -0.291 N 
ATOM     17  H5  UNL     1      25.033  -1.244  15.970  1.00  0.00     0.188 HD
BRANCH  16  18
HETATM   18  N6  UNL     1      23.596   0.331  15.878  1.00  0.00    -0.344 N 
ATOM     19  H62 UNL     1      23.776   1.323  16.040  1.00  0.00     0.176 HD
ATOM     20  H61 UNL     1      22.683  -0.086  16.059  1.00  0.00     0.176 HD
ENDBRANCH  16  18
ENDBRANCH   6  16
BRANCH   1  21
HETATM   21  N1  UNL     1      26.877   2.126  12.336  1.00  0.00    -0.234 N 
ATOM     22  H12 UNL     1      27.391   2.225  11.460  1.00  0.00     0.174 HD
ATOM     23  H11 UNL     1      26.899   2.917  12.979  1.00  0.00     0.174 HD
ENDBRANCH   1  21
TORSDOF 5
ENDMDL
MODEL 5
REMARK VINA RESULT: -5.525314674     12.785     14.242
REMARK  5 active torsions:
REMARK  status: ('A' for Active; 'I' for Inactive)
REMARK    1  A    between atoms: N1_1  and  C1_4 
REMARK    2  A    between atoms: C3_8  and  C4_9 
REMARK       I    between atoms: C4_9  and  N3_11 
REMARK    3  A    between atoms: N3_11  and  N4_13 
REMARK    4  A    between atoms: C5_16  and  N5_17 
REMARK    5  A    between atoms: N5_17  and  N6_19 
ROOT
HETATM    1  C1  UNL     1      16.746   8.324  15.398  1.00  0.00     0.677 A 
HETATM    2  N2  UNL     1      16.853   8.244  14.057  1.00  0.00    -0.201 N 
ATOM      3  H2  UNL     1      17.778   8.249  13.627  1.00  0.00     0.183 HD
HETATM    4  C2  UNL     1      15.743   8.155  13.264  1.00  0.00     0.127 A 
HETATM    5  C3  UNL     1      14.474   8.147  13.797  1.00  0.00     0.095 A 
HETATM    6  C5  UNL     1      14.376   8.235  15.170  1.00  0.00     0.152 A 
HETATM    7  N7  UNL     1      15.504   8.318  15.915  1.00  0.00    -0.175 N 
ATOM      8  H7  UNL     1      15.406   8.379  16.929  1.00  0.00     0.186 HD
ENDROOT
BRANCH   5   9
HETATM    9  C4  UNL     1      13.284   7.987  12.956  1.00  0.00     0.274 C 
HETATM   10  O1  UNL     1      12.366   7.157  13.271  1.00  0.00    -0.266 OA
HETATM   11  N3  UNL     1      13.143   8.760  11.790  1.00  0.00    -0.272 N 
ATOM     12  H3  UNL     1      13.864   9.433  11.530  1.00  0.00     0.189 HD
BRANCH  11  13
HETATM   13  N4  UNL     1      12.002   8.599  10.988  1.00  0.00    -0.342 N 
ATOM     14  H42 UNL     1      11.078   8.653  11.417  1.00  0.00     0.176 HD
ATOM     15  H41 UNL     1      12.111   8.430   9.988  1.00  0.00     0.176 HD
ENDBRANCH  11  13
ENDBRANCH   5   9
BRANCH   6  16
HETATM   16  N5  UNL     1      13.205   8.246  15.710  1.00  0.00    -0.291 N 
ATOM     17  H5  UNL     1      12.592   9.056  15.613  1.00  0.00     0.188 HD
BRANCH  16  18
HETATM   18  N6  UNL     1      12.791   7.100  16.442  1.00  0.00    -0.344 N 
ATOM     19  H62 UNL     1      12.930   7.063  17.453  1.00  0.00     0.176 HD
ATOM     20  H61 UNL     1      12.357   6.330  15.931  1.00  0.00     0.176 HD
ENDBRANCH  16  18
ENDBRANCH   6  16
BRANCH   1  21
HETATM   21  N1  UNL     1      17.794   8.365  16.157  1.00  0.00    -0.234 N 
ATOM     22  H12 UNL     1      17.812   7.902  17.066  1.00  0.00     0.174 HD
ATOM     23  H11 UNL     1      18.648   8.836  15.858  1.00  0.00     0.174 HD
ENDBRANCH   1  21
TORSDOF 5
ENDMDL
