MODEL 1
REMARK VINA RESULT: -4.641740276      0.000      0.000
REMARK  4 active torsions:
REMARK  status: ('A' for Active; 'I' for Inactive)
REMARK    1  A    between atoms: C3_3  and  C4_4 
REMARK    2  A    between atoms: C3_3  and  C6_9 
REMARK    3  A    between atoms: C4_4  and  N1_5 
REMARK    4  A    between atoms: C6_9  and  N2_11 
ROOT
HETATM    1  C1  UNL     1      14.126  23.247  -5.938  1.00  0.00     0.012 C 
HETATM    2  C2  UNL     1      14.178  24.069  -5.059  1.00  0.00    -0.109 C 
HETATM    3  C3  UNL     1      14.219  25.079  -3.964  1.00  0.00     0.119 C 
ENDROOT
BRANCH   3   4
HETATM    4  C4  UNL     1      14.791  26.335  -4.585  1.00  0.00     0.250 C 
BRANCH   4   5
HETATM    5  N1  UNL     1      13.813  27.300  -4.980  1.00  0.00    -0.078 N 
HETATM    6  C5  UNL     1      12.842  27.475  -3.908  1.00  0.00     0.267 C 
ATOM      7  H12 UNL     1      14.236  28.183  -5.264  1.00  0.00     0.276 HD
ATOM      8  H11 UNL     1      13.369  27.058  -5.865  1.00  0.00     0.276 HD
ENDBRANCH   4   5
ENDBRANCH   3   4
BRANCH   3   9
HETATM    9  C6  UNL     1      15.169  24.497  -2.934  1.00  0.00     0.196 C 
HETATM   10  C7  UNL     1      15.213  25.400  -1.710  1.00  0.00     0.041 C 
BRANCH   9  11
HETATM   11  N2  UNL     1      16.505  24.314  -3.405  1.00  0.00    -0.074 N 
ATOM     12  H23 UNL     1      16.893  23.443  -3.045  1.00  0.00     0.274 HD
ATOM     13  H22 UNL     1      16.506  24.106  -4.403  1.00  0.00     0.274 HD
ATOM     14  H21 UNL     1      17.131  25.094  -3.202  1.00  0.00     0.274 HD
ENDBRANCH   9  11
ENDBRANCH   3   9
TORSDOF 4
ENDMDL
MODEL 2
REMARK VINA RESULT: -4.573751544      1.909      3.101
REMARK  4 active torsions:
REMARK  status: ('A' for Active; 'I' for Inactive)
REMARK    1  A    between atoms: C3_3  and  C4_4 
REMARK    2  A    between atoms: C3_3  and  C6_9 
REMARK    3  A    between atoms: C4_4  and  N1_5 
REMARK    4  A    between atoms: C6_9  and  N2_11 
ROOT
HETATM    1  C1  UNL     1      13.407  27.431  -1.085  1.00  0.00     0.012 C 
HETATM    2  C2  UNL     1      13.958  26.804  -1.953  1.00  0.00    -0.109 C 
HETATM    3  C3  UNL     1      14.660  26.045  -3.027  1.00  0.00     0.119 C 
ENDROOT
BRANCH   3   4
HETATM    4  C4  UNL     1      13.588  25.650  -4.018  1.00  0.00     0.250 C 
BRANCH   4   5
HETATM    5  N1  UNL     1      12.778  24.546  -3.606  1.00  0.00    -0.078 N 
HETATM    6  C5  UNL     1      11.682  24.368  -4.549  1.00  0.00     0.267 C 
ATOM      7  H12 UNL     1      13.324  23.693  -3.484  1.00  0.00     0.276 HD
ATOM      8  H11 UNL     1      12.447  24.646  -2.647  1.00  0.00     0.276 HD
ENDBRANCH   4   5
ENDBRANCH   3   4
BRANCH   3   9
HETATM    9  C6  UNL     1      15.235  24.827  -2.329  1.00  0.00     0.196 C 
HETATM   10  C7  UNL     1      15.547  25.166  -0.880  1.00  0.00     0.041 C 
BRANCH   9  11
HETATM   11  N2  UNL     1      16.422  24.310  -2.934  1.00  0.00    -0.074 N 
ATOM     12  H23 UNL     1      16.210  23.473  -3.476  1.00  0.00     0.274 HD
ATOM     13  H22 UNL     1      16.739  24.926  -3.682  1.00  0.00     0.274 HD
ATOM     14  H21 UNL     1      17.181  24.126  -2.278  1.00  0.00     0.274 HD
ENDBRANCH   9  11
ENDBRANCH   3   9
TORSDOF 4
ENDMDL
MODEL 3
REMARK VINA RESULT: -4.515709842      1.998      2.814
REMARK  4 active torsions:
REMARK  status: ('A' for Active; 'I' for Inactive)
REMARK    1  A    between atoms: C3_3  and  C4_4 
REMARK    2  A    between atoms: C3_3  and  C6_9 
REMARK    3  A    between atoms: C4_4  and  N1_5 
REMARK    4  A    between atoms: C6_9  and  N2_11 
ROOT
HETATM    1  C1  UNL     1      11.605  24.505  -4.744  1.00  0.00     0.012 C 
HETATM    2  C2  UNL     1      12.656  24.410  -4.164  1.00  0.00    -0.109 C 
HETATM    3  C3  UNL     1      13.952  24.266  -3.442  1.00  0.00     0.119 C 
ENDROOT
BRANCH   3   4
HETATM    4  C4  UNL     1      14.067  25.489  -2.559  1.00  0.00     0.250 C 
BRANCH   4   5
HETATM    5  N1  UNL     1      13.429  25.364  -1.285  1.00  0.00    -0.078 N 
HETATM    6  C5  UNL     1      13.444  26.652  -0.605  1.00  0.00     0.267 C 
ATOM      7  H12 UNL     1      12.488  24.979  -1.363  1.00  0.00     0.276 HD
ATOM      8  H11 UNL     1      13.843  24.624  -0.718  1.00  0.00     0.276 HD
ENDBRANCH   4   5
ENDBRANCH   3   4
BRANCH   3   9
HETATM    9  C6  UNL     1      15.007  24.278  -4.532  1.00  0.00     0.196 C 
HETATM   10  C7  UNL     1      14.747  23.142  -5.509  1.00  0.00     0.041 C 
BRANCH   9  11
HETATM   11  N2  UNL     1      16.348  24.158  -4.052  1.00  0.00    -0.074 N 
ATOM     12  H23 UNL     1      16.412  24.484  -3.088  1.00  0.00     0.274 HD
ATOM     13  H22 UNL     1      16.593  23.177  -3.921  1.00  0.00     0.274 HD
ATOM     14  H21 UNL     1      17.044  24.626  -4.633  1.00  0.00     0.274 HD
ENDBRANCH   9  11
ENDBRANCH   3   9
TORSDOF 4
ENDMDL
MODEL 4
REMARK VINA RESULT: -4.502390746      1.674      3.657
REMARK  4 active torsions:
REMARK  status: ('A' for Active; 'I' for Inactive)
REMARK    1  A    between atoms: C3_3  and  C4_4 
REMARK    2  A    between atoms: C3_3  and  C6_9 
REMARK    3  A    between atoms: C4_4  and  N1_5 
REMARK    4  A    between atoms: C6_9  and  N2_11 
ROOT
HETATM    1  C1  UNL     1      13.693  27.311  -4.839  1.00  0.00     0.012 C 
HETATM    2  C2  UNL     1      13.533  26.286  -4.227  1.00  0.00    -0.109 C 
HETATM    3  C3  UNL     1      13.316  25.029  -3.456  1.00  0.00     0.119 C 
ENDROOT
BRANCH   3   4
HETATM    4  C4  UNL     1      14.697  24.508  -3.124  1.00  0.00     0.250 C 
BRANCH   4   5
HETATM    5  N1  UNL     1      15.514  25.422  -2.388  1.00  0.00    -0.078 N 
HETATM    6  C5  UNL     1      15.156  25.367  -0.977  1.00  0.00     0.267 C 
ATOM      7  H12 UNL     1      16.509  25.257  -2.540  1.00  0.00     0.276 HD
ATOM      8  H11 UNL     1      15.465  26.370  -2.761  1.00  0.00     0.276 HD
ENDBRANCH   4   5
ENDBRANCH   3   4
BRANCH   3   9
HETATM    9  C6  UNL     1      12.600  24.101  -4.420  1.00  0.00     0.196 C 
HETATM   10  C7  UNL     1      13.513  23.777  -5.592  1.00  0.00     0.041 C 
BRANCH   9  11
HETATM   11  N2  UNL     1      11.375  24.623  -4.937  1.00  0.00    -0.074 N 
ATOM     12  H23 UNL     1      10.737  23.865  -5.175  1.00  0.00     0.274 HD
ATOM     13  H22 UNL     1      10.839  25.076  -4.196  1.00  0.00     0.274 HD
ATOM     14  H21 UNL     1      11.490  25.254  -5.730  1.00  0.00     0.274 HD
ENDBRANCH   9  11
ENDBRANCH   3   9
TORSDOF 4
ENDMDL
MODEL 5
REMARK VINA RESULT: -4.480426406      2.299      3.973
REMARK  4 active torsions:
REMARK  status: ('A' for Active; 'I' for Inactive)
REMARK    1  A    between atoms: C3_3  and  C4_4 
REMARK    2  A    between atoms: C3_3  and  C6_9 
REMARK    3  A    between atoms: C4_4  and  N1_5 
REMARK    4  A    between atoms: C6_9  and  N2_11 
ROOT
HETATM    1  C1  UNL     1      14.420  26.827  -5.045  1.00  0.00     0.012 C 
HETATM    2  C2  UNL     1      14.352  25.628  -4.965  1.00  0.00    -0.109 C 
HETATM    3  C3  UNL     1      14.289  24.143  -4.849  1.00  0.00     0.119 C 
ENDROOT
BRANCH   3   4
HETATM    4  C4  UNL     1      14.025  23.633  -6.249  1.00  0.00     0.250 C 
BRANCH   4   5
HETATM    5  N1  UNL     1      14.642  22.379  -6.550  1.00  0.00    -0.078 N 
HETATM    6  C5  UNL     1      14.365  22.020  -7.934  1.00  0.00     0.267 C 
ATOM      7  H12 UNL     1      15.641  22.383  -6.345  1.00  0.00     0.276 HD
ATOM      8  H11 UNL     1      14.362  21.646  -5.899  1.00  0.00     0.276 HD
ENDBRANCH   4   5
ENDBRANCH   3   4
BRANCH   3   9
HETATM    9  C6  UNL     1      13.107  23.874  -3.937  1.00  0.00     0.196 C 
HETATM   10  C7  UNL     1      11.829  24.368  -4.597  1.00  0.00     0.041 C 
BRANCH   9  11
HETATM   11  N2  UNL     1      13.210  24.481  -2.648  1.00  0.00    -0.074 N 
ATOM     12  H23 UNL     1      14.028  25.088  -2.605  1.00  0.00     0.274 HD
ATOM     13  H22 UNL     1      12.472  25.174  -2.520  1.00  0.00     0.274 HD
ATOM     14  H21 UNL     1      13.216  23.819  -1.872  1.00  0.00     0.274 HD
ENDBRANCH   9  11
ENDBRANCH   3   9
TORSDOF 4
ENDMDL
