MODEL 1
REMARK VINA RESULT: -5.362342715      0.000      0.000
REMARK  3 active torsions:
REMARK  status: ('A' for Active; 'I' for Inactive)
REMARK    1  A    between atoms: C1_2  and  N1_3 
REMARK    2  A    between atoms: N1_3  and  N2_5 
REMARK    3  A    between atoms: C2_7  and  C3_8 
ROOT
HETATM    1  C3  UNL     1      13.835  26.378  -2.474  1.00  0.00     0.014 A 
HETATM    2  C4  UNL     1      13.782  26.404  -1.082  1.00  0.00     0.121 A 
HETATM    3  N3  UNL     1      13.240  27.580  -0.729  1.00  0.00    -0.311 N 
ATOM      4  H3  UNL     1      13.080  27.870   0.236  1.00  0.00     0.186 HD
HETATM    5  N4  UNL     1      12.938  28.318  -1.782  1.00  0.00    -0.311 N 
ATOM      6  H4  UNL     1      12.519  29.249  -1.783  1.00  0.00     0.186 HD
HETATM    7  C5  UNL     1      13.300  27.588  -2.852  1.00  0.00     0.121 A 
ENDROOT
BRANCH   1   8
HETATM    8  C2  UNL     1      14.351  25.284  -3.245  1.00  0.00     0.121 C 
HETATM    9  N2  UNL     1      13.691  24.341  -3.784  1.00  0.00    -0.309 N 
ATOM     10  H2  UNL     1      14.251  23.659  -4.294  1.00  0.00     0.186 HD
BRANCH   9  11
HETATM   11  N1  UNL     1      12.348  24.104  -3.787  1.00  0.00    -0.278 N 
ATOM     12  H1  UNL     1      11.964  23.570  -3.007  1.00  0.00     0.189 HD
BRANCH  11  13
HETATM   13  C1  UNL     1      11.441  24.543  -4.788  1.00  0.00     0.368 C 
HETATM   14  O1  UNL     1      11.376  25.737  -5.164  1.00  0.00    -0.282 OA
ENDBRANCH  11  13
ENDBRANCH   9  11
ENDBRANCH   1   8
TORSDOF 3
ENDMDL
MODEL 2
REMARK VINA RESULT: -5.303097578      0.059      1.140
REMARK  3 active torsions:
REMARK  status: ('A' for Active; 'I' for Inactive)
REMARK    1  A    between atoms: C1_2  and  N1_3 
REMARK    2  A    between atoms: N1_3  and  N2_5 
REMARK    3  A    between atoms: C2_7  and  C3_8 
ROOT
HETATM    1  C3  UNL     1      13.861  26.342  -2.422  1.00  0.00     0.014 A 
HETATM    2  C4  UNL     1      13.309  27.526  -2.906  1.00  0.00     0.121 A 
HETATM    3  N3  UNL     1      12.947  28.258  -1.840  1.00  0.00    -0.311 N 
ATOM      4  H3  UNL     1      12.512  29.178  -1.900  1.00  0.00     0.186 HD
HETATM    5  N4  UNL     1      13.220  27.642  -0.705  1.00  0.00    -0.311 N 
ATOM      6  H4  UNL     1      13.042  27.983   0.240  1.00  0.00     0.186 HD
HETATM    7  C5  UNL     1      13.780  26.470  -1.054  1.00  0.00     0.121 A 
ENDROOT
BRANCH   1   8
HETATM    8  C2  UNL     1      14.373  25.289  -3.250  1.00  0.00     0.121 C 
HETATM    9  N2  UNL     1      13.712  24.365  -3.819  1.00  0.00    -0.309 N 
ATOM     10  H2  UNL     1      14.269  23.711  -4.369  1.00  0.00     0.186 HD
BRANCH   9  11
HETATM   11  N1  UNL     1      12.371  24.114  -3.807  1.00  0.00    -0.278 N 
ATOM     12  H1  UNL     1      12.000  23.580  -3.020  1.00  0.00     0.189 HD
BRANCH  11  13
HETATM   13  C1  UNL     1      11.450  24.537  -4.802  1.00  0.00     0.368 C 
HETATM   14  O1  UNL     1      11.334  25.736  -5.149  1.00  0.00    -0.282 OA
ENDBRANCH  11  13
ENDBRANCH   9  11
ENDBRANCH   1   8
TORSDOF 3
ENDMDL
MODEL 3
REMARK VINA RESULT: -5.138381673      2.528      4.121
REMARK  3 active torsions:
REMARK  status: ('A' for Active; 'I' for Inactive)
REMARK    1  A    between atoms: C1_2  and  N1_3 
REMARK    2  A    between atoms: N1_3  and  N2_5 
REMARK    3  A    between atoms: C2_7  and  C3_8 
ROOT
HETATM    1  C3  UNL     1      14.541  24.831  -3.489  1.00  0.00     0.014 A 
HETATM    2  C4  UNL     1      15.443  24.383  -4.451  1.00  0.00     0.121 A 
HETATM    3  N3  UNL     1      16.589  24.092  -3.814  1.00  0.00    -0.311 N 
ATOM      4  H3  UNL     1      17.427  23.740  -4.277  1.00  0.00     0.186 HD
HETATM    5  N4  UNL     1      16.500  24.317  -2.516  1.00  0.00    -0.311 N 
ATOM      6  H4  UNL     1      17.228  24.178  -1.815  1.00  0.00     0.186 HD
HETATM    7  C5  UNL     1      15.250  24.769  -2.311  1.00  0.00     0.121 A 
ENDROOT
BRANCH   1   8
HETATM    8  C2  UNL     1      13.196  25.242  -3.769  1.00  0.00     0.121 C 
HETATM    9  N2  UNL     1      12.687  26.392  -3.587  1.00  0.00    -0.309 N 
ATOM     10  H2  UNL     1      11.707  26.478  -3.854  1.00  0.00     0.186 HD
BRANCH   9  11
HETATM   11  N1  UNL     1      13.252  27.530  -3.088  1.00  0.00    -0.278 N 
ATOM     12  H1  UNL     1      13.677  28.174  -3.754  1.00  0.00     0.189 HD
BRANCH  11  13
HETATM   13  C1  UNL     1      13.294  27.888  -1.714  1.00  0.00     0.368 C 
HETATM   14  O1  UNL     1      13.284  29.080  -1.326  1.00  0.00    -0.282 OA
ENDBRANCH  11  13
ENDBRANCH   9  11
ENDBRANCH   1   8
TORSDOF 3
ENDMDL
MODEL 4
REMARK VINA RESULT: -4.864748529      2.566      4.330
REMARK  3 active torsions:
REMARK  status: ('A' for Active; 'I' for Inactive)
REMARK    1  A    between atoms: C1_2  and  N1_3 
REMARK    2  A    between atoms: N1_3  and  N2_5 
REMARK    3  A    between atoms: C2_7  and  C3_8 
ROOT
HETATM    1  C3  UNL     1      14.685  24.470  -2.477  1.00  0.00     0.014 A 
HETATM    2  C4  UNL     1      14.260  24.364  -3.799  1.00  0.00     0.121 A 
HETATM    3  N3  UNL     1      15.359  24.211  -4.556  1.00  0.00    -0.311 N 
ATOM      4  H3  UNL     1      15.345  24.109  -5.570  1.00  0.00     0.186 HD
HETATM    5  N4  UNL     1      16.461  24.210  -3.828  1.00  0.00    -0.311 N 
ATOM      6  H4  UNL     1      17.420  24.112  -4.162  1.00  0.00     0.186 HD
HETATM    7  C5  UNL     1      16.055  24.368  -2.556  1.00  0.00     0.121 A 
ENDROOT
BRANCH   1   8
HETATM    8  C2  UNL     1      13.807  24.644  -1.356  1.00  0.00     0.121 C 
HETATM    9  N2  UNL     1      13.538  25.727  -0.747  1.00  0.00    -0.309 N 
ATOM     10  H2  UNL     1      12.884  25.635   0.029  1.00  0.00     0.186 HD
BRANCH   9  11
HETATM   11  N1  UNL     1      13.993  26.994  -0.974  1.00  0.00    -0.278 N 
ATOM     12  H1  UNL     1      14.903  27.242  -0.586  1.00  0.00     0.189 HD
BRANCH  11  13
HETATM   13  C1  UNL     1      13.299  27.993  -1.707  1.00  0.00     0.368 C 
HETATM   14  O1  UNL     1      13.227  29.184  -1.324  1.00  0.00    -0.282 OA
ENDBRANCH  11  13
ENDBRANCH   9  11
ENDBRANCH   1   8
TORSDOF 3
ENDMDL
MODEL 5
REMARK VINA RESULT: -4.822522156      2.586      4.229
REMARK  3 active torsions:
REMARK  status: ('A' for Active; 'I' for Inactive)
REMARK    1  A    between atoms: C1_2  and  N1_3 
REMARK    2  A    between atoms: N1_3  and  N2_5 
REMARK    3  A    between atoms: C2_7  and  C3_8 
ROOT
HETATM    1  C3  UNL     1      14.587  24.491  -2.473  1.00  0.00     0.014 A 
HETATM    2  C4  UNL     1      15.977  24.410  -2.430  1.00  0.00     0.121 A 
HETATM    3  N3  UNL     1      16.402  24.228  -3.691  1.00  0.00    -0.311 N 
ATOM      4  H3  UNL     1      17.382  24.134  -3.955  1.00  0.00     0.186 HD
HETATM    5  N4  UNL     1      15.397  24.185  -4.546  1.00  0.00    -0.311 N 
ATOM      6  H4  UNL     1      15.454  24.056  -5.557  1.00  0.00     0.186 HD
HETATM    7  C5  UNL     1      14.285  24.346  -3.808  1.00  0.00     0.121 A 
ENDROOT
BRANCH   1   8
HETATM    8  C2  UNL     1      13.751  24.686  -1.325  1.00  0.00     0.121 C 
HETATM    9  N2  UNL     1      13.518  25.778  -0.716  1.00  0.00    -0.309 N 
ATOM     10  H2  UNL     1      12.889  25.701   0.083  1.00  0.00     0.186 HD
BRANCH   9  11
HETATM   11  N1  UNL     1      13.981  27.036  -0.969  1.00  0.00    -0.278 N 
ATOM     12  H1  UNL     1      14.909  27.274  -0.619  1.00  0.00     0.189 HD
BRANCH  11  13
HETATM   13  C1  UNL     1      13.273  28.040  -1.681  1.00  0.00     0.368 C 
HETATM   14  O1  UNL     1      13.238  29.236  -1.307  1.00  0.00    -0.282 OA
ENDBRANCH  11  13
ENDBRANCH   9  11
ENDBRANCH   1   8
TORSDOF 3
ENDMDL
