MODEL 1
REMARK VINA RESULT: -5.035343546      0.000      0.000
REMARK  6 active torsions:
REMARK  status: ('A' for Active; 'I' for Inactive)
REMARK    1  A    between atoms: N1_2  and  N2_4 
REMARK    2  A    between atoms: N2_4  and  C2_6 
REMARK    3  A    between atoms: C2_6  and  C3_7 
REMARK    4  A    between atoms: C5_12  and  N4_13 
REMARK    5  A    between atoms: N4_13  and  N5_15 
REMARK    6  A    between atoms: N5_15  and  N6_16 
ROOT
HETATM    1  C3  UNL     1      14.758  25.040  -3.866  1.00  0.00     0.083 A 
HETATM    2  C4  UNL     1      15.993  24.218  -4.106  1.00  0.00     0.245 A 
HETATM    3  N3  UNL     1      16.183  24.194  -2.648  1.00  0.00    -0.051 N 
ATOM      4  H31 UNL     1      17.077  24.505  -2.267  1.00  0.00     0.279 HD
ATOM      5  H32 UNL     1      16.266  23.289  -2.182  1.00  0.00     0.279 HD
HETATM    6  C5  UNL     1      14.997  25.003  -2.392  1.00  0.00     0.320 A 
ENDROOT
BRANCH   1   7
HETATM    7  C2  UNL     1      14.752  26.407  -4.462  1.00  0.00     0.149 C 
BRANCH   7   8
HETATM    8  N2  UNL     1      13.410  26.901  -4.693  1.00  0.00    -0.337 N 
ATOM      9  H2  UNL     1      12.847  26.513  -5.450  1.00  0.00     0.180 HD
BRANCH   8  10
HETATM   10  N1  UNL     1      12.887  27.903  -3.883  1.00  0.00    -0.326 N 
HETATM   11  C1  UNL     1      12.996  27.947  -2.620  1.00  0.00     0.138 C 
ATOM     12  H1  UNL     1      12.378  28.660  -4.340  1.00  0.00     0.184 HD
ENDBRANCH   8  10
ENDBRANCH   7   8
ENDBRANCH   1   7
BRANCH   6  13
HETATM   13  N4  UNL     1      13.955  24.309  -1.661  1.00  0.00    -0.221 N 
ATOM     14  H4  UNL     1      12.982  24.523  -1.879  1.00  0.00     0.199 HD
BRANCH  13  15
HETATM   15  N5  UNL     1      14.189  23.472  -0.788  1.00  0.00    -0.247 NA
BRANCH  15  16
HETATM   16  N6  UNL     1      14.231  22.518   0.008  1.00  0.00    -0.261 N 
ATOM     17  H62 UNL     1      14.370  23.174   0.778  1.00  0.00     0.193 HD
ATOM     18  H61 UNL     1      14.239  21.626   0.501  1.00  0.00     0.193 HD
ENDBRANCH  15  16
ENDBRANCH  13  15
ENDBRANCH   6  13
TORSDOF 6
ENDMDL
MODEL 2
REMARK VINA RESULT: -4.996952329      3.395      4.493
REMARK  6 active torsions:
REMARK  status: ('A' for Active; 'I' for Inactive)
REMARK    1  A    between atoms: N1_2  and  N2_4 
REMARK    2  A    between atoms: N2_4  and  C2_6 
REMARK    3  A    between atoms: C2_6  and  C3_7 
REMARK    4  A    between atoms: C5_12  and  N4_13 
REMARK    5  A    between atoms: N4_13  and  N5_15 
REMARK    6  A    between atoms: N5_15  and  N6_16 
ROOT
HETATM    1  C3  UNL     1      13.779  24.382  -5.316  1.00  0.00     0.083 A 
HETATM    2  C4  UNL     1      12.489  24.177  -4.573  1.00  0.00     0.245 A 
HETATM    3  N3  UNL     1      13.282  24.142  -3.335  1.00  0.00    -0.051 N 
ATOM      4  H31 UNL     1      13.180  23.340  -2.713  1.00  0.00     0.279 HD
ATOM      5  H32 UNL     1      13.042  24.791  -2.585  1.00  0.00     0.279 HD
HETATM    6  C5  UNL     1      14.547  24.325  -4.036  1.00  0.00     0.320 A 
ENDROOT
BRANCH   1   7
HETATM    7  C2  UNL     1      14.141  23.327  -6.306  1.00  0.00     0.149 C 
BRANCH   7   8
HETATM    8  N2  UNL     1      13.292  23.360  -7.481  1.00  0.00    -0.337 N 
ATOM      9  H2  UNL     1      12.278  23.388  -7.375  1.00  0.00     0.180 HD
BRANCH   8  10
HETATM   10  N1  UNL     1      13.859  23.353  -8.750  1.00  0.00    -0.326 N 
HETATM   11  C1  UNL     1      13.454  22.645  -9.722  1.00  0.00     0.138 C 
ATOM     12  H1  UNL     1      14.659  23.964  -8.912  1.00  0.00     0.184 HD
ENDBRANCH   8  10
ENDBRANCH   7   8
ENDBRANCH   1   7
BRANCH   6  13
HETATM   13  N4  UNL     1      15.224  25.567  -3.719  1.00  0.00    -0.221 N 
ATOM     14  H4  UNL     1      15.645  26.100  -4.481  1.00  0.00     0.199 HD
BRANCH  13  15
HETATM   15  N5  UNL     1      15.314  26.011  -2.574  1.00  0.00    -0.247 NA
BRANCH  15  16
HETATM   16  N6  UNL     1      15.176  26.390  -1.398  1.00  0.00    -0.261 N 
ATOM     17  H62 UNL     1      14.340  26.908  -1.669  1.00  0.00     0.193 HD
ATOM     18  H61 UNL     1      15.226  26.597  -0.401  1.00  0.00     0.193 HD
ENDBRANCH  15  16
ENDBRANCH  13  15
ENDBRANCH   6  13
TORSDOF 6
ENDMDL
MODEL 3
REMARK VINA RESULT: -4.996812852      1.335      1.691
REMARK  6 active torsions:
REMARK  status: ('A' for Active; 'I' for Inactive)
REMARK    1  A    between atoms: N1_2  and  N2_4 
REMARK    2  A    between atoms: N2_4  and  C2_6 
REMARK    3  A    between atoms: C2_6  and  C3_7 
REMARK    4  A    between atoms: C5_12  and  N4_13 
REMARK    5  A    between atoms: N4_13  and  N5_15 
REMARK    6  A    between atoms: N5_15  and  N6_16 
ROOT
HETATM    1  C3  UNL     1      13.034  25.382  -3.609  1.00  0.00     0.083 A 
HETATM    2  C4  UNL     1      12.399  24.196  -4.278  1.00  0.00     0.245 A 
HETATM    3  N3  UNL     1      13.377  23.354  -3.573  1.00  0.00    -0.051 N 
ATOM      4  H31 UNL     1      13.954  22.715  -4.120  1.00  0.00     0.279 HD
ATOM      5  H32 UNL     1      13.032  22.591  -2.989  1.00  0.00     0.279 HD
HETATM    6  C5  UNL     1      14.020  24.491  -2.924  1.00  0.00     0.320 A 
ENDROOT
BRANCH   1   7
HETATM    7  C2  UNL     1      13.641  26.400  -4.514  1.00  0.00     0.149 C 
BRANCH   7   8
HETATM    8  N2  UNL     1      13.342  27.755  -4.096  1.00  0.00    -0.337 N 
ATOM      9  H2  UNL     1      13.569  28.539  -4.708  1.00  0.00     0.180 HD
BRANCH   8  10
HETATM   10  N1  UNL     1      12.748  27.989  -2.861  1.00  0.00    -0.326 N 
HETATM   11  C1  UNL     1      13.375  28.272  -1.795  1.00  0.00     0.138 C 
ATOM     12  H1  UNL     1      11.731  27.928  -2.809  1.00  0.00     0.184 HD
ENDBRANCH   8  10
ENDBRANCH   7   8
ENDBRANCH   1   7
BRANCH   6  13
HETATM   13  N4  UNL     1      13.889  24.498  -1.480  1.00  0.00    -0.221 N 
ATOM     14  H4  UNL     1      13.567  25.352  -1.025  1.00  0.00     0.199 HD
BRANCH  13  15
HETATM   15  N5  UNL     1      14.149  23.521  -0.777  1.00  0.00    -0.247 NA
BRANCH  15  16
HETATM   16  N6  UNL     1      14.176  22.528  -0.030  1.00  0.00    -0.261 N 
ATOM     17  H62 UNL     1      14.650  23.084   0.683  1.00  0.00     0.193 HD
ATOM     18  H61 UNL     1      14.106  21.623   0.435  1.00  0.00     0.193 HD
ENDBRANCH  15  16
ENDBRANCH  13  15
ENDBRANCH   6  13
TORSDOF 6
ENDMDL
MODEL 4
REMARK VINA RESULT: -4.968701993      1.692      2.803
REMARK  6 active torsions:
REMARK  status: ('A' for Active; 'I' for Inactive)
REMARK    1  A    between atoms: N1_2  and  N2_4 
REMARK    2  A    between atoms: N2_4  and  C2_6 
REMARK    3  A    between atoms: C2_6  and  C3_7 
REMARK    4  A    between atoms: C5_12  and  N4_13 
REMARK    5  A    between atoms: N4_13  and  N5_15 
REMARK    6  A    between atoms: N5_15  and  N6_16 
ROOT
HETATM    1  C3  UNL     1      14.169  26.599  -2.526  1.00  0.00     0.083 A 
HETATM    2  C4  UNL     1      13.805  27.603  -1.468  1.00  0.00     0.245 A 
HETATM    3  N3  UNL     1      13.306  26.478  -0.662  1.00  0.00    -0.051 N 
ATOM      4  H31 UNL     1      12.349  26.516  -0.312  1.00  0.00     0.279 HD
ATOM      5  H32 UNL     1      13.678  26.352   0.280  1.00  0.00     0.279 HD
HETATM    6  C5  UNL     1      13.637  25.488  -1.680  1.00  0.00     0.320 A 
ENDROOT
BRANCH   1   7
HETATM    7  C2  UNL     1      13.490  26.757  -3.844  1.00  0.00     0.149 C 
BRANCH   7   8
HETATM    8  N2  UNL     1      14.292  26.253  -4.940  1.00  0.00    -0.337 N 
ATOM      9  H2  UNL     1      14.802  26.902  -5.539  1.00  0.00     0.180 HD
BRANCH   8  10
HETATM   10  N1  UNL     1      14.367  24.885  -5.176  1.00  0.00    -0.326 N 
HETATM   11  C1  UNL     1      13.377  24.092  -5.170  1.00  0.00     0.138 C 
ATOM     12  H1  UNL     1      15.288  24.490  -5.369  1.00  0.00     0.184 HD
ENDBRANCH   8  10
ENDBRANCH   7   8
ENDBRANCH   1   7
BRANCH   6  13
HETATM   13  N4  UNL     1      14.657  24.540  -1.273  1.00  0.00    -0.221 N 
ATOM     14  H4  UNL     1      15.631  24.755  -1.482  1.00  0.00     0.199 HD
BRANCH  13  15
HETATM   15  N5  UNL     1      14.401  23.488  -0.686  1.00  0.00    -0.247 NA
BRANCH  15  16
HETATM   16  N6  UNL     1      14.022  22.567   0.058  1.00  0.00    -0.261 N 
ATOM     17  H62 UNL     1      13.744  22.027  -0.762  1.00  0.00     0.193 HD
ATOM     18  H61 UNL     1      13.771  21.929   0.813  1.00  0.00     0.193 HD
ENDBRANCH  15  16
ENDBRANCH  13  15
ENDBRANCH   6  13
TORSDOF 6
ENDMDL
MODEL 5
REMARK VINA RESULT: -4.855365249      1.924      3.249
REMARK  6 active torsions:
REMARK  status: ('A' for Active; 'I' for Inactive)
REMARK    1  A    between atoms: N1_2  and  N2_4 
REMARK    2  A    between atoms: N2_4  and  C2_6 
REMARK    3  A    between atoms: C2_6  and  C3_7 
REMARK    4  A    between atoms: C5_12  and  N4_13 
REMARK    5  A    between atoms: N4_13  and  N5_15 
REMARK    6  A    between atoms: N5_15  and  N6_16 
ROOT
HETATM    1  C3  UNL     1      13.938  27.118  -2.563  1.00  0.00     0.083 A 
HETATM    2  C4  UNL     1      13.366  27.901  -1.415  1.00  0.00     0.245 A 
HETATM    3  N3  UNL     1      13.398  26.656  -0.632  1.00  0.00    -0.051 N 
ATOM      4  H31 UNL     1      12.538  26.338  -0.185  1.00  0.00     0.279 HD
ATOM      5  H32 UNL     1      13.898  26.653   0.258  1.00  0.00     0.279 HD
HETATM    6  C5  UNL     1      13.938  25.872  -1.737  1.00  0.00     0.320 A 
ENDROOT
BRANCH   1   7
HETATM    7  C2  UNL     1      13.098  27.047  -3.793  1.00  0.00     0.149 C 
BRANCH   7   8
HETATM    8  N2  UNL     1      13.886  26.800  -4.984  1.00  0.00    -0.337 N 
ATOM      9  H2  UNL     1      14.061  27.556  -5.645  1.00  0.00     0.180 HD
BRANCH   8  10
HETATM   10  N1  UNL     1      14.403  25.532  -5.226  1.00  0.00    -0.326 N 
HETATM   11  C1  UNL     1      13.725  24.459  -5.225  1.00  0.00     0.138 C 
ATOM     12  H1  UNL     1      15.402  25.460  -5.418  1.00  0.00     0.184 HD
ENDBRANCH   8  10
ENDBRANCH   7   8
ENDBRANCH   1   7
BRANCH   6  13
HETATM   13  N4  UNL     1      15.269  25.348  -1.494  1.00  0.00    -0.221 N 
ATOM     14  H4  UNL     1      15.656  25.421  -0.554  1.00  0.00     0.199 HD
BRANCH  13  15
HETATM   15  N5  UNL     1      15.953  24.819  -2.371  1.00  0.00    -0.247 NA
BRANCH  15  16
HETATM   16  N6  UNL     1      16.683  24.116  -3.091  1.00  0.00    -0.261 N 
ATOM     17  H62 UNL     1      16.868  23.504  -2.296  1.00  0.00     0.193 HD
ATOM     18  H61 UNL     1      17.234  23.669  -3.823  1.00  0.00     0.193 HD
ENDBRANCH  15  16
ENDBRANCH  13  15
ENDBRANCH   6  13
TORSDOF 6
ENDMDL
