MODEL 1
REMARK VINA RESULT: -5.028990084      0.000      0.000
REMARK  3 active torsions:
REMARK  status: ('A' for Active; 'I' for Inactive)
REMARK    1  A    between atoms: C1_2  and  N1_3 
REMARK    2  A    between atoms: N1_3  and  N2_5 
REMARK    3  A    between atoms: C2_7  and  C3_8 
ROOT
HETATM    1  C3  UNL     1      13.986  26.238  -2.527  1.00  0.00     0.065 A 
HETATM    2  C4  UNL     1      13.880  26.344  -1.135  1.00  0.00     0.119 A 
HETATM    3  N3  UNL     1      13.280  27.524  -0.929  1.00  0.00    -0.360 N 
ATOM      4  H3  UNL     1      13.052  27.908  -0.013  1.00  0.00     0.166 HD
HETATM    5  C5  UNL     1      13.021  28.127  -2.099  1.00  0.00     0.180 A 
HETATM    6  N4  UNL     1      13.457  27.331  -3.076  1.00  0.00    -0.350 N 
ATOM      7  H4  UNL     1      13.397  27.526  -4.075  1.00  0.00     0.166 HD
ENDROOT
BRANCH   1   8
HETATM    8  C2  UNL     1      14.593  25.083  -3.197  1.00  0.00     0.138 C 
HETATM    9  N2  UNL     1      13.802  24.195  -3.688  1.00  0.00    -0.308 N 
ATOM     10  H2  UNL     1      14.214  23.388  -4.156  1.00  0.00     0.186 HD
BRANCH   9  11
HETATM   11  N1  UNL     1      12.417  24.276  -3.614  1.00  0.00    -0.278 N 
ATOM     12  H1  UNL     1      11.951  24.095  -2.725  1.00  0.00     0.189 HD
BRANCH  11  13
HETATM   13  C1  UNL     1      11.634  24.608  -4.762  1.00  0.00     0.368 C 
HETATM   14  O1  UNL     1      11.550  25.807  -5.101  1.00  0.00    -0.282 OA
ENDBRANCH  11  13
ENDBRANCH   9  11
ENDBRANCH   1   8
TORSDOF 3
ENDMDL
MODEL 2
REMARK VINA RESULT: -4.810299954      2.172      4.042
REMARK  3 active torsions:
REMARK  status: ('A' for Active; 'I' for Inactive)
REMARK    1  A    between atoms: C1_2  and  N1_3 
REMARK    2  A    between atoms: N1_3  and  N2_5 
REMARK    3  A    between atoms: C2_7  and  C3_8 
ROOT
HETATM    1  C3  UNL     1      14.579  24.426  -2.999  1.00  0.00     0.065 A 
HETATM    2  C4  UNL     1      15.139  24.434  -4.282  1.00  0.00     0.119 A 
HETATM    3  N3  UNL     1      14.150  24.023  -5.086  1.00  0.00    -0.360 N 
ATOM      4  H3  UNL     1      14.229  23.917  -6.097  1.00  0.00     0.166 HD
HETATM    5  C5  UNL     1      13.042  23.771  -4.374  1.00  0.00     0.180 A 
HETATM    6  N4  UNL     1      13.313  24.021  -3.093  1.00  0.00    -0.350 N 
ATOM      7  H4  UNL     1      12.661  23.920  -2.315  1.00  0.00     0.166 HD
ENDROOT
BRANCH   1   8
HETATM    8  C2  UNL     1      15.327  24.813  -1.798  1.00  0.00     0.138 C 
HETATM    9  N2  UNL     1      15.166  26.009  -1.354  1.00  0.00    -0.308 N 
ATOM     10  H2  UNL     1      15.681  26.288  -0.519  1.00  0.00     0.186 HD
BRANCH   9  11
HETATM   11  N1  UNL     1      14.328  26.943  -1.952  1.00  0.00    -0.278 N 
ATOM     12  H1  UNL     1      14.414  27.125  -2.951  1.00  0.00     0.189 HD
BRANCH  11  13
HETATM   13  C1  UNL     1      13.350  27.651  -1.191  1.00  0.00     0.368 C 
HETATM   14  O1  UNL     1      13.316  28.897  -1.273  1.00  0.00    -0.282 OA
ENDBRANCH  11  13
ENDBRANCH   9  11
ENDBRANCH   1   8
TORSDOF 3
ENDMDL
MODEL 3
REMARK VINA RESULT: -4.773073038      2.051      3.093
REMARK  3 active torsions:
REMARK  status: ('A' for Active; 'I' for Inactive)
REMARK    1  A    between atoms: C1_2  and  N1_3 
REMARK    2  A    between atoms: N1_3  and  N2_5 
REMARK    3  A    between atoms: C2_7  and  C3_8 
ROOT
HETATM    1  C3  UNL     1      14.233  26.294  -1.696  1.00  0.00     0.065 A 
HETATM    2  C4  UNL     1      13.637  25.183  -1.089  1.00  0.00     0.119 A 
HETATM    3  N3  UNL     1      14.431  24.154  -1.411  1.00  0.00    -0.360 N 
ATOM      4  H3  UNL     1      14.277  23.188  -1.122  1.00  0.00     0.166 HD
HETATM    5  C5  UNL     1      15.458  24.573  -2.166  1.00  0.00     0.180 A 
HETATM    6  N4  UNL     1      15.329  25.889  -2.337  1.00  0.00    -0.350 N 
ATOM      7  H4  UNL     1      15.963  26.486  -2.869  1.00  0.00     0.166 HD
ENDROOT
BRANCH   1   8
HETATM    8  C2  UNL     1      13.682  27.650  -1.599  1.00  0.00     0.138 C 
HETATM    9  N2  UNL     1      13.005  28.093  -2.599  1.00  0.00    -0.308 N 
ATOM     10  H2  UNL     1      12.618  29.034  -2.541  1.00  0.00     0.186 HD
BRANCH   9  11
HETATM   11  N1  UNL     1      12.774  27.357  -3.755  1.00  0.00    -0.278 N 
ATOM     12  H1  UNL     1      11.975  26.725  -3.795  1.00  0.00     0.189 HD
BRANCH  11  13
HETATM   13  C1  UNL     1      13.637  27.470  -4.887  1.00  0.00     0.368 C 
HETATM   14  O1  UNL     1      14.117  26.426  -5.378  1.00  0.00    -0.282 OA
ENDBRANCH  11  13
ENDBRANCH   9  11
ENDBRANCH   1   8
TORSDOF 3
ENDMDL
MODEL 4
REMARK VINA RESULT: -4.771937188      2.498      3.658
REMARK  3 active torsions:
REMARK  status: ('A' for Active; 'I' for Inactive)
REMARK    1  A    between atoms: C1_2  and  N1_3 
REMARK    2  A    between atoms: N1_3  and  N2_5 
REMARK    3  A    between atoms: C2_7  and  C3_8 
ROOT
HETATM    1  C3  UNL     1      15.037  25.071  -3.346  1.00  0.00     0.065 A 
HETATM    2  C4  UNL     1      14.457  24.254  -4.323  1.00  0.00     0.119 A 
HETATM    3  N3  UNL     1      14.178  25.083  -5.337  1.00  0.00    -0.360 N 
ATOM      4  H3  UNL     1      13.744  24.802  -6.216  1.00  0.00     0.166 HD
HETATM    5  C5  UNL     1      14.550  26.336  -5.034  1.00  0.00     0.180 A 
HETATM    6  N4  UNL     1      15.077  26.321  -3.809  1.00  0.00    -0.350 N 
ATOM      7  H4  UNL     1      15.448  27.129  -3.309  1.00  0.00     0.166 HD
ENDROOT
BRANCH   1   8
HETATM    8  C2  UNL     1      15.499  24.563  -2.050  1.00  0.00     0.138 C 
HETATM    9  N2  UNL     1      14.743  24.760  -1.028  1.00  0.00    -0.308 N 
ATOM     10  H2  UNL     1      15.056  24.410  -0.122  1.00  0.00     0.186 HD
BRANCH   9  11
HETATM   11  N1  UNL     1      13.525  25.424  -1.091  1.00  0.00    -0.278 N 
ATOM     12  H1  UNL     1      12.712  24.944  -1.479  1.00  0.00     0.189 HD
BRANCH  11  13
HETATM   13  C1  UNL     1      13.390  26.767  -0.624  1.00  0.00     0.368 C 
HETATM   14  O1  UNL     1      14.197  27.626  -1.036  1.00  0.00    -0.282 OA
ENDBRANCH  11  13
ENDBRANCH   9  11
ENDBRANCH   1   8
TORSDOF 3
ENDMDL
MODEL 5
REMARK VINA RESULT: -4.767008329      2.538      3.452
REMARK  3 active torsions:
REMARK  status: ('A' for Active; 'I' for Inactive)
REMARK    1  A    between atoms: C1_2  and  N1_3 
REMARK    2  A    between atoms: N1_3  and  N2_5 
REMARK    3  A    between atoms: C2_7  and  C3_8 
ROOT
HETATM    1  C3  UNL     1      14.537  25.350  -4.362  1.00  0.00     0.065 A 
HETATM    2  C4  UNL     1      14.741  26.650  -4.837  1.00  0.00     0.119 A 
HETATM    3  N3  UNL     1      13.522  27.205  -4.845  1.00  0.00    -0.360 N 
ATOM      4  H3  UNL     1      13.319  28.159  -5.142  1.00  0.00     0.166 HD
HETATM    5  C5  UNL     1      12.606  26.327  -4.408  1.00  0.00     0.180 A 
HETATM    6  N4  UNL     1      13.237  25.190  -4.113  1.00  0.00    -0.350 N 
ATOM      7  H4  UNL     1      12.799  24.341  -3.757  1.00  0.00     0.166 HD
ENDROOT
BRANCH   1   8
HETATM    8  C2  UNL     1      15.624  24.380  -4.192  1.00  0.00     0.138 C 
HETATM    9  N2  UNL     1      16.170  24.292  -3.031  1.00  0.00    -0.308 N 
ATOM     10  H2  UNL     1      16.927  23.621  -2.903  1.00  0.00     0.186 HD
BRANCH   9  11
HETATM   11  N1  UNL     1      15.785  25.065  -1.942  1.00  0.00    -0.278 N 
ATOM     12  H1  UNL     1      16.147  26.014  -1.848  1.00  0.00     0.189 HD
BRANCH  11  13
HETATM   13  C1  UNL     1      14.892  24.553  -0.952  1.00  0.00     0.368 C 
HETATM   14  O1  UNL     1      13.669  24.772  -1.080  1.00  0.00    -0.282 OA
ENDBRANCH  11  13
ENDBRANCH   9  11
ENDBRANCH   1   8
TORSDOF 3
ENDMDL
