MODEL 1
REMARK VINA RESULT: -5.523999335      0.000      0.000
REMARK  4 active torsions:
REMARK  status: ('A' for Active; 'I' for Inactive)
REMARK    1  A    between atoms: C1_4  and  N2_5 
REMARK    2  A    between atoms: N2_5  and  O1_7 
REMARK    3  A    between atoms: O1_7  and  C2_8 
REMARK    4  A    between atoms: C2_8  and  C3_9 
ROOT
HETATM    1  C2  UNL     1      13.600  23.708  -5.704  1.00  0.00     0.241 C 
ENDROOT
BRANCH   1   2
HETATM    2  O1  UNL     1      14.051  24.449  -6.804  1.00  0.00    -0.275 OA
BRANCH   2   3
HETATM    3  N2  UNL     1      13.873  23.665  -7.882  1.00  0.00    -0.263 N 
ATOM      4  H2  UNL     1      13.494  24.038  -8.752  1.00  0.00     0.195 HD
BRANCH   3   5
HETATM    5  C1  UNL     1      14.233  22.303  -7.764  1.00  0.00     0.197 C 
HETATM    6  N1  UNL     1      15.036  21.825  -8.660  1.00  0.00    -0.394 N 
ATOM      7  H12 UNL     1      15.384  22.419  -9.413  1.00  0.00     0.156 HD
ATOM      8  H11 UNL     1      15.296  20.843  -8.574  1.00  0.00     0.156 HD
ENDBRANCH   3   5
ENDBRANCH   2   3
ENDBRANCH   1   2
BRANCH   1   9
HETATM    9  C3  UNL     1      14.326  24.088  -4.466  1.00  0.00    -0.017 A 
HETATM   10  C4  UNL     1      13.582  24.526  -3.400  1.00  0.00     0.012 A 
HETATM   11  C5  UNL     1      14.184  24.901  -2.203  1.00  0.00     0.018 A 
HETATM   12  C6  UNL     1      15.571  24.814  -2.138  1.00  0.00     0.087 A 
HETATM   13  N3  UNL     1      16.275  24.382  -3.197  1.00  0.00    -0.375 N 
HETATM   14  C7  UNL     1      15.711  24.016  -4.359  1.00  0.00     0.096 A 
ATOM     15  H3  UNL     1      17.290  24.329  -3.115  1.00  0.00     0.164 HD
ENDBRANCH   1   9
TORSDOF 4
ENDMDL
MODEL 2
REMARK VINA RESULT: -5.522131306      1.556      1.910
REMARK  4 active torsions:
REMARK  status: ('A' for Active; 'I' for Inactive)
REMARK    1  A    between atoms: C1_4  and  N2_5 
REMARK    2  A    between atoms: N2_5  and  O1_7 
REMARK    3  A    between atoms: O1_7  and  C2_8 
REMARK    4  A    between atoms: C2_8  and  C3_9 
ROOT
HETATM    1  C2  UNL     1      14.148  23.121  -6.472  1.00  0.00     0.241 C 
ENDROOT
BRANCH   1   2
HETATM    2  O1  UNL     1      13.841  24.071  -7.455  1.00  0.00    -0.275 OA
BRANCH   2   3
HETATM    3  N2  UNL     1      13.817  23.407  -8.624  1.00  0.00    -0.263 N 
ATOM      4  H2  UNL     1      14.216  23.811  -9.471  1.00  0.00     0.195 HD
BRANCH   3   5
HETATM    5  C1  UNL     1      13.217  22.128  -8.634  1.00  0.00     0.197 C 
HETATM    6  N1  UNL     1      12.567  21.790  -9.701  1.00  0.00    -0.394 N 
ATOM      7  H12 UNL     1      12.500  22.430 -10.491  1.00  0.00     0.156 HD
ATOM      8  H11 UNL     1      12.134  20.866  -9.709  1.00  0.00     0.156 HD
ENDBRANCH   3   5
ENDBRANCH   2   3
ENDBRANCH   1   2
BRANCH   1   9
HETATM    9  C3  UNL     1      14.101  23.718  -5.114  1.00  0.00    -0.017 A 
HETATM   10  C4  UNL     1      15.289  24.090  -4.539  1.00  0.00     0.012 A 
HETATM   11  C5  UNL     1      15.332  24.658  -3.269  1.00  0.00     0.018 A 
HETATM   12  C6  UNL     1      14.118  24.828  -2.610  1.00  0.00     0.087 A 
HETATM   13  N3  UNL     1      12.969  24.454  -3.198  1.00  0.00    -0.375 N 
HETATM   14  C7  UNL     1      12.909  23.906  -4.420  1.00  0.00     0.096 A 
ATOM     15  H3  UNL     1      12.097  24.595  -2.687  1.00  0.00     0.164 HD
ENDBRANCH   1   9
TORSDOF 4
ENDMDL
MODEL 3
REMARK VINA RESULT: -5.225991221      1.002      1.044
REMARK  4 active torsions:
REMARK  status: ('A' for Active; 'I' for Inactive)
REMARK    1  A    between atoms: C1_4  and  N2_5 
REMARK    2  A    between atoms: N2_5  and  O1_7 
REMARK    3  A    between atoms: O1_7  and  C2_8 
REMARK    4  A    between atoms: C2_8  and  C3_9 
ROOT
HETATM    1  C2  UNL     1      13.714  23.761  -5.559  1.00  0.00     0.241 C 
ENDROOT
BRANCH   1   2
HETATM    2  O1  UNL     1      13.819  24.482  -6.756  1.00  0.00    -0.275 OA
BRANCH   2   3
HETATM    3  N2  UNL     1      13.743  23.575  -7.747  1.00  0.00    -0.263 N 
ATOM      4  H2  UNL     1      13.220  23.767  -8.602  1.00  0.00     0.195 HD
BRANCH   3   5
HETATM    5  C1  UNL     1      14.418  22.348  -7.559  1.00  0.00     0.197 C 
HETATM    6  N1  UNL     1      14.948  21.800  -8.606  1.00  0.00    -0.394 N 
ATOM      7  H12 UNL     1      14.872  22.248  -9.519  1.00  0.00     0.156 HD
ATOM      8  H11 UNL     1      15.435  20.914  -8.471  1.00  0.00     0.156 HD
ENDBRANCH   3   5
ENDBRANCH   2   3
ENDBRANCH   1   2
BRANCH   1   9
HETATM    9  C3  UNL     1      14.134  24.585  -4.398  1.00  0.00    -0.017 A 
HETATM   10  C4  UNL     1      13.772  24.155  -3.147  1.00  0.00     0.012 A 
HETATM   11  C5  UNL     1      14.126  24.868  -2.006  1.00  0.00     0.018 A 
HETATM   12  C6  UNL     1      14.861  26.035  -2.192  1.00  0.00     0.087 A 
HETATM   13  N3  UNL     1      15.202  26.433  -3.429  1.00  0.00    -0.375 N 
HETATM   14  C7  UNL     1      14.869  25.758  -4.539  1.00  0.00     0.096 A 
ATOM     15  H3  UNL     1      15.742  27.293  -3.529  1.00  0.00     0.164 HD
ENDBRANCH   1   9
TORSDOF 4
ENDMDL
MODEL 4
REMARK VINA RESULT: -5.194444338      3.221      5.247
REMARK  4 active torsions:
REMARK  status: ('A' for Active; 'I' for Inactive)
REMARK    1  A    between atoms: C1_4  and  N2_5 
REMARK    2  A    between atoms: N2_5  and  O1_7 
REMARK    3  A    between atoms: O1_7  and  C2_8 
REMARK    4  A    between atoms: C2_8  and  C3_9 
ROOT
HETATM    1  C2  UNL     1      13.979  25.250  -0.915  1.00  0.00     0.241 C 
ENDROOT
BRANCH   1   2
HETATM    2  O1  UNL     1      14.345  26.577  -0.657  1.00  0.00    -0.275 OA
BRANCH   2   3
HETATM    3  N2  UNL     1      13.225  27.309  -0.797  1.00  0.00    -0.263 N 
ATOM      4  H2  UNL     1      12.402  27.132  -0.221  1.00  0.00     0.195 HD
BRANCH   3   5
HETATM    5  C1  UNL     1      13.233  28.333  -1.771  1.00  0.00     0.197 C 
HETATM    6  N1  UNL     1      12.912  27.999  -2.979  1.00  0.00    -0.394 N 
ATOM      7  H12 UNL     1      12.668  27.035  -3.203  1.00  0.00     0.156 HD
ATOM      8  H11 UNL     1      12.918  28.738  -3.682  1.00  0.00     0.156 HD
ENDBRANCH   3   5
ENDBRANCH   2   3
ENDBRANCH   1   2
BRANCH   1   9
HETATM    9  C3  UNL     1      14.506  24.792  -2.225  1.00  0.00    -0.017 A 
HETATM   10  C4  UNL     1      13.599  24.533  -3.221  1.00  0.00     0.012 A 
HETATM   11  C5  UNL     1      14.010  24.101  -4.478  1.00  0.00     0.018 A 
HETATM   12  C6  UNL     1      15.378  23.942  -4.678  1.00  0.00     0.087 A 
HETATM   13  N3  UNL     1      16.244  24.204  -3.684  1.00  0.00    -0.375 N 
HETATM   14  C7  UNL     1      15.865  24.621  -2.467  1.00  0.00     0.096 A 
ATOM     15  H3  UNL     1      17.240  24.079  -3.865  1.00  0.00     0.164 HD
ENDBRANCH   1   9
TORSDOF 4
ENDMDL
MODEL 5
REMARK VINA RESULT: -5.177087105      2.205      2.647
REMARK  4 active torsions:
REMARK  status: ('A' for Active; 'I' for Inactive)
REMARK    1  A    between atoms: C1_4  and  N2_5 
REMARK    2  A    between atoms: N2_5  and  O1_7 
REMARK    3  A    between atoms: O1_7  and  C2_8 
REMARK    4  A    between atoms: C2_8  and  C3_9 
ROOT
HETATM    1  C2  UNL     1      14.708  24.985  -4.701  1.00  0.00     0.241 C 
ENDROOT
BRANCH   1   2
HETATM    2  O1  UNL     1      14.013  25.090  -5.912  1.00  0.00    -0.275 OA
BRANCH   2   3
HETATM    3  N2  UNL     1      13.494  23.873  -6.154  1.00  0.00    -0.263 N 
ATOM      4  H2  UNL     1      12.701  23.520  -5.619  1.00  0.00     0.195 HD
BRANCH   3   5
HETATM    5  C1  UNL     1      14.091  23.103  -7.177  1.00  0.00     0.197 C 
HETATM    6  N1  UNL     1      13.839  23.450  -8.399  1.00  0.00    -0.394 N 
ATOM      7  H12 UNL     1      13.234  24.247  -8.597  1.00  0.00     0.156 HD
ATOM      8  H11 UNL     1      14.270  22.895  -9.138  1.00  0.00     0.156 HD
ENDBRANCH   3   5
ENDBRANCH   2   3
ENDBRANCH   1   2
BRANCH   1   9
HETATM    9  C3  UNL     1      14.224  25.985  -3.715  1.00  0.00    -0.017 A 
HETATM   10  C4  UNL     1      14.686  25.885  -2.427  1.00  0.00     0.012 A 
HETATM   11  C5  UNL     1      14.282  26.782  -1.443  1.00  0.00     0.018 A 
HETATM   12  C6  UNL     1      13.390  27.780  -1.823  1.00  0.00     0.087 A 
HETATM   13  N3  UNL     1      12.955  27.854  -3.092  1.00  0.00    -0.375 N 
HETATM   14  C7  UNL     1      13.333  26.998  -4.053  1.00  0.00     0.096 A 
ATOM     15  H3  UNL     1      12.302  28.600  -3.337  1.00  0.00     0.164 HD
ENDBRANCH   1   9
TORSDOF 4
ENDMDL
