MODEL 1
REMARK VINA RESULT: -5.243104804      0.000      0.000
REMARK  3 active torsions:
REMARK  status: ('A' for Active; 'I' for Inactive)
REMARK    1  A    between atoms: C2_2  and  C3_3 
REMARK    2  A    between atoms: C3_3  and  C4_4 
REMARK    3  A    between atoms: N1_5  and  N2_7 
ROOT
HETATM    1  N2  UNL     1      14.106  24.859  -5.539  1.00  0.00    -0.272 N 
ATOM      2  H2  UNL     1      13.775  25.727  -5.960  1.00  0.00     0.190 HD
HETATM    3  C5  UNL     1      14.123  23.765  -6.257  1.00  0.00     0.190 C 
HETATM    4  N3  UNL     1      13.699  23.714  -7.614  1.00  0.00    -0.360 N 
ATOM      5  H3  UNL     1      13.391  24.501  -8.183  1.00  0.00     0.162 HD
HETATM    6  C6  UNL     1      13.789  22.328  -8.035  1.00  0.00     0.142 C 
HETATM    7  C7  UNL     1      14.862  21.787  -7.115  1.00  0.00     0.142 C 
HETATM    8  N4  UNL     1      14.542  22.461  -5.870  1.00  0.00    -0.360 N 
ATOM      9  H4  UNL     1      14.604  22.084  -4.924  1.00  0.00     0.162 HD
ENDROOT
BRANCH   1  10
HETATM   10  N1  UNL     1      14.532  24.864  -4.211  1.00  0.00    -0.313 N 
HETATM   11  C4  UNL     1      14.473  25.985  -3.544  1.00  0.00     0.084 C 
ATOM     12  H1  UNL     1      14.881  24.013  -3.771  1.00  0.00     0.185 HD
BRANCH  11  13
HETATM   13  C3  UNL     1      14.917  26.010  -2.140  1.00  0.00     0.072 C 
BRANCH  13  14
HETATM   14  C2  UNL     1      13.817  26.577  -1.318  1.00  0.00    -0.032 C 
HETATM   15  C1  UNL     1      13.435  27.827  -1.531  1.00  0.00     0.007 C 
ENDBRANCH  13  14
ENDBRANCH  11  13
ENDBRANCH   1  10
TORSDOF 3
ENDMDL
MODEL 2
REMARK VINA RESULT: -5.242855657      1.480      5.956
REMARK  3 active torsions:
REMARK  status: ('A' for Active; 'I' for Inactive)
REMARK    1  A    between atoms: C2_2  and  C3_3 
REMARK    2  A    between atoms: C3_3  and  C4_4 
REMARK    3  A    between atoms: N1_5  and  N2_7 
ROOT
HETATM    1  N2  UNL     1      13.259  23.717  -3.839  1.00  0.00    -0.272 N 
ATOM      2  H2  UNL     1      13.027  22.804  -3.448  1.00  0.00     0.190 HD
HETATM    3  C5  UNL     1      13.618  24.686  -3.034  1.00  0.00     0.190 C 
HETATM    4  N3  UNL     1      13.704  24.537  -1.623  1.00  0.00    -0.360 N 
ATOM      5  H3  UNL     1      13.553  23.679  -1.093  1.00  0.00     0.162 HD
HETATM    6  C6  UNL     1      14.050  25.837  -1.079  1.00  0.00     0.142 C 
HETATM    7  C7  UNL     1      14.770  26.485  -2.242  1.00  0.00     0.142 C 
HETATM    8  N4  UNL     1      13.978  26.021  -3.367  1.00  0.00    -0.360 N 
ATOM      9  H4  UNL     1      13.734  26.539  -4.211  1.00  0.00     0.162 HD
ENDROOT
BRANCH   1  10
HETATM   10  N1  UNL     1      13.187  23.907  -5.219  1.00  0.00    -0.313 N 
HETATM   11  C4  UNL     1      13.989  23.216  -5.984  1.00  0.00     0.084 C 
ATOM     12  H1  UNL     1      12.524  24.569  -5.622  1.00  0.00     0.185 HD
BRANCH  11  13
HETATM   13  C3  UNL     1      13.927  23.402  -7.443  1.00  0.00     0.072 C 
BRANCH  13  14
HETATM   14  C2  UNL     1      13.862  22.060  -8.077  1.00  0.00    -0.032 C 
HETATM   15  C1  UNL     1      12.916  21.818  -8.971  1.00  0.00     0.007 C 
ENDBRANCH  13  14
ENDBRANCH  11  13
ENDBRANCH   1  10
TORSDOF 3
ENDMDL
MODEL 3
REMARK VINA RESULT: -5.197650734      2.936      4.348
REMARK  3 active torsions:
REMARK  status: ('A' for Active; 'I' for Inactive)
REMARK    1  A    between atoms: C2_2  and  C3_3 
REMARK    2  A    between atoms: C3_3  and  C4_4 
REMARK    3  A    between atoms: N1_5  and  N2_7 
ROOT
HETATM    1  N2  UNL     1      12.935  22.380  -8.713  1.00  0.00    -0.272 N 
ATOM      2  H2  UNL     1      12.281  21.676  -8.373  1.00  0.00     0.190 HD
HETATM    3  C5  UNL     1      13.394  22.291  -9.936  1.00  0.00     0.190 C 
HETATM    4  N3  UNL     1      13.028  21.250 -10.833  1.00  0.00    -0.360 N 
ATOM      5  H3  UNL     1      12.352  20.507 -10.657  1.00  0.00     0.162 HD
HETATM    6  C6  UNL     1      13.797  21.446 -12.047  1.00  0.00     0.142 C 
HETATM    7  C7  UNL     1      14.063  22.936 -12.016  1.00  0.00     0.142 C 
HETATM    8  N4  UNL     1      14.305  23.157 -10.602  1.00  0.00    -0.360 N 
ATOM      9  H4  UNL     1      14.980  23.793 -10.178  1.00  0.00     0.162 HD
ENDROOT
BRANCH   1  10
HETATM   10  N1  UNL     1      13.321  23.419  -7.865  1.00  0.00    -0.313 N 
HETATM   11  C4  UNL     1      13.722  23.120  -6.659  1.00  0.00     0.084 C 
ATOM     12  H1  UNL     1      13.291  24.388  -8.179  1.00  0.00     0.185 HD
BRANCH  11  13
HETATM   13  C3  UNL     1      14.133  24.202  -5.749  1.00  0.00     0.072 C 
BRANCH  13  14
HETATM   14  C2  UNL     1      13.306  24.110  -4.518  1.00  0.00    -0.032 C 
HETATM   15  C1  UNL     1      12.031  24.461  -4.574  1.00  0.00     0.007 C 
ENDBRANCH  13  14
ENDBRANCH  11  13
ENDBRANCH   1  10
TORSDOF 3
ENDMDL
MODEL 4
REMARK VINA RESULT: -5.182893065      0.874      1.012
REMARK  3 active torsions:
REMARK  status: ('A' for Active; 'I' for Inactive)
REMARK    1  A    between atoms: C2_2  and  C3_3 
REMARK    2  A    between atoms: C3_3  and  C4_4 
REMARK    3  A    between atoms: N1_5  and  N2_7 
ROOT
HETATM    1  N2  UNL     1      13.848  24.304  -5.555  1.00  0.00    -0.272 N 
ATOM      2  H2  UNL     1      13.411  25.194  -5.795  1.00  0.00     0.190 HD
HETATM    3  C5  UNL     1      13.993  23.391  -6.481  1.00  0.00     0.190 C 
HETATM    4  N3  UNL     1      13.568  23.568  -7.826  1.00  0.00    -0.360 N 
ATOM      5  H3  UNL     1      13.162  24.413  -8.228  1.00  0.00     0.162 HD
HETATM    6  C6  UNL     1      13.823  22.320  -8.520  1.00  0.00     0.142 C 
HETATM    7  C7  UNL     1      14.960  21.735  -7.711  1.00  0.00     0.142 C 
HETATM    8  N4  UNL     1      14.570  22.096  -6.361  1.00  0.00    -0.360 N 
ATOM      9  H4  UNL     1      14.685  21.543  -5.511  1.00  0.00     0.162 HD
ENDROOT
BRANCH   1  10
HETATM   10  N1  UNL     1      14.280  24.088  -4.246  1.00  0.00    -0.313 N 
HETATM   11  C4  UNL     1      15.030  24.996  -3.681  1.00  0.00     0.084 C 
ATOM     12  H1  UNL     1      14.016  23.242  -3.742  1.00  0.00     0.185 HD
BRANCH  11  13
HETATM   13  C3  UNL     1      15.495  24.785  -2.300  1.00  0.00     0.072 C 
BRANCH  13  14
HETATM   14  C2  UNL     1      15.034  25.934  -1.478  1.00  0.00    -0.032 C 
HETATM   15  C1  UNL     1      13.782  25.953  -1.046  1.00  0.00     0.007 C 
ENDBRANCH  13  14
ENDBRANCH  11  13
ENDBRANCH   1  10
TORSDOF 3
ENDMDL
MODEL 5
REMARK VINA RESULT: -5.055421215      1.776      2.746
REMARK  3 active torsions:
REMARK  status: ('A' for Active; 'I' for Inactive)
REMARK    1  A    between atoms: C2_2  and  C3_3 
REMARK    2  A    between atoms: C3_3  and  C4_4 
REMARK    3  A    between atoms: N1_5  and  N2_7 
ROOT
HETATM    1  N2  UNL     1      14.829  22.419  -6.722  1.00  0.00    -0.272 N 
ATOM      2  H2  UNL     1      15.794  22.125  -6.577  1.00  0.00     0.190 HD
HETATM    3  C5  UNL     1      14.291  22.285  -7.908  1.00  0.00     0.190 C 
HETATM    4  N3  UNL     1      14.985  21.743  -9.025  1.00  0.00    -0.360 N 
ATOM      5  H3  UNL     1      15.931  21.363  -9.024  1.00  0.00     0.162 HD
HETATM    6  C6  UNL     1      14.093  21.834 -10.165  1.00  0.00     0.142 C 
HETATM    7  C7  UNL     1      12.731  21.818  -9.503  1.00  0.00     0.142 C 
HETATM    8  N4  UNL     1      12.974  22.629  -8.323  1.00  0.00    -0.360 N 
ATOM      9  H4  UNL     1      12.340  23.298  -7.887  1.00  0.00     0.162 HD
ENDROOT
BRANCH   1  10
HETATM   10  N1  UNL     1      14.111  22.956  -5.654  1.00  0.00    -0.313 N 
HETATM   11  C4  UNL     1      14.599  23.999  -5.038  1.00  0.00     0.084 C 
ATOM     12  H1  UNL     1      13.226  22.544  -5.360  1.00  0.00     0.185 HD
BRANCH  11  13
HETATM   13  C3  UNL     1      13.855  24.580  -3.908  1.00  0.00     0.072 C 
BRANCH  13  14
HETATM   14  C2  UNL     1      14.207  26.021  -3.816  1.00  0.00    -0.032 C 
HETATM   15  C1  UNL     1      14.442  26.696  -4.931  1.00  0.00     0.007 C 
ENDBRANCH  13  14
ENDBRANCH  11  13
ENDBRANCH   1  10
TORSDOF 3
ENDMDL
