MODEL 1
REMARK VINA RESULT: -4.737373466      0.000      0.000
REMARK  4 active torsions:
REMARK  status: ('A' for Active; 'I' for Inactive)
REMARK    1  A    between atoms: S1_2  and  N1_3 
REMARK    2  A    between atoms: S1_2  and  O2_7 
REMARK    3  A    between atoms: O2_7  and  N2_8 
REMARK    4  A    between atoms: N2_8  and  C2_9 
ROOT
HETATM    1  C1  UNL     1      13.729  23.718  -5.351  1.00  0.00     0.169 C 
HETATM    2  S1  UNL     1      12.725  24.680  -4.573  1.00  0.00     0.153 S 
HETATM    3  O1  UNL     1      13.320  26.041  -4.922  1.00  0.00    -0.221 OA
ENDROOT
BRANCH   2   4
HETATM    4  N1  UNL     1      11.138  24.622  -5.159  1.00  0.00    -0.339 N 
ATOM      5  H12 UNL     1      10.600  23.757  -5.189  1.00  0.00     0.167 HD
ATOM      6  H11 UNL     1      10.785  25.526  -5.474  1.00  0.00     0.167 HD
ENDBRANCH   2   4
BRANCH   2   7
HETATM    7  O2  UNL     1      12.734  24.441  -2.934  1.00  0.00    -0.176 OA
BRANCH   7   8
HETATM    8  N2  UNL     1      13.962  24.175  -2.497  1.00  0.00    -0.078 NA
BRANCH   8   9
HETATM    9  C2  UNL     1      14.374  24.964  -1.374  1.00  0.00     0.108 A 
HETATM   10  C3  UNL     1      14.986  26.308  -1.775  1.00  0.00     0.025 A 
HETATM   11  C4  UNL     1      13.687  26.183  -0.942  1.00  0.00     0.025 A 
ENDBRANCH   8   9
ENDBRANCH   7   8
ENDBRANCH   2   7
TORSDOF 4
ENDMDL
MODEL 2
REMARK VINA RESULT: -4.695672467      1.483      1.611
REMARK  4 active torsions:
REMARK  status: ('A' for Active; 'I' for Inactive)
REMARK    1  A    between atoms: S1_2  and  N1_3 
REMARK    2  A    between atoms: S1_2  and  O2_7 
REMARK    3  A    between atoms: O2_7  and  N2_8 
REMARK    4  A    between atoms: N2_8  and  C2_9 
ROOT
HETATM    1  C1  UNL     1      14.447  23.359  -5.655  1.00  0.00     0.169 C 
HETATM    2  S1  UNL     1      13.957  24.473  -4.626  1.00  0.00     0.153 S 
HETATM    3  O1  UNL     1      13.840  25.677  -5.557  1.00  0.00    -0.221 OA
ENDROOT
BRANCH   2   4
HETATM    4  N1  UNL     1      12.434  24.159  -3.959  1.00  0.00    -0.339 N 
ATOM      5  H12 UNL     1      11.575  24.235  -4.503  1.00  0.00     0.167 HD
ATOM      6  H11 UNL     1      12.466  23.891  -2.975  1.00  0.00     0.167 HD
ENDBRANCH   2   4
BRANCH   2   7
HETATM    7  O2  UNL     1      15.055  24.771  -3.422  1.00  0.00    -0.176 OA
BRANCH   7   8
HETATM    8  N2  UNL     1      15.166  26.075  -3.187  1.00  0.00    -0.078 NA
BRANCH   8   9
HETATM    9  C2  UNL     1      14.899  26.458  -1.832  1.00  0.00     0.108 A 
HETATM   10  C3  UNL     1      13.675  27.367  -1.694  1.00  0.00     0.025 A 
HETATM   11  C4  UNL     1      13.761  25.958  -1.057  1.00  0.00     0.025 A 
ENDBRANCH   8   9
ENDBRANCH   7   8
ENDBRANCH   2   7
TORSDOF 4
ENDMDL
MODEL 3
REMARK VINA RESULT: -4.675534367      1.912      2.006
REMARK  4 active torsions:
REMARK  status: ('A' for Active; 'I' for Inactive)
REMARK    1  A    between atoms: S1_2  and  N1_3 
REMARK    2  A    between atoms: S1_2  and  O2_7 
REMARK    3  A    between atoms: O2_7  and  N2_8 
REMARK    4  A    between atoms: N2_8  and  C2_9 
ROOT
HETATM    1  C1  UNL     1      12.428  24.598  -4.432  1.00  0.00     0.169 C 
HETATM    2  S1  UNL     1      13.703  25.534  -4.631  1.00  0.00     0.153 S 
HETATM    3  O1  UNL     1      14.122  25.135  -6.043  1.00  0.00    -0.221 OA
ENDROOT
BRANCH   2   4
HETATM    4  N1  UNL     1      13.338  27.187  -4.626  1.00  0.00    -0.339 N 
ATOM      5  H12 UNL     1      12.926  27.651  -3.817  1.00  0.00     0.167 HD
ATOM      6  H11 UNL     1      13.570  27.660  -5.499  1.00  0.00     0.167 HD
ENDBRANCH   2   4
BRANCH   2   7
HETATM    7  O2  UNL     1      14.916  25.216  -3.550  1.00  0.00    -0.176 OA
BRANCH   7   8
HETATM    8  N2  UNL     1      15.186  26.284  -2.805  1.00  0.00    -0.078 NA
BRANCH   8   9
HETATM    9  C2  UNL     1      14.829  26.149  -1.424  1.00  0.00     0.108 A 
HETATM   10  C3  UNL     1      13.639  27.025  -1.021  1.00  0.00     0.025 A 
HETATM   11  C4  UNL     1      13.612  25.478  -0.962  1.00  0.00     0.025 A 
ENDBRANCH   8   9
ENDBRANCH   7   8
ENDBRANCH   2   7
TORSDOF 4
ENDMDL
MODEL 4
REMARK VINA RESULT: -4.663748667      1.886      2.398
REMARK  4 active torsions:
REMARK  status: ('A' for Active; 'I' for Inactive)
REMARK    1  A    between atoms: S1_2  and  N1_3 
REMARK    2  A    between atoms: S1_2  and  O2_7 
REMARK    3  A    between atoms: O2_7  and  N2_8 
REMARK    4  A    between atoms: N2_8  and  C2_9 
ROOT
HETATM    1  C1  UNL     1      14.394  25.659  -5.055  1.00  0.00     0.169 C 
HETATM    2  S1  UNL     1      14.789  24.298  -4.325  1.00  0.00     0.153 S 
HETATM    3  O1  UNL     1      14.606  23.307  -5.471  1.00  0.00    -0.221 OA
ENDROOT
BRANCH   2   4
HETATM    4  N1  UNL     1      16.403  24.243  -3.819  1.00  0.00    -0.339 N 
ATOM      5  H12 UNL     1      16.694  24.551  -2.892  1.00  0.00     0.167 HD
ATOM      6  H11 UNL     1      17.041  23.877  -4.526  1.00  0.00     0.167 HD
ENDBRANCH   2   4
BRANCH   2   7
HETATM    7  O2  UNL     1      13.784  23.924  -3.062  1.00  0.00    -0.176 OA
BRANCH   7   8
HETATM    8  N2  UNL     1      13.215  25.018  -2.564  1.00  0.00    -0.078 NA
BRANCH   8   9
HETATM    9  C2  UNL     1      13.760  25.450  -1.310  1.00  0.00     0.108 A 
HETATM   10  C3  UNL     1      14.803  26.560  -1.458  1.00  0.00     0.025 A 
HETATM   11  C4  UNL     1      13.466  26.749  -0.701  1.00  0.00     0.025 A 
ENDBRANCH   8   9
ENDBRANCH   7   8
ENDBRANCH   2   7
TORSDOF 4
ENDMDL
MODEL 5
REMARK VINA RESULT: -4.640078555      2.970      3.399
REMARK  4 active torsions:
REMARK  status: ('A' for Active; 'I' for Inactive)
REMARK    1  A    between atoms: S1_2  and  N1_3 
REMARK    2  A    between atoms: S1_2  and  O2_7 
REMARK    3  A    between atoms: O2_7  and  N2_8 
REMARK    4  A    between atoms: N2_8  and  C2_9 
ROOT
HETATM    1  C1  UNL     1      14.036  24.457  -3.817  1.00  0.00     0.169 C 
HETATM    2  S1  UNL     1      15.155  24.723  -2.714  1.00  0.00     0.153 S 
HETATM    3  O1  UNL     1      14.562  23.963  -1.531  1.00  0.00    -0.221 OA
ENDROOT
BRANCH   2   4
HETATM    4  N1  UNL     1      16.657  24.042  -3.092  1.00  0.00    -0.339 N 
ATOM      5  H12 UNL     1      17.235  23.576  -2.394  1.00  0.00     0.167 HD
ATOM      6  H11 UNL     1      16.917  24.144  -4.073  1.00  0.00     0.167 HD
ENDBRANCH   2   4
BRANCH   2   7
HETATM    7  O2  UNL     1      15.335  26.328  -2.346  1.00  0.00    -0.176 OA
BRANCH   7   8
HETATM    8  N2  UNL     1      14.718  26.631  -1.208  1.00  0.00    -0.078 NA
BRANCH   8   9
HETATM    9  C2  UNL     1      13.411  27.196  -1.374  1.00  0.00     0.108 A 
HETATM   10  C3  UNL     1      13.425  28.723  -1.482  1.00  0.00     0.025 A 
HETATM   11  C4  UNL     1      12.940  27.797  -2.624  1.00  0.00     0.025 A 
ENDBRANCH   8   9
ENDBRANCH   7   8
ENDBRANCH   2   7
TORSDOF 4
ENDMDL
