MODEL 1
REMARK VINA RESULT: -4.730064913      0.000      0.000
REMARK  2 active torsions:
REMARK  status: ('A' for Active; 'I' for Inactive)
REMARK    1  A    between atoms: C2_2  and  S1_3 
REMARK    2  A    between atoms: S1_3  and  C3_4 
ROOT
HETATM    1  C3  UNL     1      22.161   8.312   9.824  1.00  0.00     0.137 C 
HETATM    2  N1  UNL     1      22.872   8.486  10.881  1.00  0.00    -0.352 N 
ATOM      3  H1  UNL     1      22.511   8.492  11.834  1.00  0.00     0.163 HD
HETATM    4  C4  UNL     1      24.253   8.671  10.521  1.00  0.00     0.218 C 
HETATM    5  C5  UNL     1      24.985   7.408  10.608  1.00  0.00     0.087 C 
HETATM    6  N2  UNL     1      25.546   6.400  10.688  1.00  0.00    -0.195 NA
HETATM    7  C6  UNL     1      24.165   9.082   9.073  1.00  0.00     0.058 C 
HETATM    8  C7  UNL     1      25.368   8.743   8.263  1.00  0.00     0.041 C 
HETATM    9  C8  UNL     1      23.838  10.563   9.057  1.00  0.00     0.041 C 
HETATM   10  N3  UNL     1      22.975   8.372   8.665  1.00  0.00    -0.359 N 
ATOM     11  H3  UNL     1      22.766   7.995   7.741  1.00  0.00     0.162 HD
ENDROOT
BRANCH   1  12
HETATM   12  S1  UNL     1      20.396   8.043   9.770  1.00  0.00    -0.095 SA
BRANCH  12  13
HETATM   13  C2  UNL     1      19.654   8.772   8.316  1.00  0.00     0.078 C 
HETATM   14  C1  UNL     1      19.859  10.265   8.259  1.00  0.00     0.016 C 
ENDBRANCH  12  13
ENDBRANCH   1  12
TORSDOF 2
ENDMDL
MODEL 2
REMARK VINA RESULT: -4.659114715      1.401      1.641
REMARK  2 active torsions:
REMARK  status: ('A' for Active; 'I' for Inactive)
REMARK    1  A    between atoms: C2_2  and  S1_3 
REMARK    2  A    between atoms: S1_3  and  C3_4 
ROOT
HETATM    1  C3  UNL     1      22.078   8.365   9.724  1.00  0.00     0.137 C 
HETATM    2  N1  UNL     1      22.801   8.571  10.766  1.00  0.00    -0.352 N 
ATOM      3  H1  UNL     1      22.455   8.586  11.725  1.00  0.00     0.163 HD
HETATM    4  C4  UNL     1      24.173   8.777  10.382  1.00  0.00     0.218 C 
HETATM    5  C5  UNL     1      24.931   7.529  10.479  1.00  0.00     0.087 C 
HETATM    6  N2  UNL     1      25.513   6.534  10.568  1.00  0.00    -0.195 NA
HETATM    7  C6  UNL     1      24.054   9.160   8.929  1.00  0.00     0.058 C 
HETATM    8  C7  UNL     1      25.251   8.831   8.106  1.00  0.00     0.041 C 
HETATM    9  C8  UNL     1      23.698  10.634   8.893  1.00  0.00     0.041 C 
HETATM   10  N3  UNL     1      22.873   8.421   8.552  1.00  0.00    -0.359 N 
ATOM     11  H3  UNL     1      22.657   8.024   7.637  1.00  0.00     0.162 HD
ENDROOT
BRANCH   1  12
HETATM   12  S1  UNL     1      20.318   8.061   9.703  1.00  0.00    -0.095 SA
BRANCH  12  13
HETATM   13  C2  UNL     1      19.808   6.998  11.046  1.00  0.00     0.078 C 
HETATM   14  C1  UNL     1      18.563   7.503  11.732  1.00  0.00     0.016 C 
ENDBRANCH  12  13
ENDBRANCH   1  12
TORSDOF 2
ENDMDL
MODEL 3
REMARK VINA RESULT: -4.471375595      2.387      4.803
REMARK  2 active torsions:
REMARK  status: ('A' for Active; 'I' for Inactive)
REMARK    1  A    between atoms: C2_2  and  S1_3 
REMARK    2  A    between atoms: S1_3  and  C3_4 
ROOT
HETATM    1  C3  UNL     1      23.980   9.505   8.483  1.00  0.00     0.137 C 
HETATM    2  N1  UNL     1      23.400  10.531   8.997  1.00  0.00    -0.352 N 
ATOM      3  H1  UNL     1      23.764  11.483   8.970  1.00  0.00     0.163 HD
HETATM    4  C4  UNL     1      22.161  10.139   9.615  1.00  0.00     0.218 C 
HETATM    5  C5  UNL     1      21.038  10.345   8.701  1.00  0.00     0.087 C 
HETATM    6  N2  UNL     1      20.164  10.520   7.965  1.00  0.00    -0.195 NA
HETATM    7  C6  UNL     1      22.350   8.659   9.825  1.00  0.00     0.058 C 
HETATM    8  C7  UNL     1      21.085   7.873   9.849  1.00  0.00     0.041 C 
HETATM    9  C8  UNL     1      23.171   8.497  11.090  1.00  0.00     0.041 C 
HETATM   10  N3  UNL     1      23.208   8.337   8.709  1.00  0.00    -0.359 N 
ATOM     11  H3  UNL     1      23.250   7.458   8.194  1.00  0.00     0.162 HD
ENDROOT
BRANCH   1  12
HETATM   12  S1  UNL     1      25.539   9.498   7.612  1.00  0.00    -0.095 SA
BRANCH  12  13
HETATM   13  C2  UNL     1      26.930   9.557   8.734  1.00  0.00     0.078 C 
HETATM   14  C1  UNL     1      26.705   8.718   9.967  1.00  0.00     0.016 C 
ENDBRANCH  12  13
ENDBRANCH   1  12
TORSDOF 2
ENDMDL
MODEL 4
REMARK VINA RESULT: -4.393109330      2.460      4.589
REMARK  2 active torsions:
REMARK  status: ('A' for Active; 'I' for Inactive)
REMARK    1  A    between atoms: C2_2  and  S1_3 
REMARK    2  A    between atoms: S1_3  and  C3_4 
ROOT
HETATM    1  C3  UNL     1      24.001   9.591   8.452  1.00  0.00     0.137 C 
HETATM    2  N1  UNL     1      23.402  10.603   8.970  1.00  0.00    -0.352 N 
ATOM      3  H1  UNL     1      23.742  11.564   8.937  1.00  0.00     0.163 HD
HETATM    4  C4  UNL     1      22.179  10.183   9.601  1.00  0.00     0.218 C 
HETATM    5  C5  UNL     1      21.042  10.359   8.699  1.00  0.00     0.087 C 
HETATM    6  N2  UNL     1      20.156  10.512   7.971  1.00  0.00    -0.195 NA
HETATM    7  C6  UNL     1      22.406   8.708   9.812  1.00  0.00     0.058 C 
HETATM    8  C7  UNL     1      21.161   7.892   9.851  1.00  0.00     0.041 C 
HETATM    9  C8  UNL     1      23.244   8.569  11.069  1.00  0.00     0.041 C 
HETATM   10  N3  UNL     1      23.260   8.405   8.688  1.00  0.00    -0.359 N 
ATOM     11  H3  UNL     1      23.318   7.526   8.174  1.00  0.00     0.162 HD
ENDROOT
BRANCH   1  12
HETATM   12  S1  UNL     1      25.551   9.619   7.565  1.00  0.00    -0.095 SA
BRANCH  12  13
HETATM   13  C2  UNL     1      25.830   8.102   6.662  1.00  0.00     0.078 C 
HETATM   14  C1  UNL     1      25.064   8.061   5.364  1.00  0.00     0.016 C 
ENDBRANCH  12  13
ENDBRANCH   1  12
TORSDOF 2
ENDMDL
MODEL 5
REMARK VINA RESULT: -4.298440692      2.094      3.282
REMARK  2 active torsions:
REMARK  status: ('A' for Active; 'I' for Inactive)
REMARK    1  A    between atoms: C2_2  and  S1_3 
REMARK    2  A    between atoms: S1_3  and  C3_4 
ROOT
HETATM    1  C3  UNL     1      23.758   8.594   9.971  1.00  0.00     0.137 C 
HETATM    2  N1  UNL     1      23.529   9.156   8.838  1.00  0.00    -0.352 N 
ATOM      3  H1  UNL     1      22.618   9.202   8.382  1.00  0.00     0.163 HD
HETATM    4  C4  UNL     1      24.746   9.711   8.307  1.00  0.00     0.218 C 
HETATM    5  C5  UNL     1      24.857  11.130   8.642  1.00  0.00     0.087 C 
HETATM    6  N2  UNL     1      24.923  12.252   8.913  1.00  0.00    -0.195 NA
HETATM    7  C6  UNL     1      25.810   8.951   9.056  1.00  0.00     0.058 C 
HETATM    8  C7  UNL     1      27.096   9.685   9.213  1.00  0.00     0.041 C 
HETATM    9  C8  UNL     1      25.971   7.616   8.354  1.00  0.00     0.041 C 
HETATM   10  N3  UNL     1      25.132   8.702  10.307  1.00  0.00    -0.359 N 
ATOM     11  H3  UNL     1      25.551   8.621  11.233  1.00  0.00     0.162 HD
ENDROOT
BRANCH   1  12
HETATM   12  S1  UNL     1      22.557   7.770  11.005  1.00  0.00    -0.095 SA
BRANCH  12  13
HETATM   13  C2  UNL     1      20.909   7.864  10.318  1.00  0.00     0.078 C 
HETATM   14  C1  UNL     1      19.915   7.049  11.107  1.00  0.00     0.016 C 
ENDBRANCH  12  13
ENDBRANCH   1  12
TORSDOF 2
ENDMDL
