MODEL 1
REMARK VINA RESULT: -3.979332357      0.000      0.000
REMARK  1 active torsions:
REMARK  status: ('A' for Active; 'I' for Inactive)
REMARK    1  A    between atoms: O1_1  and  C1_3 
ROOT
HETATM    1  C1  UNL     1      19.763   8.806   8.609  1.00  0.00     0.137 C 
HETATM    2  C2  UNL     1      19.441   8.577  10.082  1.00  0.00     0.107 C 
HETATM    3  S1  UNL     1      20.138   7.034  10.661  1.00  0.00    -0.155 SA
HETATM    4  C3  UNL     1      21.692   7.205  11.514  1.00  0.00     0.160 C 
HETATM    5  S2  UNL     1      22.863   8.294  10.728  1.00  0.00    -0.087 SA
HETATM    6  S3  UNL     1      22.441   8.705   8.714  1.00  0.00    -0.094 SA
HETATM    7  C4  UNL     1      20.965   9.738   8.554  1.00  0.00     0.118 C 
ENDROOT
BRANCH   1   8
HETATM    8  O1  UNL     1      18.725   9.437   7.965  1.00  0.00    -0.394 OA
ATOM      9  H1  UNL     1      17.998   9.596   8.556  1.00  0.00     0.210 HD
ENDBRANCH   1   8
TORSDOF 1
ENDMDL
MODEL 2
REMARK VINA RESULT: -3.663966235      2.767      3.654
REMARK  1 active torsions:
REMARK  status: ('A' for Active; 'I' for Inactive)
REMARK    1  A    between atoms: O1_1  and  C1_3 
ROOT
HETATM    1  C1  UNL     1      22.100   7.601  10.807  1.00  0.00     0.137 C 
HETATM    2  C2  UNL     1      23.267   8.060  11.675  1.00  0.00     0.107 C 
HETATM    3  S1  UNL     1      24.830   7.521  10.993  1.00  0.00    -0.155 SA
HETATM    4  C3  UNL     1      25.676   8.757  10.029  1.00  0.00     0.160 C 
HETATM    5  S2  UNL     1      24.642   9.654   8.887  1.00  0.00    -0.087 SA
HETATM    6  S3  UNL     1      22.805   8.728   8.478  1.00  0.00    -0.094 SA
HETATM    7  C4  UNL     1      21.714   8.775   9.920  1.00  0.00     0.118 C 
ENDROOT
BRANCH   1   8
HETATM    8  O1  UNL     1      21.003   7.286  11.573  1.00  0.00    -0.394 OA
ATOM      9  H1  UNL     1      20.288   7.892  11.417  1.00  0.00     0.210 HD
ENDBRANCH   1   8
TORSDOF 1
ENDMDL
MODEL 3
REMARK VINA RESULT: -3.600789564      1.949      3.024
REMARK  1 active torsions:
REMARK  status: ('A' for Active; 'I' for Inactive)
REMARK    1  A    between atoms: O1_1  and  C1_3 
ROOT
HETATM    1  C1  UNL     1      20.329   7.887  10.580  1.00  0.00     0.137 C 
HETATM    2  C2  UNL     1      20.618   8.066   9.094  1.00  0.00     0.107 C 
HETATM    3  S1  UNL     1      21.534   9.573   8.792  1.00  0.00    -0.155 SA
HETATM    4  C3  UNL     1      23.292   9.342   8.623  1.00  0.00     0.160 C 
HETATM    5  S2  UNL     1      24.026   8.262   9.837  1.00  0.00    -0.087 SA
HETATM    6  S3  UNL     1      22.835   7.937  11.533  1.00  0.00    -0.094 SA
HETATM    7  C4  UNL     1      21.383   6.937  11.130  1.00  0.00     0.118 C 
ENDROOT
BRANCH   1   8
HETATM    8  O1  UNL     1      19.102   7.301  10.782  1.00  0.00    -0.394 OA
ATOM      9  H1  UNL     1      18.595   7.777  11.429  1.00  0.00     0.210 HD
ENDBRANCH   1   8
TORSDOF 1
ENDMDL
MODEL 4
REMARK VINA RESULT: -3.359560944      2.743      3.775
REMARK  1 active torsions:
REMARK  status: ('A' for Active; 'I' for Inactive)
REMARK    1  A    between atoms: O1_1  and  C1_3 
ROOT
HETATM    1  C1  UNL     1      22.459   9.611   9.184  1.00  0.00     0.137 C 
HETATM    2  C2  UNL     1      23.727   9.408   8.363  1.00  0.00     0.107 C 
HETATM    3  S1  UNL     1      25.180   9.891   9.290  1.00  0.00    -0.155 SA
HETATM    4  C3  UNL     1      26.036   8.538  10.070  1.00  0.00     0.160 C 
HETATM    5  S2  UNL     1      24.982   7.367  10.905  1.00  0.00    -0.087 SA
HETATM    6  S3  UNL     1      23.050   8.078  11.305  1.00  0.00    -0.094 SA
HETATM    7  C4  UNL     1      22.093   8.260   9.781  1.00  0.00     0.118 C 
ENDROOT
BRANCH   1   8
HETATM    8  O1  UNL     1      21.409  10.008   8.391  1.00  0.00    -0.394 OA
ATOM      9  H1  UNL     1      20.802  10.557   8.872  1.00  0.00     0.210 HD
ENDBRANCH   1   8
TORSDOF 1
ENDMDL
MODEL 5
REMARK VINA RESULT: -3.343393149      3.518      4.153
REMARK  1 active torsions:
REMARK  status: ('A' for Active; 'I' for Inactive)
REMARK    1  A    between atoms: O1_1  and  C1_3 
ROOT
HETATM    1  C1  UNL     1      24.761   9.445   9.939  1.00  0.00     0.137 C 
HETATM    2  C2  UNL     1      24.456   7.999  10.317  1.00  0.00     0.107 C 
HETATM    3  S1  UNL     1      23.140   7.913  11.526  1.00  0.00    -0.155 SA
HETATM    4  C3  UNL     1      21.532   7.574  10.837  1.00  0.00     0.160 C 
HETATM    5  S2  UNL     1      21.131   8.512   9.375  1.00  0.00    -0.087 SA
HETATM    6  S3  UNL     1      22.336  10.203   9.077  1.00  0.00    -0.094 SA
HETATM    7  C4  UNL     1      24.026   9.730   8.637  1.00  0.00     0.118 C 
ENDROOT
BRANCH   1   8
HETATM    8  O1  UNL     1      26.103   9.625   9.701  1.00  0.00    -0.394 OA
ATOM      9  H1  UNL     1      26.477  10.258  10.304  1.00  0.00     0.210 HD
ENDBRANCH   1   8
TORSDOF 1
ENDMDL
