MODEL 1
REMARK VINA RESULT: -3.895122637      0.000      0.000
REMARK  1 active torsions:
REMARK  status: ('A' for Active; 'I' for Inactive)
REMARK    1  A    between atoms: C1_4  and  N2_5 
ROOT
HETATM    1  N2  UNL     1      19.506   8.384   9.919  1.00  0.00    -0.362 N 
HETATM    2  C2  UNL     1      19.158   9.456   8.997  1.00  0.00     0.141 C 
HETATM    3  C3  UNL     1      20.387   9.710   8.173  1.00  0.00     0.080 C 
HETATM    4  C4  UNL     1      20.969   8.318   8.088  1.00  0.00     0.054 C 
HETATM    5  C5  UNL     1      20.709   7.705   9.457  1.00  0.00     0.160 C 
HETATM    6  S1  UNL     1      22.104   7.967  10.580  1.00  0.00    -0.060 SA
HETATM    7  S2  UNL     1      23.049   9.781   9.913  1.00  0.00    -0.022 SA
HETATM    8  S3  UNL     1      21.511  10.900   8.903  1.00  0.00    -0.079 SA
ENDROOT
BRANCH   1   9
HETATM    9  C1  UNL     1      18.802   8.028  11.098  1.00  0.00     0.172 C 
HETATM   10  N1  UNL     1      18.694   6.822  11.536  1.00  0.00    -0.395 N 
ATOM     11  H12 UNL     1      19.148   6.089  10.989  1.00  0.00     0.156 HD
ATOM     12  H11 UNL     1      18.187   6.567  12.383  1.00  0.00     0.156 HD
ENDBRANCH   1   9
TORSDOF 1
ENDMDL
MODEL 2
REMARK VINA RESULT: -3.843892474      2.076      2.525
REMARK  1 active torsions:
REMARK  status: ('A' for Active; 'I' for Inactive)
REMARK    1  A    between atoms: C1_4  and  N2_5 
ROOT
HETATM    1  N2  UNL     1      20.460   9.757   8.722  1.00  0.00    -0.362 N 
HETATM    2  C2  UNL     1      21.644  10.592   8.574  1.00  0.00     0.141 C 
HETATM    3  C3  UNL     1      22.822   9.681   8.764  1.00  0.00     0.080 C 
HETATM    4  C4  UNL     1      22.289   8.395   8.175  1.00  0.00     0.054 C 
HETATM    5  C5  UNL     1      20.826   8.352   8.595  1.00  0.00     0.160 C 
HETATM    6  S1  UNL     1      20.606   7.455  10.151  1.00  0.00    -0.060 SA
HETATM    7  S2  UNL     1      22.459   7.691  11.220  1.00  0.00    -0.022 SA
HETATM    8  S3  UNL     1      23.332   9.512  10.474  1.00  0.00    -0.079 SA
ENDROOT
BRANCH   1   9
HETATM    9  C1  UNL     1      19.137  10.210   8.956  1.00  0.00     0.172 C 
HETATM   10  N1  UNL     1      18.081   9.554   8.617  1.00  0.00    -0.395 N 
ATOM     11  H12 UNL     1      18.223   8.656   8.154  1.00  0.00     0.156 HD
ATOM     12  H11 UNL     1      17.130   9.880   8.785  1.00  0.00     0.156 HD
ENDBRANCH   1   9
TORSDOF 1
ENDMDL
MODEL 3
REMARK VINA RESULT: -3.716785140      2.645      3.775
REMARK  1 active torsions:
REMARK  status: ('A' for Active; 'I' for Inactive)
REMARK    1  A    between atoms: C1_4  and  N2_5 
ROOT
HETATM    1  N2  UNL     1      21.962   8.692   9.012  1.00  0.00    -0.362 N 
HETATM    2  C2  UNL     1      21.904   8.216  10.387  1.00  0.00     0.141 C 
HETATM    3  C3  UNL     1      23.227   8.569  11.004  1.00  0.00     0.080 C 
HETATM    4  C4  UNL     1      23.542   9.863  10.289  1.00  0.00     0.054 C 
HETATM    5  C5  UNL     1      23.051   9.648   8.864  1.00  0.00     0.160 C 
HETATM    6  S1  UNL     1      24.366   9.011   7.796  1.00  0.00    -0.060 SA
HETATM    7  S2  UNL     1      25.691   7.924   9.098  1.00  0.00    -0.022 SA
HETATM    8  S3  UNL     1      24.486   7.314  10.776  1.00  0.00    -0.079 SA
ENDROOT
BRANCH   1   9
HETATM    9  C1  UNL     1      21.103   8.304   7.953  1.00  0.00     0.172 C 
HETATM   10  N1  UNL     1      19.865   8.649   7.867  1.00  0.00    -0.395 N 
ATOM     11  H12 UNL     1      19.496   9.237   8.615  1.00  0.00     0.156 HD
ATOM     12  H11 UNL     1      19.247   8.369   7.105  1.00  0.00     0.156 HD
ENDBRANCH   1   9
TORSDOF 1
ENDMDL
MODEL 4
REMARK VINA RESULT: -3.588573014      4.680      5.823
REMARK  1 active torsions:
REMARK  status: ('A' for Active; 'I' for Inactive)
REMARK    1  A    between atoms: C1_4  and  N2_5 
ROOT
HETATM    1  N2  UNL     1      25.366  10.501   8.882  1.00  0.00    -0.362 N 
HETATM    2  C2  UNL     1      26.458   9.565   9.118  1.00  0.00     0.141 C 
HETATM    3  C3  UNL     1      25.826   8.208   9.226  1.00  0.00     0.080 C 
HETATM    4  C4  UNL     1      24.674   8.350   8.257  1.00  0.00     0.054 C 
HETATM    5  C5  UNL     1      24.179   9.776   8.448  1.00  0.00     0.160 C 
HETATM    6  S1  UNL     1      22.851   9.863   9.674  1.00  0.00    -0.060 SA
HETATM    7  S2  UNL     1      23.192   8.211  11.010  1.00  0.00    -0.022 SA
HETATM    8  S3  UNL     1      25.299   7.788  10.887  1.00  0.00    -0.079 SA
ENDROOT
BRANCH   1   9
HETATM    9  C1  UNL     1      25.418  11.909   9.042  1.00  0.00     0.172 C 
HETATM   10  N1  UNL     1      24.751  12.740   8.319  1.00  0.00    -0.395 N 
ATOM     11  H12 UNL     1      24.153  12.345   7.592  1.00  0.00     0.156 HD
ATOM     12  H11 UNL     1      24.789  13.753   8.434  1.00  0.00     0.156 HD
ENDBRANCH   1   9
TORSDOF 1
ENDMDL
MODEL 5
REMARK VINA RESULT: -3.586367819      3.749      4.452
REMARK  1 active torsions:
REMARK  status: ('A' for Active; 'I' for Inactive)
REMARK    1  A    between atoms: C1_4  and  N2_5 
ROOT
HETATM    1  N2  UNL     1      24.463   8.239   9.609  1.00  0.00    -0.362 N 
HETATM    2  C2  UNL     1      24.096   8.848   8.337  1.00  0.00     0.141 C 
HETATM    3  C3  UNL     1      22.784   9.539   8.572  1.00  0.00     0.080 C 
HETATM    4  C4  UNL     1      22.943   9.979  10.009  1.00  0.00     0.054 C 
HETATM    5  C5  UNL     1      23.683   8.834  10.686  1.00  0.00     0.160 C 
HETATM    6  S1  UNL     1      22.536   7.644  11.423  1.00  0.00    -0.060 SA
HETATM    7  S2  UNL     1      20.738   7.771  10.247  1.00  0.00    -0.022 SA
HETATM    8  S3  UNL     1      21.358   8.485   8.313  1.00  0.00    -0.079 SA
ENDROOT
BRANCH   1   9
HETATM    9  C1  UNL     1      25.429   7.219   9.804  1.00  0.00     0.172 C 
HETATM   10  N1  UNL     1      26.234   7.172  10.808  1.00  0.00    -0.395 N 
ATOM     11  H12 UNL     1      26.158   7.922  11.497  1.00  0.00     0.156 HD
ATOM     12  H11 UNL     1      26.929   6.439  10.948  1.00  0.00     0.156 HD
ENDBRANCH   1   9
TORSDOF 1
ENDMDL
