MODEL 1
REMARK VINA RESULT: -5.840771534      0.000      0.000
REMARK  6 active torsions:
REMARK  status: ('A' for Active; 'I' for Inactive)
REMARK    1  A    between atoms: C2_2  and  C3_3 
REMARK    2  A    between atoms: C3_3  and  C4_4 
REMARK    3  A    between atoms: C4_4  and  C5_5 
REMARK    4  A    between atoms: C6_6  and  C7_7 
REMARK    5  A    between atoms: C7_7  and  O1_8 
REMARK    6  A    between atoms: N1_10  and  O2_12 
ROOT
HETATM    1  C1  UNL     1      26.655   6.497  10.985  1.00  0.00     0.058 C 
HETATM    2  C2  UNL     1      25.620   7.570  10.638  1.00  0.00    -0.010 C 
HETATM    3  C8  UNL     1      26.191   8.592   9.968  1.00  0.00     0.108 C 
HETATM    4  C9  UNL     1      25.409   9.695   9.549  1.00  0.00     0.089 C 
HETATM    5  N2  UNL     1      24.787  10.630   9.184  1.00  0.00    -0.192 NA
ENDROOT
BRANCH   2   6
HETATM    6  C3  UNL     1      24.297   7.531  10.949  1.00  0.00    -0.136 C 
BRANCH   6   7
HETATM    7  C4  UNL     1      23.055   7.495  11.239  1.00  0.00     0.179 C 
BRANCH   7   8
HETATM    8  C5  UNL     1      22.076   8.130  10.344  1.00  0.00    -0.086 C 
HETATM    9  C6  UNL     1      21.287   8.676   9.612  1.00  0.00    -0.021 C 
BRANCH   9  10
HETATM   10  C7  UNL     1      20.369   9.337   8.733  1.00  0.00     0.217 C 
HETATM   11  N1  UNL     1      20.472  10.561   8.346  1.00  0.00    -0.240 N 
ATOM     12  H1  UNL     1      19.797  10.996   7.718  1.00  0.00     0.197 HD
BRANCH  10  13
HETATM   13  O1  UNL     1      19.259   8.638   8.233  1.00  0.00    -0.338 OA
ATOM     14  H1  UNL     1      18.947   8.818   7.353  1.00  0.00     0.220 HD
ENDBRANCH  10  13
BRANCH  11  15
HETATM   15  O2  UNL     1      21.578  11.245   8.851  1.00  0.00    -0.287 OA
ATOM     16  H2  UNL     1      21.947  11.897   8.266  1.00  0.00     0.244 HD
ENDBRANCH  11  15
ENDBRANCH   9  10
ENDBRANCH   7   8
ENDBRANCH   6   7
ENDBRANCH   2   6
TORSDOF 6
ENDMDL
MODEL 2
REMARK VINA RESULT: -5.733796725      3.732      5.798
REMARK  6 active torsions:
REMARK  status: ('A' for Active; 'I' for Inactive)
REMARK    1  A    between atoms: C2_2  and  C3_3 
REMARK    2  A    between atoms: C3_3  and  C4_4 
REMARK    3  A    between atoms: C4_4  and  C5_5 
REMARK    4  A    between atoms: C6_6  and  C7_7 
REMARK    5  A    between atoms: C7_7  and  O1_8 
REMARK    6  A    between atoms: N1_10  and  O2_12 
ROOT
HETATM    1  C1  UNL     1      19.759   6.491  11.313  1.00  0.00     0.058 C 
HETATM    2  C2  UNL     1      20.772   7.482  10.735  1.00  0.00    -0.010 C 
HETATM    3  C8  UNL     1      20.282   8.083   9.632  1.00  0.00     0.108 C 
HETATM    4  C9  UNL     1      21.060   9.042   8.939  1.00  0.00     0.089 C 
HETATM    5  N2  UNL     1      21.679   9.846   8.336  1.00  0.00    -0.192 NA
ENDROOT
BRANCH   2   6
HETATM    6  C3  UNL     1      22.007   7.743  11.239  1.00  0.00    -0.136 C 
BRANCH   6   7
HETATM    7  C4  UNL     1      23.167   7.990  11.713  1.00  0.00     0.179 C 
BRANCH   7   8
HETATM    8  C5  UNL     1      24.352   7.362  11.108  1.00  0.00    -0.086 C 
HETATM    9  C6  UNL     1      25.333   6.841  10.638  1.00  0.00    -0.021 C 
BRANCH   9  10
HETATM   10  C7  UNL     1      26.497   6.204  10.097  1.00  0.00     0.217 C 
HETATM   11  N1  UNL     1      27.223   5.344  10.722  1.00  0.00    -0.240 N 
ATOM     12  H1  UNL     1      28.045   4.912  10.302  1.00  0.00     0.197 HD
BRANCH  10  13
HETATM   13  O1  UNL     1      26.915   6.511   8.792  1.00  0.00    -0.338 OA
ATOM     14  H1  UNL     1      26.946   5.825   8.135  1.00  0.00     0.220 HD
ENDBRANCH  10  13
BRANCH  11  15
HETATM   15  O2  UNL     1      26.799   5.049  12.019  1.00  0.00    -0.287 OA
ATOM     16  H2  UNL     1      25.888   4.788  12.092  1.00  0.00     0.244 HD
ENDBRANCH  11  15
ENDBRANCH   9  10
ENDBRANCH   7   8
ENDBRANCH   6   7
ENDBRANCH   2   6
TORSDOF 6
ENDMDL
MODEL 3
REMARK VINA RESULT: -5.677651883      3.712      5.869
REMARK  6 active torsions:
REMARK  status: ('A' for Active; 'I' for Inactive)
REMARK    1  A    between atoms: C2_2  and  C3_3 
REMARK    2  A    between atoms: C3_3  and  C4_4 
REMARK    3  A    between atoms: C4_4  and  C5_5 
REMARK    4  A    between atoms: C6_6  and  C7_7 
REMARK    5  A    between atoms: C7_7  and  O1_8 
REMARK    6  A    between atoms: N1_10  and  O2_12 
ROOT
HETATM    1  C1  UNL     1      20.218   6.407  11.350  1.00  0.00     0.058 C 
HETATM    2  C2  UNL     1      20.907   7.561  10.618  1.00  0.00    -0.010 C 
HETATM    3  C8  UNL     1      20.077   8.123   9.716  1.00  0.00     0.108 C 
HETATM    4  C9  UNL     1      20.516   9.214   8.927  1.00  0.00     0.089 C 
HETATM    5  N2  UNL     1      20.848  10.124   8.252  1.00  0.00    -0.192 NA
ENDROOT
BRANCH   2   6
HETATM    6  C3  UNL     1      22.182   7.986  10.823  1.00  0.00    -0.136 C 
BRANCH   6   7
HETATM    7  C4  UNL     1      23.379   8.385  11.015  1.00  0.00     0.179 C 
BRANCH   7   8
HETATM    8  C5  UNL     1      24.488   7.421  10.959  1.00  0.00    -0.086 C 
HETATM    9  C6  UNL     1      25.409   6.641  10.936  1.00  0.00    -0.021 C 
BRANCH   9  10
HETATM   10  C7  UNL     1      26.501   5.714  10.934  1.00  0.00     0.217 C 
HETATM   11  N1  UNL     1      27.222   5.427   9.906  1.00  0.00    -0.240 N 
ATOM     12  H1  UNL     1      27.992   4.761   9.946  1.00  0.00     0.197 HD
BRANCH  10  13
HETATM   13  O1  UNL     1      26.846   5.044  12.118  1.00  0.00    -0.338 OA
ATOM     14  H1  UNL     1      27.506   4.360  12.097  1.00  0.00     0.220 HD
ENDBRANCH  10  13
BRANCH  11  15
HETATM   15  O2  UNL     1      26.868   6.098   8.735  1.00  0.00    -0.287 OA
ATOM     16  H2  UNL     1      27.429   6.830   8.508  1.00  0.00     0.244 HD
ENDBRANCH  11  15
ENDBRANCH   9  10
ENDBRANCH   7   8
ENDBRANCH   6   7
ENDBRANCH   2   6
TORSDOF 6
ENDMDL
MODEL 4
REMARK VINA RESULT: -5.620404281      1.708      2.147
REMARK  6 active torsions:
REMARK  status: ('A' for Active; 'I' for Inactive)
REMARK    1  A    between atoms: C2_2  and  C3_3 
REMARK    2  A    between atoms: C3_3  and  C4_4 
REMARK    3  A    between atoms: C4_4  and  C5_5 
REMARK    4  A    between atoms: C6_6  and  C7_7 
REMARK    5  A    between atoms: C7_7  and  O1_8 
REMARK    6  A    between atoms: N1_10  and  O2_12 
ROOT
HETATM    1  C1  UNL     1      27.057   8.757   9.607  1.00  0.00     0.058 C 
HETATM    2  C2  UNL     1      25.563   9.017   9.815  1.00  0.00    -0.010 C 
HETATM    3  C8  UNL     1      25.159  10.092   9.109  1.00  0.00     0.108 C 
HETATM    4  C9  UNL     1      23.806  10.509   9.157  1.00  0.00     0.089 C 
HETATM    5  N2  UNL     1      22.687  10.884   9.174  1.00  0.00    -0.192 NA
ENDROOT
BRANCH   2   6
HETATM    6  C3  UNL     1      24.728   8.284  10.598  1.00  0.00    -0.136 C 
BRANCH   6   7
HETATM    7  C4  UNL     1      23.944   7.596  11.334  1.00  0.00     0.179 C 
BRANCH   7   8
HETATM    8  C5  UNL     1      22.497   7.607  11.068  1.00  0.00    -0.086 C 
HETATM    9  C6  UNL     1      21.315   7.624  10.823  1.00  0.00    -0.021 C 
BRANCH   9  10
HETATM   10  C7  UNL     1      19.918   7.636  10.510  1.00  0.00     0.217 C 
HETATM   11  N1  UNL     1      19.383   8.312   9.554  1.00  0.00    -0.240 N 
ATOM     12  H1  UNL     1      18.382   8.294   9.362  1.00  0.00     0.197 HD
BRANCH  10  13
HETATM   13  O1  UNL     1      19.026   6.868  11.276  1.00  0.00    -0.338 OA
ATOM     14  H1  UNL     1      18.127   7.156  11.381  1.00  0.00     0.220 HD
ENDBRANCH  10  13
BRANCH  11  15
HETATM   15  O2  UNL     1      20.278   9.073   8.800  1.00  0.00    -0.287 OA
ATOM     16  H2  UNL     1      20.941   9.527   9.306  1.00  0.00     0.244 HD
ENDBRANCH  11  15
ENDBRANCH   9  10
ENDBRANCH   7   8
ENDBRANCH   6   7
ENDBRANCH   2   6
TORSDOF 6
ENDMDL
MODEL 5
REMARK VINA RESULT: -5.611809609      2.084      2.613
REMARK  6 active torsions:
REMARK  status: ('A' for Active; 'I' for Inactive)
REMARK    1  A    between atoms: C2_2  and  C3_3 
REMARK    2  A    between atoms: C3_3  and  C4_4 
REMARK    3  A    between atoms: C4_4  and  C5_5 
REMARK    4  A    between atoms: C6_6  and  C7_7 
REMARK    5  A    between atoms: C7_7  and  O1_8 
REMARK    6  A    between atoms: N1_10  and  O2_12 
ROOT
HETATM    1  C1  UNL     1      27.195   7.431   9.327  1.00  0.00     0.058 C 
HETATM    2  C2  UNL     1      25.744   7.781   9.662  1.00  0.00    -0.010 C 
HETATM    3  C8  UNL     1      25.453   7.458  10.939  1.00  0.00     0.108 C 
HETATM    4  C9  UNL     1      24.158   7.701  11.457  1.00  0.00     0.089 C 
HETATM    5  N2  UNL     1      23.090   7.889  11.923  1.00  0.00    -0.192 NA
ENDROOT
BRANCH   2   6
HETATM    6  C3  UNL     1      24.843   8.341   8.812  1.00  0.00    -0.136 C 
BRANCH   6   7
HETATM    7  C4  UNL     1      23.996   8.866   8.014  1.00  0.00     0.179 C 
BRANCH   7   8
HETATM    8  C5  UNL     1      22.556   8.724   8.280  1.00  0.00    -0.086 C 
HETATM    9  C6  UNL     1      21.380   8.581   8.506  1.00  0.00    -0.021 C 
BRANCH   9  10
HETATM   10  C7  UNL     1      19.989   8.396   8.794  1.00  0.00     0.217 C 
HETATM   11  N1  UNL     1      19.518   7.982   9.918  1.00  0.00    -0.240 N 
ATOM     12  H1  UNL     1      18.519   7.864  10.085  1.00  0.00     0.197 HD
BRANCH  10  13
HETATM   13  O1  UNL     1      19.031   8.673   7.805  1.00  0.00    -0.338 OA
ATOM     14  H1  UNL     1      18.321   8.060   7.652  1.00  0.00     0.220 HD
ENDBRANCH  10  13
BRANCH  11  15
HETATM   15  O2  UNL     1      20.479   7.708  10.892  1.00  0.00    -0.287 OA
ATOM     16  H2  UNL     1      20.764   8.462  11.396  1.00  0.00     0.244 HD
ENDBRANCH  11  15
ENDBRANCH   9  10
ENDBRANCH   7   8
ENDBRANCH   6   7
ENDBRANCH   2   6
TORSDOF 6
ENDMDL
