MODEL 1
REMARK VINA RESULT: -5.564205797      0.000      0.000
REMARK  1 active torsions:
REMARK  status: ('A' for Active; 'I' for Inactive)
REMARK       I    between atoms: C2_2  and  N1_4 
REMARK    1  A    between atoms: N1_4  and  C3_6 
ROOT
HETATM    1  C3  UNL     1      21.786   8.389   9.814  1.00  0.00     0.290 C 
HETATM    2  O2  UNL     1      22.576   9.047  10.717  1.00  0.00    -0.209 OA
HETATM    3  O3  UNL     1      23.537   9.735  10.240  1.00  0.00    -0.199 OA
HETATM    4  C4  UNL     1      24.027   9.404   9.021  1.00  0.00     0.190 C 
HETATM    5  C5  UNL     1      25.014   8.231   9.082  1.00  0.00     0.081 C 
HETATM    6  C6  UNL     1      24.855  10.591   8.510  1.00  0.00     0.081 C 
HETATM    7  O4  UNL     1      23.108   9.107   8.054  1.00  0.00    -0.344 OA
HETATM    8  C7  UNL     1      21.787   9.114   8.504  1.00  0.00     0.173 C 
HETATM    9  C8  UNL     1      21.329  10.532   8.583  1.00  0.00     0.044 C 
ENDROOT
BRANCH   1  10
HETATM   10  N1  UNL     1      20.464   8.088  10.299  1.00  0.00    -0.330 N 
HETATM   11  C2  UNL     1      20.137   7.058  11.194  1.00  0.00     0.215 C 
HETATM   12  C1  UNL     1      18.741   6.856  11.611  1.00  0.00     0.117 C 
HETATM   13  O1  UNL     1      21.023   6.304  11.644  1.00  0.00    -0.274 OA
ATOM     14  H1  UNL     1      19.699   8.674   9.962  1.00  0.00     0.165 HD
ENDBRANCH   1  10
TORSDOF 1
ENDMDL
MODEL 2
REMARK VINA RESULT: -5.470539330      1.567      1.864
REMARK  1 active torsions:
REMARK  status: ('A' for Active; 'I' for Inactive)
REMARK       I    between atoms: C2_2  and  N1_4 
REMARK    1  A    between atoms: N1_4  and  C3_6 
ROOT
HETATM    1  C3  UNL     1      22.546   7.739  10.716  1.00  0.00     0.290 C 
HETATM    2  O2  UNL     1      23.289   8.009  11.833  1.00  0.00    -0.209 OA
HETATM    3  O3  UNL     1      24.514   8.306  11.646  1.00  0.00    -0.199 OA
HETATM    4  C4  UNL     1      25.120   7.871  10.515  1.00  0.00     0.190 C 
HETATM    5  C5  UNL     1      25.582   6.412  10.619  1.00  0.00     0.081 C 
HETATM    6  C6  UNL     1      26.410   8.681  10.332  1.00  0.00     0.081 C 
HETATM    7  O4  UNL     1      24.404   7.985   9.356  1.00  0.00    -0.344 OA
HETATM    8  C7  UNL     1      23.107   8.469   9.535  1.00  0.00     0.173 C 
HETATM    9  C8  UNL     1      23.180   9.950   9.702  1.00  0.00     0.044 C 
ENDROOT
BRANCH   1  10
HETATM   10  N1  UNL     1      21.130   7.935  10.889  1.00  0.00    -0.330 N 
HETATM   11  C2  UNL     1      20.217   6.959  11.315  1.00  0.00     0.215 C 
HETATM   12  C1  UNL     1      18.790   7.291  11.451  1.00  0.00     0.117 C 
HETATM   13  O1  UNL     1      20.601   5.802  11.582  1.00  0.00    -0.274 OA
ATOM     14  H1  UNL     1      20.760   8.863  10.684  1.00  0.00     0.165 HD
ENDBRANCH   1  10
TORSDOF 1
ENDMDL
MODEL 3
REMARK VINA RESULT: -5.284968861      2.047      2.782
REMARK  1 active torsions:
REMARK  status: ('A' for Active; 'I' for Inactive)
REMARK       I    between atoms: C2_2  and  N1_4 
REMARK    1  A    between atoms: N1_4  and  C3_6 
ROOT
HETATM    1  C3  UNL     1      22.819   8.201  10.001  1.00  0.00     0.290 C 
HETATM    2  O2  UNL     1      23.241   8.254  11.301  1.00  0.00    -0.209 OA
HETATM    3  O3  UNL     1      24.500   8.311  11.491  1.00  0.00    -0.199 OA
HETATM    4  C4  UNL     1      25.322   7.828  10.529  1.00  0.00     0.190 C 
HETATM    5  C5  UNL     1      25.471   6.303  10.592  1.00  0.00     0.081 C 
HETATM    6  C6  UNL     1      26.731   8.374  10.797  1.00  0.00     0.081 C 
HETATM    7  O4  UNL     1      25.005   8.148   9.238  1.00  0.00    -0.344 OA
HETATM    8  C7  UNL     1      23.817   8.870   9.107  1.00  0.00     0.173 C 
HETATM    9  C8  UNL     1      24.097  10.294   9.451  1.00  0.00     0.044 C 
ENDROOT
BRANCH   1  10
HETATM   10  N1  UNL     1      21.471   8.665   9.800  1.00  0.00    -0.330 N 
HETATM   11  C2  UNL     1      20.794   8.701   8.571  1.00  0.00     0.215 C 
HETATM   12  C1  UNL     1      19.412   9.201   8.503  1.00  0.00     0.117 C 
HETATM   13  O1  UNL     1      21.354   8.312   7.526  1.00  0.00    -0.274 OA
ATOM     14  H1  UNL     1      20.965   8.996  10.621  1.00  0.00     0.165 HD
ENDBRANCH   1  10
TORSDOF 1
ENDMDL
MODEL 4
REMARK VINA RESULT: -5.230079297      2.320      5.335
REMARK  1 active torsions:
REMARK  status: ('A' for Active; 'I' for Inactive)
REMARK       I    between atoms: C2_2  and  N1_4 
REMARK    1  A    between atoms: N1_4  and  C3_6 
ROOT
HETATM    1  C3  UNL     1      24.224  10.198   8.936  1.00  0.00     0.290 C 
HETATM    2  O2  UNL     1      23.516  10.575  10.045  1.00  0.00    -0.209 OA
HETATM    3  O3  UNL     1      22.524   9.843  10.365  1.00  0.00    -0.199 OA
HETATM    4  C4  UNL     1      21.932   9.097   9.402  1.00  0.00     0.190 C 
HETATM    5  C5  UNL     1      20.945   9.908   8.552  1.00  0.00     0.081 C 
HETATM    6  C6  UNL     1      21.074   8.030  10.094  1.00  0.00     0.081 C 
HETATM    7  O4  UNL     1      22.766   8.445   8.536  1.00  0.00    -0.344 OA
HETATM    8  C7  UNL     1      24.120   8.718   8.737  1.00  0.00     0.173 C 
HETATM    9  C8  UNL     1      24.593   7.905   9.895  1.00  0.00     0.044 C 
ENDROOT
BRANCH   1  10
HETATM   10  N1  UNL     1      25.579  10.684   8.910  1.00  0.00    -0.330 N 
HETATM   11  C2  UNL     1      25.963  12.028   8.789  1.00  0.00     0.215 C 
HETATM   12  C1  UNL     1      27.389  12.392   8.776  1.00  0.00     0.117 C 
HETATM   13  O1  UNL     1      25.104  12.927   8.691  1.00  0.00    -0.274 OA
ATOM     14  H1  UNL     1      26.324   9.991   8.986  1.00  0.00     0.165 HD
ENDBRANCH   1  10
TORSDOF 1
ENDMDL
MODEL 5
REMARK VINA RESULT: -5.113441515      2.361      3.160
REMARK  1 active torsions:
REMARK  status: ('A' for Active; 'I' for Inactive)
REMARK       I    between atoms: C2_2  and  N1_4 
REMARK    1  A    between atoms: N1_4  and  C3_6 
ROOT
HETATM    1  C3  UNL     1      22.674   9.385   8.829  1.00  0.00     0.290 C 
HETATM    2  O2  UNL     1      23.253   8.718   7.785  1.00  0.00    -0.209 OA
HETATM    3  O3  UNL     1      24.523   8.615   7.806  1.00  0.00    -0.199 OA
HETATM    4  C4  UNL     1      25.235   9.531   8.506  1.00  0.00     0.190 C 
HETATM    5  C5  UNL     1      25.442  10.836   7.727  1.00  0.00     0.081 C 
HETATM    6  C6  UNL     1      26.647   8.968   8.717  1.00  0.00     0.081 C 
HETATM    7  O4  UNL     1      24.748   9.871   9.737  1.00  0.00    -0.344 OA
HETATM    8  C7  UNL     1      23.529   9.268  10.053  1.00  0.00     0.173 C 
HETATM    9  C8  UNL     1      23.800   7.865  10.485  1.00  0.00     0.044 C 
ENDROOT
BRANCH   1  10
HETATM   10  N1  UNL     1      21.297   9.035   9.060  1.00  0.00    -0.330 N 
HETATM   11  C2  UNL     1      20.183   9.746   8.587  1.00  0.00     0.215 C 
HETATM   12  C1  UNL     1      18.822   9.280   8.895  1.00  0.00     0.117 C 
HETATM   13  O1  UNL     1      20.333  10.779   7.903  1.00  0.00    -0.274 OA
ATOM     14  H1  UNL     1      21.115   8.199   9.614  1.00  0.00     0.165 HD
ENDBRANCH   1  10
TORSDOF 1
ENDMDL
