MODEL 1
REMARK VINA RESULT: -5.160648026      0.000      0.000
REMARK  1 active torsions:
REMARK  status: ('A' for Active; 'I' for Inactive)
REMARK    1  A    between atoms: C2_2  and  C3_3 
ROOT
HETATM    1  C3  UNL     1      23.117   8.671  10.452  1.00  0.00     0.039 C 
HETATM    2  C4  UNL     1      22.401   7.498  11.088  1.00  0.00     0.088 C 
HETATM    3  S1  UNL     1      20.692   7.688  10.431  1.00  0.00    -0.114 SA
HETATM    4  C5  UNL     1      21.240   8.399   8.887  1.00  0.00     0.078 C 
HETATM    5  N1  UNL     1      20.558   8.324   7.815  1.00  0.00    -0.395 N 
ATOM      6  H11 UNL     1      20.870   8.730   6.933  1.00  0.00     0.156 HD
ATOM      7  H12 UNL     1      19.653   7.896   7.617  1.00  0.00     0.156 HD
HETATM    8  C6  UNL     1      22.539   9.015   9.171  1.00  0.00     0.189 C 
HETATM    9  C7  UNL     1      22.277  10.481   9.089  1.00  0.00     0.092 C 
HETATM   10  N2  UNL     1      22.093  11.627   9.029  1.00  0.00    -0.195 NA
HETATM   11  C8  UNL     1      23.404   8.628   8.021  1.00  0.00     0.092 C 
HETATM   12  N3  UNL     1      24.066   8.323   7.105  1.00  0.00    -0.195 NA
ENDROOT
BRANCH   1  13
HETATM   13  C2  UNL     1      24.603   8.421  10.494  1.00  0.00     0.004 C 
HETATM   14  C1  UNL     1      25.008   7.070  11.004  1.00  0.00     0.005 C 
ENDBRANCH   1  13
TORSDOF 1
ENDMDL
MODEL 2
REMARK VINA RESULT: -5.022922906      2.165      3.710
REMARK  1 active torsions:
REMARK  status: ('A' for Active; 'I' for Inactive)
REMARK    1  A    between atoms: C2_2  and  C3_3 
ROOT
HETATM    1  C3  UNL     1      23.656   8.069   9.829  1.00  0.00     0.039 C 
HETATM    2  C4  UNL     1      24.436   7.869  11.112  1.00  0.00     0.088 C 
HETATM    3  S1  UNL     1      26.123   8.421  10.626  1.00  0.00    -0.114 SA
HETATM    4  C5  UNL     1      25.519   9.631   9.459  1.00  0.00     0.078 C 
HETATM    5  N1  UNL     1      26.186  10.663   9.131  1.00  0.00    -0.395 N 
ATOM      6  H11 UNL     1      25.842  11.354   8.465  1.00  0.00     0.156 HD
ATOM      7  H12 UNL     1      27.106  10.995   9.422  1.00  0.00     0.156 HD
HETATM    8  C6  UNL     1      24.197   9.155   9.041  1.00  0.00     0.189 C 
HETATM    9  C7  UNL     1      24.390   8.733   7.624  1.00  0.00     0.092 C 
HETATM   10  N2  UNL     1      24.519   8.398   6.518  1.00  0.00    -0.195 NA
HETATM   11  C8  UNL     1      23.333  10.368   9.055  1.00  0.00     0.092 C 
HETATM   12  N3  UNL     1      22.671  11.334   9.063  1.00  0.00    -0.195 NA
ENDROOT
BRANCH   1  13
HETATM   13  C2  UNL     1      22.185   8.115  10.150  1.00  0.00     0.004 C 
HETATM   14  C1  UNL     1      21.768   7.315  11.349  1.00  0.00     0.005 C 
ENDBRANCH   1  13
TORSDOF 1
ENDMDL
MODEL 3
REMARK VINA RESULT: -5.016788869      2.144      3.857
REMARK  1 active torsions:
REMARK  status: ('A' for Active; 'I' for Inactive)
REMARK    1  A    between atoms: C2_2  and  C3_3 
ROOT
HETATM    1  C3  UNL     1      22.896   8.572   9.146  1.00  0.00     0.039 C 
HETATM    2  C4  UNL     1      22.872   8.025  10.558  1.00  0.00     0.088 C 
HETATM    3  S1  UNL     1      24.643   7.607  10.838  1.00  0.00    -0.114 SA
HETATM    4  C5  UNL     1      25.241   8.927   9.794  1.00  0.00     0.078 C 
HETATM    5  N1  UNL     1      26.390   9.453   9.942  1.00  0.00    -0.395 N 
ATOM      6  H11 UNL     1      26.732  10.207   9.346  1.00  0.00     0.156 HD
ATOM      7  H12 UNL     1      27.141   9.264  10.606  1.00  0.00     0.156 HD
HETATM    8  C6  UNL     1      24.162   9.199   8.840  1.00  0.00     0.189 C 
HETATM    9  C7  UNL     1      24.692   8.706   7.536  1.00  0.00     0.092 C 
HETATM   10  N2  UNL     1      25.087   8.327   6.510  1.00  0.00    -0.195 NA
HETATM   11  C8  UNL     1      24.074  10.685   8.778  1.00  0.00     0.092 C 
HETATM   12  N3  UNL     1      24.026  11.854   8.734  1.00  0.00    -0.195 NA
ENDROOT
BRANCH   1  13
HETATM   13  C2  UNL     1      21.648   9.385   8.914  1.00  0.00     0.004 C 
HETATM   14  C1  UNL     1      20.545   8.669   8.192  1.00  0.00     0.005 C 
ENDBRANCH   1  13
TORSDOF 1
ENDMDL
MODEL 4
REMARK VINA RESULT: -4.710314935      1.270      1.424
REMARK  1 active torsions:
REMARK  status: ('A' for Active; 'I' for Inactive)
REMARK    1  A    between atoms: C2_2  and  C3_3 
ROOT
HETATM    1  C3  UNL     1      24.652   8.717  10.302  1.00  0.00     0.039 C 
HETATM    2  C4  UNL     1      23.949   7.636  11.096  1.00  0.00     0.088 C 
HETATM    3  S1  UNL     1      22.184   7.925  10.660  1.00  0.00    -0.114 SA
HETATM    4  C5  UNL     1      22.565   8.517   9.019  1.00  0.00     0.078 C 
HETATM    5  N1  UNL     1      21.740   8.443   8.053  1.00  0.00    -0.395 N 
ATOM      6  H11 UNL     1      21.956   8.781   7.115  1.00  0.00     0.156 HD
ATOM      7  H12 UNL     1      20.789   8.077   8.002  1.00  0.00     0.156 HD
HETATM    8  C6  UNL     1      23.931   9.043   9.092  1.00  0.00     0.189 C 
HETATM    9  C7  UNL     1      23.763  10.519   8.959  1.00  0.00     0.092 C 
HETATM   10  N2  UNL     1      23.654  11.672   8.858  1.00  0.00    -0.195 NA
HETATM   11  C8  UNL     1      24.602   8.536   7.862  1.00  0.00     0.092 C 
HETATM   12  N3  UNL     1      25.110   8.136   6.886  1.00  0.00    -0.195 NA
ENDROOT
BRANCH   1  13
HETATM   13  C2  UNL     1      26.109   8.356  10.162  1.00  0.00     0.004 C 
HETATM   14  C1  UNL     1      26.489   7.016  10.718  1.00  0.00     0.005 C 
ENDBRANCH   1  13
TORSDOF 1
ENDMDL
MODEL 5
REMARK VINA RESULT: -4.576688394      1.890      2.477
REMARK  1 active torsions:
REMARK  status: ('A' for Active; 'I' for Inactive)
REMARK    1  A    between atoms: C2_2  and  C3_3 
ROOT
HETATM    1  C3  UNL     1      22.981   8.844  10.429  1.00  0.00     0.039 C 
HETATM    2  C4  UNL     1      21.738   8.139   9.926  1.00  0.00     0.088 C 
HETATM    3  S1  UNL     1      21.738   8.587   8.141  1.00  0.00    -0.114 SA
HETATM    4  C5  UNL     1      23.520   8.654   8.037  1.00  0.00     0.078 C 
HETATM    5  N1  UNL     1      24.153   8.464   6.950  1.00  0.00    -0.395 N 
ATOM      6  H11 UNL     1      25.171   8.502   6.891  1.00  0.00     0.156 HD
ATOM      7  H12 UNL     1      23.828   8.257   6.005  1.00  0.00     0.156 HD
HETATM    8  C6  UNL     1      23.986   8.951   9.395  1.00  0.00     0.189 C 
HETATM    9  C7  UNL     1      24.505  10.347   9.307  1.00  0.00     0.092 C 
HETATM   10  N2  UNL     1      24.914  11.434   9.261  1.00  0.00    -0.195 NA
HETATM   11  C8  UNL     1      25.141   8.035   9.610  1.00  0.00     0.092 C 
HETATM   12  N3  UNL     1      26.052   7.314   9.758  1.00  0.00    -0.195 NA
ENDROOT
BRANCH   1  13
HETATM   13  C2  UNL     1      23.400   8.225  11.738  1.00  0.00     0.004 C 
HETATM   14  C1  UNL     1      22.427   7.243  12.320  1.00  0.00     0.005 C 
ENDBRANCH   1  13
TORSDOF 1
ENDMDL
