MODEL 1
REMARK VINA RESULT: -7.331096225      0.000      0.000
REMARK  2 active torsions:
REMARK  status: ('A' for Active; 'I' for Inactive)
REMARK    1  A    between atoms: O1_1  and  C1_3 
REMARK    2  A    between atoms: C17_22  and  O2_23 
ROOT
HETATM    1  C1  UNL     1      23.035   7.021  13.470  1.00  0.00     0.064 C 
HETATM    2  C2  UNL     1      21.747   7.528  12.840  1.00  0.00     0.038 C 
HETATM    3  C3  UNL     1      21.427   6.687  11.629  1.00  0.00     0.003 C 
HETATM    4  C4  UNL     1      22.650   6.151  10.940  1.00  0.00     0.001 C 
HETATM    5  C5  UNL     1      23.535   5.327  11.810  1.00  0.00     0.007 C 
HETATM    6  C6  UNL     1      23.080   5.549  13.266  1.00  0.00     0.020 C 
HETATM    7  C7  UNL     1      24.058   4.836  14.132  1.00  0.00     0.008 C 
HETATM    8  C8  UNL     1      23.737   4.771  15.573  1.00  0.00     0.008 C 
HETATM    9  C9  UNL     1      22.454   5.420  15.991  1.00  0.00     0.025 C 
HETATM   10  C10 UNL     1      22.039   4.862  17.309  1.00  0.00     0.001 C 
HETATM   11  C11 UNL     1      23.140   4.170  18.066  1.00  0.00     0.040 C 
HETATM   12  C12 UNL     1      22.610   4.166  19.506  1.00  0.00     0.217 A 
HETATM   13  N1  UNL     1      21.247   3.751  19.705  1.00  0.00    -0.062 N 
ATOM     14  H11 UNL     1      20.764   3.158  20.380  1.00  0.00     0.278 HD
ATOM     15  H12 UNL     1      20.603   3.130  19.214  1.00  0.00     0.278 HD
HETATM   16  C13 UNL     1      21.566   5.134  19.628  1.00  0.00     0.221 A 
HETATM   17  C14 UNL     1      21.544   5.870  18.297  1.00  0.00     0.023 C 
HETATM   18  C15 UNL     1      22.407   7.073  18.447  1.00  0.00     0.010 C 
HETATM   19  C16 UNL     1      23.158   7.453  17.228  1.00  0.00     0.038 C 
HETATM   20  C17 UNL     1      22.504   6.912  15.946  1.00  0.00     0.065 C 
HETATM   21  C18 UNL     1      23.267   7.499  14.842  1.00  0.00     0.076 C 
ENDROOT
BRANCH   1  22
HETATM   22  O1  UNL     1      24.064   7.594  12.677  1.00  0.00    -0.389 OA
ATOM     23  H1  UNL     1      24.276   8.408  13.120  1.00  0.00     0.210 HD
ENDBRANCH   1  22
BRANCH  20  24
HETATM   24  O2  UNL     1      21.166   7.368  15.988  1.00  0.00    -0.389 OA
ATOM     25  H2  UNL     1      20.742   6.912  16.706  1.00  0.00     0.210 HD
ENDBRANCH  20  24
TORSDOF 2
ENDMDL
MODEL 2
REMARK VINA RESULT: -7.154628644      2.809      6.167
REMARK  2 active torsions:
REMARK  status: ('A' for Active; 'I' for Inactive)
REMARK    1  A    between atoms: O1_1  and  C1_3 
REMARK    2  A    between atoms: C17_22  and  O2_23 
ROOT
HETATM    1  C1  UNL     1      22.864   4.909  16.407  1.00  0.00     0.064 C 
HETATM    2  C2  UNL     1      21.729   3.913  16.588  1.00  0.00     0.038 C 
HETATM    3  C3  UNL     1      20.829   4.388  17.701  1.00  0.00     0.003 C 
HETATM    4  C4  UNL     1      21.557   5.169  18.759  1.00  0.00     0.001 C 
HETATM    5  C5  UNL     1      22.277   6.370  18.251  1.00  0.00     0.007 C 
HETATM    6  C6  UNL     1      22.323   6.259  16.714  1.00  0.00     0.020 C 
HETATM    7  C7  UNL     1      23.166   7.386  16.230  1.00  0.00     0.008 C 
HETATM    8  C8  UNL     1      23.225   7.584  14.767  1.00  0.00     0.008 C 
HETATM    9  C9  UNL     1      22.414   6.634  13.942  1.00  0.00     0.025 C 
HETATM   10  C10 UNL     1      22.179   7.239  12.601  1.00  0.00     0.001 C 
HETATM   11  C11 UNL     1      23.112   8.367  12.256  1.00  0.00     0.040 C 
HETATM   12  C12 UNL     1      23.006   8.441  10.727  1.00  0.00     0.217 A 
HETATM   13  N1  UNL     1      21.684   8.418  10.158  1.00  0.00    -0.062 N 
ATOM     14  H11 UNL     1      21.211   8.926   9.410  1.00  0.00     0.278 HD
ATOM     15  H12 UNL     1      20.757   8.704  10.474  1.00  0.00     0.278 HD
HETATM   16  C13 UNL     1      22.448   7.221  10.234  1.00  0.00     0.221 A 
HETATM   17  C14 UNL     1      22.350   6.306  11.444  1.00  0.00     0.023 C 
HETATM   18  C15 UNL     1      23.596   5.492  11.479  1.00  0.00     0.010 C 
HETATM   19  C16 UNL     1      24.093   5.178  12.839  1.00  0.00     0.038 C 
HETATM   20  C17 UNL     1      22.984   5.253  13.899  1.00  0.00     0.065 C 
HETATM   21  C18 UNL     1      23.596   4.770  15.139  1.00  0.00     0.076 C 
ENDROOT
BRANCH   1  22
HETATM   22  O1  UNL     1      23.790   4.577  17.431  1.00  0.00    -0.389 OA
ATOM     23  H1  UNL     1      23.263   4.537  18.220  1.00  0.00     0.210 HD
ENDBRANCH   1  22
BRANCH  20  24
HETATM   24  O2  UNL     1      21.958   4.401  13.429  1.00  0.00    -0.389 OA
ATOM     25  H2  UNL     1      21.204   4.543  13.988  1.00  0.00     0.210 HD
ENDBRANCH  20  24
TORSDOF 2
ENDMDL
MODEL 3
REMARK VINA RESULT: -6.786138082      3.231      5.233
REMARK  2 active torsions:
REMARK  status: ('A' for Active; 'I' for Inactive)
REMARK    1  A    between atoms: O1_1  and  C1_3 
REMARK    2  A    between atoms: C17_22  and  O2_23 
ROOT
HETATM    1  C1  UNL     1      22.783  10.818  12.450  1.00  0.00     0.064 C 
HETATM    2  C2  UNL     1      23.891  11.206  11.484  1.00  0.00     0.038 C 
HETATM    3  C3  UNL     1      24.726  12.300  12.105  1.00  0.00     0.003 C 
HETATM    4  C4  UNL     1      23.942  13.191  13.027  1.00  0.00     0.001 C 
HETATM    5  C5  UNL     1      23.271  12.477  14.149  1.00  0.00     0.007 C 
HETATM    6  C6  UNL     1      23.322  10.970  13.828  1.00  0.00     0.020 C 
HETATM    7  C7  UNL     1      22.526  10.282  14.881  1.00  0.00     0.008 C 
HETATM    8  C8  UNL     1      22.563   8.805  14.875  1.00  0.00     0.008 C 
HETATM    9  C9  UNL     1      23.412   8.173  13.817  1.00  0.00     0.025 C 
HETATM   10  C10 UNL     1      23.739   6.779  14.230  1.00  0.00     0.001 C 
HETATM   11  C11 UNL     1      22.845   6.223  15.304  1.00  0.00     0.040 C 
HETATM   12  C12 UNL     1      23.049   4.708  15.165  1.00  0.00     0.217 A 
HETATM   13  N1  UNL     1      24.404   4.235  15.058  1.00  0.00    -0.062 N 
ATOM     14  H11 UNL     1      24.930   3.456  15.456  1.00  0.00     0.278 HD
ATOM     15  H12 UNL     1      25.312   4.568  15.381  1.00  0.00     0.278 HD
HETATM   16  C13 UNL     1      23.621   4.425  13.887  1.00  0.00     0.221 A 
HETATM   17  C14 UNL     1      23.629   5.753  13.147  1.00  0.00     0.023 C 
HETATM   18  C15 UNL     1      22.374   5.819  12.351  1.00  0.00     0.010 C 
HETATM   19  C16 UNL     1      21.787   7.174  12.229  1.00  0.00     0.038 C 
HETATM   20  C17 UNL     1      22.828   8.284  12.446  1.00  0.00     0.065 C 
HETATM   21  C18 UNL     1      22.132   9.536  12.141  1.00  0.00     0.076 C 
ENDROOT
BRANCH   1  22
HETATM   22  O1  UNL     1      21.791  11.815  12.267  1.00  0.00    -0.389 OA
ATOM     23  H1  UNL     1      22.282  12.600  12.054  1.00  0.00     0.210 HD
ENDBRANCH   1  22
BRANCH  20  24
HETATM   24  O2  UNL     1      23.870   8.002  11.532  1.00  0.00    -0.389 OA
ATOM     25  H2  UNL     1      23.550   7.322  10.951  1.00  0.00     0.210 HD
ENDBRANCH  20  24
TORSDOF 2
ENDMDL
MODEL 4
REMARK VINA RESULT: -6.636388299      4.533      6.223
REMARK  2 active torsions:
REMARK  status: ('A' for Active; 'I' for Inactive)
REMARK    1  A    between atoms: O1_1  and  C1_3 
REMARK    2  A    between atoms: C17_22  and  O2_23 
ROOT
HETATM    1  C1  UNL     1      23.134   8.764  11.494  1.00  0.00     0.064 C 
HETATM    2  C2  UNL     1      21.931   8.627  10.574  1.00  0.00     0.038 C 
HETATM    3  C3  UNL     1      21.243   7.313  10.855  1.00  0.00     0.003 C 
HETATM    4  C4  UNL     1      22.185   6.239  11.319  1.00  0.00     0.001 C 
HETATM    5  C5  UNL     1      22.959   6.586  12.544  1.00  0.00     0.007 C 
HETATM    6  C6  UNL     1      22.788   8.100  12.778  1.00  0.00     0.020 C 
HETATM    7  C7  UNL     1      23.678   8.458  13.917  1.00  0.00     0.008 C 
HETATM    8  C8  UNL     1      23.563   9.838  14.433  1.00  0.00     0.008 C 
HETATM    9  C9  UNL     1      22.552  10.711  13.759  1.00  0.00     0.025 C 
HETATM   10  C10 UNL     1      22.209  11.842  14.666  1.00  0.00     0.001 C 
HETATM   11  C11 UNL     1      23.206  12.079  15.768  1.00  0.00     0.040 C 
HETATM   12  C12 UNL     1      22.906  13.523  16.191  1.00  0.00     0.217 A 
HETATM   13  N1  UNL     1      21.527  13.875  16.399  1.00  0.00    -0.062 N 
ATOM     14  H11 UNL     1      21.017  14.417  17.097  1.00  0.00     0.278 HD
ATOM     15  H12 UNL     1      20.687  13.368  16.678  1.00  0.00     0.278 HD
HETATM   16  C13 UNL     1      22.158  14.172  15.160  1.00  0.00     0.221 A 
HETATM   17  C14 UNL     1      22.123  13.181  14.007  1.00  0.00     0.023 C 
HETATM   18  C15 UNL     1      23.266  13.511  13.112  1.00  0.00     0.010 C 
HETATM   19  C16 UNL     1      23.901  12.341  12.462  1.00  0.00     0.038 C 
HETATM   20  C17 UNL     1      22.957  11.131  12.383  1.00  0.00     0.065 C 
HETATM   21  C18 UNL     1      23.671  10.130  11.588  1.00  0.00     0.076 C 
ENDROOT
BRANCH   1  22
HETATM   22  O1  UNL     1      24.145   7.988  10.870  1.00  0.00    -0.389 OA
ATOM     23  H1  UNL     1      24.841   7.947  11.514  1.00  0.00     0.210 HD
ENDBRANCH   1  22
BRANCH  20  24
HETATM   24  O2  UNL     1      21.791  11.608  11.741  1.00  0.00    -0.389 OA
ATOM     25  H2  UNL     1      22.078  12.185  11.043  1.00  0.00     0.210 HD
ENDBRANCH  20  24
TORSDOF 2
ENDMDL
MODEL 5
REMARK VINA RESULT: -6.550283527      3.536      4.683
REMARK  2 active torsions:
REMARK  status: ('A' for Active; 'I' for Inactive)
REMARK    1  A    between atoms: O1_1  and  C1_3 
REMARK    2  A    between atoms: C17_22  and  O2_23 
ROOT
HETATM    1  C1  UNL     1      22.611  11.870  16.038  1.00  0.00     0.064 C 
HETATM    2  C2  UNL     1      21.379  12.610  16.535  1.00  0.00     0.038 C 
HETATM    3  C3  UNL     1      20.629  13.171  15.352  1.00  0.00     0.003 C 
HETATM    4  C4  UNL     1      21.525  13.528  14.199  1.00  0.00     0.001 C 
HETATM    5  C5  UNL     1      22.347  12.396  13.686  1.00  0.00     0.007 C 
HETATM    6  C6  UNL     1      22.264  11.262  14.726  1.00  0.00     0.020 C 
HETATM    7  C7  UNL     1      23.200  10.198  14.273  1.00  0.00     0.008 C 
HETATM    8  C8  UNL     1      23.173   8.930  15.031  1.00  0.00     0.008 C 
HETATM    9  C9  UNL     1      22.193   8.859  16.159  1.00  0.00     0.025 C 
HETATM   10  C10 UNL     1      21.935   7.428  16.485  1.00  0.00     0.001 C 
HETATM   11  C11 UNL     1      22.971   6.474  15.957  1.00  0.00     0.040 C 
HETATM   12  C12 UNL     1      22.760   5.228  16.829  1.00  0.00     0.217 A 
HETATM   13  N1  UNL     1      21.407   4.773  17.009  1.00  0.00    -0.062 N 
ATOM     14  H11 UNL     1      20.946   3.863  17.010  1.00  0.00     0.278 HD
ATOM     15  H12 UNL     1      20.549   4.827  16.461  1.00  0.00     0.278 HD
HETATM   16  C13 UNL     1      22.022   5.590  17.998  1.00  0.00     0.221 A 
HETATM   17  C14 UNL     1      21.904   7.105  17.945  1.00  0.00     0.023 C 
HETATM   18  C15 UNL     1      23.039   7.660  18.731  1.00  0.00     0.010 C 
HETATM   19  C16 UNL     1      23.594   8.930  18.207  1.00  0.00     0.038 C 
HETATM   20  C17 UNL     1      22.584   9.694  17.335  1.00  0.00     0.065 C 
HETATM   21  C18 UNL     1      23.223  10.976  17.032  1.00  0.00     0.076 C 
ENDROOT
BRANCH   1  22
HETATM   22  O1  UNL     1      23.562  12.895  15.795  1.00  0.00    -0.389 OA
ATOM     23  H1  UNL     1      24.267  12.711  16.404  1.00  0.00     0.210 HD
ENDBRANCH   1  22
BRANCH  20  24
HETATM   24  O2  UNL     1      21.429   9.836  18.139  1.00  0.00    -0.389 OA
ATOM     25  H2  UNL     1      21.712   9.754  19.043  1.00  0.00     0.210 HD
ENDBRANCH  20  24
TORSDOF 2
ENDMDL
