MODEL 1
REMARK VINA RESULT: -8.468386239      0.000      0.000
REMARK  3 active torsions:
REMARK  status: ('A' for Active; 'I' for Inactive)
REMARK    1  A    between atoms: O1_1  and  C1_3 
REMARK    2  A    between atoms: C14_16  and  O2_17 
REMARK    3  A    between atoms: C14_16  and  O3_19 
ROOT
HETATM    1  C1  UNL     1      21.782   6.660  11.367  1.00  0.00     0.122 C 
HETATM    2  C2  UNL     1      22.861   5.624  11.041  1.00  0.00     0.032 C 
HETATM    3  C3  UNL     1      22.933   4.575  12.136  1.00  0.00     0.003 C 
HETATM    4  C4  UNL     1      22.698   5.218  13.510  1.00  0.00     0.009 C 
HETATM    5  C5  UNL     1      23.117   6.640  13.404  1.00  0.00     0.021 C 
HETATM    6  C6  UNL     1      23.268   7.334  14.704  1.00  0.00    -0.072 C 
HETATM    7  C7  UNL     1      23.482   8.641  14.688  1.00  0.00    -0.072 C 
HETATM    8  C8  UNL     1      23.551   9.323  13.340  1.00  0.00     0.035 C 
HETATM    9  C9  UNL     1      22.505   8.832  12.404  1.00  0.00     0.012 C 
HETATM   10  C10 UNL     1      22.080   7.414  12.620  1.00  0.00     0.023 C 
HETATM   11  C11 UNL     1      23.652   9.353  15.945  1.00  0.00     0.024 C 
HETATM   12  C12 UNL     1      23.398  10.831  15.872  1.00  0.00     0.015 C 
HETATM   13  C13 UNL     1      22.814  11.155  17.232  1.00  0.00     0.069 C 
HETATM   14  C14 UNL     1      21.917   9.940  17.439  1.00  0.00     0.163 C 
HETATM   15  C15 UNL     1      22.899   8.820  17.104  1.00  0.00     0.056 C 
HETATM   16  C16 UNL     1      22.185   7.538  16.811  1.00  0.00     0.015 C 
HETATM   17  C17 UNL     1      23.185   6.657  16.036  1.00  0.00     0.035 C 
ENDROOT
BRANCH  14  18
HETATM   18  O2  UNL     1      20.954   9.965  16.458  1.00  0.00    -0.365 OA
ATOM     19  H2  UNL     1      20.839   9.075  16.147  1.00  0.00     0.213 HD
ENDBRANCH  14  18
BRANCH  14  20
HETATM   20  O3  UNL     1      21.428   9.852  18.718  1.00  0.00    -0.365 OA
ATOM     21  H3  UNL     1      21.776   9.108  19.194  1.00  0.00     0.213 HD
ENDBRANCH  14  20
BRANCH   1  22
HETATM   22  O1  UNL     1      21.675   7.522  10.293  1.00  0.00    -0.395 OA
ATOM     23  H1  UNL     1      20.925   8.087  10.441  1.00  0.00     0.210 HD
ENDBRANCH   1  22
TORSDOF 3
ENDMDL
MODEL 2
REMARK VINA RESULT: -8.323576197      2.899      4.522
REMARK  3 active torsions:
REMARK  status: ('A' for Active; 'I' for Inactive)
REMARK    1  A    between atoms: O1_1  and  C1_3 
REMARK    2  A    between atoms: C14_16  and  O2_17 
REMARK    3  A    between atoms: C14_16  and  O3_19 
ROOT
HETATM    1  C1  UNL     1      23.883   4.059  14.237  1.00  0.00     0.122 C 
HETATM    2  C2  UNL     1      22.694   3.130  13.981  1.00  0.00     0.032 C 
HETATM    3  C3  UNL     1      22.403   3.045  12.493  1.00  0.00     0.003 C 
HETATM    4  C4  UNL     1      22.633   4.407  11.824  1.00  0.00     0.009 C 
HETATM    5  C5  UNL     1      22.426   5.447  12.866  1.00  0.00     0.021 C 
HETATM    6  C6  UNL     1      22.286   6.824  12.340  1.00  0.00    -0.072 C 
HETATM    7  C7  UNL     1      22.259   7.822  13.212  1.00  0.00    -0.072 C 
HETATM    8  C8  UNL     1      22.376   7.472  14.679  1.00  0.00     0.035 C 
HETATM    9  C9  UNL     1      23.404   6.426  14.931  1.00  0.00     0.012 C 
HETATM   10  C10 UNL     1      23.610   5.462  13.806  1.00  0.00     0.023 C 
HETATM   11  C11 UNL     1      22.106   9.186  12.733  1.00  0.00     0.024 C 
HETATM   12  C12 UNL     1      22.569  10.246  13.690  1.00  0.00     0.015 C 
HETATM   13  C13 UNL     1      23.100  11.335  12.780  1.00  0.00     0.069 C 
HETATM   14  C14 UNL     1      23.802  10.488  11.725  1.00  0.00     0.163 C 
HETATM   15  C15 UNL     1      22.698   9.483  11.407  1.00  0.00     0.056 C 
HETATM   16  C16 UNL     1      23.243   8.273  10.715  1.00  0.00     0.015 C 
HETATM   17  C17 UNL     1      22.184   7.166  10.887  1.00  0.00     0.035 C 
ENDROOT
BRANCH  14  18
HETATM   18  O2  UNL     1      24.823   9.811  12.350  1.00  0.00    -0.365 OA
ATOM     19  H2  UNL     1      24.782   8.905  12.066  1.00  0.00     0.213 HD
ENDBRANCH  14  18
BRANCH  14  20
HETATM   20  O3  UNL     1      24.188  11.216  10.628  1.00  0.00    -0.365 OA
ATOM     21  H3  UNL     1      23.570  11.153   9.909  1.00  0.00     0.213 HD
ENDBRANCH  14  20
BRANCH   1  22
HETATM   22  O1  UNL     1      24.182   4.013  15.586  1.00  0.00    -0.395 OA
ATOM     23  H1  UNL     1      24.291   4.905  15.895  1.00  0.00     0.210 HD
ENDBRANCH   1  22
TORSDOF 3
ENDMDL
MODEL 3
REMARK VINA RESULT: -8.244830437      2.017      2.774
REMARK  3 active torsions:
REMARK  status: ('A' for Active; 'I' for Inactive)
REMARK    1  A    between atoms: O1_1  and  C1_3 
REMARK    2  A    between atoms: C14_16  and  O2_17 
REMARK    3  A    between atoms: C14_16  and  O3_19 
ROOT
HETATM    1  C1  UNL     1      21.941   7.017  11.572  1.00  0.00     0.122 C 
HETATM    2  C2  UNL     1      23.111   6.051  11.773  1.00  0.00     0.032 C 
HETATM    3  C3  UNL     1      23.310   5.764  13.250  1.00  0.00     0.003 C 
HETATM    4  C4  UNL     1      23.040   7.026  14.082  1.00  0.00     0.009 C 
HETATM    5  C5  UNL     1      23.313   8.194  13.204  1.00  0.00     0.021 C 
HETATM    6  C6  UNL     1      23.422   9.487  13.918  1.00  0.00    -0.072 C 
HETATM    7  C7  UNL     1      23.504  10.592  13.191  1.00  0.00    -0.072 C 
HETATM    8  C8  UNL     1      23.477  10.444  11.686  1.00  0.00     0.035 C 
HETATM    9  C9  UNL     1      22.465   9.452  11.234  1.00  0.00     0.012 C 
HETATM   10  C10 UNL     1      22.189   8.347  12.203  1.00  0.00     0.023 C 
HETATM   11  C11 UNL     1      23.629  11.878  13.858  1.00  0.00     0.024 C 
HETATM   12  C12 UNL     1      23.227  13.062  13.026  1.00  0.00     0.015 C 
HETATM   13  C13 UNL     1      22.642  14.023  14.041  1.00  0.00     0.069 C 
HETATM   14  C14 UNL     1      21.875  13.049  14.926  1.00  0.00     0.163 C 
HETATM   15  C15 UNL     1      22.956  12.000  15.173  1.00  0.00     0.056 C 
HETATM   16  C16 UNL     1      22.368  10.714  15.661  1.00  0.00     0.015 C 
HETATM   17  C17 UNL     1      23.434   9.630  15.407  1.00  0.00     0.035 C 
ENDROOT
BRANCH  14  18
HETATM   18  O2  UNL     1      20.894  12.472  14.156  1.00  0.00    -0.365 OA
ATOM     19  H2  UNL     1      20.201  13.112  14.047  1.00  0.00     0.213 HD
ENDBRANCH  14  18
BRANCH  14  20
HETATM   20  O3  UNL     1      21.424  13.627  16.086  1.00  0.00    -0.365 OA
ATOM     21  H3  UNL     1      21.325  13.003  16.794  1.00  0.00     0.213 HD
ENDBRANCH  14  20
BRANCH   1  22
HETATM   22  O1  UNL     1      21.726   7.156  10.213  1.00  0.00    -0.395 OA
ATOM     23  H1  UNL     1      22.097   7.986   9.938  1.00  0.00     0.210 HD
ENDBRANCH   1  22
TORSDOF 3
ENDMDL
MODEL 4
REMARK VINA RESULT: -7.831842990      2.167      3.127
REMARK  3 active torsions:
REMARK  status: ('A' for Active; 'I' for Inactive)
REMARK    1  A    between atoms: O1_1  and  C1_3 
REMARK    2  A    between atoms: C14_16  and  O2_17 
REMARK    3  A    between atoms: C14_16  and  O3_19 
ROOT
HETATM    1  C1  UNL     1      21.998   7.372  11.122  1.00  0.00     0.122 C 
HETATM    2  C2  UNL     1      23.262   7.056  10.319  1.00  0.00     0.032 C 
HETATM    3  C3  UNL     1      23.533   5.563  10.328  1.00  0.00     0.003 C 
HETATM    4  C4  UNL     1      23.168   4.961  11.692  1.00  0.00     0.009 C 
HETATM    5  C5  UNL     1      23.299   6.047  12.698  1.00  0.00     0.021 C 
HETATM    6  C6  UNL     1      23.303   5.584  14.105  1.00  0.00    -0.072 C 
HETATM    7  C7  UNL     1      23.255   6.501  15.060  1.00  0.00    -0.072 C 
HETATM    8  C8  UNL     1      23.196   7.951  14.635  1.00  0.00     0.035 C 
HETATM    9  C9  UNL     1      22.272   8.168  13.490  1.00  0.00     0.012 C 
HETATM   10  C10 UNL     1      22.135   7.003  12.562  1.00  0.00     0.023 C 
HETATM   11  C11 UNL     1      23.274   6.084  16.453  1.00  0.00     0.024 C 
HETATM   12  C12 UNL     1      22.733   7.096  17.422  1.00  0.00     0.015 C 
HETATM   13  C13 UNL     1      22.090   6.245  18.497  1.00  0.00     0.069 C 
HETATM   14  C14 UNL     1      21.449   5.162  17.638  1.00  0.00     0.163 C 
HETATM   15  C15 UNL     1      22.634   4.782  16.754  1.00  0.00     0.056 C 
HETATM   16  C16 UNL     1      22.189   4.042  15.532  1.00  0.00     0.015 C 
HETATM   17  C17 UNL     1      23.347   4.147  14.520  1.00  0.00     0.035 C 
ENDROOT
BRANCH  14  18
HETATM   18  O2  UNL     1      20.505   5.767  16.842  1.00  0.00    -0.365 OA
ATOM     19  H2  UNL     1      20.705   5.545  15.941  1.00  0.00     0.213 HD
ENDBRANCH  14  18
BRANCH  14  20
HETATM   20  O3  UNL     1      20.979   4.105  18.377  1.00  0.00    -0.365 OA
ATOM     21  H3  UNL     1      20.077   3.887  18.174  1.00  0.00     0.213 HD
ENDBRANCH  14  20
BRANCH   1  22
HETATM   22  O1  UNL     1      21.729   8.721  10.988  1.00  0.00    -0.395 OA
ATOM     23  H1  UNL     1      22.396   9.205  11.461  1.00  0.00     0.210 HD
ENDBRANCH   1  22
TORSDOF 3
ENDMDL
MODEL 5
REMARK VINA RESULT: -7.687266634      2.283      5.826
REMARK  3 active torsions:
REMARK  status: ('A' for Active; 'I' for Inactive)
REMARK    1  A    between atoms: O1_1  and  C1_3 
REMARK    2  A    between atoms: C14_16  and  O2_17 
REMARK    3  A    between atoms: C14_16  and  O3_19 
ROOT
HETATM    1  C1  UNL     1      21.324   5.443  17.951  1.00  0.00     0.122 C 
HETATM    2  C2  UNL     1      22.333   5.912  19.003  1.00  0.00     0.032 C 
HETATM    3  C3  UNL     1      22.535   7.413  18.907  1.00  0.00     0.003 C 
HETATM    4  C4  UNL     1      22.497   7.866  17.441  1.00  0.00     0.009 C 
HETATM    5  C5  UNL     1      22.921   6.706  16.614  1.00  0.00     0.021 C 
HETATM    6  C6  UNL     1      23.258   7.041  15.212  1.00  0.00    -0.072 C 
HETATM    7  C7  UNL     1      23.489   6.041  14.373  1.00  0.00    -0.072 C 
HETATM    8  C8  UNL     1      23.386   4.634  14.917  1.00  0.00     0.035 C 
HETATM    9  C9  UNL     1      22.216   4.459  15.817  1.00  0.00     0.012 C 
HETATM   10  C10 UNL     1      21.801   5.690  16.558  1.00  0.00     0.023 C 
HETATM   11  C11 UNL     1      23.839   6.333  12.992  1.00  0.00     0.024 C 
HETATM   12  C12 UNL     1      23.601   5.206  12.029  1.00  0.00     0.015 C 
HETATM   13  C13 UNL     1      23.211   5.914  10.748  1.00  0.00     0.069 C 
HETATM   14  C14 UNL     1      22.331   7.024  11.308  1.00  0.00     0.163 C 
HETATM   15  C15 UNL     1      23.240   7.558  12.412  1.00  0.00     0.056 C 
HETATM   16  C16 UNL     1      22.473   8.373  13.405  1.00  0.00     0.015 C 
HETATM   17  C17 UNL     1      23.344   8.435  14.675  1.00  0.00     0.035 C 
ENDROOT
BRANCH  14  18
HETATM   18  O2  UNL     1      21.245   6.431  11.906  1.00  0.00    -0.365 OA
ATOM     19  H2  UNL     1      20.602   6.261  11.228  1.00  0.00     0.213 HD
ENDBRANCH  14  18
BRANCH  14  20
HETATM   20  O3  UNL     1      22.017   7.978  10.372  1.00  0.00    -0.365 OA
ATOM     21  H3  UNL     1      21.194   8.415  10.554  1.00  0.00     0.213 HD
ENDBRANCH  14  20
BRANCH   1  22
HETATM   22  O1  UNL     1      21.087   4.096  18.153  1.00  0.00    -0.395 OA
ATOM     23  H1  UNL     1      21.783   3.607  17.731  1.00  0.00     0.210 HD
ENDBRANCH   1  22
TORSDOF 3
ENDMDL
