MODEL 1
REMARK VINA RESULT: -9.683973166      0.000      0.000
REMARK  12 active torsions:
REMARK  status: ('A' for Active; 'I' for Inactive)
REMARK    1  A    between atoms: C2_2  and  N1_5 
REMARK       I    between atoms: N1_5  and  C5_7 
REMARK    2  A    between atoms: C5_7  and  C6_9 
REMARK    3  A    between atoms: C6_9  and  N2_10 
REMARK       I    between atoms: N2_10  and  C7_12 
REMARK    4  A    between atoms: C7_12  and  C8_14 
REMARK    5  A    between atoms: C8_14  and  C9_15 
REMARK    6  A    between atoms: C9_15  and  S1_16 
REMARK    7  A    between atoms: S1_16  and  C10_17 
REMARK    8  A    between atoms: C10_17  and  C11_18 
REMARK    9  A    between atoms: C18_25  and  O3_26 
REMARK   10  A    between atoms: O3_26  and  C19_27 
REMARK       I    between atoms: C19_27  and  N3_29 
REMARK   11  A    between atoms: N3_29  and  C20_31 
REMARK   12  A    between atoms: C32_45  and  C34_47 
ROOT
HETATM    1  C8  UNL     1     -12.062 -24.525 -33.491  1.00  0.00     0.058 C 
HETATM    2  C17 UNL     1     -12.986 -23.379 -33.006  1.00  0.00     0.053 C 
HETATM    3  C18 UNL     1     -12.597 -22.151 -33.684  1.00  0.00     0.141 C 
HETATM    4  C26 UNL     1     -11.624 -22.529 -34.759  1.00  0.00     0.046 C 
HETATM    5  C27 UNL     1     -10.425 -21.648 -34.902  1.00  0.00     0.175 C 
HETATM    6  O5  UNL     1      -9.297 -22.340 -34.469  1.00  0.00    -0.390 OA
HETATM    7  C28 UNL     1      -9.793 -23.367 -33.639  1.00  0.00     0.174 C 
HETATM    8  C29 UNL     1     -11.034 -23.859 -34.333  1.00  0.00     0.037 C 
ENDROOT
BRANCH   1   9
HETATM    9  C7  UNL     1     -11.539 -25.248 -32.304  1.00  0.00     0.228 C 
HETATM   10  N2  UNL     1     -11.418 -24.674 -31.028  1.00  0.00    -0.342 N 
ATOM     11  H2  UNL     1     -11.700 -23.701 -30.911  1.00  0.00     0.163 HD
HETATM   12  O2  UNL     1     -11.180 -26.428 -32.416  1.00  0.00    -0.273 OA
BRANCH  10  13
HETATM   13  C6  UNL     1     -10.912 -25.392 -29.856  1.00  0.00     0.114 C 
HETATM   14  C30 UNL     1     -11.899 -26.411 -29.363  1.00  0.00     0.042 C 
HETATM   15  C31 UNL     1     -12.992 -25.743 -28.525  1.00  0.00     0.021 C 
HETATM   16  C32 UNL     1     -12.416 -25.374 -27.170  1.00  0.00     0.035 C 
HETATM   17  C33 UNL     1     -12.336 -26.611 -26.279  1.00  0.00     0.025 C 
HETATM   18  C35 UNL     1     -11.060 -24.775 -27.383  1.00  0.00     0.021 C 
HETATM   19  C36 UNL     1     -10.717 -24.364 -28.772  1.00  0.00     0.042 C 
BRANCH  13  20
HETATM   20  C5  UNL     1      -9.598 -26.006 -30.159  1.00  0.00     0.246 C 
HETATM   21  N1  UNL     1      -9.344 -27.402 -30.003  1.00  0.00    -0.351 N 
ATOM     22  H1  UNL     1     -10.091 -28.013 -29.673  1.00  0.00     0.163 HD
HETATM   23  O1  UNL     1      -8.673 -25.259 -30.574  1.00  0.00    -0.271 OA
BRANCH  21  24
HETATM   24  C2  UNL     1      -8.056 -27.959 -30.301  1.00  0.00     0.022 C 
HETATM   25  C1  UNL     1      -8.045 -29.407 -29.798  1.00  0.00     0.037 C 
HETATM   26  C3  UNL     1      -6.933 -27.234 -29.584  1.00  0.00     0.037 C 
HETATM   27  C4  UNL     1      -7.722 -27.953 -31.770  1.00  0.00     0.037 C 
ENDBRANCH  21  24
ENDBRANCH  13  20
BRANCH  16  28
HETATM   28  C34 UNL     1     -13.373 -24.442 -26.526  1.00  0.00     0.239 C 
HETATM   29  N5  UNL     1     -13.256 -24.106 -25.155  1.00  0.00    -0.061 NA
HETATM   30  O6  UNL     1     -14.338 -23.901 -27.164  1.00  0.00    -0.276 OA
ENDBRANCH  16  28
ENDBRANCH  10  13
ENDBRANCH   1   9
BRANCH   1  31
HETATM   31  C9  UNL     1     -12.892 -25.568 -34.217  1.00  0.00     0.093 C 
BRANCH  31  32
HETATM   32  S1  UNL     1     -14.473 -25.164 -34.842  1.00  0.00    -0.167 SA
BRANCH  32  33
HETATM   33  C10 UNL     1     -15.101 -26.110 -36.220  1.00  0.00     0.078 C 
BRANCH  33  34
HETATM   34  C11 UNL     1     -14.775 -25.403 -37.550  1.00  0.00    -0.005 C 
HETATM   35  C12 UNL     1     -14.097 -26.275 -38.524  1.00  0.00     0.005 C 
HETATM   36  C13 UNL     1     -12.616 -26.196 -38.602  1.00  0.00     0.000 C 
HETATM   37  C14 UNL     1     -11.998 -25.104 -37.795  1.00  0.00     0.000 C 
HETATM   38  C15 UNL     1     -12.841 -23.850 -38.017  1.00  0.00     0.000 C 
HETATM   39  C16 UNL     1     -14.129 -24.083 -37.264  1.00  0.00     0.005 C 
ENDBRANCH  33  34
ENDBRANCH  32  33
ENDBRANCH  31  32
ENDBRANCH   1  31
BRANCH   3  40
HETATM   40  O3  UNL     1     -12.237 -21.025 -32.963  1.00  0.00    -0.298 OA
BRANCH  40  41
HETATM   41  C19 UNL     1     -11.859 -20.911 -31.678  1.00  0.00     0.361 C 
HETATM   42  O4  UNL     1     -10.833 -21.511 -31.317  1.00  0.00    -0.238 OA
HETATM   43  N3  UNL     1     -12.590 -20.144 -30.753  1.00  0.00    -0.331 N 
ATOM     44  H3  UNL     1     -13.432 -19.651 -31.050  1.00  0.00     0.165 HD
BRANCH  43  45
HETATM   45  C20 UNL     1     -12.147 -20.054 -29.377  1.00  0.00     0.114 C 
HETATM   46  C21 UNL     1     -12.415 -18.697 -28.771  1.00  0.00     0.055 C 
HETATM   47  C22 UNL     1     -12.301 -19.011 -27.290  1.00  0.00     0.238 C 
HETATM   48  N4  UNL     1     -12.644 -20.390 -27.139  1.00  0.00    -0.073 N 
HETATM   49  C23 UNL     1     -11.576 -21.118 -26.430  1.00  0.00     0.272 C 
HETATM   50  C24 UNL     1     -13.847 -20.468 -26.328  1.00  0.00     0.272 C 
HETATM   51  C25 UNL     1     -12.843 -20.981 -28.445  1.00  0.00     0.261 C 
ENDBRANCH  43  45
ENDBRANCH  40  41
ENDBRANCH   3  40
TORSDOF 12
ENDMDL
MODEL 2
REMARK VINA RESULT: -9.579717901      0.903      1.197
REMARK  12 active torsions:
REMARK  status: ('A' for Active; 'I' for Inactive)
REMARK    1  A    between atoms: C2_2  and  N1_5 
REMARK       I    between atoms: N1_5  and  C5_7 
REMARK    2  A    between atoms: C5_7  and  C6_9 
REMARK    3  A    between atoms: C6_9  and  N2_10 
REMARK       I    between atoms: N2_10  and  C7_12 
REMARK    4  A    between atoms: C7_12  and  C8_14 
REMARK    5  A    between atoms: C8_14  and  C9_15 
REMARK    6  A    between atoms: C9_15  and  S1_16 
REMARK    7  A    between atoms: S1_16  and  C10_17 
REMARK    8  A    between atoms: C10_17  and  C11_18 
REMARK    9  A    between atoms: C18_25  and  O3_26 
REMARK   10  A    between atoms: O3_26  and  C19_27 
REMARK       I    between atoms: C19_27  and  N3_29 
REMARK   11  A    between atoms: N3_29  and  C20_31 
REMARK   12  A    between atoms: C32_45  and  C34_47 
ROOT
HETATM    1  C8  UNL     1     -12.408 -23.944 -33.074  1.00  0.00     0.058 C 
HETATM    2  C17 UNL     1     -12.937 -22.652 -32.401  1.00  0.00     0.053 C 
HETATM    3  C18 UNL     1     -12.350 -21.503 -33.076  1.00  0.00     0.141 C 
HETATM    4  C26 UNL     1     -11.665 -22.016 -34.306  1.00  0.00     0.046 C 
HETATM    5  C27 UNL     1     -10.316 -21.443 -34.596  1.00  0.00     0.175 C 
HETATM    6  O5  UNL     1      -9.349 -22.420 -34.376  1.00  0.00    -0.390 OA
HETATM    7  C28 UNL     1      -9.965 -23.361 -33.524  1.00  0.00     0.174 C 
HETATM    8  C29 UNL     1     -11.375 -23.480 -34.036  1.00  0.00     0.037 C 
ENDROOT
BRANCH   1   9
HETATM    9  C7  UNL     1     -11.922 -24.866 -32.018  1.00  0.00     0.228 C 
HETATM   10  N2  UNL     1     -11.450 -24.442 -30.764  1.00  0.00    -0.342 N 
ATOM     11  H2  UNL     1     -11.433 -23.441 -30.572  1.00  0.00     0.163 HD
HETATM   12  O2  UNL     1     -11.922 -26.087 -32.224  1.00  0.00    -0.273 OA
BRANCH  10  13
HETATM   13  C6  UNL     1     -10.981 -25.355 -29.718  1.00  0.00     0.114 C 
HETATM   14  C30 UNL     1     -12.019 -26.385 -29.378  1.00  0.00     0.042 C 
HETATM   15  C31 UNL     1     -13.076 -25.797 -28.440  1.00  0.00     0.021 C 
HETATM   16  C32 UNL     1     -12.481 -25.667 -27.049  1.00  0.00     0.035 C 
HETATM   17  C33 UNL     1     -12.465 -27.028 -26.356  1.00  0.00     0.025 C 
HETATM   18  C35 UNL     1     -11.097 -25.112 -27.180  1.00  0.00     0.021 C 
HETATM   19  C36 UNL     1     -10.734 -24.514 -28.493  1.00  0.00     0.042 C 
BRANCH  13  20
HETATM   20  C5  UNL     1      -9.701 -25.981 -30.122  1.00  0.00     0.246 C 
HETATM   21  N1  UNL     1      -9.413 -27.362 -29.899  1.00  0.00    -0.351 N 
ATOM     22  H1  UNL     1     -10.112 -27.953 -29.448  1.00  0.00     0.163 HD
HETATM   23  O1  UNL     1      -8.836 -25.261 -30.686  1.00  0.00    -0.271 OA
BRANCH  21  24
HETATM   24  C2  UNL     1      -8.159 -27.932 -30.299  1.00  0.00     0.022 C 
HETATM   25  C1  UNL     1      -8.103 -29.365 -29.757  1.00  0.00     0.037 C 
HETATM   26  C3  UNL     1      -6.974 -27.190 -29.710  1.00  0.00     0.037 C 
HETATM   27  C4  UNL     1      -7.962 -27.970 -31.792  1.00  0.00     0.037 C 
ENDBRANCH  21  24
ENDBRANCH  13  20
BRANCH  16  28
HETATM   28  C34 UNL     1     -13.389 -24.796 -26.264  1.00  0.00     0.239 C 
HETATM   29  N5  UNL     1     -13.975 -23.643 -26.842  1.00  0.00    -0.061 NA
HETATM   30  O6  UNL     1     -13.685 -25.035 -25.045  1.00  0.00    -0.276 OA
ENDBRANCH  16  28
ENDBRANCH  10  13
ENDBRANCH   1   9
BRANCH   1  31
HETATM   31  C9  UNL     1     -13.568 -24.692 -33.706  1.00  0.00     0.093 C 
BRANCH  31  32
HETATM   32  S1  UNL     1     -14.556 -23.926 -34.927  1.00  0.00    -0.167 SA
BRANCH  32  33
HETATM   33  C10 UNL     1     -14.228 -24.312 -36.640  1.00  0.00     0.078 C 
BRANCH  33  34
HETATM   34  C11 UNL     1     -12.781 -24.815 -36.808  1.00  0.00    -0.005 C 
HETATM   35  C12 UNL     1     -12.032 -24.100 -37.856  1.00  0.00     0.005 C 
HETATM   36  C13 UNL     1     -11.964 -24.727 -39.200  1.00  0.00     0.000 C 
HETATM   37  C14 UNL     1     -12.523 -26.109 -39.282  1.00  0.00     0.000 C 
HETATM   38  C15 UNL     1     -12.017 -26.870 -38.059  1.00  0.00     0.000 C 
HETATM   39  C16 UNL     1     -12.782 -26.310 -36.883  1.00  0.00     0.005 C 
ENDBRANCH  33  34
ENDBRANCH  32  33
ENDBRANCH  31  32
ENDBRANCH   1  31
BRANCH   3  40
HETATM   40  O3  UNL     1     -11.621 -20.560 -32.371  1.00  0.00    -0.298 OA
BRANCH  40  41
HETATM   41  C19 UNL     1     -11.290 -20.528 -31.069  1.00  0.00     0.361 C 
HETATM   42  O4  UNL     1     -10.394 -21.293 -30.676  1.00  0.00    -0.238 OA
HETATM   43  N3  UNL     1     -11.927 -19.663 -30.160  1.00  0.00    -0.331 N 
ATOM     44  H3  UNL     1     -12.662 -19.035 -30.484  1.00  0.00     0.165 HD
BRANCH  43  45
HETATM   45  C20 UNL     1     -11.539 -19.666 -28.765  1.00  0.00     0.114 C 
HETATM   46  C21 UNL     1     -11.751 -18.325 -28.104  1.00  0.00     0.055 C 
HETATM   47  C22 UNL     1     -11.719 -18.715 -26.637  1.00  0.00     0.238 C 
HETATM   48  N4  UNL     1     -12.152 -20.075 -26.569  1.00  0.00    -0.073 N 
HETATM   49  C23 UNL     1     -11.161 -20.901 -25.854  1.00  0.00     0.272 C 
HETATM   50  C24 UNL     1     -13.391 -20.117 -25.811  1.00  0.00     0.272 C 
HETATM   51  C25 UNL     1     -12.329 -20.590 -27.909  1.00  0.00     0.261 C 
ENDBRANCH  43  45
ENDBRANCH  40  41
ENDBRANCH   3  40
TORSDOF 12
ENDMDL
MODEL 3
REMARK VINA RESULT: -9.565031449      0.664      1.116
REMARK  12 active torsions:
REMARK  status: ('A' for Active; 'I' for Inactive)
REMARK    1  A    between atoms: C2_2  and  N1_5 
REMARK       I    between atoms: N1_5  and  C5_7 
REMARK    2  A    between atoms: C5_7  and  C6_9 
REMARK    3  A    between atoms: C6_9  and  N2_10 
REMARK       I    between atoms: N2_10  and  C7_12 
REMARK    4  A    between atoms: C7_12  and  C8_14 
REMARK    5  A    between atoms: C8_14  and  C9_15 
REMARK    6  A    between atoms: C9_15  and  S1_16 
REMARK    7  A    between atoms: S1_16  and  C10_17 
REMARK    8  A    between atoms: C10_17  and  C11_18 
REMARK    9  A    between atoms: C18_25  and  O3_26 
REMARK   10  A    between atoms: O3_26  and  C19_27 
REMARK       I    between atoms: C19_27  and  N3_29 
REMARK   11  A    between atoms: N3_29  and  C20_31 
REMARK   12  A    between atoms: C32_45  and  C34_47 
ROOT
HETATM    1  C8  UNL     1     -12.040 -24.640 -33.576  1.00  0.00     0.058 C 
HETATM    2  C17 UNL     1     -13.092 -23.585 -33.149  1.00  0.00     0.053 C 
HETATM    3  C18 UNL     1     -12.765 -22.319 -33.789  1.00  0.00     0.141 C 
HETATM    4  C26 UNL     1     -11.691 -22.597 -34.796  1.00  0.00     0.046 C 
HETATM    5  C27 UNL     1     -10.567 -21.614 -34.850  1.00  0.00     0.175 C 
HETATM    6  O5  UNL     1      -9.415 -22.212 -34.344  1.00  0.00    -0.390 OA
HETATM    7  C28 UNL     1      -9.875 -23.288 -33.557  1.00  0.00     0.174 C 
HETATM    8  C29 UNL     1     -11.019 -23.877 -34.339  1.00  0.00     0.037 C 
ENDROOT
BRANCH   1   9
HETATM    9  C7  UNL     1     -11.538 -25.331 -32.361  1.00  0.00     0.228 C 
HETATM   10  N2  UNL     1     -11.461 -24.729 -31.094  1.00  0.00    -0.342 N 
ATOM     11  H2  UNL     1     -11.761 -23.758 -31.005  1.00  0.00     0.163 HD
HETATM   12  O2  UNL     1     -11.159 -26.507 -32.438  1.00  0.00    -0.273 OA
BRANCH  10  13
HETATM   13  C6  UNL     1     -10.976 -25.416 -29.894  1.00  0.00     0.114 C 
HETATM   14  C30 UNL     1     -11.975 -26.417 -29.389  1.00  0.00     0.042 C 
HETATM   15  C31 UNL     1     -13.079 -25.722 -28.588  1.00  0.00     0.021 C 
HETATM   16  C32 UNL     1     -12.523 -25.316 -27.234  1.00  0.00     0.035 C 
HETATM   17  C33 UNL     1     -12.462 -26.528 -26.307  1.00  0.00     0.025 C 
HETATM   18  C35 UNL     1     -11.162 -24.728 -27.443  1.00  0.00     0.021 C 
HETATM   19  C36 UNL     1     -10.796 -24.358 -28.837  1.00  0.00     0.042 C 
BRANCH  13  20
HETATM   20  C5  UNL     1      -9.660 -26.042 -30.159  1.00  0.00     0.246 C 
HETATM   21  N1  UNL     1      -9.415 -27.435 -29.964  1.00  0.00    -0.351 N 
ATOM     22  H1  UNL     1     -10.171 -28.035 -29.633  1.00  0.00     0.163 HD
HETATM   23  O1  UNL     1      -8.724 -25.309 -30.575  1.00  0.00    -0.271 OA
BRANCH  21  24
HETATM   24  C2  UNL     1      -8.125 -28.004 -30.226  1.00  0.00     0.022 C 
HETATM   25  C1  UNL     1      -8.120 -29.429 -29.660  1.00  0.00     0.037 C 
HETATM   26  C3  UNL     1      -7.008 -27.249 -29.529  1.00  0.00     0.037 C 
HETATM   27  C4  UNL     1      -7.776 -28.061 -31.691  1.00  0.00     0.037 C 
ENDBRANCH  21  24
ENDBRANCH  13  20
BRANCH  16  28
HETATM   28  C34 UNL     1     -13.487 -24.363 -26.633  1.00  0.00     0.239 C 
HETATM   29  N5  UNL     1     -13.121 -23.552 -25.531  1.00  0.00    -0.061 NA
HETATM   30  O6  UNL     1     -14.678 -24.225 -27.070  1.00  0.00    -0.276 OA
ENDBRANCH  16  28
ENDBRANCH  10  13
ENDBRANCH   1   9
BRANCH   1  31
HETATM   31  C9  UNL     1     -12.725 -25.741 -34.365  1.00  0.00     0.093 C 
BRANCH  31  32
HETATM   32  S1  UNL     1     -14.374 -25.548 -34.909  1.00  0.00    -0.167 SA
BRANCH  32  33
HETATM   33  C10 UNL     1     -14.895 -26.456 -36.356  1.00  0.00     0.078 C 
BRANCH  33  34
HETATM   34  C11 UNL     1     -14.694 -25.605 -37.625  1.00  0.00    -0.005 C 
HETATM   35  C12 UNL     1     -13.914 -26.290 -38.670  1.00  0.00     0.005 C 
HETATM   36  C13 UNL     1     -12.460 -25.993 -38.746  1.00  0.00     0.000 C 
HETATM   37  C14 UNL     1     -11.993 -24.890 -37.855  1.00  0.00     0.000 C 
HETATM   38  C15 UNL     1     -13.010 -23.758 -37.972  1.00  0.00     0.000 C 
HETATM   39  C16 UNL     1     -14.239 -24.233 -37.235  1.00  0.00     0.005 C 
ENDBRANCH  33  34
ENDBRANCH  32  33
ENDBRANCH  31  32
ENDBRANCH   1  31
BRANCH   3  40
HETATM   40  O3  UNL     1     -12.555 -21.176 -33.037  1.00  0.00    -0.298 OA
BRANCH  40  41
HETATM   41  C19 UNL     1     -13.204 -20.733 -31.946  1.00  0.00     0.361 C 
HETATM   42  O4  UNL     1     -14.421 -20.505 -32.045  1.00  0.00    -0.238 OA
HETATM   43  N3  UNL     1     -12.545 -20.524 -30.721  1.00  0.00    -0.331 N 
ATOM     44  H3  UNL     1     -11.546 -20.712 -30.641  1.00  0.00     0.165 HD
BRANCH  43  45
HETATM   45  C20 UNL     1     -13.285 -20.042 -29.574  1.00  0.00     0.114 C 
HETATM   46  C21 UNL     1     -13.586 -21.137 -28.579  1.00  0.00     0.055 C 
HETATM   47  C22 UNL     1     -13.921 -20.323 -27.342  1.00  0.00     0.238 C 
HETATM   48  N4  UNL     1     -13.213 -19.088 -27.464  1.00  0.00    -0.073 N 
HETATM   49  C23 UNL     1     -14.134 -17.944 -27.333  1.00  0.00     0.272 C 
HETATM   50  C24 UNL     1     -12.253 -19.010 -26.376  1.00  0.00     0.272 C 
HETATM   51  C25 UNL     1     -12.560 -19.034 -28.754  1.00  0.00     0.261 C 
ENDBRANCH  43  45
ENDBRANCH  40  41
ENDBRANCH   3  40
TORSDOF 12
ENDMDL
MODEL 4
REMARK VINA RESULT: -9.365476337      1.629      4.031
REMARK  12 active torsions:
REMARK  status: ('A' for Active; 'I' for Inactive)
REMARK    1  A    between atoms: C2_2  and  N1_5 
REMARK       I    between atoms: N1_5  and  C5_7 
REMARK    2  A    between atoms: C5_7  and  C6_9 
REMARK    3  A    between atoms: C6_9  and  N2_10 
REMARK       I    between atoms: N2_10  and  C7_12 
REMARK    4  A    between atoms: C7_12  and  C8_14 
REMARK    5  A    between atoms: C8_14  and  C9_15 
REMARK    6  A    between atoms: C9_15  and  S1_16 
REMARK    7  A    between atoms: S1_16  and  C10_17 
REMARK    8  A    between atoms: C10_17  and  C11_18 
REMARK    9  A    between atoms: C18_25  and  O3_26 
REMARK   10  A    between atoms: O3_26  and  C19_27 
REMARK       I    between atoms: C19_27  and  N3_29 
REMARK   11  A    between atoms: N3_29  and  C20_31 
REMARK   12  A    between atoms: C32_45  and  C34_47 
ROOT
HETATM    1  C8  UNL     1     -11.898 -24.175 -32.546  1.00  0.00     0.058 C 
HETATM    2  C17 UNL     1     -12.689 -22.968 -31.980  1.00  0.00     0.053 C 
HETATM    3  C18 UNL     1     -12.498 -21.831 -32.870  1.00  0.00     0.141 C 
HETATM    4  C26 UNL     1     -11.819 -22.344 -34.103  1.00  0.00     0.046 C 
HETATM    5  C27 UNL     1     -10.706 -21.503 -34.641  1.00  0.00     0.175 C 
HETATM    6  O5  UNL     1      -9.497 -22.158 -34.427  1.00  0.00    -0.390 OA
HETATM    7  C28 UNL     1      -9.755 -23.075 -33.387  1.00  0.00     0.174 C 
HETATM    8  C29 UNL     1     -11.123 -23.625 -33.688  1.00  0.00     0.037 C 
ENDROOT
BRANCH   1   9
HETATM    9  C7  UNL     1     -11.085 -24.765 -31.453  1.00  0.00     0.228 C 
HETATM   10  N2  UNL     1     -10.401 -25.988 -31.559  1.00  0.00    -0.342 N 
ATOM     11  H2  UNL     1     -10.473 -26.504 -32.436  1.00  0.00     0.163 HD
HETATM   12  O2  UNL     1     -10.985 -24.168 -30.373  1.00  0.00    -0.273 OA
BRANCH  10  13
HETATM   13  C6  UNL     1      -9.590 -26.564 -30.483  1.00  0.00     0.114 C 
HETATM   14  C30 UNL     1      -8.304 -25.811 -30.297  1.00  0.00     0.042 C 
HETATM   15  C31 UNL     1      -7.274 -26.234 -31.348  1.00  0.00     0.021 C 
HETATM   16  C32 UNL     1      -6.738 -27.608 -30.985  1.00  0.00     0.035 C 
HETATM   17  C33 UNL     1      -5.708 -27.490 -29.864  1.00  0.00     0.025 C 
HETATM   18  C35 UNL     1      -7.891 -28.467 -30.570  1.00  0.00     0.021 C 
HETATM   19  C36 UNL     1      -9.254 -27.970 -30.903  1.00  0.00     0.042 C 
BRANCH  13  20
HETATM   20  C5  UNL     1     -10.374 -26.625 -29.227  1.00  0.00     0.246 C 
HETATM   21  N1  UNL     1     -10.056 -25.837 -28.080  1.00  0.00    -0.351 N 
ATOM     22  H1  UNL     1      -9.261 -25.198 -28.116  1.00  0.00     0.163 HD
HETATM   23  O1  UNL     1     -11.361 -27.405 -29.178  1.00  0.00    -0.271 OA
BRANCH  21  24
HETATM   24  C2  UNL     1     -10.835 -25.927 -26.879  1.00  0.00     0.022 C 
HETATM   25  C1  UNL     1     -10.238 -24.952 -25.859  1.00  0.00     0.037 C 
HETATM   26  C3  UNL     1     -10.776 -27.309 -26.255  1.00  0.00     0.037 C 
HETATM   27  C4  UNL     1     -12.291 -25.592 -27.077  1.00  0.00     0.037 C 
ENDBRANCH  21  24
ENDBRANCH  13  20
BRANCH  16  28
HETATM   28  C34 UNL     1      -6.020 -28.125 -32.175  1.00  0.00     0.239 C 
HETATM   29  N5  UNL     1      -4.606 -28.195 -32.202  1.00  0.00    -0.061 NA
HETATM   30  O6  UNL     1      -6.630 -28.529 -33.222  1.00  0.00    -0.276 OA
ENDBRANCH  16  28
ENDBRANCH  10  13
ENDBRANCH   1   9
BRANCH   1  31
HETATM   31  C9  UNL     1     -12.869 -25.281 -32.917  1.00  0.00     0.093 C 
BRANCH  31  32
HETATM   32  S1  UNL     1     -12.933 -25.893 -34.553  1.00  0.00    -0.167 SA
BRANCH  32  33
HETATM   33  C10 UNL     1     -14.538 -26.139 -35.297  1.00  0.00     0.078 C 
BRANCH  33  34
HETATM   34  C11 UNL     1     -14.673 -25.289 -36.575  1.00  0.00    -0.005 C 
HETATM   35  C12 UNL     1     -14.768 -26.096 -37.804  1.00  0.00     0.005 C 
HETATM   36  C13 UNL     1     -13.521 -26.312 -38.581  1.00  0.00     0.000 C 
HETATM   37  C14 UNL     1     -12.339 -25.531 -38.110  1.00  0.00     0.000 C 
HETATM   38  C15 UNL     1     -12.824 -24.112 -37.826  1.00  0.00     0.000 C 
HETATM   39  C16 UNL     1     -13.643 -24.204 -36.560  1.00  0.00     0.005 C 
ENDBRANCH  33  34
ENDBRANCH  32  33
ENDBRANCH  31  32
ENDBRANCH   1  31
BRANCH   3  40
HETATM   40  O3  UNL     1     -11.986 -20.635 -32.395  1.00  0.00    -0.298 OA
BRANCH  40  41
HETATM   41  C19 UNL     1     -11.548 -20.315 -31.165  1.00  0.00     0.361 C 
HETATM   42  O4  UNL     1     -10.381 -20.619 -30.864  1.00  0.00    -0.238 OA
HETATM   43  N3  UNL     1     -12.368 -19.660 -30.230  1.00  0.00    -0.331 N 
ATOM     44  H3  UNL     1     -13.326 -19.410 -30.477  1.00  0.00     0.165 HD
BRANCH  43  45
HETATM   45  C20 UNL     1     -11.854 -19.339 -28.915  1.00  0.00     0.114 C 
HETATM   46  C21 UNL     1     -12.234 -17.947 -28.469  1.00  0.00     0.055 C 
HETATM   47  C22 UNL     1     -11.994 -18.045 -26.973  1.00  0.00     0.238 C 
HETATM   48  N4  UNL     1     -12.171 -19.418 -26.621  1.00  0.00    -0.073 N 
HETATM   49  C23 UNL     1     -10.987 -19.929 -25.907  1.00  0.00     0.272 C 
HETATM   50  C24 UNL     1     -13.306 -19.509 -25.717  1.00  0.00     0.272 C 
HETATM   51  C25 UNL     1     -12.383 -20.197 -27.821  1.00  0.00     0.261 C 
ENDBRANCH  43  45
ENDBRANCH  40  41
ENDBRANCH   3  40
TORSDOF 12
ENDMDL
MODEL 5
REMARK VINA RESULT: -9.332161065      1.711      4.165
REMARK  12 active torsions:
REMARK  status: ('A' for Active; 'I' for Inactive)
REMARK    1  A    between atoms: C2_2  and  N1_5 
REMARK       I    between atoms: N1_5  and  C5_7 
REMARK    2  A    between atoms: C5_7  and  C6_9 
REMARK    3  A    between atoms: C6_9  and  N2_10 
REMARK       I    between atoms: N2_10  and  C7_12 
REMARK    4  A    between atoms: C7_12  and  C8_14 
REMARK    5  A    between atoms: C8_14  and  C9_15 
REMARK    6  A    between atoms: C9_15  and  S1_16 
REMARK    7  A    between atoms: S1_16  and  C10_17 
REMARK    8  A    between atoms: C10_17  and  C11_18 
REMARK    9  A    between atoms: C18_25  and  O3_26 
REMARK   10  A    between atoms: O3_26  and  C19_27 
REMARK       I    between atoms: C19_27  and  N3_29 
REMARK   11  A    between atoms: N3_29  and  C20_31 
REMARK   12  A    between atoms: C32_45  and  C34_47 
ROOT
HETATM    1  C8  UNL     1     -11.527 -24.358 -33.610  1.00  0.00     0.058 C 
HETATM    2  C17 UNL     1     -12.776 -23.518 -33.239  1.00  0.00     0.053 C 
HETATM    3  C18 UNL     1     -12.730 -22.266 -33.981  1.00  0.00     0.141 C 
HETATM    4  C26 UNL     1     -11.629 -22.390 -34.990  1.00  0.00     0.046 C 
HETATM    5  C27 UNL     1     -10.739 -21.199 -35.144  1.00  0.00     0.175 C 
HETATM    6  O5  UNL     1      -9.484 -21.499 -34.622  1.00  0.00    -0.390 OA
HETATM    7  C28 UNL     1      -9.699 -22.583 -33.746  1.00  0.00     0.174 C 
HETATM    8  C29 UNL     1     -10.697 -23.459 -34.454  1.00  0.00     0.037 C 
ENDROOT
BRANCH   1   9
HETATM    9  C7  UNL     1     -10.882 -24.829 -32.359  1.00  0.00     0.228 C 
HETATM   10  N2  UNL     1     -10.159 -26.029 -32.255  1.00  0.00    -0.342 N 
ATOM     11  H2  UNL     1     -10.079 -26.615 -33.086  1.00  0.00     0.163 HD
HETATM   12  O2  UNL     1     -10.968 -24.145 -31.331  1.00  0.00    -0.273 OA
BRANCH  10  13
HETATM   13  C6  UNL     1      -9.513 -26.487 -31.022  1.00  0.00     0.114 C 
HETATM   14  C30 UNL     1      -8.289 -25.676 -30.706  1.00  0.00     0.042 C 
HETATM   15  C31 UNL     1      -7.098 -26.145 -31.545  1.00  0.00     0.021 C 
HETATM   16  C32 UNL     1      -6.594 -27.465 -30.989  1.00  0.00     0.035 C 
HETATM   17  C33 UNL     1      -5.756 -27.221 -29.736  1.00  0.00     0.025 C 
HETATM   18  C35 UNL     1      -7.779 -28.329 -30.685  1.00  0.00     0.021 C 
HETATM   19  C36 UNL     1      -9.084 -27.910 -31.265  1.00  0.00     0.042 C 
BRANCH  13  20
HETATM   20  C5  UNL     1     -10.482 -26.475 -29.902  1.00  0.00     0.246 C 
HETATM   21  N1  UNL     1     -11.871 -26.748 -30.080  1.00  0.00    -0.351 N 
ATOM     22  H1  UNL     1     -12.224 -26.966 -31.013  1.00  0.00     0.163 HD
HETATM   23  O1  UNL     1     -10.054 -26.213 -28.746  1.00  0.00    -0.271 OA
BRANCH  21  24
HETATM   24  C2  UNL     1     -12.781 -26.721 -28.971  1.00  0.00     0.022 C 
HETATM   25  C1  UNL     1     -14.197 -26.927 -29.522  1.00  0.00     0.037 C 
HETATM   26  C3  UNL     1     -12.778 -25.384 -28.254  1.00  0.00     0.037 C 
HETATM   27  C4  UNL     1     -12.503 -27.781 -27.937  1.00  0.00     0.037 C 
ENDBRANCH  21  24
ENDBRANCH  13  20
BRANCH  16  28
HETATM   28  C34 UNL     1      -5.688 -28.051 -32.006  1.00  0.00     0.239 C 
HETATM   29  N5  UNL     1      -4.286 -28.075 -31.807  1.00  0.00    -0.061 NA
HETATM   30  O6  UNL     1      -6.117 -28.557 -33.097  1.00  0.00    -0.276 OA
ENDBRANCH  16  28
ENDBRANCH  10  13
ENDBRANCH   1   9
BRANCH   1  31
HETATM   31  C9  UNL     1     -11.969 -25.637 -34.298  1.00  0.00     0.093 C 
BRANCH  31  32
HETATM   32  S1  UNL     1     -13.653 -25.903 -34.680  1.00  0.00    -0.167 SA
BRANCH  32  33
HETATM   33  C10 UNL     1     -14.045 -26.899 -36.109  1.00  0.00     0.078 C 
BRANCH  33  34
HETATM   34  C11 UNL     1     -14.315 -26.000 -37.332  1.00  0.00    -0.005 C 
HETATM   35  C12 UNL     1     -13.598 -26.432 -38.544  1.00  0.00     0.005 C 
HETATM   36  C13 UNL     1     -12.312 -25.757 -38.857  1.00  0.00     0.000 C 
HETATM   37  C14 UNL     1     -11.985 -24.588 -37.989  1.00  0.00     0.000 C 
HETATM   38  C15 UNL     1     -13.263 -23.765 -37.845  1.00  0.00     0.000 C 
HETATM   39  C16 UNL     1     -14.165 -24.565 -36.935  1.00  0.00     0.005 C 
ENDBRANCH  33  34
ENDBRANCH  32  33
ENDBRANCH  31  32
ENDBRANCH   1  31
BRANCH   3  40
HETATM   40  O3  UNL     1     -12.762 -21.048 -33.322  1.00  0.00    -0.298 OA
BRANCH  40  41
HETATM   41  C19 UNL     1     -13.034 -20.774 -32.035  1.00  0.00     0.361 C 
HETATM   42  O4  UNL     1     -14.187 -20.414 -31.746  1.00  0.00    -0.238 OA
HETATM   43  N3  UNL     1     -12.057 -20.882 -31.029  1.00  0.00    -0.331 N 
ATOM     44  H3  UNL     1     -11.110 -21.179 -31.266  1.00  0.00     0.165 HD
BRANCH  43  45
HETATM   45  C20 UNL     1     -12.395 -20.572 -29.655  1.00  0.00     0.114 C 
HETATM   46  C21 UNL     1     -11.691 -21.473 -28.669  1.00  0.00     0.055 C 
HETATM   47  C22 UNL     1     -11.840 -20.674 -27.387  1.00  0.00     0.238 C 
HETATM   48  N4  UNL     1     -11.941 -19.302 -27.771  1.00  0.00    -0.073 N 
HETATM   49  C23 UNL     1     -13.155 -18.690 -27.201  1.00  0.00     0.272 C 
HETATM   50  C24 UNL     1     -10.792 -18.597 -27.228  1.00  0.00     0.272 C 
HETATM   51  C25 UNL     1     -11.988 -19.211 -29.214  1.00  0.00     0.261 C 
ENDBRANCH  43  45
ENDBRANCH  40  41
ENDBRANCH   3  40
TORSDOF 12
ENDMDL
