MODEL 1
REMARK VINA RESULT: -11.366884465      0.000      0.000
REMARK  12 active torsions:
REMARK  status: ('A' for Active; 'I' for Inactive)
REMARK       I    between atoms: C2_2  and  N1_4 
REMARK    1  A    between atoms: N1_4  and  C3_6 
REMARK    2  A    between atoms: C3_6  and  C4_7 
REMARK    3  A    between atoms: N2_10  and  C7_11 
REMARK    4  A    between atoms: C7_11  and  C8_12 
REMARK    5  A    between atoms: C8_12  and  O2_13 
REMARK    6  A    between atoms: N3_15  and  O3_17 
REMARK    7  A    between atoms: C16_27  and  C17_28 
REMARK    8  A    between atoms: C17_28  and  C18_29 
REMARK    9  A    between atoms: C18_29  and  N5_30 
REMARK       I    between atoms: N5_30  and  C19_32 
REMARK   10  A    between atoms: C19_32  and  C20_34 
REMARK   11  A    between atoms: C20_34  and  C21_35 
REMARK       I    between atoms: N6_44  and  C30_45 
REMARK   12  A    between atoms: C30_45  and  C31_47 
ROOT
HETATM    1  C17 UNL     1     -11.154 -23.894 -32.653  1.00  0.00    -0.020 C 
HETATM    2  C37 UNL     1     -11.810 -23.908 -34.001  1.00  0.00     0.011 C 
HETATM    3  C38 UNL     1     -13.067 -24.500 -33.406  1.00  0.00     0.002 C 
HETATM    4  C39 UNL     1     -12.228 -24.743 -32.141  1.00  0.00     0.011 C 
ENDROOT
BRANCH   1   5
HETATM    5  C16 UNL     1     -10.886 -22.540 -32.118  1.00  0.00     0.006 C 
HETATM    6  C4  UNL     1     -11.649 -21.362 -32.452  1.00  0.00     0.010 C 
HETATM    7  C5  UNL     1     -13.066 -21.229 -31.937  1.00  0.00     0.026 C 
HETATM    8  C6  UNL     1     -13.176 -21.470 -30.449  1.00  0.00     0.123 C 
HETATM    9  N2  UNL     1     -12.138 -20.908 -29.676  1.00  0.00    -0.377 N 
HETATM   10  C14 UNL     1     -10.841 -21.419 -29.819  1.00  0.00     0.060 C 
HETATM   11  C15 UNL     1     -10.740 -22.668 -30.598  1.00  0.00     0.050 C 
BRANCH   6  12
HETATM   12  C3  UNL     1     -11.483 -20.735 -33.813  1.00  0.00     0.127 C 
BRANCH  12  13
HETATM   13  N1  UNL     1     -10.116 -20.657 -34.298  1.00  0.00    -0.361 N 
HETATM   14  C2  UNL     1      -9.630 -21.134 -35.523  1.00  0.00     0.213 C 
HETATM   15  C1  UNL     1      -8.202 -20.987 -35.877  1.00  0.00     0.117 C 
HETATM   16  O1  UNL     1     -10.383 -21.689 -36.344  1.00  0.00    -0.274 OA
ATOM     17  H1  UNL     1      -9.438 -20.208 -33.682  1.00  0.00     0.162 HD
ENDBRANCH  12  13
ENDBRANCH   6  12
BRANCH   9  18
HETATM   18  C7  UNL     1     -12.512 -20.274 -28.473  1.00  0.00     0.101 C 
HETATM   19  C9  UNL     1     -13.771 -20.889 -27.882  1.00  0.00     0.070 C 
HETATM   20  C10 UNL     1     -13.736 -20.966 -26.391  1.00  0.00     0.275 C 
HETATM   21  N4  UNL     1     -13.259 -19.713 -25.845  1.00  0.00     0.084 N 
HETATM   22  C11 UNL     1     -13.349 -19.823 -24.400  1.00  0.00     0.309 C 
HETATM   23  C12 UNL     1     -11.953 -19.351 -26.309  1.00  0.00     0.275 C 
HETATM   24  C13 UNL     1     -11.466 -20.289 -27.424  1.00  0.00     0.070 C 
BRANCH  18  25
HETATM   25  C8  UNL     1     -12.831 -18.847 -28.803  1.00  0.00     0.164 C 
HETATM   26  N3  UNL     1     -11.901 -17.993 -29.058  1.00  0.00    -0.249 N 
ATOM     27  H3  UNL     1     -10.929 -18.302 -29.031  1.00  0.00     0.196 HD
BRANCH  25  28
HETATM   28  O2  UNL     1     -14.144 -18.400 -28.845  1.00  0.00    -0.346 OA
ATOM     29  H2  UNL     1     -14.382 -17.627 -29.343  1.00  0.00     0.219 HD
ENDBRANCH  25  28
BRANCH  26  30
HETATM   30  O3  UNL     1     -12.167 -16.701 -29.359  1.00  0.00    -0.288 OA
ATOM     31  H3  UNL     1     -12.635 -16.125 -28.766  1.00  0.00     0.244 HD
ENDBRANCH  26  30
ENDBRANCH  18  25
ENDBRANCH   9  18
ENDBRANCH   1   5
BRANCH   1  32
HETATM   32  C18 UNL     1      -9.870 -24.746 -32.735  1.00  0.00     0.132 C 
BRANCH  32  33
HETATM   33  N5  UNL     1      -9.904 -25.740 -33.741  1.00  0.00    -0.360 N 
HETATM   34  C19 UNL     1      -9.106 -26.917 -33.557  1.00  0.00     0.219 C 
HETATM   35  O4  UNL     1      -8.428 -26.965 -32.503  1.00  0.00    -0.274 OA
ATOM     36  H5  UNL     1     -10.480 -25.622 -34.574  1.00  0.00     0.162 HD
BRANCH  34  37
HETATM   37  C20 UNL     1      -9.084 -27.996 -34.542  1.00  0.00     0.128 C 
BRANCH  37  38
HETATM   38  C21 UNL     1     -10.393 -28.515 -35.005  1.00  0.00     0.096 C 
HETATM   39  C22 UNL     1     -10.304 -30.017 -35.297  1.00  0.00     0.031 C 
HETATM   40  C23 UNL     1     -10.097 -30.319 -36.747  1.00  0.00    -0.007 C 
HETATM   41  C24 UNL     1      -9.210 -31.547 -36.929  1.00  0.00     0.005 C 
HETATM   42  C28 UNL     1      -9.555 -29.244 -37.607  1.00  0.00     0.008 C 
HETATM   43  C25 UNL     1      -8.539 -31.492 -38.269  1.00  0.00     0.000 C 
HETATM   44  C26 UNL     1      -9.521 -31.061 -39.326  1.00  0.00     0.000 C 
HETATM   45  C27 UNL     1      -9.904 -29.643 -39.061  1.00  0.00     0.006 C 
HETATM   46  C29 UNL     1     -10.151 -27.886 -37.425  1.00  0.00     0.131 C 
HETATM   47  N6  UNL     1     -10.923 -27.857 -36.206  1.00  0.00    -0.346 N 
HETATM   48  C30 UNL     1     -12.179 -27.205 -36.198  1.00  0.00     0.224 C 
HETATM   49  O5  UNL     1     -12.872 -27.180 -35.115  1.00  0.00    -0.273 OA
BRANCH  48  50
HETATM   50  C31 UNL     1     -12.810 -26.526 -37.342  1.00  0.00     0.078 C 
HETATM   51  C32 UNL     1     -14.305 -26.608 -37.377  1.00  0.00     0.014 C 
HETATM   52  C33 UNL     1     -14.958 -25.576 -36.473  1.00  0.00     0.001 C 
HETATM   53  C34 UNL     1     -14.685 -24.208 -37.038  1.00  0.00     0.000 C 
HETATM   54  C35 UNL     1     -13.500 -24.195 -37.983  1.00  0.00     0.001 C 
HETATM   55  C36 UNL     1     -12.385 -25.086 -37.449  1.00  0.00     0.014 C 
ENDBRANCH  48  50
ENDBRANCH  37  38
ENDBRANCH  34  37
ENDBRANCH  32  33
ENDBRANCH   1  32
TORSDOF 12
ENDMDL
MODEL 2
REMARK VINA RESULT: -11.100175844      3.270      8.709
REMARK  12 active torsions:
REMARK  status: ('A' for Active; 'I' for Inactive)
REMARK       I    between atoms: C2_2  and  N1_4 
REMARK    1  A    between atoms: N1_4  and  C3_6 
REMARK    2  A    between atoms: C3_6  and  C4_7 
REMARK    3  A    between atoms: N2_10  and  C7_11 
REMARK    4  A    between atoms: C7_11  and  C8_12 
REMARK    5  A    between atoms: C8_12  and  O2_13 
REMARK    6  A    between atoms: N3_15  and  O3_17 
REMARK    7  A    between atoms: C16_27  and  C17_28 
REMARK    8  A    between atoms: C17_28  and  C18_29 
REMARK    9  A    between atoms: C18_29  and  N5_30 
REMARK       I    between atoms: N5_30  and  C19_32 
REMARK   10  A    between atoms: C19_32  and  C20_34 
REMARK   11  A    between atoms: C20_34  and  C21_35 
REMARK       I    between atoms: N6_44  and  C30_45 
REMARK   12  A    between atoms: C30_45  and  C31_47 
ROOT
HETATM    1  C17 UNL     1     -13.200 -21.661 -32.282  1.00  0.00    -0.020 C 
HETATM    2  C37 UNL     1     -14.229 -22.523 -31.612  1.00  0.00     0.011 C 
HETATM    3  C38 UNL     1     -15.151 -21.335 -31.454  1.00  0.00     0.002 C 
HETATM    4  C39 UNL     1     -13.940 -20.476 -31.852  1.00  0.00     0.011 C 
ENDROOT
BRANCH   1   5
HETATM    5  C16 UNL     1     -12.970 -21.983 -33.708  1.00  0.00     0.006 C 
HETATM    6  C4  UNL     1     -11.672 -22.067 -34.330  1.00  0.00     0.010 C 
HETATM    7  C5  UNL     1     -10.757 -23.219 -33.976  1.00  0.00     0.026 C 
HETATM    8  C6  UNL     1     -11.434 -24.566 -34.090  1.00  0.00     0.123 C 
HETATM    9  N2  UNL     1     -12.279 -24.715 -35.210  1.00  0.00    -0.377 N 
HETATM   10  C14 UNL     1     -13.450 -23.947 -35.276  1.00  0.00     0.060 C 
HETATM   11  C15 UNL     1     -13.801 -23.229 -34.036  1.00  0.00     0.050 C 
BRANCH   6  12
HETATM   12  C3  UNL     1     -10.902 -20.801 -34.608  1.00  0.00     0.127 C 
BRANCH  12  13
HETATM   13  N1  UNL     1      -9.486 -20.984 -34.882  1.00  0.00    -0.361 N 
HETATM   14  C2  UNL     1      -8.731 -20.338 -35.870  1.00  0.00     0.213 C 
HETATM   15  C1  UNL     1      -7.291 -20.634 -36.033  1.00  0.00     0.117 C 
HETATM   16  O1  UNL     1      -9.247 -19.502 -36.633  1.00  0.00    -0.274 OA
ATOM     17  H1  UNL     1      -8.990 -21.652 -34.291  1.00  0.00     0.162 HD
ENDBRANCH  12  13
ENDBRANCH   6  12
BRANCH   9  18
HETATM   18  C7  UNL     1     -12.206 -25.941 -35.904  1.00  0.00     0.101 C 
HETATM   19  C9  UNL     1     -11.949 -25.732 -37.388  1.00  0.00     0.070 C 
HETATM   20  C10 UNL     1     -11.036 -26.761 -37.970  1.00  0.00     0.275 C 
HETATM   21  N4  UNL     1     -11.429 -28.079 -37.517  1.00  0.00     0.084 N 
HETATM   22  C11 UNL     1     -10.569 -29.030 -38.198  1.00  0.00     0.309 C 
HETATM   23  C12 UNL     1     -11.413 -28.217 -36.091  1.00  0.00     0.275 C 
HETATM   24  C13 UNL     1     -11.173 -26.870 -35.392  1.00  0.00     0.070 C 
BRANCH  18  25
HETATM   25  C8  UNL     1     -13.545 -26.603 -35.776  1.00  0.00     0.164 C 
HETATM   26  N3  UNL     1     -13.954 -27.080 -34.652  1.00  0.00    -0.249 N 
ATOM     27  H3  UNL     1     -13.347 -27.001 -33.835  1.00  0.00     0.196 HD
BRANCH  25  28
HETATM   28  O2  UNL     1     -14.388 -26.725 -36.871  1.00  0.00    -0.346 OA
ATOM     29  H2  UNL     1     -15.227 -26.281 -36.894  1.00  0.00     0.219 HD
ENDBRANCH  25  28
BRANCH  26  30
HETATM   30  O3  UNL     1     -15.158 -27.681 -34.514  1.00  0.00    -0.288 OA
ATOM     31  H3  UNL     1     -15.874 -27.283 -34.033  1.00  0.00     0.244 HD
ENDBRANCH  26  30
ENDBRANCH  18  25
ENDBRANCH   9  18
ENDBRANCH   1   5
BRANCH   1  32
HETATM   32  C18 UNL     1     -11.900 -21.738 -31.455  1.00  0.00     0.132 C 
BRANCH  32  33
HETATM   33  N5  UNL     1     -11.697 -22.983 -30.817  1.00  0.00    -0.360 N 
HETATM   34  C19 UNL     1     -11.028 -22.993 -29.548  1.00  0.00     0.219 C 
HETATM   35  O4  UNL     1     -10.669 -21.876 -29.105  1.00  0.00    -0.274 OA
ATOM     36  H5  UNL     1     -12.017 -23.850 -31.247  1.00  0.00     0.162 HD
BRANCH  34  37
HETATM   37  C20 UNL     1     -10.781 -24.233 -28.816  1.00  0.00     0.128 C 
BRANCH  37  38
HETATM   38  C21 UNL     1     -10.508 -25.448 -29.619  1.00  0.00     0.096 C 
HETATM   39  C22 UNL     1     -11.619 -26.485 -29.421  1.00  0.00     0.031 C 
HETATM   40  C23 UNL     1     -11.269 -27.531 -28.411  1.00  0.00    -0.007 C 
HETATM   41  C24 UNL     1     -12.502 -27.966 -27.624  1.00  0.00     0.005 C 
HETATM   42  C28 UNL     1     -10.201 -27.221 -27.435  1.00  0.00     0.008 C 
HETATM   43  C25 UNL     1     -12.083 -28.516 -26.293  1.00  0.00     0.000 C 
HETATM   44  C26 UNL     1     -10.887 -29.417 -26.453  1.00  0.00     0.000 C 
HETATM   45  C27 UNL     1      -9.724 -28.583 -26.876  1.00  0.00     0.006 C 
HETATM   46  C29 UNL     1      -8.969 -26.575 -27.983  1.00  0.00     0.131 C 
HETATM   47  N6  UNL     1      -9.227 -26.103 -29.322  1.00  0.00    -0.346 N 
HETATM   48  C30 UNL     1      -8.245 -26.293 -30.323  1.00  0.00     0.224 C 
HETATM   49  O5  UNL     1      -8.472 -25.878 -31.519  1.00  0.00    -0.273 OA
BRANCH  48  50
HETATM   50  C31 UNL     1      -6.937 -26.944 -30.142  1.00  0.00     0.078 C 
HETATM   51  C32 UNL     1      -6.965 -28.440 -30.197  1.00  0.00     0.014 C 
HETATM   52  C33 UNL     1      -6.966 -28.962 -31.625  1.00  0.00     0.001 C 
HETATM   53  C34 UNL     1      -5.640 -28.629 -32.254  1.00  0.00     0.000 C 
HETATM   54  C35 UNL     1      -4.920 -27.506 -31.533  1.00  0.00     0.001 C 
HETATM   55  C36 UNL     1      -5.909 -26.426 -31.111  1.00  0.00     0.014 C 
ENDBRANCH  48  50
ENDBRANCH  37  38
ENDBRANCH  34  37
ENDBRANCH  32  33
ENDBRANCH   1  32
TORSDOF 12
ENDMDL
MODEL 3
REMARK VINA RESULT: -10.817343405      1.266      1.582
REMARK  12 active torsions:
REMARK  status: ('A' for Active; 'I' for Inactive)
REMARK       I    between atoms: C2_2  and  N1_4 
REMARK    1  A    between atoms: N1_4  and  C3_6 
REMARK    2  A    between atoms: C3_6  and  C4_7 
REMARK    3  A    between atoms: N2_10  and  C7_11 
REMARK    4  A    between atoms: C7_11  and  C8_12 
REMARK    5  A    between atoms: C8_12  and  O2_13 
REMARK    6  A    between atoms: N3_15  and  O3_17 
REMARK    7  A    between atoms: C16_27  and  C17_28 
REMARK    8  A    between atoms: C17_28  and  C18_29 
REMARK    9  A    between atoms: C18_29  and  N5_30 
REMARK       I    between atoms: N5_30  and  C19_32 
REMARK   10  A    between atoms: C19_32  and  C20_34 
REMARK   11  A    between atoms: C20_34  and  C21_35 
REMARK       I    between atoms: N6_44  and  C30_45 
REMARK   12  A    between atoms: C30_45  and  C31_47 
ROOT
HETATM    1  C17 UNL     1     -11.169 -23.810 -32.647  1.00  0.00    -0.020 C 
HETATM    2  C37 UNL     1     -11.840 -23.885 -33.986  1.00  0.00     0.011 C 
HETATM    3  C38 UNL     1     -13.096 -24.432 -33.347  1.00  0.00     0.002 C 
HETATM    4  C39 UNL     1     -12.246 -24.620 -32.081  1.00  0.00     0.011 C 
ENDROOT
BRANCH   1   5
HETATM    5  C16 UNL     1     -10.881 -22.433 -32.185  1.00  0.00     0.006 C 
HETATM    6  C4  UNL     1     -11.629 -21.264 -32.579  1.00  0.00     0.010 C 
HETATM    7  C5  UNL     1     -13.042 -21.084 -32.068  1.00  0.00     0.026 C 
HETATM    8  C6  UNL     1     -13.151 -21.245 -30.569  1.00  0.00     0.123 C 
HETATM    9  N2  UNL     1     -12.102 -20.657 -29.829  1.00  0.00    -0.377 N 
HETATM   10  C14 UNL     1     -10.813 -21.193 -29.949  1.00  0.00     0.060 C 
HETATM   11  C15 UNL     1     -10.732 -22.483 -30.661  1.00  0.00     0.050 C 
BRANCH   6  12
HETATM   12  C3  UNL     1     -11.459 -20.712 -33.972  1.00  0.00     0.127 C 
BRANCH  12  13
HETATM   13  N1  UNL     1     -10.085 -20.596 -34.430  1.00  0.00    -0.361 N 
HETATM   14  C2  UNL     1      -9.542 -21.131 -35.606  1.00  0.00     0.213 C 
HETATM   15  C1  UNL     1      -8.115 -20.933 -35.937  1.00  0.00     0.117 C 
HETATM   16  O1  UNL     1     -10.243 -21.782 -36.401  1.00  0.00    -0.274 OA
ATOM     17  H1  UNL     1      -9.448 -20.069 -33.832  1.00  0.00     0.162 HD
ENDBRANCH  12  13
ENDBRANCH   6  12
BRANCH   9  18
HETATM   18  C7  UNL     1     -12.464 -19.956 -28.660  1.00  0.00     0.101 C 
HETATM   19  C9  UNL     1     -11.809 -18.585 -28.602  1.00  0.00     0.070 C 
HETATM   20  C10 UNL     1     -12.704 -17.538 -28.026  1.00  0.00     0.275 C 
HETATM   21  N4  UNL     1     -13.350 -18.044 -26.833  1.00  0.00     0.084 N 
HETATM   22  C11 UNL     1     -14.118 -16.947 -26.273  1.00  0.00     0.309 C 
HETATM   23  C12 UNL     1     -14.128 -19.224 -27.066  1.00  0.00     0.275 C 
HETATM   24  C13 UNL     1     -13.923 -19.769 -28.488  1.00  0.00     0.070 C 
BRANCH  18  25
HETATM   25  C8  UNL     1     -11.947 -20.742 -27.493  1.00  0.00     0.164 C 
HETATM   26  N3  UNL     1     -10.900 -20.367 -26.842  1.00  0.00    -0.249 N 
ATOM     27  H3  UNL     1     -10.419 -19.516 -27.133  1.00  0.00     0.196 HD
BRANCH  25  28
HETATM   28  O2  UNL     1     -12.581 -21.905 -27.078  1.00  0.00    -0.346 OA
ATOM     29  H2  UNL     1     -12.089 -22.702 -26.925  1.00  0.00     0.219 HD
ENDBRANCH  25  28
BRANCH  26  30
HETATM   30  O3  UNL     1     -10.417 -21.062 -25.786  1.00  0.00    -0.288 OA
ATOM     31  H3  UNL     1     -10.063 -20.634 -25.014  1.00  0.00     0.244 HD
ENDBRANCH  26  30
ENDBRANCH  18  25
ENDBRANCH   9  18
ENDBRANCH   1   5
BRANCH   1  32
HETATM   32  C18 UNL     1      -9.895 -24.679 -32.700  1.00  0.00     0.132 C 
BRANCH  32  33
HETATM   33  N5  UNL     1      -9.913 -25.663 -33.715  1.00  0.00    -0.360 N 
HETATM   34  C19 UNL     1      -9.150 -26.860 -33.512  1.00  0.00     0.219 C 
HETATM   35  O4  UNL     1      -8.515 -26.933 -32.433  1.00  0.00    -0.274 OA
ATOM     36  H5  UNL     1     -10.453 -25.524 -34.569  1.00  0.00     0.162 HD
BRANCH  34  37
HETATM   37  C20 UNL     1      -9.115 -27.931 -34.506  1.00  0.00     0.128 C 
BRANCH  37  38
HETATM   38  C21 UNL     1     -10.417 -28.469 -34.966  1.00  0.00     0.096 C 
HETATM   39  C22 UNL     1     -10.308 -29.970 -35.254  1.00  0.00     0.031 C 
HETATM   40  C23 UNL     1     -10.098 -30.272 -36.704  1.00  0.00    -0.007 C 
HETATM   41  C24 UNL     1      -9.195 -31.489 -36.884  1.00  0.00     0.005 C 
HETATM   42  C28 UNL     1      -9.572 -29.192 -37.567  1.00  0.00     0.008 C 
HETATM   43  C25 UNL     1      -8.527 -31.428 -38.225  1.00  0.00     0.000 C 
HETATM   44  C26 UNL     1      -9.515 -31.013 -39.282  1.00  0.00     0.000 C 
HETATM   45  C27 UNL     1      -9.917 -29.600 -39.020  1.00  0.00     0.006 C 
HETATM   46  C29 UNL     1     -10.187 -27.842 -37.388  1.00  0.00     0.131 C 
HETATM   47  N6  UNL     1     -10.957 -27.820 -36.168  1.00  0.00    -0.346 N 
HETATM   48  C30 UNL     1     -12.222 -27.186 -36.160  1.00  0.00     0.224 C 
HETATM   49  O5  UNL     1     -12.914 -27.168 -35.077  1.00  0.00    -0.273 OA
BRANCH  48  50
HETATM   50  C31 UNL     1     -12.864 -26.518 -37.305  1.00  0.00     0.078 C 
HETATM   51  C32 UNL     1     -14.359 -26.596 -37.323  1.00  0.00     0.014 C 
HETATM   52  C33 UNL     1     -14.999 -25.551 -36.424  1.00  0.00     0.001 C 
HETATM   53  C34 UNL     1     -14.729 -24.191 -37.008  1.00  0.00     0.000 C 
HETATM   54  C35 UNL     1     -13.554 -24.193 -37.966  1.00  0.00     0.001 C 
HETATM   55  C36 UNL     1     -12.436 -25.081 -37.433  1.00  0.00     0.014 C 
ENDBRANCH  48  50
ENDBRANCH  37  38
ENDBRANCH  34  37
ENDBRANCH  32  33
ENDBRANCH   1  32
TORSDOF 12
ENDMDL
MODEL 4
REMARK VINA RESULT: -10.667888705      4.184      8.424
REMARK  12 active torsions:
REMARK  status: ('A' for Active; 'I' for Inactive)
REMARK       I    between atoms: C2_2  and  N1_4 
REMARK    1  A    between atoms: N1_4  and  C3_6 
REMARK    2  A    between atoms: C3_6  and  C4_7 
REMARK    3  A    between atoms: N2_10  and  C7_11 
REMARK    4  A    between atoms: C7_11  and  C8_12 
REMARK    5  A    between atoms: C8_12  and  O2_13 
REMARK    6  A    between atoms: N3_15  and  O3_17 
REMARK    7  A    between atoms: C16_27  and  C17_28 
REMARK    8  A    between atoms: C17_28  and  C18_29 
REMARK    9  A    between atoms: C18_29  and  N5_30 
REMARK       I    between atoms: N5_30  and  C19_32 
REMARK   10  A    between atoms: C19_32  and  C20_34 
REMARK   11  A    between atoms: C20_34  and  C21_35 
REMARK       I    between atoms: N6_44  and  C30_45 
REMARK   12  A    between atoms: C30_45  and  C31_47 
ROOT
HETATM    1  C17 UNL     1     -13.143 -21.965 -27.944  1.00  0.00    -0.020 C 
HETATM    2  C37 UNL     1     -13.767 -21.011 -26.969  1.00  0.00     0.011 C 
HETATM    3  C38 UNL     1     -12.454 -20.872 -26.233  1.00  0.00     0.002 C 
HETATM    4  C39 UNL     1     -11.982 -22.076 -27.063  1.00  0.00     0.011 C 
ENDROOT
BRANCH   1   5
HETATM    5  C16 UNL     1     -13.046 -21.447 -29.327  1.00  0.00     0.006 C 
HETATM    6  C4  UNL     1     -11.844 -20.912 -29.919  1.00  0.00     0.010 C 
HETATM    7  C5  UNL     1     -10.701 -21.849 -30.246  1.00  0.00     0.026 C 
HETATM    8  C6  UNL     1     -11.138 -23.055 -31.046  1.00  0.00     0.123 C 
HETATM    9  N2  UNL     1     -12.082 -22.786 -32.061  1.00  0.00    -0.377 N 
HETATM   10  C14 UNL     1     -13.368 -22.372 -31.690  1.00  0.00     0.060 C 
HETATM   11  C15 UNL     1     -13.678 -22.492 -30.253  1.00  0.00     0.050 C 
BRANCH   6  12
HETATM   12  C3  UNL     1     -11.354 -19.550 -29.496  1.00  0.00     0.127 C 
BRANCH  12  13
HETATM   13  N1  UNL     1     -12.394 -18.585 -29.186  1.00  0.00    -0.361 N 
HETATM   14  C2  UNL     1     -12.310 -17.522 -28.276  1.00  0.00     0.213 C 
HETATM   15  C1  UNL     1     -13.462 -16.620 -28.061  1.00  0.00     0.117 C 
HETATM   16  O1  UNL     1     -11.269 -17.307 -27.630  1.00  0.00    -0.274 OA
ATOM     17  H1  UNL     1     -13.279 -18.693 -29.682  1.00  0.00     0.162 HD
ENDBRANCH  12  13
ENDBRANCH   6  12
BRANCH   9  18
HETATM   18  C7  UNL     1     -11.882 -23.429 -33.300  1.00  0.00     0.101 C 
HETATM   19  C9  UNL     1     -11.951 -24.943 -33.165  1.00  0.00     0.070 C 
HETATM   20  C10 UNL     1     -12.617 -25.599 -34.329  1.00  0.00     0.275 C 
HETATM   21  N4  UNL     1     -12.113 -25.040 -35.565  1.00  0.00     0.084 N 
HETATM   22  C11 UNL     1     -12.724 -25.791 -36.647  1.00  0.00     0.309 C 
HETATM   23  C12 UNL     1     -12.313 -23.625 -35.671  1.00  0.00     0.275 C 
HETATM   24  C13 UNL     1     -12.837 -23.025 -34.357  1.00  0.00     0.070 C 
BRANCH  18  25
HETATM   25  C8  UNL     1     -10.496 -23.089 -33.758  1.00  0.00     0.164 C 
HETATM   26  N3  UNL     1     -10.188 -21.897 -34.138  1.00  0.00    -0.249 N 
ATOM     27  H3  UNL     1     -10.909 -21.175 -34.124  1.00  0.00     0.196 HD
BRANCH  25  28
HETATM   28  O2  UNL     1      -9.497 -24.052 -33.788  1.00  0.00    -0.346 OA
ATOM     29  H2  UNL     1      -9.106 -24.376 -32.986  1.00  0.00     0.219 HD
ENDBRANCH  25  28
BRANCH  26  30
HETATM   30  O3  UNL     1      -8.943 -21.568 -34.554  1.00  0.00    -0.288 OA
ATOM     31  H3  UNL     1      -8.782 -20.860 -35.167  1.00  0.00     0.244 HD
ENDBRANCH  26  30
ENDBRANCH  18  25
ENDBRANCH   9  18
ENDBRANCH   1   5
BRANCH   1  32
HETATM   32  C18 UNL     1     -13.921 -23.295 -27.878  1.00  0.00     0.132 C 
BRANCH  32  33
HETATM   33  N5  UNL     1     -13.146 -24.392 -27.436  1.00  0.00    -0.360 N 
HETATM   34  C19 UNL     1     -13.782 -25.674 -27.336  1.00  0.00     0.219 C 
HETATM   35  O4  UNL     1     -14.996 -25.713 -27.651  1.00  0.00    -0.274 OA
ATOM     36  H5  UNL     1     -12.163 -24.276 -27.194  1.00  0.00     0.162 HD
BRANCH  34  37
HETATM   37  C20 UNL     1     -13.057 -26.863 -26.893  1.00  0.00     0.128 C 
BRANCH  37  38
HETATM   38  C21 UNL     1     -12.346 -27.646 -27.931  1.00  0.00     0.096 C 
HETATM   39  C22 UNL     1     -12.522 -29.149 -27.687  1.00  0.00     0.031 C 
HETATM   40  C23 UNL     1     -11.364 -29.763 -26.966  1.00  0.00    -0.007 C 
HETATM   41  C24 UNL     1     -11.831 -30.871 -26.027  1.00  0.00     0.005 C 
HETATM   42  C28 UNL     1     -10.475 -28.867 -26.195  1.00  0.00     0.008 C 
HETATM   43  C25 UNL     1     -10.829 -31.055 -24.926  1.00  0.00     0.000 C 
HETATM   44  C26 UNL     1      -9.431 -31.025 -25.483  1.00  0.00     0.000 C 
HETATM   45  C27 UNL     1      -9.155 -29.648 -25.989  1.00  0.00     0.006 C 
HETATM   46  C29 UNL     1     -10.070 -27.595 -26.868  1.00  0.00     0.131 C 
HETATM   47  N6  UNL     1     -10.905 -27.373 -28.024  1.00  0.00    -0.346 N 
HETATM   48  C30 UNL     1     -10.317 -26.910 -29.224  1.00  0.00     0.224 C 
HETATM   49  O5  UNL     1     -11.056 -26.715 -30.257  1.00  0.00    -0.273 OA
BRANCH  48  50
HETATM   50  C31 UNL     1      -8.889 -26.617 -29.432  1.00  0.00     0.078 C 
HETATM   51  C32 UNL     1      -7.991 -27.815 -29.421  1.00  0.00     0.014 C 
HETATM   52  C33 UNL     1      -7.982 -28.538 -30.758  1.00  0.00     0.001 C 
HETATM   53  C34 UNL     1      -7.331 -27.643 -31.778  1.00  0.00     0.000 C 
HETATM   54  C35 UNL     1      -7.330 -26.187 -31.357  1.00  0.00     0.001 C 
HETATM   55  C36 UNL     1      -8.652 -25.826 -30.690  1.00  0.00     0.014 C 
ENDBRANCH  48  50
ENDBRANCH  37  38
ENDBRANCH  34  37
ENDBRANCH  32  33
ENDBRANCH   1  32
TORSDOF 12
ENDMDL
MODEL 5
REMARK VINA RESULT: -10.453372577      3.079      5.942
REMARK  12 active torsions:
REMARK  status: ('A' for Active; 'I' for Inactive)
REMARK       I    between atoms: C2_2  and  N1_4 
REMARK    1  A    between atoms: N1_4  and  C3_6 
REMARK    2  A    between atoms: C3_6  and  C4_7 
REMARK    3  A    between atoms: N2_10  and  C7_11 
REMARK    4  A    between atoms: C7_11  and  C8_12 
REMARK    5  A    between atoms: C8_12  and  O2_13 
REMARK    6  A    between atoms: N3_15  and  O3_17 
REMARK    7  A    between atoms: C16_27  and  C17_28 
REMARK    8  A    between atoms: C17_28  and  C18_29 
REMARK    9  A    between atoms: C18_29  and  N5_30 
REMARK       I    between atoms: N5_30  and  C19_32 
REMARK   10  A    between atoms: C19_32  and  C20_34 
REMARK   11  A    between atoms: C20_34  and  C21_35 
REMARK       I    between atoms: N6_44  and  C30_45 
REMARK   12  A    between atoms: C30_45  and  C31_47 
ROOT
HETATM    1  C17 UNL     1     -11.467 -22.547 -35.067  1.00  0.00    -0.020 C 
HETATM    2  C37 UNL     1     -10.050 -22.150 -34.776  1.00  0.00     0.011 C 
HETATM    3  C38 UNL     1      -9.943 -21.469 -36.120  1.00  0.00     0.002 C 
HETATM    4  C39 UNL     1     -11.264 -22.173 -36.466  1.00  0.00     0.011 C 
ENDROOT
BRANCH   1   5
HETATM    5  C16 UNL     1     -12.475 -21.889 -34.205  1.00  0.00     0.006 C 
HETATM    6  C4  UNL     1     -13.606 -22.558 -33.611  1.00  0.00     0.010 C 
HETATM    7  C5  UNL     1     -13.374 -23.551 -32.493  1.00  0.00     0.026 C 
HETATM    8  C6  UNL     1     -12.503 -22.999 -31.386  1.00  0.00     0.123 C 
HETATM    9  N2  UNL     1     -12.767 -21.658 -31.034  1.00  0.00    -0.377 N 
HETATM   10  C14 UNL     1     -12.488 -20.651 -31.967  1.00  0.00     0.060 C 
HETATM   11  C15 UNL     1     -11.715 -21.082 -33.147  1.00  0.00     0.050 C 
BRANCH   6  12
HETATM   12  C3  UNL     1     -14.773 -22.952 -34.480  1.00  0.00     0.127 C 
BRANCH  12  13
HETATM   13  N1  UNL     1     -14.833 -24.358 -34.839  1.00  0.00    -0.361 N 
HETATM   14  C2  UNL     1     -14.768 -24.901 -36.129  1.00  0.00     0.213 C 
HETATM   15  C1  UNL     1     -14.849 -26.363 -36.338  1.00  0.00     0.117 C 
HETATM   16  O1  UNL     1     -14.639 -24.173 -37.129  1.00  0.00    -0.274 OA
ATOM     17  H1  UNL     1     -14.933 -25.021 -34.069  1.00  0.00     0.162 HD
ENDBRANCH  12  13
ENDBRANCH   6  12
BRANCH   9  18
HETATM   18  C7  UNL     1     -12.780 -21.354 -29.657  1.00  0.00     0.101 C 
HETATM   19  C9  UNL     1     -13.989 -21.959 -28.959  1.00  0.00     0.070 C 
HETATM   20  C10 UNL     1     -13.677 -22.460 -27.588  1.00  0.00     0.275 C 
HETATM   21  N4  UNL     1     -12.888 -21.479 -26.873  1.00  0.00     0.084 N 
HETATM   22  C11 UNL     1     -12.711 -21.985 -25.523  1.00  0.00     0.309 C 
HETATM   23  C12 UNL     1     -11.654 -21.157 -27.527  1.00  0.00     0.275 C 
HETATM   24  C13 UNL     1     -11.569 -21.789 -28.924  1.00  0.00     0.070 C 
BRANCH  18  25
HETATM   25  C8  UNL     1     -12.899 -19.864 -29.533  1.00  0.00     0.164 C 
HETATM   26  N3  UNL     1     -11.862 -19.101 -29.591  1.00  0.00    -0.249 N 
ATOM     27  H3  UNL     1     -10.945 -19.527 -29.724  1.00  0.00     0.196 HD
BRANCH  25  28
HETATM   28  O2  UNL     1     -14.134 -19.259 -29.350  1.00  0.00    -0.346 OA
ATOM     29  H2  UNL     1     -14.641 -18.950 -30.091  1.00  0.00     0.219 HD
ENDBRANCH  25  28
BRANCH  26  30
HETATM   30  O3  UNL     1     -11.947 -17.755 -29.482  1.00  0.00    -0.288 OA
ATOM     31  H3  UNL     1     -11.215 -17.220 -29.197  1.00  0.00     0.244 HD
ENDBRANCH  26  30
ENDBRANCH  18  25
ENDBRANCH   9  18
ENDBRANCH   1   5
BRANCH   1  32
HETATM   32  C18 UNL     1     -11.559 -24.085 -34.993  1.00  0.00     0.132 C 
BRANCH  32  33
HETATM   33  N5  UNL     1     -10.674 -24.669 -34.057  1.00  0.00    -0.360 N 
HETATM   34  C19 UNL     1     -10.772 -26.081 -33.822  1.00  0.00     0.219 C 
HETATM   35  O4  UNL     1     -11.654 -26.689 -34.474  1.00  0.00    -0.274 OA
ATOM     36  H5  UNL     1      -9.986 -24.102 -33.563  1.00  0.00     0.162 HD
BRANCH  34  37
HETATM   37  C20 UNL     1      -9.895 -26.768 -32.876  1.00  0.00     0.128 C 
BRANCH  37  38
HETATM   38  C21 UNL     1      -9.645 -26.098 -31.578  1.00  0.00     0.096 C 
HETATM   39  C22 UNL     1      -8.236 -25.497 -31.545  1.00  0.00     0.031 C 
HETATM   40  C23 UNL     1      -7.242 -26.376 -30.855  1.00  0.00    -0.007 C 
HETATM   41  C24 UNL     1      -5.869 -26.270 -31.512  1.00  0.00     0.005 C 
HETATM   42  C28 UNL     1      -7.564 -27.813 -30.721  1.00  0.00     0.008 C 
HETATM   43  C25 UNL     1      -5.081 -27.517 -31.241  1.00  0.00     0.000 C 
HETATM   44  C26 UNL     1      -5.240 -27.932 -29.803  1.00  0.00     0.000 C 
HETATM   45  C27 UNL     1      -6.656 -28.351 -29.589  1.00  0.00     0.006 C 
HETATM   46  C29 UNL     1      -8.957 -28.142 -30.289  1.00  0.00     0.131 C 
HETATM   47  N6  UNL     1      -9.788 -26.968 -30.402  1.00  0.00    -0.346 N 
HETATM   48  C30 UNL     1     -10.713 -26.673 -29.373  1.00  0.00     0.224 C 
HETATM   49  O5  UNL     1     -11.452 -25.626 -29.468  1.00  0.00    -0.273 OA
BRANCH  48  50
HETATM   50  C31 UNL     1     -10.930 -27.464 -28.151  1.00  0.00     0.078 C 
HETATM   51  C32 UNL     1     -10.749 -26.709 -26.871  1.00  0.00     0.014 C 
HETATM   52  C33 UNL     1     -11.983 -25.901 -26.502  1.00  0.00     0.001 C 
HETATM   53  C34 UNL     1     -13.097 -26.858 -26.171  1.00  0.00     0.000 C 
HETATM   54  C35 UNL     1     -12.865 -28.241 -26.746  1.00  0.00     0.001 C 
HETATM   55  C36 UNL     1     -12.274 -28.141 -28.147  1.00  0.00     0.014 C 
ENDBRANCH  48  50
ENDBRANCH  37  38
ENDBRANCH  34  37
ENDBRANCH  32  33
ENDBRANCH   1  32
TORSDOF 12
ENDMDL
