MODEL 1
REMARK VINA RESULT: -9.404122674      0.000      0.000
REMARK  14 active torsions:
REMARK  status: ('A' for Active; 'I' for Inactive)
REMARK    1  A    between atoms: C2_2  and  C3_3 
REMARK    2  A    between atoms: N1_6  and  C6_7 
REMARK    3  A    between atoms: C6_7  and  O1_8 
REMARK    4  A    between atoms: C6_7  and  C7_10 
REMARK    5  A    between atoms: C7_10  and  N2_11 
REMARK    6  A    between atoms: C7_10  and  C31_47 
REMARK       I    between atoms: N2_11  and  C8_13 
REMARK    7  A    between atoms: C8_13  and  C9_15 
REMARK       I    between atoms: N3_17  and  C11_18 
REMARK    8  A    between atoms: C11_18  and  C12_20 
REMARK    9  A    between atoms: C12_20  and  N4_21 
REMARK   10  A    between atoms: C12_20  and  C27_43 
REMARK       I    between atoms: N4_21  and  C13_23 
REMARK   11  A    between atoms: C13_23  and  O5_25 
REMARK   12  A    between atoms: O5_25  and  C14_26 
REMARK   13  A    between atoms: C19_31  and  C20_32 
REMARK       I    between atoms: C20_32  and  N5_34 
REMARK   14  A    between atoms: N5_34  and  C21_36 
ROOT
HETATM    1  C12 UNL     1      -8.657 -26.822 -31.152  1.00  0.00     0.089 C 
ENDROOT
BRANCH   1   2
HETATM    2  C11 UNL     1      -8.928 -26.616 -32.564  1.00  0.00     0.268 C 
HETATM    3  N3  UNL     1      -9.011 -27.524 -33.630  1.00  0.00    -0.330 N 
HETATM    4  C9  UNL     1      -9.229 -27.744 -35.027  1.00  0.00     0.197 A 
HETATM    5  C10 UNL     1      -8.899 -28.915 -34.098  1.00  0.00     0.162 A 
HETATM    6  O3  UNL     1      -9.121 -25.373 -32.888  1.00  0.00    -0.266 OA
BRANCH   4   7
HETATM    7  C8  UNL     1     -10.523 -27.894 -35.670  1.00  0.00     0.243 C 
HETATM    8  N2  UNL     1     -11.424 -26.819 -35.685  1.00  0.00    -0.346 N 
ATOM      9  H2  UNL     1     -11.127 -25.958 -35.223  1.00  0.00     0.163 HD
HETATM   10  O2  UNL     1     -10.854 -28.998 -36.228  1.00  0.00    -0.271 OA
BRANCH   8  11
HETATM   11  C7  UNL     1     -12.754 -26.818 -36.305  1.00  0.00     0.166 C 
BRANCH  11  12
HETATM   12  C6  UNL     1     -13.755 -26.613 -35.296  1.00  0.00     0.137 C 
BRANCH  12  13
HETATM   13  N1  UNL     1     -14.162 -25.631 -34.432  1.00  0.00    -0.364 N 
HETATM   14  C5  UNL     1     -15.287 -24.738 -34.878  1.00  0.00     0.125 C 
HETATM   15  C4  UNL     1     -14.848 -23.304 -34.809  1.00  0.00     0.024 C 
HETATM   16  C3  UNL     1     -14.222 -22.935 -33.494  1.00  0.00    -0.012 C 
HETATM   17  C36 UNL     1     -13.117 -23.904 -33.115  1.00  0.00     0.024 C 
HETATM   18  C35 UNL     1     -13.715 -25.319 -33.127  1.00  0.00     0.125 C 
BRANCH  16  19
HETATM   19  C2  UNL     1     -13.768 -21.519 -33.400  1.00  0.00     0.000 C 
HETATM   20  C1  UNL     1     -12.263 -21.386 -33.387  1.00  0.00     0.005 C 
ENDBRANCH  16  19
ENDBRANCH  12  13
BRANCH  12  21
HETATM   21  O1  UNL     1     -14.521 -27.721 -35.163  1.00  0.00    -0.348 OA
ATOM     22  H1  UNL     1     -14.001 -28.508 -35.278  1.00  0.00     0.219 HD
ENDBRANCH  12  21
ENDBRANCH  11  12
BRANCH  11  23
HETATM   23  C31 UNL     1     -12.696 -26.066 -37.572  1.00  0.00    -0.023 C 
HETATM   24  C32 UNL     1     -11.944 -26.705 -38.697  1.00  0.00     0.017 C 
HETATM   25  C33 UNL     1     -12.498 -24.587 -37.415  1.00  0.00     0.017 C 
HETATM   26  C34 UNL     1     -14.192 -26.130 -38.116  1.00  0.00     0.017 C 
ENDBRANCH  11  23
ENDBRANCH   8  11
ENDBRANCH   4   7
ENDBRANCH   1   2
BRANCH   1  27
HETATM   27  N4  UNL     1      -9.124 -25.734 -30.316  1.00  0.00    -0.300 N 
HETATM   28  C13 UNL     1     -10.426 -25.716 -29.690  1.00  0.00     0.365 C 
HETATM   29  O4  UNL     1     -11.201 -26.690 -29.870  1.00  0.00    -0.238 OA
ATOM     30  H4  UNL     1      -8.502 -24.940 -30.163  1.00  0.00     0.171 HD
BRANCH  28  31
HETATM   31  O5  UNL     1     -10.833 -24.676 -28.910  1.00  0.00    -0.297 OA
BRANCH  31  32
HETATM   32  C14 UNL     1     -12.066 -24.004 -28.920  1.00  0.00     0.147 C 
HETATM   33  C15 UNL     1     -11.851 -22.638 -29.657  1.00  0.00     0.039 C 
HETATM   34  C16 UNL     1     -12.492 -21.642 -28.799  1.00  0.00     0.001 A 
HETATM   35  C17 UNL     1     -13.927 -22.215 -28.646  1.00  0.00    -0.001 A 
HETATM   36  C24 UNL     1     -13.659 -20.843 -28.941  1.00  0.00    -0.040 A 
HETATM   37  C18 UNL     1     -13.837 -22.987 -27.408  1.00  0.00     0.022 C 
HETATM   38  C19 UNL     1     -12.529 -23.804 -27.514  1.00  0.00     0.108 C 
HETATM   39  C25 UNL     1     -14.028 -20.312 -30.312  1.00  0.00     0.015 C 
HETATM   40  C26 UNL     1     -13.987 -19.836 -27.837  1.00  0.00     0.015 C 
BRANCH  38  41
HETATM   41  C20 UNL     1     -12.861 -25.104 -26.895  1.00  0.00     0.225 C 
HETATM   42  O6  UNL     1     -12.737 -25.346 -25.688  1.00  0.00    -0.273 OA
HETATM   43  N5  UNL     1     -13.359 -26.181 -27.724  1.00  0.00    -0.342 N 
ATOM     44  H5  UNL     1     -13.478 -26.022 -28.724  1.00  0.00     0.164 HD
BRANCH  43  45
HETATM   45  C21 UNL     1     -13.692 -27.468 -27.174  1.00  0.00     0.084 C 
HETATM   46  C22 UNL     1     -14.775 -27.422 -26.121  1.00  0.00     0.051 C 
HETATM   47  C23 UNL     1     -12.438 -28.110 -26.592  1.00  0.00     0.051 C 
HETATM   48  S1  UNL     1     -14.263 -28.602 -28.492  1.00  0.00    -0.064 SA
ENDBRANCH  43  45
ENDBRANCH  38  41
ENDBRANCH  31  32
ENDBRANCH  28  31
ENDBRANCH   1  27
BRANCH   1  49
HETATM   49  C27 UNL     1      -7.317 -27.315 -30.743  1.00  0.00    -0.003 C 
HETATM   50  C28 UNL     1      -7.258 -27.132 -29.204  1.00  0.00     0.021 C 
HETATM   51  C29 UNL     1      -6.167 -26.559 -31.314  1.00  0.00     0.021 C 
HETATM   52  C30 UNL     1      -7.217 -28.823 -30.916  1.00  0.00     0.021 C 
ENDBRANCH   1  49
TORSDOF 14
ENDMDL
MODEL 2
REMARK VINA RESULT: -9.164059744      6.596     11.274
REMARK  14 active torsions:
REMARK  status: ('A' for Active; 'I' for Inactive)
REMARK    1  A    between atoms: C2_2  and  C3_3 
REMARK    2  A    between atoms: N1_6  and  C6_7 
REMARK    3  A    between atoms: C6_7  and  O1_8 
REMARK    4  A    between atoms: C6_7  and  C7_10 
REMARK    5  A    between atoms: C7_10  and  N2_11 
REMARK    6  A    between atoms: C7_10  and  C31_47 
REMARK       I    between atoms: N2_11  and  C8_13 
REMARK    7  A    between atoms: C8_13  and  C9_15 
REMARK       I    between atoms: N3_17  and  C11_18 
REMARK    8  A    between atoms: C11_18  and  C12_20 
REMARK    9  A    between atoms: C12_20  and  N4_21 
REMARK   10  A    between atoms: C12_20  and  C27_43 
REMARK       I    between atoms: N4_21  and  C13_23 
REMARK   11  A    between atoms: C13_23  and  O5_25 
REMARK   12  A    between atoms: O5_25  and  C14_26 
REMARK   13  A    between atoms: C19_31  and  C20_32 
REMARK       I    between atoms: C20_32  and  N5_34 
REMARK   14  A    between atoms: N5_34  and  C21_36 
ROOT
HETATM    1  C12 UNL     1      -8.125 -32.371 -37.826  1.00  0.00     0.089 C 
ENDROOT
BRANCH   1   2
HETATM    2  C11 UNL     1      -8.566 -31.276 -36.979  1.00  0.00     0.268 C 
HETATM    3  N3  UNL     1      -9.005 -29.983 -37.296  1.00  0.00    -0.330 N 
HETATM    4  C9  UNL     1      -9.483 -28.713 -36.839  1.00  0.00     0.197 A 
HETATM    5  C10 UNL     1      -9.265 -28.970 -38.332  1.00  0.00     0.162 A 
HETATM    6  O3  UNL     1      -8.541 -31.550 -35.709  1.00  0.00    -0.266 OA
BRANCH   4   7
HETATM    7  C8  UNL     1     -10.864 -28.388 -36.529  1.00  0.00     0.243 C 
HETATM    8  N2  UNL     1     -11.396 -27.153 -36.927  1.00  0.00    -0.346 N 
ATOM      9  H2  UNL     1     -10.771 -26.516 -37.422  1.00  0.00     0.163 HD
HETATM   10  O2  UNL     1     -11.607 -29.217 -35.896  1.00  0.00    -0.271 OA
BRANCH   8  11
HETATM   11  C7  UNL     1     -12.771 -26.693 -36.698  1.00  0.00     0.166 C 
BRANCH  11  12
HETATM   12  C6  UNL     1     -12.937 -26.344 -35.314  1.00  0.00     0.137 C 
BRANCH  12  13
HETATM   13  N1  UNL     1     -12.472 -25.414 -34.423  1.00  0.00    -0.364 N 
HETATM   14  C5  UNL     1     -13.402 -24.980 -33.323  1.00  0.00     0.125 C 
HETATM   15  C4  UNL     1     -13.556 -23.487 -33.355  1.00  0.00     0.024 C 
HETATM   16  C3  UNL     1     -12.246 -22.754 -33.410  1.00  0.00    -0.012 C 
HETATM   17  C36 UNL     1     -11.366 -23.276 -34.531  1.00  0.00     0.024 C 
HETATM   18  C35 UNL     1     -11.205 -24.790 -34.331  1.00  0.00     0.125 C 
BRANCH  16  19
HETATM   19  C2  UNL     1     -12.368 -21.270 -33.451  1.00  0.00     0.000 C 
HETATM   20  C1  UNL     1     -13.722 -20.782 -32.988  1.00  0.00     0.005 C 
ENDBRANCH  16  19
ENDBRANCH  12  13
BRANCH  12  21
HETATM   21  O1  UNL     1     -13.815 -27.185 -34.721  1.00  0.00    -0.348 OA
ATOM     22  H1  UNL     1     -13.393 -27.685 -34.032  1.00  0.00     0.219 HD
ENDBRANCH  12  21
ENDBRANCH  11  12
BRANCH  11  23
HETATM   23  C31 UNL     1     -13.186 -25.832 -37.820  1.00  0.00    -0.023 C 
HETATM   24  C32 UNL     1     -12.751 -26.256 -39.188  1.00  0.00     0.017 C 
HETATM   25  C33 UNL     1     -13.111 -24.359 -37.541  1.00  0.00     0.017 C 
HETATM   26  C34 UNL     1     -14.761 -26.058 -37.906  1.00  0.00     0.017 C 
ENDBRANCH  11  23
ENDBRANCH   8  11
ENDBRANCH   4   7
ENDBRANCH   1   2
BRANCH   1  27
HETATM   27  N4  UNL     1      -8.654 -33.657 -37.419  1.00  0.00    -0.300 N 
HETATM   28  C13 UNL     1     -10.005 -34.087 -37.704  1.00  0.00     0.365 C 
HETATM   29  O4  UNL     1     -10.768 -33.314 -38.339  1.00  0.00    -0.238 OA
ATOM     30  H4  UNL     1      -8.043 -34.291 -36.905  1.00  0.00     0.171 HD
BRANCH  28  31
HETATM   31  O5  UNL     1     -10.470 -35.304 -37.306  1.00  0.00    -0.297 OA
BRANCH  31  32
HETATM   32  C14 UNL     1     -11.712 -35.898 -37.578  1.00  0.00     0.147 C 
HETATM   33  C15 UNL     1     -12.280 -36.442 -36.223  1.00  0.00     0.039 C 
HETATM   34  C16 UNL     1     -12.733 -37.800 -36.522  1.00  0.00     0.001 A 
HETATM   35  C17 UNL     1     -13.692 -37.570 -37.720  1.00  0.00    -0.001 A 
HETATM   36  C24 UNL     1     -14.018 -38.402 -36.604  1.00  0.00    -0.040 A 
HETATM   37  C18 UNL     1     -12.822 -37.778 -38.877  1.00  0.00     0.022 C 
HETATM   38  C19 UNL     1     -11.526 -36.993 -38.576  1.00  0.00     0.108 C 
HETATM   39  C25 UNL     1     -15.108 -37.945 -35.655  1.00  0.00     0.015 C 
HETATM   40  C26 UNL     1     -14.100 -39.904 -36.879  1.00  0.00     0.015 C 
BRANCH  38  41
HETATM   41  C20 UNL     1     -11.129 -36.431 -39.884  1.00  0.00     0.225 C 
HETATM   42  O6  UNL     1     -10.222 -36.893 -40.588  1.00  0.00    -0.273 OA
HETATM   43  N5  UNL     1     -11.822 -35.270 -40.399  1.00  0.00    -0.342 N 
ATOM     44  H5  UNL     1     -12.578 -34.860 -39.852  1.00  0.00     0.164 HD
BRANCH  43  45
HETATM   45  C21 UNL     1     -11.473 -34.678 -41.664  1.00  0.00     0.084 C 
HETATM   46  C22 UNL     1     -11.757 -35.567 -42.853  1.00  0.00     0.051 C 
HETATM   47  C23 UNL     1      -9.998 -34.293 -41.653  1.00  0.00     0.051 C 
HETATM   48  S1  UNL     1     -12.392 -33.117 -41.920  1.00  0.00    -0.064 SA
ENDBRANCH  43  45
ENDBRANCH  38  41
ENDBRANCH  31  32
ENDBRANCH  28  31
ENDBRANCH   1  27
BRANCH   1  49
HETATM   49  C27 UNL     1      -6.694 -32.445 -38.215  1.00  0.00    -0.003 C 
HETATM   50  C28 UNL     1      -6.614 -33.552 -39.298  1.00  0.00     0.021 C 
HETATM   51  C29 UNL     1      -5.764 -32.841 -37.121  1.00  0.00     0.021 C 
HETATM   52  C30 UNL     1      -6.270 -31.192 -38.968  1.00  0.00     0.021 C 
ENDBRANCH   1  49
TORSDOF 14
ENDMDL
MODEL 3
REMARK VINA RESULT: -8.925818847      4.430      8.266
REMARK  14 active torsions:
REMARK  status: ('A' for Active; 'I' for Inactive)
REMARK    1  A    between atoms: C2_2  and  C3_3 
REMARK    2  A    between atoms: N1_6  and  C6_7 
REMARK    3  A    between atoms: C6_7  and  O1_8 
REMARK    4  A    between atoms: C6_7  and  C7_10 
REMARK    5  A    between atoms: C7_10  and  N2_11 
REMARK    6  A    between atoms: C7_10  and  C31_47 
REMARK       I    between atoms: N2_11  and  C8_13 
REMARK    7  A    between atoms: C8_13  and  C9_15 
REMARK       I    between atoms: N3_17  and  C11_18 
REMARK    8  A    between atoms: C11_18  and  C12_20 
REMARK    9  A    between atoms: C12_20  and  N4_21 
REMARK   10  A    between atoms: C12_20  and  C27_43 
REMARK       I    between atoms: N4_21  and  C13_23 
REMARK   11  A    between atoms: C13_23  and  O5_25 
REMARK   12  A    between atoms: O5_25  and  C14_26 
REMARK   13  A    between atoms: C19_31  and  C20_32 
REMARK       I    between atoms: C20_32  and  N5_34 
REMARK   14  A    between atoms: N5_34  and  C21_36 
ROOT
HETATM    1  C12 UNL     1     -12.381 -26.432 -36.486  1.00  0.00     0.089 C 
ENDROOT
BRANCH   1   2
HETATM    2  C11 UNL     1     -11.495 -27.332 -37.205  1.00  0.00     0.268 C 
HETATM    3  N3  UNL     1     -10.350 -28.026 -36.790  1.00  0.00    -0.330 N 
HETATM    4  C9  UNL     1      -9.283 -28.921 -37.120  1.00  0.00     0.197 A 
HETATM    5  C10 UNL     1      -9.385 -28.317 -35.717  1.00  0.00     0.162 A 
HETATM    6  O3  UNL     1     -11.826 -27.514 -38.448  1.00  0.00    -0.266 OA
BRANCH   4   7
HETATM    7  C8  UNL     1      -9.357 -30.371 -37.106  1.00  0.00     0.243 C 
HETATM    8  N2  UNL     1      -8.295 -31.130 -37.621  1.00  0.00    -0.346 N 
ATOM      9  H2  UNL     1      -7.500 -30.616 -38.002  1.00  0.00     0.163 HD
HETATM   10  O2  UNL     1     -10.381 -30.971 -36.624  1.00  0.00    -0.271 OA
BRANCH   8  11
HETATM   11  C7  UNL     1      -8.222 -32.595 -37.660  1.00  0.00     0.166 C 
BRANCH  11  12
HETATM   12  C6  UNL     1      -9.343 -33.112 -38.395  1.00  0.00     0.137 C 
BRANCH  12  13
HETATM   13  N1  UNL     1      -9.761 -33.225 -39.694  1.00  0.00    -0.364 N 
HETATM   14  C5  UNL     1     -10.605 -32.111 -40.250  1.00  0.00     0.125 C 
HETATM   15  C4  UNL     1     -11.893 -32.673 -40.780  1.00  0.00     0.024 C 
HETATM   16  C3  UNL     1     -11.698 -33.846 -41.697  1.00  0.00    -0.012 C 
HETATM   17  C36 UNL     1     -10.814 -34.904 -41.063  1.00  0.00     0.024 C 
HETATM   18  C35 UNL     1      -9.497 -34.228 -40.656  1.00  0.00     0.125 C 
BRANCH  16  19
HETATM   19  C2  UNL     1     -12.960 -34.430 -42.231  1.00  0.00     0.000 C 
HETATM   20  C1  UNL     1     -14.051 -33.400 -42.411  1.00  0.00     0.005 C 
ENDBRANCH  16  19
ENDBRANCH  12  13
BRANCH  12  21
HETATM   21  O1  UNL     1     -10.252 -33.647 -37.547  1.00  0.00    -0.348 OA
ATOM     22  H1  UNL     1     -10.011 -33.483 -36.643  1.00  0.00     0.219 HD
ENDBRANCH  12  21
ENDBRANCH  11  12
BRANCH  11  23
HETATM   23  C31 UNL     1      -6.826 -33.003 -37.894  1.00  0.00    -0.023 C 
HETATM   24  C32 UNL     1      -6.607 -34.408 -38.364  1.00  0.00     0.017 C 
HETATM   25  C33 UNL     1      -5.845 -32.497 -36.878  1.00  0.00     0.017 C 
HETATM   26  C34 UNL     1      -6.401 -32.171 -39.186  1.00  0.00     0.017 C 
ENDBRANCH  11  23
ENDBRANCH   8  11
ENDBRANCH   4   7
ENDBRANCH   1   2
BRANCH   1  27
HETATM   27  N4  UNL     1     -12.379 -26.651 -35.054  1.00  0.00    -0.300 N 
HETATM   28  C13 UNL     1     -11.922 -25.666 -34.100  1.00  0.00     0.365 C 
HETATM   29  O4  UNL     1     -11.505 -24.557 -34.523  1.00  0.00    -0.238 OA
ATOM     30  H4  UNL     1     -12.716 -27.547 -34.701  1.00  0.00     0.171 HD
BRANCH  28  31
HETATM   31  O5  UNL     1     -11.933 -25.906 -32.759  1.00  0.00    -0.297 OA
BRANCH  31  32
HETATM   32  C14 UNL     1     -10.994 -25.513 -31.792  1.00  0.00     0.147 C 
HETATM   33  C15 UNL     1     -10.215 -26.798 -31.345  1.00  0.00     0.039 C 
HETATM   34  C16 UNL     1     -10.200 -26.739 -29.884  1.00  0.00     0.001 A 
HETATM   35  C17 UNL     1      -9.588 -25.338 -29.617  1.00  0.00    -0.001 A 
HETATM   36  C24 UNL     1      -9.169 -26.519 -28.930  1.00  0.00    -0.040 A 
HETATM   37  C18 UNL     1     -10.771 -24.490 -29.477  1.00  0.00     0.022 C 
HETATM   38  C19 UNL     1     -11.707 -24.875 -30.645  1.00  0.00     0.108 C 
HETATM   39  C25 UNL     1      -7.781 -27.062 -29.204  1.00  0.00     0.015 C 
HETATM   40  C26 UNL     1      -9.526 -26.602 -27.445  1.00  0.00     0.015 C 
BRANCH  38  41
HETATM   41  C20 UNL     1     -12.309 -23.593 -31.067  1.00  0.00     0.225 C 
HETATM   42  O6  UNL     1     -11.959 -22.489 -30.630  1.00  0.00    -0.273 OA
HETATM   43  N5  UNL     1     -13.376 -23.595 -32.044  1.00  0.00    -0.342 N 
ATOM     44  H5  UNL     1     -13.693 -24.483 -32.431  1.00  0.00     0.164 HD
BRANCH  43  45
HETATM   45  C21 UNL     1     -14.002 -22.376 -32.484  1.00  0.00     0.084 C 
HETATM   46  C22 UNL     1     -14.772 -21.659 -31.399  1.00  0.00     0.051 C 
HETATM   47  C23 UNL     1     -14.928 -22.678 -33.656  1.00  0.00     0.051 C 
HETATM   48  S1  UNL     1     -12.752 -21.206 -33.128  1.00  0.00    -0.064 SA
ENDBRANCH  43  45
ENDBRANCH  38  41
ENDBRANCH  31  32
ENDBRANCH  28  31
ENDBRANCH   1  27
BRANCH   1  49
HETATM   49  C27 UNL     1     -13.746 -26.192 -37.019  1.00  0.00    -0.003 C 
HETATM   50  C28 UNL     1     -14.047 -24.697 -36.737  1.00  0.00     0.021 C 
HETATM   51  C29 UNL     1     -14.826 -26.982 -36.364  1.00  0.00     0.021 C 
HETATM   52  C30 UNL     1     -13.757 -26.267 -38.540  1.00  0.00     0.021 C 
ENDBRANCH   1  49
TORSDOF 14
ENDMDL
MODEL 4
REMARK VINA RESULT: -8.870725186      2.780      8.503
REMARK  14 active torsions:
REMARK  status: ('A' for Active; 'I' for Inactive)
REMARK    1  A    between atoms: C2_2  and  C3_3 
REMARK    2  A    between atoms: N1_6  and  C6_7 
REMARK    3  A    between atoms: C6_7  and  O1_8 
REMARK    4  A    between atoms: C6_7  and  C7_10 
REMARK    5  A    between atoms: C7_10  and  N2_11 
REMARK    6  A    between atoms: C7_10  and  C31_47 
REMARK       I    between atoms: N2_11  and  C8_13 
REMARK    7  A    between atoms: C8_13  and  C9_15 
REMARK       I    between atoms: N3_17  and  C11_18 
REMARK    8  A    between atoms: C11_18  and  C12_20 
REMARK    9  A    between atoms: C12_20  and  N4_21 
REMARK   10  A    between atoms: C12_20  and  C27_43 
REMARK       I    between atoms: N4_21  and  C13_23 
REMARK   11  A    between atoms: C13_23  and  O5_25 
REMARK   12  A    between atoms: O5_25  and  C14_26 
REMARK   13  A    between atoms: C19_31  and  C20_32 
REMARK       I    between atoms: C20_32  and  N5_34 
REMARK   14  A    between atoms: N5_34  and  C21_36 
ROOT
HETATM    1  C12 UNL     1     -12.830 -24.333 -35.633  1.00  0.00     0.089 C 
ENDROOT
BRANCH   1   2
HETATM    2  C11 UNL     1     -12.865 -23.103 -34.859  1.00  0.00     0.268 C 
HETATM    3  N3  UNL     1     -13.860 -22.557 -34.037  1.00  0.00    -0.330 N 
HETATM    4  C9  UNL     1     -14.281 -21.493 -33.178  1.00  0.00     0.197 A 
HETATM    5  C10 UNL     1     -15.220 -22.663 -33.482  1.00  0.00     0.162 A 
HETATM    6  O3  UNL     1     -11.783 -22.390 -34.956  1.00  0.00    -0.266 OA
BRANCH   4   7
HETATM    7  C8  UNL     1     -13.981 -21.376 -31.762  1.00  0.00     0.243 C 
HETATM    8  N2  UNL     1     -13.161 -22.332 -31.142  1.00  0.00    -0.346 N 
ATOM      9  H2  UNL     1     -12.811 -23.092 -31.726  1.00  0.00     0.163 HD
HETATM   10  O2  UNL     1     -14.453 -20.409 -31.068  1.00  0.00    -0.271 OA
BRANCH   8  11
HETATM   11  C7  UNL     1     -12.762 -22.337 -29.730  1.00  0.00     0.166 C 
BRANCH  11  12
HETATM   12  C6  UNL     1     -13.435 -23.404 -29.043  1.00  0.00     0.137 C 
BRANCH  12  13
HETATM   13  N1  UNL     1     -13.378 -24.770 -28.954  1.00  0.00    -0.364 N 
HETATM   14  C5  UNL     1     -13.668 -25.390 -27.614  1.00  0.00     0.125 C 
HETATM   15  C4  UNL     1     -12.515 -26.259 -27.203  1.00  0.00     0.024 C 
HETATM   16  C3  UNL     1     -12.083 -27.221 -28.273  1.00  0.00    -0.012 C 
HETATM   17  C36 UNL     1     -11.839 -26.511 -29.591  1.00  0.00     0.024 C 
HETATM   18  C35 UNL     1     -13.119 -25.741 -29.949  1.00  0.00     0.125 C 
BRANCH  16  19
HETATM   19  C2  UNL     1     -10.934 -28.091 -27.895  1.00  0.00     0.000 C 
HETATM   20  C1  UNL     1     -10.381 -27.769 -26.526  1.00  0.00     0.005 C 
ENDBRANCH  16  19
ENDBRANCH  12  13
BRANCH  12  21
HETATM   21  O1  UNL     1     -14.414 -22.908 -28.252  1.00  0.00    -0.348 OA
ATOM     22  H1  UNL     1     -14.589 -23.491 -27.522  1.00  0.00     0.219 HD
ENDBRANCH  12  21
ENDBRANCH  11  12
BRANCH  11  23
HETATM   23  C31 UNL     1     -11.313 -22.084 -29.637  1.00  0.00    -0.023 C 
HETATM   24  C32 UNL     1     -10.875 -20.655 -29.720  1.00  0.00     0.017 C 
HETATM   25  C33 UNL     1     -10.455 -23.070 -30.373  1.00  0.00     0.017 C 
HETATM   26  C34 UNL     1     -10.966 -22.432 -28.121  1.00  0.00     0.017 C 
ENDBRANCH  11  23
ENDBRANCH   8  11
ENDBRANCH   4   7
ENDBRANCH   1   2
BRANCH   1  27
HETATM   27  N4  UNL     1     -11.587 -25.062 -35.492  1.00  0.00    -0.300 N 
HETATM   28  C13 UNL     1     -11.229 -25.801 -34.302  1.00  0.00     0.365 C 
HETATM   29  O4  UNL     1     -12.031 -25.820 -33.334  1.00  0.00    -0.238 OA
ATOM     30  H4  UNL     1     -10.930 -25.054 -36.272  1.00  0.00     0.171 HD
BRANCH  28  31
HETATM   31  O5  UNL     1     -10.050 -26.476 -34.203  1.00  0.00    -0.297 OA
BRANCH  31  32
HETATM   32  C14 UNL     1      -9.547 -27.206 -33.114  1.00  0.00     0.147 C 
HETATM   33  C15 UNL     1      -9.074 -26.174 -32.034  1.00  0.00     0.039 C 
HETATM   34  C16 UNL     1      -7.749 -26.639 -31.624  1.00  0.00     0.001 A 
HETATM   35  C17 UNL     1      -8.029 -28.109 -31.213  1.00  0.00    -0.001 A 
HETATM   36  C24 UNL     1      -7.247 -27.209 -30.424  1.00  0.00    -0.040 A 
HETATM   37  C18 UNL     1      -7.732 -28.850 -32.437  1.00  0.00     0.022 C 
HETATM   38  C19 UNL     1      -8.422 -28.070 -33.580  1.00  0.00     0.108 C 
HETATM   39  C25 UNL     1      -7.804 -26.741 -29.094  1.00  0.00     0.015 C 
HETATM   40  C26 UNL     1      -5.750 -27.512 -30.335  1.00  0.00     0.015 C 
BRANCH  38  41
HETATM   41  C20 UNL     1      -8.926 -29.123 -34.485  1.00  0.00     0.225 C 
HETATM   42  O6  UNL     1      -9.614 -30.083 -34.114  1.00  0.00    -0.273 OA
HETATM   43  N5  UNL     1      -8.612 -29.060 -35.896  1.00  0.00    -0.342 N 
ATOM     44  H5  UNL     1      -8.049 -28.284 -36.244  1.00  0.00     0.164 HD
BRANCH  43  45
HETATM   45  C21 UNL     1      -9.071 -30.062 -36.821  1.00  0.00     0.084 C 
HETATM   46  C22 UNL     1     -10.529 -30.425 -36.653  1.00  0.00     0.051 C 
HETATM   47  C23 UNL     1      -8.212 -31.313 -36.681  1.00  0.00     0.051 C 
HETATM   48  S1  UNL     1      -8.847 -29.497 -38.547  1.00  0.00    -0.064 SA
ENDBRANCH  43  45
ENDBRANCH  38  41
ENDBRANCH  31  32
ENDBRANCH  28  31
ENDBRANCH   1  27
BRANCH   1  49
HETATM   49  C27 UNL     1     -13.319 -24.313 -37.035  1.00  0.00    -0.003 C 
HETATM   50  C28 UNL     1     -13.207 -25.775 -37.536  1.00  0.00     0.021 C 
HETATM   51  C29 UNL     1     -12.518 -23.472 -37.968  1.00  0.00     0.021 C 
HETATM   52  C30 UNL     1     -14.816 -24.042 -37.085  1.00  0.00     0.021 C 
ENDBRANCH   1  49
TORSDOF 14
ENDMDL
MODEL 5
REMARK VINA RESULT: -8.852309370      4.391      8.420
REMARK  14 active torsions:
REMARK  status: ('A' for Active; 'I' for Inactive)
REMARK    1  A    between atoms: C2_2  and  C3_3 
REMARK    2  A    between atoms: N1_6  and  C6_7 
REMARK    3  A    between atoms: C6_7  and  O1_8 
REMARK    4  A    between atoms: C6_7  and  C7_10 
REMARK    5  A    between atoms: C7_10  and  N2_11 
REMARK    6  A    between atoms: C7_10  and  C31_47 
REMARK       I    between atoms: N2_11  and  C8_13 
REMARK    7  A    between atoms: C8_13  and  C9_15 
REMARK       I    between atoms: N3_17  and  C11_18 
REMARK    8  A    between atoms: C11_18  and  C12_20 
REMARK    9  A    between atoms: C12_20  and  N4_21 
REMARK   10  A    between atoms: C12_20  and  C27_43 
REMARK       I    between atoms: N4_21  and  C13_23 
REMARK   11  A    between atoms: C13_23  and  O5_25 
REMARK   12  A    between atoms: O5_25  and  C14_26 
REMARK   13  A    between atoms: C19_31  and  C20_32 
REMARK       I    between atoms: C20_32  and  N5_34 
REMARK   14  A    between atoms: N5_34  and  C21_36 
ROOT
HETATM    1  C12 UNL     1     -12.199 -26.589 -36.176  1.00  0.00     0.089 C 
ENDROOT
BRANCH   1   2
HETATM    2  C11 UNL     1     -11.410 -27.479 -37.010  1.00  0.00     0.268 C 
HETATM    3  N3  UNL     1     -10.241 -28.204 -36.739  1.00  0.00    -0.330 N 
HETATM    4  C9  UNL     1      -9.232 -29.105 -37.206  1.00  0.00     0.197 A 
HETATM    5  C10 UNL     1      -9.175 -28.544 -35.782  1.00  0.00     0.162 A 
HETATM    6  O3  UNL     1     -11.872 -27.617 -38.217  1.00  0.00    -0.266 OA
BRANCH   4   7
HETATM    7  C8  UNL     1      -9.331 -30.553 -37.226  1.00  0.00     0.243 C 
HETATM    8  N2  UNL     1      -8.265 -31.319 -37.722  1.00  0.00    -0.346 N 
ATOM      9  H2  UNL     1      -7.449 -30.812 -38.065  1.00  0.00     0.163 HD
HETATM   10  O2  UNL     1     -10.381 -31.145 -36.794  1.00  0.00    -0.271 OA
BRANCH   8  11
HETATM   11  C7  UNL     1      -8.217 -32.784 -37.792  1.00  0.00     0.166 C 
BRANCH  11  12
HETATM   12  C6  UNL     1      -9.358 -33.269 -38.517  1.00  0.00     0.137 C 
BRANCH  12  13
HETATM   13  N1  UNL     1      -9.800 -33.347 -39.811  1.00  0.00    -0.364 N 
HETATM   14  C5  UNL     1     -10.593 -32.185 -40.344  1.00  0.00     0.125 C 
HETATM   15  C4  UNL     1     -11.916 -32.674 -40.859  1.00  0.00     0.024 C 
HETATM   16  C3  UNL     1     -11.797 -33.847 -41.790  1.00  0.00    -0.012 C 
HETATM   17  C36 UNL     1     -10.960 -34.956 -41.179  1.00  0.00     0.024 C 
HETATM   18  C35 UNL     1      -9.603 -34.353 -40.786  1.00  0.00     0.125 C 
BRANCH  16  19
HETATM   19  C2  UNL     1     -13.096 -34.359 -42.310  1.00  0.00     0.000 C 
HETATM   20  C1  UNL     1     -14.164 -33.291 -42.370  1.00  0.00     0.005 C 
ENDBRANCH  16  19
ENDBRANCH  12  13
BRANCH  12  21
HETATM   21  O1  UNL     1     -10.260 -33.809 -37.665  1.00  0.00    -0.348 OA
ATOM     22  H1  UNL     1     -11.035 -34.101 -38.130  1.00  0.00     0.219 HD
ENDBRANCH  12  21
ENDBRANCH  11  12
BRANCH  11  23
HETATM   23  C31 UNL     1      -6.831 -33.210 -38.059  1.00  0.00    -0.023 C 
HETATM   24  C32 UNL     1      -6.640 -34.620 -38.522  1.00  0.00     0.017 C 
HETATM   25  C33 UNL     1      -5.820 -32.707 -37.072  1.00  0.00     0.017 C 
HETATM   26  C34 UNL     1      -6.431 -32.392 -39.367  1.00  0.00     0.017 C 
ENDBRANCH  11  23
ENDBRANCH   8  11
ENDBRANCH   4   7
ENDBRANCH   1   2
BRANCH   1  27
HETATM   27  N4  UNL     1     -11.973 -26.784 -34.759  1.00  0.00    -0.300 N 
HETATM   28  C13 UNL     1     -11.284 -25.825 -33.925  1.00  0.00     0.365 C 
HETATM   29  O4  UNL     1     -10.858 -24.762 -34.445  1.00  0.00    -0.238 OA
ATOM     30  H4  UNL     1     -12.317 -27.642 -34.327  1.00  0.00     0.171 HD
BRANCH  28  31
HETATM   31  O5  UNL     1     -11.089 -26.041 -32.594  1.00  0.00    -0.297 OA
BRANCH  31  32
HETATM   32  C14 UNL     1      -9.877 -26.112 -31.888  1.00  0.00     0.147 C 
HETATM   33  C15 UNL     1      -8.993 -27.206 -32.579  1.00  0.00     0.039 C 
HETATM   34  C16 UNL     1      -8.483 -28.027 -31.482  1.00  0.00     0.001 A 
HETATM   35  C17 UNL     1      -7.818 -26.970 -30.561  1.00  0.00    -0.001 A 
HETATM   36  C24 UNL     1      -7.191 -28.204 -30.918  1.00  0.00    -0.040 A 
HETATM   37  C18 UNL     1      -8.883 -26.650 -29.612  1.00  0.00     0.022 C 
HETATM   38  C19 UNL     1     -10.159 -26.454 -30.461  1.00  0.00     0.108 C 
HETATM   39  C25 UNL     1      -5.977 -28.163 -31.826  1.00  0.00     0.015 C 
HETATM   40  C26 UNL     1      -7.023 -29.228 -29.795  1.00  0.00     0.015 C 
BRANCH  38  41
HETATM   41  C20 UNL     1     -10.868 -25.339 -29.799  1.00  0.00     0.225 C 
HETATM   42  O6  UNL     1     -11.454 -25.441 -28.713  1.00  0.00    -0.273 OA
HETATM   43  N5  UNL     1     -10.901 -24.039 -30.433  1.00  0.00    -0.342 N 
ATOM     44  H5  UNL     1     -10.429 -23.912 -31.328  1.00  0.00     0.164 HD
BRANCH  43  45
HETATM   45  C21 UNL     1     -11.583 -22.921 -29.836  1.00  0.00     0.084 C 
HETATM   46  C22 UNL     1     -11.144 -22.625 -28.420  1.00  0.00     0.051 C 
HETATM   47  C23 UNL     1     -13.086 -23.170 -29.865  1.00  0.00     0.051 C 
HETATM   48  S1  UNL     1     -11.312 -21.402 -30.819  1.00  0.00    -0.064 SA
ENDBRANCH  43  45
ENDBRANCH  38  41
ENDBRANCH  31  32
ENDBRANCH  28  31
ENDBRANCH   1  27
BRANCH   1  49
HETATM   49  C27 UNL     1     -13.635 -26.390 -36.498  1.00  0.00    -0.003 C 
HETATM   50  C28 UNL     1     -14.007 -25.006 -35.905  1.00  0.00     0.021 C 
HETATM   51  C29 UNL     1     -14.561 -27.385 -35.888  1.00  0.00     0.021 C 
HETATM   52  C30 UNL     1     -13.835 -26.191 -37.994  1.00  0.00     0.021 C 
ENDBRANCH   1  49
TORSDOF 14
ENDMDL
