MODEL 1
REMARK VINA RESULT: -7.151096320      0.000      0.000
REMARK  7 active torsions:
REMARK  status: ('A' for Active; 'I' for Inactive)
REMARK    1  A    between atoms: O1_1  and  C1_3 
REMARK    2  A    between atoms: C1_3  and  C2_4 
REMARK    3  A    between atoms: C2_4  and  O2_5 
REMARK    4  A    between atoms: C2_4  and  C3_7 
REMARK    5  A    between atoms: C3_7  and  N1_8 
REMARK    6  A    between atoms: C6_11  and  C7_12 
REMARK    7  A    between atoms: C7_12  and  C8_13 
ROOT
HETATM    1  N1  UNL     1      -4.588   3.250  15.103  1.00  0.00    -0.391 N 
HETATM    2  C4  UNL     1      -3.229   3.482  15.191  1.00  0.00     0.058 C 
HETATM    3  C5  UNL     1      -2.670   4.749  14.577  1.00  0.00     0.049 C 
HETATM    4  C6  UNL     1      -3.663   5.845  14.854  1.00  0.00    -0.008 C 
HETATM    5  C18 UNL     1      -4.917   5.471  14.120  1.00  0.00     0.024 C 
HETATM    6  C19 UNL     1      -5.511   4.300  14.897  1.00  0.00     0.122 C 
ENDROOT
BRANCH   4   7
HETATM    7  C7  UNL     1      -3.221   7.222  14.728  1.00  0.00     0.010 C 
BRANCH   7   8
HETATM    8  C8  UNL     1      -1.849   7.627  14.462  1.00  0.00    -0.006 C 
HETATM    9  C9  UNL     1      -1.388   7.748  13.048  1.00  0.00    -0.009 C 
HETATM   10  C10 UNL     1      -2.036   8.869  12.266  1.00  0.00     0.010 C 
HETATM   11  C14 UNL     1       0.106   8.122  13.058  1.00  0.00     0.010 C 
HETATM   12  C11 UNL     1      -1.952  10.162  13.017  1.00  0.00    -0.013 C 
HETATM   13  C12 UNL     1      -0.470  10.559  13.054  1.00  0.00     0.009 C 
HETATM   14  C17 UNL     1      -2.393  10.054  14.459  1.00  0.00     0.010 C 
HETATM   15  C13 UNL     1       0.304   9.457  13.711  1.00  0.00    -0.013 C 
HETATM   16  C15 UNL     1      -0.153   9.336  15.147  1.00  0.00     0.010 C 
HETATM   17  C16 UNL     1      -1.621   8.988  15.140  1.00  0.00    -0.009 C 
ENDBRANCH   7   8
ENDBRANCH   4   7
BRANCH   1  18
HETATM   18  C3  UNL     1      -5.014   1.957  14.658  1.00  0.00     0.155 C 
BRANCH  18  19
HETATM   19  C2  UNL     1      -4.632   0.938  15.709  1.00  0.00     0.159 C 
BRANCH  19  20
HETATM   20  C1  UNL     1      -5.553   1.057  16.890  1.00  0.00     0.197 C 
BRANCH  20  21
HETATM   21  O1  UNL     1      -5.956  -0.195  17.349  1.00  0.00    -0.398 OA
ATOM     22  H1  UNL     1      -6.588  -0.119  18.054  1.00  0.00     0.209 HD
ENDBRANCH  20  21
ENDBRANCH  19  20
BRANCH  19  23
HETATM   23  O2  UNL     1      -4.563  -0.356  15.196  1.00  0.00    -0.392 OA
ATOM     24  H2  UNL     1      -3.744  -0.538  14.751  1.00  0.00     0.210 HD
ENDBRANCH  19  23
ENDBRANCH  18  19
ENDBRANCH   1  18
TORSDOF 7
ENDMDL
MODEL 2
REMARK VINA RESULT: -6.995731796      0.946      1.457
REMARK  7 active torsions:
REMARK  status: ('A' for Active; 'I' for Inactive)
REMARK    1  A    between atoms: O1_1  and  C1_3 
REMARK    2  A    between atoms: C1_3  and  C2_4 
REMARK    3  A    between atoms: C2_4  and  O2_5 
REMARK    4  A    between atoms: C2_4  and  C3_7 
REMARK    5  A    between atoms: C3_7  and  N1_8 
REMARK    6  A    between atoms: C6_11  and  C7_12 
REMARK    7  A    between atoms: C7_12  and  C8_13 
ROOT
HETATM    1  N1  UNL     1      -4.126   3.531  13.908  1.00  0.00    -0.391 N 
HETATM    2  C4  UNL     1      -5.041   4.415  14.446  1.00  0.00     0.058 C 
HETATM    3  C5  UNL     1      -4.526   5.666  15.126  1.00  0.00     0.049 C 
HETATM    4  C6  UNL     1      -3.358   6.157  14.313  1.00  0.00    -0.008 C 
HETATM    5  C18 UNL     1      -2.304   5.093  14.407  1.00  0.00     0.024 C 
HETATM    6  C19 UNL     1      -2.818   3.934  13.557  1.00  0.00     0.122 C 
ENDROOT
BRANCH   4   7
HETATM    7  C7  UNL     1      -2.918   7.527  14.500  1.00  0.00     0.010 C 
BRANCH   7   8
HETATM    8  C8  UNL     1      -1.536   7.972  14.403  1.00  0.00    -0.006 C 
HETATM    9  C9  UNL     1      -0.906   8.100  13.056  1.00  0.00    -0.009 C 
HETATM   10  C10 UNL     1      -1.483   9.198  12.192  1.00  0.00     0.010 C 
HETATM   11  C14 UNL     1       0.564   8.517  13.249  1.00  0.00     0.010 C 
HETATM   12  C11 UNL     1      -1.530  10.496  12.937  1.00  0.00    -0.013 C 
HETATM   13  C12 UNL     1      -0.076  10.937  13.154  1.00  0.00     0.009 C 
HETATM   14  C17 UNL     1      -2.144  10.382  14.314  1.00  0.00     0.010 C 
HETATM   15  C13 UNL     1       0.641   9.860  13.911  1.00  0.00    -0.013 C 
HETATM   16  C15 UNL     1       0.013   9.732  15.280  1.00  0.00     0.010 C 
HETATM   17  C16 UNL     1      -1.432   9.341  15.094  1.00  0.00    -0.009 C 
ENDBRANCH   7   8
ENDBRANCH   4   7
BRANCH   1  18
HETATM   18  C3  UNL     1      -4.280   2.141  14.223  1.00  0.00     0.155 C 
BRANCH  18  19
HETATM   19  C2  UNL     1      -4.250   1.984  15.727  1.00  0.00     0.159 C 
BRANCH  19  20
HETATM   20  C1  UNL     1      -5.170   0.868  16.138  1.00  0.00     0.197 C 
BRANCH  20  21
HETATM   21  O1  UNL     1      -4.845  -0.323  15.494  1.00  0.00    -0.398 OA
ATOM     22  H1  UNL     1      -5.343  -1.053  15.843  1.00  0.00     0.209 HD
ENDBRANCH  20  21
ENDBRANCH  19  20
BRANCH  19  23
HETATM   23  O2  UNL     1      -2.956   1.837  16.221  1.00  0.00    -0.392 OA
ATOM     24  H2  UNL     1      -2.305   1.737  15.537  1.00  0.00     0.210 HD
ENDBRANCH  19  23
ENDBRANCH  18  19
ENDBRANCH   1  18
TORSDOF 7
ENDMDL
MODEL 3
REMARK VINA RESULT: -6.984596108      1.656      2.361
REMARK  7 active torsions:
REMARK  status: ('A' for Active; 'I' for Inactive)
REMARK    1  A    between atoms: O1_1  and  C1_3 
REMARK    2  A    between atoms: C1_3  and  C2_4 
REMARK    3  A    between atoms: C2_4  and  O2_5 
REMARK    4  A    between atoms: C2_4  and  C3_7 
REMARK    5  A    between atoms: C3_7  and  N1_8 
REMARK    6  A    between atoms: C6_11  and  C7_12 
REMARK    7  A    between atoms: C7_12  and  C8_13 
ROOT
HETATM    1  N1  UNL     1      -4.359   3.710  13.292  1.00  0.00    -0.391 N 
HETATM    2  C4  UNL     1      -5.251   4.585  13.883  1.00  0.00     0.058 C 
HETATM    3  C5  UNL     1      -4.720   5.603  14.871  1.00  0.00     0.049 C 
HETATM    4  C6  UNL     1      -3.399   6.086  14.333  1.00  0.00    -0.008 C 
HETATM    5  C18 UNL     1      -2.485   4.897  14.335  1.00  0.00     0.024 C 
HETATM    6  C19 UNL     1      -2.979   4.001  13.202  1.00  0.00     0.122 C 
ENDROOT
BRANCH   4   7
HETATM    7  C7  UNL     1      -2.856   7.325  14.857  1.00  0.00     0.010 C 
BRANCH   7   8
HETATM    8  C8  UNL     1      -1.528   7.838  14.556  1.00  0.00    -0.006 C 
HETATM    9  C9  UNL     1      -1.092   7.935  13.132  1.00  0.00    -0.009 C 
HETATM   10  C10 UNL     1      -1.843   8.957  12.310  1.00  0.00     0.010 C 
HETATM   11  C14 UNL     1       0.363   8.439  13.107  1.00  0.00     0.010 C 
HETATM   12  C11 UNL     1      -1.869  10.285  13.001  1.00  0.00    -0.013 C 
HETATM   13  C12 UNL     1      -0.427  10.814  13.001  1.00  0.00     0.009 C 
HETATM   14  C17 UNL     1      -2.285  10.205  14.452  1.00  0.00     0.010 C 
HETATM   15  C13 UNL     1       0.447   9.815  13.697  1.00  0.00    -0.013 C 
HETATM   16  C15 UNL     1       0.016   9.720  15.142  1.00  0.00     0.010 C 
HETATM   17  C16 UNL     1      -1.416   9.243  15.170  1.00  0.00    -0.009 C 
ENDBRANCH   7   8
ENDBRANCH   4   7
BRANCH   1  18
HETATM   18  C3  UNL     1      -4.699   2.318  13.287  1.00  0.00     0.155 C 
BRANCH  18  19
HETATM   19  C2  UNL     1      -4.677   1.825  11.856  1.00  0.00     0.159 C 
BRANCH  19  20
HETATM   20  C1  UNL     1      -4.360   0.356  11.831  1.00  0.00     0.197 C 
BRANCH  20  21
HETATM   21  O1  UNL     1      -4.401  -0.196  13.109  1.00  0.00    -0.398 OA
ATOM     22  H1  UNL     1      -4.178  -1.119  13.096  1.00  0.00     0.209 HD
ENDBRANCH  20  21
ENDBRANCH  19  20
BRANCH  19  23
HETATM   23  O2  UNL     1      -5.844   2.145  11.166  1.00  0.00    -0.392 OA
ATOM     24  H2  UNL     1      -5.914   1.704  10.327  1.00  0.00     0.210 HD
ENDBRANCH  19  23
ENDBRANCH  18  19
ENDBRANCH   1  18
TORSDOF 7
ENDMDL
MODEL 4
REMARK VINA RESULT: -6.907308082      1.748      3.007
REMARK  7 active torsions:
REMARK  status: ('A' for Active; 'I' for Inactive)
REMARK    1  A    between atoms: O1_1  and  C1_3 
REMARK    2  A    between atoms: C1_3  and  C2_4 
REMARK    3  A    between atoms: C2_4  and  O2_5 
REMARK    4  A    between atoms: C2_4  and  C3_7 
REMARK    5  A    between atoms: C3_7  and  N1_8 
REMARK    6  A    between atoms: C6_11  and  C7_12 
REMARK    7  A    between atoms: C7_12  and  C8_13 
ROOT
HETATM    1  N1  UNL     1      -4.295   3.780  13.197  1.00  0.00    -0.391 N 
HETATM    2  C4  UNL     1      -4.979   4.772  13.873  1.00  0.00     0.058 C 
HETATM    3  C5  UNL     1      -4.201   5.689  14.794  1.00  0.00     0.049 C 
HETATM    4  C6  UNL     1      -2.886   5.975  14.119  1.00  0.00    -0.008 C 
HETATM    5  C18 UNL     1      -2.166   4.662  14.032  1.00  0.00     0.024 C 
HETATM    6  C19 UNL     1      -2.904   3.861  12.962  1.00  0.00     0.122 C 
ENDROOT
BRANCH   4   7
HETATM    7  C7  UNL     1      -2.111   7.113  14.578  1.00  0.00     0.010 C 
BRANCH   7   8
HETATM    8  C8  UNL     1      -2.184   8.447  14.001  1.00  0.00    -0.006 C 
HETATM    9  C9  UNL     1      -1.865   9.627  14.856  1.00  0.00    -0.009 C 
HETATM   10  C10 UNL     1      -0.419   9.722  15.287  1.00  0.00     0.010 C 
HETATM   11  C14 UNL     1      -2.085  10.902  14.020  1.00  0.00     0.010 C 
HETATM   12  C11 UNL     1       0.499   9.593  14.110  1.00  0.00    -0.013 C 
HETATM   13  C12 UNL     1       0.297  10.847  13.249  1.00  0.00     0.009 C 
HETATM   14  C17 UNL     1       0.177   8.415  13.218  1.00  0.00     0.010 C 
HETATM   15  C13 UNL     1      -1.146  10.926  12.852  1.00  0.00    -0.013 C 
HETATM   16  C15 UNL     1      -1.472   9.738  11.977  1.00  0.00     0.010 C 
HETATM   17  C16 UNL     1      -1.240   8.487  12.788  1.00  0.00    -0.009 C 
ENDBRANCH   7   8
ENDBRANCH   4   7
BRANCH   1  18
HETATM   18  C3  UNL     1      -4.839   2.454  13.235  1.00  0.00     0.155 C 
BRANCH  18  19
HETATM   19  C2  UNL     1      -4.738   1.856  11.849  1.00  0.00     0.159 C 
BRANCH  19  20
HETATM   20  C1  UNL     1      -4.364   0.403  11.950  1.00  0.00     0.197 C 
BRANCH  20  21
HETATM   21  O1  UNL     1      -4.421  -0.046  13.267  1.00  0.00    -0.398 OA
ATOM     22  H1  UNL     1      -4.944  -0.835  13.342  1.00  0.00     0.209 HD
ENDBRANCH  20  21
ENDBRANCH  19  20
BRANCH  19  23
HETATM   23  O2  UNL     1      -5.886   2.074  11.090  1.00  0.00    -0.392 OA
ATOM     24  H2  UNL     1      -6.297   2.912  11.267  1.00  0.00     0.210 HD
ENDBRANCH  19  23
ENDBRANCH  18  19
ENDBRANCH   1  18
TORSDOF 7
ENDMDL
MODEL 5
REMARK VINA RESULT: -6.778997583      0.963      1.591
REMARK  7 active torsions:
REMARK  status: ('A' for Active; 'I' for Inactive)
REMARK    1  A    between atoms: O1_1  and  C1_3 
REMARK    2  A    between atoms: C1_3  and  C2_4 
REMARK    3  A    between atoms: C2_4  and  O2_5 
REMARK    4  A    between atoms: C2_4  and  C3_7 
REMARK    5  A    between atoms: C3_7  and  N1_8 
REMARK    6  A    between atoms: C6_11  and  C7_12 
REMARK    7  A    between atoms: C7_12  and  C8_13 
ROOT
HETATM    1  N1  UNL     1      -4.383   3.810  15.058  1.00  0.00    -0.391 N 
HETATM    2  C4  UNL     1      -3.016   3.977  14.943  1.00  0.00     0.058 C 
HETATM    3  C5  UNL     1      -2.491   4.962  13.920  1.00  0.00     0.049 C 
HETATM    4  C6  UNL     1      -3.419   6.148  13.937  1.00  0.00    -0.008 C 
HETATM    5  C18 UNL     1      -4.753   5.643  13.474  1.00  0.00     0.024 C 
HETATM    6  C19 UNL     1      -5.294   4.800  14.626  1.00  0.00     0.122 C 
ENDROOT
BRANCH   4   7
HETATM    7  C7  UNL     1      -2.954   7.392  13.353  1.00  0.00     0.010 C 
BRANCH   7   8
HETATM    8  C8  UNL     1      -2.333   8.475  14.101  1.00  0.00    -0.006 C 
HETATM    9  C9  UNL     1      -0.915   8.332  14.545  1.00  0.00    -0.009 C 
HETATM   10  C10 UNL     1       0.098   8.317  13.423  1.00  0.00     0.010 C 
HETATM   11  C14 UNL     1      -0.539   9.581  15.364  1.00  0.00     0.010 C 
HETATM   12  C11 UNL     1      -0.108   9.479  12.500  1.00  0.00    -0.013 C 
HETATM   13  C12 UNL     1       0.251  10.744  13.291  1.00  0.00     0.009 C 
HETATM   14  C17 UNL     1      -1.543   9.654  12.058  1.00  0.00     0.010 C 
HETATM   15  C13 UNL     1      -0.622  10.809  14.509  1.00  0.00    -0.013 C 
HETATM   16  C15 UNL     1      -2.058  10.963  14.065  1.00  0.00     0.010 C 
HETATM   17  C16 UNL     1      -2.425   9.749  13.246  1.00  0.00    -0.009 C 
ENDBRANCH   7   8
ENDBRANCH   4   7
BRANCH   1  18
HETATM   18  C3  UNL     1      -4.890   2.470  15.075  1.00  0.00     0.155 C 
BRANCH  18  19
HETATM   19  C2  UNL     1      -4.508   1.829  16.391  1.00  0.00     0.159 C 
BRANCH  19  20
HETATM   20  C1  UNL     1      -5.738   1.291  17.069  1.00  0.00     0.197 C 
BRANCH  20  21
HETATM   21  O1  UNL     1      -5.756  -0.101  17.059  1.00  0.00    -0.398 OA
ATOM     22  H1  UNL     1      -6.575  -0.440  17.402  1.00  0.00     0.209 HD
ENDBRANCH  20  21
ENDBRANCH  19  20
BRANCH  19  23
HETATM   23  O2  UNL     1      -3.502   0.876  16.247  1.00  0.00    -0.392 OA
ATOM     24  H2  UNL     1      -3.739   0.027  16.601  1.00  0.00     0.210 HD
ENDBRANCH  19  23
ENDBRANCH  18  19
ENDBRANCH   1  18
TORSDOF 7
ENDMDL
