MODEL 1
REMARK VINA RESULT: -7.170152691      0.000      0.000
REMARK  6 active torsions:
REMARK  status: ('A' for Active; 'I' for Inactive)
REMARK    1  A    between atoms: C2_2  and  O1_3 
REMARK    2  A    between atoms: C2_2  and  C3_5 
REMARK       I    between atoms: C3_5  and  N1_7 
REMARK    3  A    between atoms: C6_10  and  C7_11 
REMARK    4  A    between atoms: C7_11  and  C8_12 
REMARK    5  A    between atoms: C8_12  and  C9_13 
REMARK       I    between atoms: C9_13  and  N2_15 
REMARK    6  A    between atoms: N2_15  and  C10_17 
ROOT
HETATM    1  C3  UNL     1      -4.320   2.009  16.099  1.00  0.00     0.248 C 
HETATM    2  O2  UNL     1      -3.200   1.481  16.399  1.00  0.00    -0.270 OA
HETATM    3  N1  UNL     1      -4.312   3.244  15.412  1.00  0.00    -0.350 N 
HETATM    4  C4  UNL     1      -3.062   3.919  15.074  1.00  0.00     0.126 C 
HETATM    5  C5  UNL     1      -2.942   3.845  13.530  1.00  0.00     0.024 C 
HETATM    6  C6  UNL     1      -4.257   3.538  12.965  1.00  0.00    -0.011 C 
HETATM    7  C16 UNL     1      -5.358   4.401  13.607  1.00  0.00     0.024 C 
HETATM    8  C17 UNL     1      -5.538   3.872  15.024  1.00  0.00     0.126 C 
ENDROOT
BRANCH   6   9
HETATM    9  C7  UNL     1      -4.431   3.601  11.511  1.00  0.00     0.014 C 
BRANCH   9  10
HETATM   10  C8  UNL     1      -3.560   4.536  10.772  1.00  0.00     0.103 C 
BRANCH  10  11
HETATM   11  C9  UNL     1      -4.226   5.559   9.986  1.00  0.00     0.217 C 
HETATM   12  O3  UNL     1      -4.052   5.673   8.758  1.00  0.00    -0.274 OA
HETATM   13  N2  UNL     1      -5.109   6.472  10.612  1.00  0.00    -0.356 N 
ATOM     14  H2  UNL     1      -5.278   6.412  11.616  1.00  0.00     0.162 HD
BRANCH  13  15
HETATM   15  C10 UNL     1      -5.766   7.484   9.829  1.00  0.00     0.084 C 
HETATM   16  C11 UNL     1      -7.124   6.998   9.321  1.00  0.00     0.025 C 
HETATM   17  C12 UNL     1      -7.926   8.198   8.906  1.00  0.00     0.002 C 
HETATM   18  C13 UNL     1      -7.029   9.368   8.519  1.00  0.00     0.000 C 
HETATM   19  C14 UNL     1      -6.392   9.863   9.806  1.00  0.00     0.002 C 
HETATM   20  C15 UNL     1      -6.030   8.696  10.696  1.00  0.00     0.025 C 
ENDBRANCH  13  15
ENDBRANCH  10  11
ENDBRANCH   9  10
ENDBRANCH   6   9
BRANCH   1  21
HETATM   21  C2  UNL     1      -5.600   1.364  16.453  1.00  0.00     0.206 C 
HETATM   22  C1  UNL     1      -5.943   1.749  17.880  1.00  0.00     0.049 C 
BRANCH  21  23
HETATM   23  O1  UNL     1      -5.485  -0.040  16.369  1.00  0.00    -0.387 OA
ATOM     24  H1  UNL     1      -4.632  -0.260  16.013  1.00  0.00     0.210 HD
ENDBRANCH  21  23
ENDBRANCH   1  21
TORSDOF 6
ENDMDL
MODEL 2
REMARK VINA RESULT: -7.050586129      1.224      1.588
REMARK  6 active torsions:
REMARK  status: ('A' for Active; 'I' for Inactive)
REMARK    1  A    between atoms: C2_2  and  O1_3 
REMARK    2  A    between atoms: C2_2  and  C3_5 
REMARK       I    between atoms: C3_5  and  N1_7 
REMARK    3  A    between atoms: C6_10  and  C7_11 
REMARK    4  A    between atoms: C7_11  and  C8_12 
REMARK    5  A    between atoms: C8_12  and  C9_13 
REMARK       I    between atoms: C9_13  and  N2_15 
REMARK    6  A    between atoms: N2_15  and  C10_17 
ROOT
HETATM    1  C3  UNL     1      -4.328   1.980  16.046  1.00  0.00     0.248 C 
HETATM    2  O2  UNL     1      -3.224   1.359  16.187  1.00  0.00    -0.270 OA
HETATM    3  N1  UNL     1      -4.293   3.291  15.523  1.00  0.00    -0.350 N 
HETATM    4  C4  UNL     1      -3.032   3.940  15.175  1.00  0.00     0.126 C 
HETATM    5  C5  UNL     1      -3.027   4.063  13.629  1.00  0.00     0.024 C 
HETATM    6  C6  UNL     1      -4.397   3.901  13.136  1.00  0.00    -0.011 C 
HETATM    7  C16 UNL     1      -5.393   4.727  13.968  1.00  0.00     0.024 C 
HETATM    8  C17 UNL     1      -5.503   4.027  15.317  1.00  0.00     0.126 C 
ENDROOT
BRANCH   6   9
HETATM    9  C7  UNL     1      -4.670   4.163  11.721  1.00  0.00     0.014 C 
BRANCH   9  10
HETATM   10  C8  UNL     1      -4.211   5.457  11.178  1.00  0.00     0.103 C 
BRANCH  10  11
HETATM   11  C9  UNL     1      -5.244   6.380  10.742  1.00  0.00     0.217 C 
HETATM   12  O3  UNL     1      -6.100   6.838  11.522  1.00  0.00    -0.274 OA
HETATM   13  N2  UNL     1      -5.303   6.790   9.388  1.00  0.00    -0.356 N 
ATOM     14  H2  UNL     1      -4.620   6.437   8.717  1.00  0.00     0.162 HD
BRANCH  13  15
HETATM   15  C10 UNL     1      -6.328   7.703   8.960  1.00  0.00     0.084 C 
HETATM   16  C11 UNL     1      -5.854   8.558   7.783  1.00  0.00     0.025 C 
HETATM   17  C12 UNL     1      -7.062   9.154   7.120  1.00  0.00     0.002 C 
HETATM   18  C13 UNL     1      -8.234   9.274   8.087  1.00  0.00     0.000 C 
HETATM   19  C14 UNL     1      -8.709   7.859   8.362  1.00  0.00     0.002 C 
HETATM   20  C15 UNL     1      -7.530   6.921   8.476  1.00  0.00     0.025 C 
ENDBRANCH  13  15
ENDBRANCH  10  11
ENDBRANCH   9  10
ENDBRANCH   6   9
BRANCH   1  21
HETATM   21  C2  UNL     1      -5.617   1.360  16.416  1.00  0.00     0.206 C 
HETATM   22  C1  UNL     1      -5.918   1.725  17.858  1.00  0.00     0.049 C 
BRANCH  21  23
HETATM   23  O1  UNL     1      -5.540  -0.044  16.302  1.00  0.00    -0.387 OA
ATOM     24  H1  UNL     1      -4.822  -0.360  16.837  1.00  0.00     0.210 HD
ENDBRANCH  21  23
ENDBRANCH   1  21
TORSDOF 6
ENDMDL
MODEL 3
REMARK VINA RESULT: -7.024728930      3.999      4.997
REMARK  6 active torsions:
REMARK  status: ('A' for Active; 'I' for Inactive)
REMARK    1  A    between atoms: C2_2  and  O1_3 
REMARK    2  A    between atoms: C2_2  and  C3_5 
REMARK       I    between atoms: C3_5  and  N1_7 
REMARK    3  A    between atoms: C6_10  and  C7_11 
REMARK    4  A    between atoms: C7_11  and  C8_12 
REMARK    5  A    between atoms: C8_12  and  C9_13 
REMARK       I    between atoms: C9_13  and  N2_15 
REMARK    6  A    between atoms: N2_15  and  C10_17 
ROOT
HETATM    1  C3  UNL     1      -6.244   3.007  16.161  1.00  0.00     0.248 C 
HETATM    2  O2  UNL     1      -6.841   3.810  16.950  1.00  0.00    -0.270 OA
HETATM    3  N1  UNL     1      -5.715   3.526  14.959  1.00  0.00    -0.350 N 
HETATM    4  C4  UNL     1      -5.864   4.934  14.605  1.00  0.00     0.126 C 
HETATM    5  C5  UNL     1      -4.442   5.549  14.689  1.00  0.00     0.024 C 
HETATM    6  C6  UNL     1      -3.455   4.467  14.660  1.00  0.00    -0.011 C 
HETATM    7  C16 UNL     1      -3.782   3.440  13.563  1.00  0.00     0.024 C 
HETATM    8  C17 UNL     1      -5.009   2.678  14.047  1.00  0.00     0.126 C 
ENDROOT
BRANCH   6   9
HETATM    9  C7  UNL     1      -2.036   4.813  14.541  1.00  0.00     0.014 C 
BRANCH   9  10
HETATM   10  C8  UNL     1      -1.574   5.303  13.228  1.00  0.00     0.103 C 
BRANCH  10  11
HETATM   11  C9  UNL     1      -1.058   6.660  13.186  1.00  0.00     0.217 C 
HETATM   12  O3  UNL     1      -0.251   7.039  12.318  1.00  0.00    -0.274 OA
HETATM   13  N2  UNL     1      -1.472   7.605  14.156  1.00  0.00    -0.356 N 
ATOM     14  H2  UNL     1      -2.133   7.335  14.884  1.00  0.00     0.162 HD
BRANCH  13  15
HETATM   15  C10 UNL     1      -0.959   8.948  14.111  1.00  0.00     0.084 C 
HETATM   16  C11 UNL     1      -2.016   9.930  13.604  1.00  0.00     0.025 C 
HETATM   17  C12 UNL     1      -1.588  11.318  13.986  1.00  0.00     0.002 C 
HETATM   18  C13 UNL     1      -0.076  11.414  14.157  1.00  0.00     0.000 C 
HETATM   19  C14 UNL     1       0.261  10.638  15.418  1.00  0.00     0.002 C 
HETATM   20  C15 UNL     1      -0.586   9.390  15.510  1.00  0.00     0.025 C 
ENDBRANCH  13  15
ENDBRANCH  10  11
ENDBRANCH   9  10
ENDBRANCH   6   9
BRANCH   1  21
HETATM   21  C2  UNL     1      -6.102   1.572  16.479  1.00  0.00     0.206 C 
HETATM   22  C1  UNL     1      -7.378   1.112  17.160  1.00  0.00     0.049 C 
BRANCH  21  23
HETATM   23  O1  UNL     1      -5.014   1.366  17.353  1.00  0.00    -0.387 OA
ATOM     24  H1  UNL     1      -4.847   2.166  17.835  1.00  0.00     0.210 HD
ENDBRANCH  21  23
ENDBRANCH   1  21
TORSDOF 6
ENDMDL
MODEL 4
REMARK VINA RESULT: -6.947019142      2.179      3.108
REMARK  6 active torsions:
REMARK  status: ('A' for Active; 'I' for Inactive)
REMARK    1  A    between atoms: C2_2  and  O1_3 
REMARK    2  A    between atoms: C2_2  and  C3_5 
REMARK       I    between atoms: C3_5  and  N1_7 
REMARK    3  A    between atoms: C6_10  and  C7_11 
REMARK    4  A    between atoms: C7_11  and  C8_12 
REMARK    5  A    between atoms: C8_12  and  C9_13 
REMARK       I    between atoms: C9_13  and  N2_15 
REMARK    6  A    between atoms: N2_15  and  C10_17 
ROOT
HETATM    1  C3  UNL     1      -4.192   1.817  12.749  1.00  0.00     0.248 C 
HETATM    2  O2  UNL     1      -3.072   1.211  12.719  1.00  0.00    -0.270 OA
HETATM    3  N1  UNL     1      -4.479   2.632  13.867  1.00  0.00    -0.350 N 
HETATM    4  C4  UNL     1      -3.539   2.762  14.976  1.00  0.00     0.126 C 
HETATM    5  C5  UNL     1      -3.010   4.219  14.918  1.00  0.00     0.024 C 
HETATM    6  C6  UNL     1      -3.919   5.022  14.098  1.00  0.00    -0.011 C 
HETATM    7  C16 UNL     1      -5.389   4.755  14.465  1.00  0.00     0.024 C 
HETATM    8  C17 UNL     1      -5.710   3.359  13.943  1.00  0.00     0.126 C 
ENDROOT
BRANCH   6   9
HETATM    9  C7  UNL     1      -3.727   6.474  14.050  1.00  0.00     0.014 C 
BRANCH   9  10
HETATM   10  C8  UNL     1      -3.376   7.061  12.742  1.00  0.00     0.103 C 
BRANCH  10  11
HETATM   11  C9  UNL     1      -4.259   6.746  11.633  1.00  0.00     0.217 C 
HETATM   12  O3  UNL     1      -4.266   5.629  11.083  1.00  0.00    -0.274 OA
HETATM   13  N2  UNL     1      -5.154   7.726  11.138  1.00  0.00    -0.356 N 
ATOM     14  H2  UNL     1      -5.179   8.655  11.561  1.00  0.00     0.162 HD
BRANCH  13  15
HETATM   15  C10 UNL     1      -6.026   7.411  10.039  1.00  0.00     0.084 C 
HETATM   16  C11 UNL     1      -7.428   7.982  10.262  1.00  0.00     0.025 C 
HETATM   17  C12 UNL     1      -8.139   8.006   8.939  1.00  0.00     0.002 C 
HETATM   18  C13 UNL     1      -7.582   6.959   7.981  1.00  0.00     0.000 C 
HETATM   19  C14 UNL     1      -6.196   7.436   7.586  1.00  0.00     0.002 C 
HETATM   20  C15 UNL     1      -5.490   8.047   8.774  1.00  0.00     0.025 C 
ENDBRANCH  13  15
ENDBRANCH  10  11
ENDBRANCH   9  10
ENDBRANCH   6   9
BRANCH   1  21
HETATM   21  C2  UNL     1      -5.175   1.682  11.655  1.00  0.00     0.206 C 
HETATM   22  C1  UNL     1      -4.852   0.415  10.885  1.00  0.00     0.049 C 
BRANCH  21  23
HETATM   23  O1  UNL     1      -5.094   2.786  10.780  1.00  0.00    -0.387 OA
ATOM     24  H1  UNL     1      -4.188   2.912  10.522  1.00  0.00     0.210 HD
ENDBRANCH  21  23
ENDBRANCH   1  21
TORSDOF 6
ENDMDL
MODEL 5
REMARK VINA RESULT: -6.796196228      3.889      5.887
REMARK  6 active torsions:
REMARK  status: ('A' for Active; 'I' for Inactive)
REMARK    1  A    between atoms: C2_2  and  O1_3 
REMARK    2  A    between atoms: C2_2  and  C3_5 
REMARK       I    between atoms: C3_5  and  N1_7 
REMARK    3  A    between atoms: C6_10  and  C7_11 
REMARK    4  A    between atoms: C7_11  and  C8_12 
REMARK    5  A    between atoms: C8_12  and  C9_13 
REMARK       I    between atoms: C9_13  and  N2_15 
REMARK    6  A    between atoms: N2_15  and  C10_17 
ROOT
HETATM    1  C3  UNL     1      -6.171   2.995  16.059  1.00  0.00     0.248 C 
HETATM    2  O2  UNL     1      -6.794   3.777  16.849  1.00  0.00    -0.270 OA
HETATM    3  N1  UNL     1      -5.676   3.526  14.847  1.00  0.00    -0.350 N 
HETATM    4  C4  UNL     1      -5.890   4.924  14.485  1.00  0.00     0.126 C 
HETATM    5  C5  UNL     1      -4.496   5.600  14.550  1.00  0.00     0.024 C 
HETATM    6  C6  UNL     1      -3.463   4.563  14.517  1.00  0.00    -0.011 C 
HETATM    7  C16 UNL     1      -3.756   3.514  13.431  1.00  0.00     0.024 C 
HETATM    8  C17 UNL     1      -4.944   2.703  13.934  1.00  0.00     0.126 C 
ENDROOT
BRANCH   6   9
HETATM    9  C7  UNL     1      -2.062   4.969  14.381  1.00  0.00     0.014 C 
BRANCH   9  10
HETATM   10  C8  UNL     1      -1.805   6.319  13.843  1.00  0.00     0.103 C 
BRANCH  10  11
HETATM   11  C9  UNL     1      -0.799   6.422  12.801  1.00  0.00     0.217 C 
HETATM   12  O3  UNL     1      -0.736   7.397  12.029  1.00  0.00    -0.274 OA
HETATM   13  N2  UNL     1       0.157   5.390  12.635  1.00  0.00    -0.356 N 
ATOM     14  H2  UNL     1       0.140   4.574  13.247  1.00  0.00     0.162 HD
BRANCH  13  15
HETATM   15  C10 UNL     1       1.151   5.495  11.602  1.00  0.00     0.084 C 
HETATM   16  C11 UNL     1       2.510   5.900  12.178  1.00  0.00     0.025 C 
HETATM   17  C12 UNL     1       3.566   5.572  11.161  1.00  0.00     0.002 C 
HETATM   18  C13 UNL     1       3.000   5.555   9.746  1.00  0.00     0.000 C 
HETATM   19  C14 UNL     1       2.108   4.329   9.658  1.00  0.00     0.002 C 
HETATM   20  C15 UNL     1       1.339   4.144  10.946  1.00  0.00     0.025 C 
ENDBRANCH  13  15
ENDBRANCH  10  11
ENDBRANCH   9  10
ENDBRANCH   6   9
BRANCH   1  21
HETATM   21  C2  UNL     1      -5.963   1.570  16.386  1.00  0.00     0.206 C 
HETATM   22  C1  UNL     1      -7.159   1.092  17.188  1.00  0.00     0.049 C 
BRANCH  21  23
HETATM   23  O1  UNL     1      -4.794   1.406  17.158  1.00  0.00    -0.387 OA
ATOM     24  H1  UNL     1      -4.278   2.202  17.113  1.00  0.00     0.210 HD
ENDBRANCH  21  23
ENDBRANCH   1  21
TORSDOF 6
ENDMDL
