MODEL 1
REMARK VINA RESULT: -5.042995764      0.000      0.000
REMARK  14 active torsions:
REMARK  status: ('A' for Active; 'I' for Inactive)
REMARK    1  A    between atoms: C2_2  and  C3_3 
REMARK    2  A    between atoms: C3_3  and  N1_4 
REMARK       I    between atoms: N1_4  and  C4_6 
REMARK       I    between atoms: C4_6  and  N2_8 
REMARK    3  A    between atoms: N2_8  and  C5_10 
REMARK    4  A    between atoms: C5_10  and  C6_11 
REMARK    5  A    between atoms: C6_11  and  C7_13 
REMARK    6  A    between atoms: C7_13  and  N3_14 
REMARK    7  A    between atoms: C7_13  and  C8_18 
REMARK    8  A    between atoms: C8_18  and  O3_19 
REMARK    9  A    between atoms: C8_18  and  C9_21 
REMARK   10  A    between atoms: C9_21  and  O4_22 
REMARK   11  A    between atoms: C9_21  and  C10_24 
REMARK   12  A    between atoms: C10_24  and  N4_25 
REMARK   13  A    between atoms: N6_34  and  N7_35 
REMARK   14  A    between atoms: N7_35  and  N8_36 
ROOT
HETATM    1  C5  UNL     1      23.455  -0.174  18.685  1.00  0.00     0.308 C 
HETATM    2  O5  UNL     1      23.289  -0.444  17.242  1.00  0.00    -0.246 OA
HETATM    3  C11 UNL     1      24.150  -1.497  16.981  1.00  0.00     0.380 C 
HETATM    4  O6  UNL     1      24.139  -2.202  15.920  1.00  0.00    -0.237 OA
HETATM    5  N5  UNL     1      25.024  -1.639  18.089  1.00  0.00    -0.243 N 
ATOM      6  H5  UNL     1      25.633  -2.422  18.328  1.00  0.00     0.188 HD
HETATM    7  N6  UNL     1      24.834  -0.399  18.790  1.00  0.00    -0.054 NA
ENDROOT
BRANCH   1   8
HETATM    8  N2  UNL     1      22.512  -1.016  19.312  1.00  0.00    -0.288 N 
HETATM    9  C4  UNL     1      22.184  -1.379  20.597  1.00  0.00     0.320 C 
HETATM   10  N1  UNL     1      21.079  -2.328  20.769  1.00  0.00    -0.340 N 
HETATM   11  O1  UNL     1      22.716  -0.996  21.633  1.00  0.00    -0.247 OA
ATOM     12  H1  UNL     1      20.591  -2.695  19.952  1.00  0.00     0.164 HD
ATOM     13  H2  UNL     1      21.913  -1.481  18.629  1.00  0.00     0.169 HD
BRANCH  10  14
HETATM   14  C3  UNL     1      20.684  -2.740  22.081  1.00  0.00     0.150 C 
BRANCH  14  15
HETATM   15  C2  UNL     1      19.870  -3.974  22.116  1.00  0.00    -0.018 C 
HETATM   16  C1  UNL     1      20.082  -4.935  21.211  1.00  0.00     0.008 C 
ENDBRANCH  14  15
ENDBRANCH  10  14
ENDBRANCH   1   8
BRANCH   1  17
HETATM   17  C6  UNL     1      22.986   1.244  18.843  1.00  0.00     0.234 C 
HETATM   18  O2  UNL     1      23.483   1.752  19.897  1.00  0.00    -0.288 OA
BRANCH  17  19
HETATM   19  C7  UNL     1      22.118   2.022  17.996  1.00  0.00     0.290 C 
BRANCH  19  20
HETATM   20  N3  UNL     1      20.787   2.055  18.431  1.00  0.00    -0.065 N 
ATOM     21  H33 UNL     1      20.660   2.772  19.146  1.00  0.00     0.275 HD
ATOM     22  H32 UNL     1      20.180   2.431  17.702  1.00  0.00     0.275 HD
ATOM     23  H31 UNL     1      20.440   1.154  18.758  1.00  0.00     0.275 HD
ENDBRANCH  19  20
BRANCH  19  24
HETATM   24  C8  UNL     1      22.752   3.333  17.582  1.00  0.00     0.186 C 
BRANCH  24  25
HETATM   25  O3  UNL     1      24.163   3.034  17.473  1.00  0.00    -0.390 OA
ATOM     26  H3  UNL     1      24.414   3.376  16.622  1.00  0.00     0.210 HD
ENDBRANCH  24  25
BRANCH  24  27
HETATM   27  C9  UNL     1      22.434   3.788  16.199  1.00  0.00     0.174 C 
BRANCH  27  28
HETATM   28  O4  UNL     1      21.617   2.755  15.649  1.00  0.00    -0.391 OA
ATOM     29  H4  UNL     1      22.221   2.180  15.194  1.00  0.00     0.210 HD
ENDBRANCH  27  28
BRANCH  27  30
HETATM   30  C10 UNL     1      23.556   3.950  15.245  1.00  0.00     0.263 C 
BRANCH  30  31
HETATM   31  N4  UNL     1      23.092   4.233  13.876  1.00  0.00    -0.077 N 
ATOM     32  H43 UNL     1      23.761   3.895  13.183  1.00  0.00     0.274 HD
ATOM     33  H42 UNL     1      22.293   3.649  13.630  1.00  0.00     0.274 HD
ATOM     34  H41 UNL     1      22.883   5.221  13.733  1.00  0.00     0.274 HD
ENDBRANCH  30  31
ENDBRANCH  27  30
ENDBRANCH  24  27
ENDBRANCH  19  24
ENDBRANCH  17  19
ENDBRANCH   1  17
BRANCH   7  35
HETATM   35  N7  UNL     1      25.542   0.461  17.842  1.00  0.00    -0.030 NA
BRANCH  35  36
HETATM   36  N8  UNL     1      26.392   1.218  18.658  1.00  0.00    -0.332 N 
ATOM     37  H82 UNL     1      27.264   0.917  19.094  1.00  0.00     0.173 HD
ATOM     38  H81 UNL     1      25.931   2.126  18.706  1.00  0.00     0.173 HD
ENDBRANCH  35  36
ENDBRANCH   7  35
TORSDOF 14
ENDMDL
MODEL 2
REMARK VINA RESULT: -4.941770721      3.626      6.514
REMARK  14 active torsions:
REMARK  status: ('A' for Active; 'I' for Inactive)
REMARK    1  A    between atoms: C2_2  and  C3_3 
REMARK    2  A    between atoms: C3_3  and  N1_4 
REMARK       I    between atoms: N1_4  and  C4_6 
REMARK       I    between atoms: C4_6  and  N2_8 
REMARK    3  A    between atoms: N2_8  and  C5_10 
REMARK    4  A    between atoms: C5_10  and  C6_11 
REMARK    5  A    between atoms: C6_11  and  C7_13 
REMARK    6  A    between atoms: C7_13  and  N3_14 
REMARK    7  A    between atoms: C7_13  and  C8_18 
REMARK    8  A    between atoms: C8_18  and  O3_19 
REMARK    9  A    between atoms: C8_18  and  C9_21 
REMARK   10  A    between atoms: C9_21  and  O4_22 
REMARK   11  A    between atoms: C9_21  and  C10_24 
REMARK   12  A    between atoms: C10_24  and  N4_25 
REMARK   13  A    between atoms: N6_34  and  N7_35 
REMARK   14  A    between atoms: N7_35  and  N8_36 
ROOT
HETATM    1  C5  UNL     1      23.566   5.546  16.968  1.00  0.00     0.308 C 
HETATM    2  O5  UNL     1      24.449   6.342  17.844  1.00  0.00    -0.246 OA
HETATM    3  C11 UNL     1      23.586   7.000  18.705  1.00  0.00     0.380 C 
HETATM    4  O6  UNL     1      23.937   7.597  19.775  1.00  0.00    -0.237 OA
HETATM    5  N5  UNL     1      22.271   6.887  18.185  1.00  0.00    -0.243 N 
ATOM      6  H5  UNL     1      21.381   7.066  18.651  1.00  0.00     0.188 HD
HETATM    7  N6  UNL     1      22.511   6.457  16.836  1.00  0.00    -0.054 NA
ENDROOT
BRANCH   1   8
HETATM    8  N2  UNL     1      23.411   4.318  17.647  1.00  0.00    -0.288 N 
HETATM    9  C4  UNL     1      22.641   3.186  17.518  1.00  0.00     0.320 C 
HETATM   10  N1  UNL     1      22.837   2.119  18.506  1.00  0.00    -0.340 N 
HETATM   11  O1  UNL     1      21.796   2.960  16.658  1.00  0.00    -0.247 OA
ATOM     12  H1  UNL     1      23.520   2.237  19.254  1.00  0.00     0.164 HD
ATOM     13  H2  UNL     1      24.038   4.253  18.450  1.00  0.00     0.169 HD
BRANCH  10  14
HETATM   14  C3  UNL     1      22.072   0.914  18.422  1.00  0.00     0.150 C 
BRANCH  14  15
HETATM   15  C2  UNL     1      20.885   0.879  19.302  1.00  0.00    -0.018 C 
HETATM   16  C1  UNL     1      19.664   1.025  18.775  1.00  0.00     0.008 C 
ENDBRANCH  14  15
ENDBRANCH  10  14
ENDBRANCH   1   8
BRANCH   1  17
HETATM   17  C6  UNL     1      24.402   5.295  15.745  1.00  0.00     0.234 C 
HETATM   18  O2  UNL     1      25.617   5.583  15.982  1.00  0.00    -0.288 OA
BRANCH  17  19
HETATM   19  C7  UNL     1      24.008   4.797  14.452  1.00  0.00     0.290 C 
BRANCH  19  20
HETATM   20  N3  UNL     1      22.625   4.615  14.316  1.00  0.00    -0.065 N 
ATOM     21  H33 UNL     1      22.425   3.787  13.754  1.00  0.00     0.275 HD
ATOM     22  H32 UNL     1      22.212   4.323  15.203  1.00  0.00     0.275 HD
ATOM     23  H31 UNL     1      22.139   5.430  13.943  1.00  0.00     0.275 HD
ENDBRANCH  19  20
BRANCH  19  24
HETATM   24  C8  UNL     1      24.735   5.499  13.326  1.00  0.00     0.186 C 
BRANCH  24  25
HETATM   25  O3  UNL     1      24.397   4.736  12.145  1.00  0.00    -0.390 OA
ATOM     26  H3  UNL     1      24.874   5.162  11.442  1.00  0.00     0.210 HD
ENDBRANCH  24  25
BRANCH  24  27
HETATM   27  C9  UNL     1      24.211   6.849  12.971  1.00  0.00     0.174 C 
BRANCH  27  28
HETATM   28  O4  UNL     1      23.840   6.753  11.597  1.00  0.00    -0.391 OA
ATOM     29  H4  UNL     1      22.897   6.862  11.588  1.00  0.00     0.210 HD
ENDBRANCH  27  28
BRANCH  27  30
HETATM   30  C10 UNL     1      25.144   7.999  13.046  1.00  0.00     0.263 C 
BRANCH  30  31
HETATM   31  N4  UNL     1      25.379   8.442  14.430  1.00  0.00    -0.077 N 
ATOM     32  H43 UNL     1      24.833   7.889  15.091  1.00  0.00     0.274 HD
ATOM     33  H42 UNL     1      26.317   8.191  14.743  1.00  0.00     0.274 HD
ATOM     34  H41 UNL     1      25.204   9.439  14.554  1.00  0.00     0.274 HD
ENDBRANCH  30  31
ENDBRANCH  27  30
ENDBRANCH  24  27
ENDBRANCH  19  24
ENDBRANCH  17  19
ENDBRANCH   1  17
BRANCH   7  35
HETATM   35  N7  UNL     1      23.024   7.727  16.324  1.00  0.00    -0.030 NA
BRANCH  35  36
HETATM   36  N8  UNL     1      21.868   8.486  16.109  1.00  0.00    -0.332 N 
ATOM     37  H82 UNL     1      21.765   9.305  15.510  1.00  0.00     0.173 HD
ATOM     38  H81 UNL     1      21.168   8.025  16.689  1.00  0.00     0.173 HD
ENDBRANCH  35  36
ENDBRANCH   7  35
TORSDOF 14
ENDMDL
MODEL 3
REMARK VINA RESULT: -4.900206978      2.503      6.595
REMARK  14 active torsions:
REMARK  status: ('A' for Active; 'I' for Inactive)
REMARK    1  A    between atoms: C2_2  and  C3_3 
REMARK    2  A    between atoms: C3_3  and  N1_4 
REMARK       I    between atoms: N1_4  and  C4_6 
REMARK       I    between atoms: C4_6  and  N2_8 
REMARK    3  A    between atoms: N2_8  and  C5_10 
REMARK    4  A    between atoms: C5_10  and  C6_11 
REMARK    5  A    between atoms: C6_11  and  C7_13 
REMARK    6  A    between atoms: C7_13  and  N3_14 
REMARK    7  A    between atoms: C7_13  and  C8_18 
REMARK    8  A    between atoms: C8_18  and  O3_19 
REMARK    9  A    between atoms: C8_18  and  C9_21 
REMARK   10  A    between atoms: C9_21  and  O4_22 
REMARK   11  A    between atoms: C9_21  and  C10_24 
REMARK   12  A    between atoms: C10_24  and  N4_25 
REMARK   13  A    between atoms: N6_34  and  N7_35 
REMARK   14  A    between atoms: N7_35  and  N8_36 
ROOT
HETATM    1  C5  UNL     1      22.339   1.175  18.730  1.00  0.00     0.308 C 
HETATM    2  O5  UNL     1      21.716   0.538  17.552  1.00  0.00    -0.246 OA
HETATM    3  C11 UNL     1      20.399   0.964  17.580  1.00  0.00     0.380 C 
HETATM    4  O6  UNL     1      19.574   0.851  16.615  1.00  0.00    -0.237 OA
HETATM    5  N5  UNL     1      20.145   1.536  18.853  1.00  0.00    -0.243 N 
ATOM      6  H5  UNL     1      19.365   2.124  19.146  1.00  0.00     0.188 HD
HETATM    7  N6  UNL     1      21.266   1.075  19.624  1.00  0.00    -0.054 NA
ENDROOT
BRANCH   1   8
HETATM    8  N2  UNL     1      22.800   2.421  18.253  1.00  0.00    -0.288 N 
HETATM    9  C4  UNL     1      23.457   2.894  17.142  1.00  0.00     0.320 C 
HETATM   10  N1  UNL     1      23.734   4.333  17.083  1.00  0.00    -0.340 N 
HETATM   11  O1  UNL     1      23.845   2.242  16.178  1.00  0.00    -0.247 OA
ATOM     12  H1  UNL     1      23.446   4.939  17.851  1.00  0.00     0.164 HD
ATOM     13  H2  UNL     1      22.589   3.173  18.910  1.00  0.00     0.169 HD
BRANCH  10  14
HETATM   14  C3  UNL     1      24.409   4.888  15.950  1.00  0.00     0.150 C 
BRANCH  14  15
HETATM   15  C2  UNL     1      23.513   5.479  14.933  1.00  0.00    -0.018 C 
HETATM   16  C1  UNL     1      23.319   4.846  13.771  1.00  0.00     0.008 C 
ENDBRANCH  14  15
ENDBRANCH  10  14
ENDBRANCH   1   8
BRANCH   1  17
HETATM   17  C6  UNL     1      23.539   0.315  19.012  1.00  0.00     0.234 C 
HETATM   18  O2  UNL     1      23.805   0.334  20.255  1.00  0.00    -0.288 OA
BRANCH  17  19
HETATM   19  C7  UNL     1      24.341  -0.465  18.104  1.00  0.00     0.290 C 
BRANCH  19  20
HETATM   20  N3  UNL     1      25.632   0.042  17.914  1.00  0.00    -0.065 N 
ATOM     21  H33 UNL     1      26.066   0.268  18.809  1.00  0.00     0.275 HD
ATOM     22  H32 UNL     1      26.265  -0.694  17.598  1.00  0.00     0.275 HD
ATOM     23  H31 UNL     1      25.670   0.843  17.283  1.00  0.00     0.275 HD
ENDBRANCH  19  20
BRANCH  19  24
HETATM   24  C8  UNL     1      24.202  -1.951  18.357  1.00  0.00     0.186 C 
BRANCH  24  25
HETATM   25  O3  UNL     1      22.889  -2.098  18.945  1.00  0.00    -0.390 OA
ATOM     26  H3  UNL     1      22.931  -1.594  19.750  1.00  0.00     0.210 HD
ENDBRANCH  24  25
BRANCH  24  27
HETATM   27  C9  UNL     1      24.081  -2.798  17.136  1.00  0.00     0.174 C 
BRANCH  27  28
HETATM   28  O4  UNL     1      22.896  -2.341  16.485  1.00  0.00    -0.391 OA
ATOM     29  H4  UNL     1      23.090  -2.392  15.556  1.00  0.00     0.210 HD
ENDBRANCH  27  28
BRANCH  27  30
HETATM   30  C10 UNL     1      23.889  -4.257  17.318  1.00  0.00     0.263 C 
BRANCH  30  31
HETATM   31  N4  UNL     1      22.502  -4.677  17.054  1.00  0.00    -0.077 N 
ATOM     32  H43 UNL     1      21.913  -3.878  16.820  1.00  0.00     0.274 HD
ATOM     33  H42 UNL     1      22.435  -5.191  16.175  1.00  0.00     0.274 HD
ATOM     34  H41 UNL     1      22.105  -5.214  17.825  1.00  0.00     0.274 HD
ENDBRANCH  30  31
ENDBRANCH  27  30
ENDBRANCH  24  27
ENDBRANCH  19  24
ENDBRANCH  17  19
ENDBRANCH   1  17
BRANCH   7  35
HETATM   35  N7  UNL     1      20.853  -0.324  19.736  1.00  0.00    -0.030 NA
BRANCH  35  36
HETATM   36  N8  UNL     1      21.156  -0.650  21.063  1.00  0.00    -0.332 N 
ATOM     37  H82 UNL     1      21.110  -0.040  21.879  1.00  0.00     0.173 HD
ATOM     38  H81 UNL     1      21.429  -1.632  21.012  1.00  0.00     0.173 HD
ENDBRANCH  35  36
ENDBRANCH   7  35
TORSDOF 14
ENDMDL
MODEL 4
REMARK VINA RESULT: -4.852720386      4.045      7.130
REMARK  14 active torsions:
REMARK  status: ('A' for Active; 'I' for Inactive)
REMARK    1  A    between atoms: C2_2  and  C3_3 
REMARK    2  A    between atoms: C3_3  and  N1_4 
REMARK       I    between atoms: N1_4  and  C4_6 
REMARK       I    between atoms: C4_6  and  N2_8 
REMARK    3  A    between atoms: N2_8  and  C5_10 
REMARK    4  A    between atoms: C5_10  and  C6_11 
REMARK    5  A    between atoms: C6_11  and  C7_13 
REMARK    6  A    between atoms: C7_13  and  N3_14 
REMARK    7  A    between atoms: C7_13  and  C8_18 
REMARK    8  A    between atoms: C8_18  and  O3_19 
REMARK    9  A    between atoms: C8_18  and  C9_21 
REMARK   10  A    between atoms: C9_21  and  O4_22 
REMARK   11  A    between atoms: C9_21  and  C10_24 
REMARK   12  A    between atoms: C10_24  and  N4_25 
REMARK   13  A    between atoms: N6_34  and  N7_35 
REMARK   14  A    between atoms: N7_35  and  N8_36 
ROOT
HETATM    1  C5  UNL     1      24.355  -3.504  17.003  1.00  0.00     0.308 C 
HETATM    2  O5  UNL     1      24.834  -4.311  18.143  1.00  0.00    -0.246 OA
HETATM    3  C11 UNL     1      26.010  -3.695  18.538  1.00  0.00     0.380 C 
HETATM    4  O6  UNL     1      26.618  -3.917  19.635  1.00  0.00    -0.237 OA
HETATM    5  N5  UNL     1      26.402  -2.793  17.516  1.00  0.00    -0.243 N 
ATOM      6  H5  UNL     1      27.087  -2.038  17.557  1.00  0.00     0.188 HD
HETATM    7  N6  UNL     1      25.589  -3.213  16.409  1.00  0.00    -0.054 NA
ENDROOT
BRANCH   1   8
HETATM    8  N2  UNL     1      23.556  -2.500  17.593  1.00  0.00    -0.288 N 
HETATM    9  C4  UNL     1      23.495  -1.127  17.584  1.00  0.00     0.320 C 
HETATM   10  N1  UNL     1      22.444  -0.492  18.387  1.00  0.00    -0.340 N 
HETATM   11  O1  UNL     1      24.229  -0.358  16.972  1.00  0.00    -0.247 OA
ATOM     12  H1  UNL     1      21.799  -1.068  18.927  1.00  0.00     0.164 HD
ATOM     13  H2  UNL     1      22.828  -2.902  18.185  1.00  0.00     0.169 HD
BRANCH  10  14
HETATM   14  C3  UNL     1      22.324   0.933  18.414  1.00  0.00     0.150 C 
BRANCH  14  15
HETATM   15  C2  UNL     1      20.968   1.439  18.115  1.00  0.00    -0.018 C 
HETATM   16  C1  UNL     1      19.935   1.058  18.875  1.00  0.00     0.008 C 
ENDBRANCH  14  15
ENDBRANCH  10  14
ENDBRANCH   1   8
BRANCH   1  17
HETATM   17  C6  UNL     1      23.446  -4.439  16.256  1.00  0.00     0.234 C 
HETATM   18  O2  UNL     1      22.504  -3.785  15.708  1.00  0.00    -0.288 OA
BRANCH  17  19
HETATM   19  C7  UNL     1      23.530  -5.869  16.102  1.00  0.00     0.290 C 
BRANCH  19  20
HETATM   20  N3  UNL     1      22.654  -6.578  16.934  1.00  0.00    -0.065 N 
ATOM     21  H33 UNL     1      22.863  -7.576  16.909  1.00  0.00     0.275 HD
ATOM     22  H32 UNL     1      22.856  -6.385  17.916  1.00  0.00     0.275 HD
ATOM     23  H31 UNL     1      21.669  -6.411  16.730  1.00  0.00     0.275 HD
ENDBRANCH  19  20
BRANCH  19  24
HETATM   24  C8  UNL     1      23.601  -6.281  14.647  1.00  0.00     0.186 C 
BRANCH  24  25
HETATM   25  O3  UNL     1      24.151  -5.127  13.971  1.00  0.00    -0.390 OA
ATOM     26  H3  UNL     1      24.957  -5.442  13.580  1.00  0.00     0.210 HD
ENDBRANCH  24  25
BRANCH  24  27
HETATM   27  C9  UNL     1      24.615  -7.327  14.329  1.00  0.00     0.174 C 
BRANCH  27  28
HETATM   28  O4  UNL     1      25.840  -6.616  14.161  1.00  0.00    -0.391 OA
ATOM     29  H4  UNL     1      25.851  -6.356  13.248  1.00  0.00     0.210 HD
ENDBRANCH  27  28
BRANCH  27  30
HETATM   30  C10 UNL     1      24.440  -8.107  13.080  1.00  0.00     0.263 C 
BRANCH  30  31
HETATM   31  N4  UNL     1      24.536  -7.265  11.876  1.00  0.00    -0.077 N 
ATOM     32  H43 UNL     1      25.504  -7.178  11.564  1.00  0.00     0.274 HD
ATOM     33  H42 UNL     1      24.145  -7.741  11.062  1.00  0.00     0.274 HD
ATOM     34  H41 UNL     1      24.108  -6.348  12.006  1.00  0.00     0.274 HD
ENDBRANCH  30  31
ENDBRANCH  27  30
ENDBRANCH  24  27
ENDBRANCH  19  24
ENDBRANCH  17  19
ENDBRANCH   1  17
BRANCH   7  35
HETATM   35  N7  UNL     1      26.298  -4.459  16.120  1.00  0.00    -0.030 NA
BRANCH  35  36
HETATM   36  N8  UNL     1      27.014  -4.167  14.953  1.00  0.00    -0.332 N 
ATOM     37  H82 UNL     1      27.068  -4.725  14.101  1.00  0.00     0.173 HD
ATOM     38  H81 UNL     1      27.460  -3.274  15.164  1.00  0.00     0.173 HD
ENDBRANCH  35  36
ENDBRANCH   7  35
TORSDOF 14
ENDMDL
MODEL 5
REMARK VINA RESULT: -4.830915209      3.710      5.847
REMARK  14 active torsions:
REMARK  status: ('A' for Active; 'I' for Inactive)
REMARK    1  A    between atoms: C2_2  and  C3_3 
REMARK    2  A    between atoms: C3_3  and  N1_4 
REMARK       I    between atoms: N1_4  and  C4_6 
REMARK       I    between atoms: C4_6  and  N2_8 
REMARK    3  A    between atoms: N2_8  and  C5_10 
REMARK    4  A    between atoms: C5_10  and  C6_11 
REMARK    5  A    between atoms: C6_11  and  C7_13 
REMARK    6  A    between atoms: C7_13  and  N3_14 
REMARK    7  A    between atoms: C7_13  and  C8_18 
REMARK    8  A    between atoms: C8_18  and  O3_19 
REMARK    9  A    between atoms: C8_18  and  C9_21 
REMARK   10  A    between atoms: C9_21  and  O4_22 
REMARK   11  A    between atoms: C9_21  and  C10_24 
REMARK   12  A    between atoms: C10_24  and  N4_25 
REMARK   13  A    between atoms: N6_34  and  N7_35 
REMARK   14  A    between atoms: N7_35  and  N8_36 
ROOT
HETATM    1  C5  UNL     1      24.397   4.939  16.465  1.00  0.00     0.308 C 
HETATM    2  O5  UNL     1      25.345   3.947  15.920  1.00  0.00    -0.246 OA
HETATM    3  C11 UNL     1      26.307   3.804  16.906  1.00  0.00     0.380 C 
HETATM    4  O6  UNL     1      27.172   2.870  16.953  1.00  0.00    -0.237 OA
HETATM    5  N5  UNL     1      26.154   4.869  17.831  1.00  0.00    -0.243 N 
ATOM      6  H5  UNL     1      26.544   4.963  18.769  1.00  0.00     0.188 HD
HETATM    7  N6  UNL     1      25.311   5.782  17.110  1.00  0.00    -0.054 NA
ENDROOT
BRANCH   1   8
HETATM    8  N2  UNL     1      23.455   4.171  17.182  1.00  0.00    -0.288 N 
HETATM    9  C4  UNL     1      22.630   3.100  16.932  1.00  0.00     0.320 C 
HETATM   10  N1  UNL     1      21.790   2.623  18.037  1.00  0.00    -0.340 N 
HETATM   11  O1  UNL     1      22.511   2.487  15.877  1.00  0.00    -0.247 OA
ATOM     12  H1  UNL     1      21.830   3.086  18.944  1.00  0.00     0.164 HD
ATOM     13  H2  UNL     1      23.362   4.497  18.145  1.00  0.00     0.169 HD
BRANCH  10  14
HETATM   14  C3  UNL     1      20.914   1.509  17.843  1.00  0.00     0.150 C 
BRANCH  14  15
HETATM   15  C2  UNL     1      20.282   1.004  19.080  1.00  0.00    -0.018 C 
HETATM   16  C1  UNL     1      20.980   0.223  19.911  1.00  0.00     0.008 C 
ENDBRANCH  14  15
ENDBRANCH  10  14
ENDBRANCH   1   8
BRANCH   1  17
HETATM   17  C6  UNL     1      23.712   5.490  15.246  1.00  0.00     0.234 C 
HETATM   18  O2  UNL     1      22.808   6.315  15.590  1.00  0.00    -0.288 OA
BRANCH  17  19
HETATM   19  C7  UNL     1      23.957   5.213  13.853  1.00  0.00     0.290 C 
BRANCH  19  20
HETATM   20  N3  UNL     1      23.184   4.163  13.343  1.00  0.00    -0.065 N 
ATOM     21  H33 UNL     1      23.423   3.981  12.368  1.00  0.00     0.275 HD
ATOM     22  H32 UNL     1      23.466   3.273  13.757  1.00  0.00     0.275 HD
ATOM     23  H31 UNL     1      22.179   4.305  13.447  1.00  0.00     0.275 HD
ENDBRANCH  19  20
BRANCH  19  24
HETATM   24  C8  UNL     1      24.050   6.479  13.029  1.00  0.00     0.186 C 
BRANCH  24  25
HETATM   25  O3  UNL     1      24.620   7.456  13.930  1.00  0.00    -0.390 OA
ATOM     26  H3  UNL     1      24.829   8.199  13.375  1.00  0.00     0.210 HD
ENDBRANCH  24  25
BRANCH  24  27
HETATM   27  C9  UNL     1      25.061   6.455  11.934  1.00  0.00     0.174 C 
BRANCH  27  28
HETATM   28  O4  UNL     1      25.274   5.071  11.657  1.00  0.00    -0.391 OA
ATOM     29  H4  UNL     1      25.217   4.998  10.711  1.00  0.00     0.210 HD
ENDBRANCH  27  28
BRANCH  27  30
HETATM   30  C10 UNL     1      26.406   7.009  12.217  1.00  0.00     0.263 C 
BRANCH  30  31
HETATM   31  N4  UNL     1      27.215   6.113  13.061  1.00  0.00    -0.077 N 
ATOM     32  H43 UNL     1      28.199   6.380  13.044  1.00  0.00     0.274 HD
ATOM     33  H42 UNL     1      27.022   6.266  14.051  1.00  0.00     0.274 HD
ATOM     34  H41 UNL     1      27.097   5.131  12.811  1.00  0.00     0.274 HD
ENDBRANCH  30  31
ENDBRANCH  27  30
ENDBRANCH  24  27
ENDBRANCH  19  24
ENDBRANCH  17  19
ENDBRANCH   1  17
BRANCH   7  35
HETATM   35  N7  UNL     1      26.313   6.242  16.149  1.00  0.00    -0.030 NA
BRANCH  35  36
HETATM   36  N8  UNL     1      26.374   7.623  16.374  1.00  0.00    -0.332 N 
ATOM     37  H82 UNL     1      27.209   8.205  16.437  1.00  0.00     0.173 HD
ATOM     38  H81 UNL     1      25.395   7.895  16.457  1.00  0.00     0.173 HD
ENDBRANCH  35  36
ENDBRANCH   7  35
TORSDOF 14
ENDMDL
