MODEL 1
REMARK VINA RESULT: -6.500604455      0.000      0.000
REMARK  8 active torsions:
REMARK  status: ('A' for Active; 'I' for Inactive)
REMARK    1  A    between atoms: C2_2  and  C3_3 
REMARK    2  A    between atoms: C3_3  and  C4_4 
REMARK    3  A    between atoms: C4_4  and  C5_5 
REMARK    4  A    between atoms: C5_5  and  C6_6 
REMARK    5  A    between atoms: C6_6  and  C7_7 
REMARK    6  A    between atoms: C7_7  and  N1_8 
REMARK    7  A    between atoms: N1_8  and  C8_10 
REMARK    8  A    between atoms: C8_10  and  N2_12 
ROOT
HETATM    1  C8  UNL     1      -3.522   4.457  13.324  1.00  0.00     0.169 C 
HETATM    2  S1  UNL     1      -1.983   4.836  13.918  1.00  0.00    -0.041 SA
ENDROOT
BRANCH   1   3
HETATM    3  N1  UNL     1      -3.951   5.276  12.296  1.00  0.00    -0.367 N 
ATOM      4  H1  UNL     1      -3.716   4.981  11.348  1.00  0.00     0.161 HD
BRANCH   3   5
HETATM    5  C7  UNL     1      -4.682   6.481  12.422  1.00  0.00     0.122 C 
BRANCH   5   6
HETATM    6  C6  UNL     1      -5.424   6.727  11.084  1.00  0.00     0.020 C 
BRANCH   6   7
HETATM    7  C5  UNL     1      -6.681   7.493  11.419  1.00  0.00     0.002 C 
BRANCH   7   8
HETATM    8  C4  UNL     1      -7.125   8.156  10.133  1.00  0.00     0.000 C 
BRANCH   8   9
HETATM    9  C3  UNL     1      -6.700   7.404   8.925  1.00  0.00    -0.000 C 
BRANCH   9  10
HETATM   10  C2  UNL     1      -7.897   7.083   8.069  1.00  0.00    -0.005 C 
HETATM   11  C1  UNL     1      -8.987   8.078   8.438  1.00  0.00     0.005 C 
ENDBRANCH   9  10
ENDBRANCH   8   9
ENDBRANCH   7   8
ENDBRANCH   6   7
ENDBRANCH   5   6
ENDBRANCH   3   5
ENDBRANCH   1   3
BRANCH   1  12
HETATM   12  N2  UNL     1      -4.195   3.392  13.898  1.00  0.00    -0.358 N 
HETATM   13  C9  UNL     1      -4.620   2.305  12.984  1.00  0.00     0.128 C 
HETATM   14  C10 UNL     1      -4.267   0.951  13.532  1.00  0.00     0.054 C 
HETATM   15  C11 UNL     1      -4.335   0.885  15.024  1.00  0.00     0.155 C 
HETATM   16  O1  UNL     1      -5.012  -0.188  15.546  1.00  0.00    -0.281 OA
HETATM   17  C13 UNL     1      -5.318   2.000  15.428  1.00  0.00     0.051 C 
HETATM   18  N3  UNL     1      -5.280   0.172  16.824  1.00  0.00    -0.100 NA
HETATM   19  C12 UNL     1      -5.588   1.591  16.827  1.00  0.00     0.151 C 
HETATM   20  C14 UNL     1      -4.486   3.279  15.304  1.00  0.00     0.133 C 
ENDBRANCH   1  12
TORSDOF 8
ENDMDL
MODEL 2
REMARK VINA RESULT: -6.491016587      3.859      4.858
REMARK  8 active torsions:
REMARK  status: ('A' for Active; 'I' for Inactive)
REMARK    1  A    between atoms: C2_2  and  C3_3 
REMARK    2  A    between atoms: C3_3  and  C4_4 
REMARK    3  A    between atoms: C4_4  and  C5_5 
REMARK    4  A    between atoms: C5_5  and  C6_6 
REMARK    5  A    between atoms: C6_6  and  C7_7 
REMARK    6  A    between atoms: C7_7  and  N1_8 
REMARK    7  A    between atoms: N1_8  and  C8_10 
REMARK    8  A    between atoms: C8_10  and  N2_12 
ROOT
HETATM    1  C8  UNL     1      -3.061   3.655  12.692  1.00  0.00     0.169 C 
HETATM    2  S1  UNL     1      -3.755   4.300  11.289  1.00  0.00    -0.041 SA
ENDROOT
BRANCH   1   3
HETATM    3  N1  UNL     1      -1.741   4.018  12.890  1.00  0.00    -0.367 N 
ATOM      4  H1  UNL     1      -1.069   3.258  12.993  1.00  0.00     0.161 HD
BRANCH   3   5
HETATM    5  C7  UNL     1      -1.227   5.334  12.964  1.00  0.00     0.122 C 
BRANCH   5   6
HETATM    6  C6  UNL     1      -1.837   6.010  14.219  1.00  0.00     0.020 C 
BRANCH   6   7
HETATM    7  C5  UNL     1      -2.178   7.428  13.825  1.00  0.00     0.002 C 
BRANCH   7   8
HETATM    8  C4  UNL     1      -2.534   8.147  15.109  1.00  0.00     0.000 C 
BRANCH   8   9
HETATM    9  C3  UNL     1      -1.377   8.863  15.703  1.00  0.00    -0.000 C 
BRANCH   9  10
HETATM   10  C2  UNL     1      -0.914   9.955  14.775  1.00  0.00    -0.005 C 
HETATM   11  C1  UNL     1       0.505  10.316  15.186  1.00  0.00     0.005 C 
ENDBRANCH   9  10
ENDBRANCH   8   9
ENDBRANCH   7   8
ENDBRANCH   6   7
ENDBRANCH   5   6
ENDBRANCH   3   5
ENDBRANCH   1   3
BRANCH   1  12
HETATM   12  N2  UNL     1      -3.849   2.851  13.496  1.00  0.00    -0.358 N 
HETATM   13  C9  UNL     1      -4.514   1.702  12.836  1.00  0.00     0.128 C 
HETATM   14  C10 UNL     1      -4.342   0.435  13.625  1.00  0.00     0.054 C 
HETATM   15  C11 UNL     1      -4.305   0.664  15.102  1.00  0.00     0.155 C 
HETATM   16  O1  UNL     1      -5.103  -0.158  15.857  1.00  0.00    -0.281 OA
HETATM   17  C13 UNL     1      -5.060   1.988  15.320  1.00  0.00     0.051 C 
HETATM   18  N3  UNL     1      -5.209   0.478  17.049  1.00  0.00    -0.100 NA
HETATM   19  C12 UNL     1      -5.283   1.903  16.784  1.00  0.00     0.151 C 
HETATM   20  C14 UNL     1      -4.045   3.057  14.907  1.00  0.00     0.133 C 
ENDBRANCH   1  12
TORSDOF 8
ENDMDL
MODEL 3
REMARK VINA RESULT: -6.409989434      3.643      4.543
REMARK  8 active torsions:
REMARK  status: ('A' for Active; 'I' for Inactive)
REMARK    1  A    between atoms: C2_2  and  C3_3 
REMARK    2  A    between atoms: C3_3  and  C4_4 
REMARK    3  A    between atoms: C4_4  and  C5_5 
REMARK    4  A    between atoms: C5_5  and  C6_6 
REMARK    5  A    between atoms: C6_6  and  C7_7 
REMARK    6  A    between atoms: C7_7  and  N1_8 
REMARK    7  A    between atoms: N1_8  and  C8_10 
REMARK    8  A    between atoms: C8_10  and  N2_12 
ROOT
HETATM    1  C8  UNL     1      -4.010   2.485  12.758  1.00  0.00     0.169 C 
HETATM    2  S1  UNL     1      -4.800   2.219  11.285  1.00  0.00    -0.041 SA
ENDROOT
BRANCH   1   3
HETATM    3  N1  UNL     1      -2.766   3.077  12.636  1.00  0.00    -0.367 N 
ATOM      4  H1  UNL     1      -1.972   2.450  12.505  1.00  0.00     0.161 HD
BRANCH   3   5
HETATM    5  C7  UNL     1      -2.481   4.463  12.673  1.00  0.00     0.122 C 
BRANCH   5   6
HETATM    6  C6  UNL     1      -2.278   4.864  14.156  1.00  0.00     0.020 C 
BRANCH   6   7
HETATM    7  C5  UNL     1      -3.265   5.969  14.446  1.00  0.00     0.002 C 
BRANCH   7   8
HETATM    8  C4  UNL     1      -3.101   6.983  13.334  1.00  0.00     0.000 C 
BRANCH   8   9
HETATM    9  C3  UNL     1      -2.131   8.055  13.676  1.00  0.00    -0.000 C 
BRANCH   9  10
HETATM   10  C2  UNL     1      -2.240   8.401  15.137  1.00  0.00    -0.005 C 
HETATM   11  C1  UNL     1      -1.027   9.252  15.483  1.00  0.00     0.005 C 
ENDBRANCH   9  10
ENDBRANCH   8   9
ENDBRANCH   7   8
ENDBRANCH   6   7
ENDBRANCH   5   6
ENDBRANCH   3   5
ENDBRANCH   1   3
BRANCH   1  12
HETATM   12  N2  UNL     1      -4.658   2.104  13.920  1.00  0.00    -0.358 N 
HETATM   13  C9  UNL     1      -4.444   0.708  14.371  1.00  0.00     0.128 C 
HETATM   14  C10 UNL     1      -4.121   0.644  15.837  1.00  0.00     0.054 C 
HETATM   15  C11 UNL     1      -4.810   1.702  16.638  1.00  0.00     0.155 C 
HETATM   16  O1  UNL     1      -5.437   1.275  17.781  1.00  0.00    -0.281 OA
HETATM   17  C13 UNL     1      -6.055   2.078  15.814  1.00  0.00     0.051 C 
HETATM   18  N3  UNL     1      -6.289   2.282  18.093  1.00  0.00    -0.100 NA
HETATM   19  C12 UNL     1      -6.820   2.812  16.851  1.00  0.00     0.151 C 
HETATM   20  C14 UNL     1      -5.498   2.972  14.703  1.00  0.00     0.133 C 
ENDBRANCH   1  12
TORSDOF 8
ENDMDL
MODEL 4
REMARK VINA RESULT: -6.237951654      2.021      2.945
REMARK  8 active torsions:
REMARK  status: ('A' for Active; 'I' for Inactive)
REMARK    1  A    between atoms: C2_2  and  C3_3 
REMARK    2  A    between atoms: C3_3  and  C4_4 
REMARK    3  A    between atoms: C4_4  and  C5_5 
REMARK    4  A    between atoms: C5_5  and  C6_6 
REMARK    5  A    between atoms: C6_6  and  C7_7 
REMARK    6  A    between atoms: C7_7  and  N1_8 
REMARK    7  A    between atoms: N1_8  and  C8_10 
REMARK    8  A    between atoms: C8_10  and  N2_12 
ROOT
HETATM    1  C8  UNL     1      -3.824   2.828  12.889  1.00  0.00     0.169 C 
HETATM    2  S1  UNL     1      -4.540   2.693  11.362  1.00  0.00    -0.041 SA
ENDROOT
BRANCH   1   3
HETATM    3  N1  UNL     1      -2.569   3.410  12.878  1.00  0.00    -0.367 N 
ATOM      4  H1  UNL     1      -1.774   2.783  13.005  1.00  0.00     0.161 HD
BRANCH   3   5
HETATM    5  C7  UNL     1      -2.274   4.783  12.709  1.00  0.00     0.122 C 
BRANCH   5   6
HETATM    6  C6  UNL     1      -2.368   5.461  14.100  1.00  0.00     0.020 C 
BRANCH   6   7
HETATM    7  C5  UNL     1      -3.615   6.312  14.085  1.00  0.00     0.002 C 
BRANCH   7   8
HETATM    8  C4  UNL     1      -3.862   6.672  12.636  1.00  0.00     0.000 C 
BRANCH   8   9
HETATM    9  C3  UNL     1      -5.282   6.492  12.236  1.00  0.00    -0.000 C 
BRANCH   9  10
HETATM   10  C2  UNL     1      -5.633   7.457  11.135  1.00  0.00    -0.005 C 
HETATM   11  C1  UNL     1      -7.088   7.852  11.337  1.00  0.00     0.005 C 
ENDBRANCH   9  10
ENDBRANCH   8   9
ENDBRANCH   7   8
ENDBRANCH   6   7
ENDBRANCH   5   6
ENDBRANCH   3   5
ENDBRANCH   1   3
BRANCH   1  12
HETATM   12  N2  UNL     1      -4.534   2.364  13.983  1.00  0.00    -0.358 N 
HETATM   13  C9  UNL     1      -4.392   0.924  14.304  1.00  0.00     0.128 C 
HETATM   14  C10 UNL     1      -4.134   0.707  15.769  1.00  0.00     0.054 C 
HETATM   15  C11 UNL     1      -4.817   1.711  16.641  1.00  0.00     0.155 C 
HETATM   16  O1  UNL     1      -5.509   1.203  17.711  1.00  0.00    -0.281 OA
HETATM   17  C13 UNL     1      -6.012   2.215  15.809  1.00  0.00     0.051 C 
HETATM   18  N3  UNL     1      -6.335   2.209  18.086  1.00  0.00    -0.100 NA
HETATM   19  C12 UNL     1      -6.793   2.876  16.881  1.00  0.00     0.151 C 
HETATM   20  C14 UNL     1      -5.375   3.187  14.813  1.00  0.00     0.133 C 
ENDBRANCH   1  12
TORSDOF 8
ENDMDL
MODEL 5
REMARK VINA RESULT: -6.222965610      2.289      3.836
REMARK  8 active torsions:
REMARK  status: ('A' for Active; 'I' for Inactive)
REMARK    1  A    between atoms: C2_2  and  C3_3 
REMARK    2  A    between atoms: C3_3  and  C4_4 
REMARK    3  A    between atoms: C4_4  and  C5_5 
REMARK    4  A    between atoms: C5_5  and  C6_6 
REMARK    5  A    between atoms: C6_6  and  C7_7 
REMARK    6  A    between atoms: C7_7  and  N1_8 
REMARK    7  A    between atoms: N1_8  and  C8_10 
REMARK    8  A    between atoms: C8_10  and  N2_12 
ROOT
HETATM    1  C8  UNL     1      -3.254   3.903  12.146  1.00  0.00     0.169 C 
HETATM    2  S1  UNL     1      -1.584   4.061  12.375  1.00  0.00    -0.041 SA
ENDROOT
BRANCH   1   3
HETATM    3  N1  UNL     1      -3.768   4.712  11.149  1.00  0.00    -0.367 N 
ATOM      4  H1  UNL     1      -3.379   4.588  10.214  1.00  0.00     0.161 HD
BRANCH   3   5
HETATM    5  C7  UNL     1      -4.778   5.693  11.291  1.00  0.00     0.122 C 
BRANCH   5   6
HETATM    6  C6  UNL     1      -4.353   6.646  12.438  1.00  0.00     0.020 C 
BRANCH   6   7
HETATM    7  C5  UNL     1      -3.443   7.684  11.825  1.00  0.00     0.002 C 
BRANCH   7   8
HETATM    8  C4  UNL     1      -2.372   7.967  12.856  1.00  0.00     0.000 C 
BRANCH   8   9
HETATM    9  C3  UNL     1      -2.661   7.334  14.169  1.00  0.00    -0.000 C 
BRANCH   9  10
HETATM   10  C2  UNL     1      -2.307   8.279  15.286  1.00  0.00    -0.005 C 
HETATM   11  C1  UNL     1      -1.737   9.534  14.643  1.00  0.00     0.005 C 
ENDBRANCH   9  10
ENDBRANCH   8   9
ENDBRANCH   7   8
ENDBRANCH   6   7
ENDBRANCH   5   6
ENDBRANCH   3   5
ENDBRANCH   1   3
BRANCH   1  12
HETATM   12  N2  UNL     1      -3.937   3.005  12.947  1.00  0.00    -0.358 N 
HETATM   13  C9  UNL     1      -4.617   1.883  12.255  1.00  0.00     0.128 C 
HETATM   14  C10 UNL     1      -4.329   0.567  12.920  1.00  0.00     0.054 C 
HETATM   15  C11 UNL     1      -4.165   0.680  14.402  1.00  0.00     0.155 C 
HETATM   16  O1  UNL     1      -4.862  -0.232  15.154  1.00  0.00    -0.281 OA
HETATM   17  C13 UNL     1      -4.945   1.950  14.794  1.00  0.00     0.051 C 
HETATM   18  N3  UNL     1      -4.882   0.303  16.398  1.00  0.00    -0.100 NA
HETATM   19  C12 UNL     1      -5.031   1.740  16.259  1.00  0.00     0.151 C 
HETATM   20  C14 UNL     1      -4.010   3.090  14.382  1.00  0.00     0.133 C 
ENDBRANCH   1  12
TORSDOF 8
ENDMDL
