MODEL 1
REMARK VINA RESULT: -6.611591035      0.000      0.000
REMARK  8 active torsions:
REMARK  status: ('A' for Active; 'I' for Inactive)
REMARK    1  A    between atoms: C2_2  and  O1_3 
REMARK    2  A    between atoms: O1_3  and  C3_4 
REMARK    3  A    between atoms: C3_4  and  C4_5 
REMARK    4  A    between atoms: C4_5  and  O2_6 
REMARK    5  A    between atoms: O2_6  and  N1_7 
REMARK    6  A    between atoms: N1_7  and  C5_9 
REMARK    7  A    between atoms: C5_9  and  N2_11 
REMARK    8  A    between atoms: N2_11  and  C6_13 
ROOT
HETATM    1  N2  UNL     1      -3.101   2.471  12.698  1.00  0.00    -0.356 N 
ATOM      2  H2  UNL     1      -2.111   2.226  12.703  1.00  0.00     0.162 HD
ENDROOT
BRANCH   1   3
HETATM    3  C5  UNL     1      -4.020   1.425  12.423  1.00  0.00     0.192 C 
HETATM    4  S1  UNL     1      -4.938   1.329  11.083  1.00  0.00    -0.039 SA
BRANCH   3   5
HETATM    5  N1  UNL     1      -4.175   0.356  13.365  1.00  0.00    -0.241 N 
ATOM      6  H1  UNL     1      -3.700  -0.526  13.169  1.00  0.00     0.197 HD
BRANCH   5   7
HETATM    7  O2  UNL     1      -4.902   0.441  14.481  1.00  0.00    -0.276 OA
BRANCH   7   8
HETATM    8  C4  UNL     1      -4.114   0.587  15.630  1.00  0.00     0.228 C 
BRANCH   8   9
HETATM    9  C3  UNL     1      -4.525   1.840  16.341  1.00  0.00     0.203 C 
BRANCH   9  10
HETATM   10  O1  UNL     1      -5.195   1.491  17.532  1.00  0.00    -0.362 OA
BRANCH  10  11
HETATM   11  C2  UNL     1      -6.513   1.762  17.781  1.00  0.00     0.124 C 
HETATM   12  C1  UNL     1      -7.462   1.291  17.016  1.00  0.00     0.037 C 
ENDBRANCH  10  11
ENDBRANCH   9  10
ENDBRANCH   8   9
ENDBRANCH   7   8
ENDBRANCH   5   7
ENDBRANCH   3   5
ENDBRANCH   1   3
BRANCH   1  13
HETATM   13  C6  UNL     1      -3.432   3.836  12.970  1.00  0.00     0.033 C 
HETATM   14  C7  UNL     1      -4.782   3.995  13.583  1.00  0.00     0.035 C 
HETATM   15  C8  UNL     1      -5.119   5.459  13.772  1.00  0.00    -0.012 C 
HETATM   16  C9  UNL     1      -4.981   6.245  12.498  1.00  0.00     0.009 C 
HETATM   17  C13 UNL     1      -4.171   6.007  14.805  1.00  0.00     0.009 C 
HETATM   18  C10 UNL     1      -3.540   6.133  12.054  1.00  0.00    -0.012 C 
HETATM   19  C11 UNL     1      -2.601   6.690  13.077  1.00  0.00     0.009 C 
HETATM   20  C15 UNL     1      -3.228   4.712  11.738  1.00  0.00     0.035 C 
HETATM   21  C12 UNL     1      -2.762   5.825  14.330  1.00  0.00    -0.012 C 
HETATM   22  C14 UNL     1      -2.438   4.407  13.996  1.00  0.00     0.035 C 
ENDBRANCH   1  13
TORSDOF 8
ENDMDL
MODEL 2
REMARK VINA RESULT: -6.550769249      0.063      1.639
REMARK  8 active torsions:
REMARK  status: ('A' for Active; 'I' for Inactive)
REMARK    1  A    between atoms: C2_2  and  O1_3 
REMARK    2  A    between atoms: O1_3  and  C3_4 
REMARK    3  A    between atoms: C3_4  and  C4_5 
REMARK    4  A    between atoms: C4_5  and  O2_6 
REMARK    5  A    between atoms: O2_6  and  N1_7 
REMARK    6  A    between atoms: N1_7  and  C5_9 
REMARK    7  A    between atoms: C5_9  and  N2_11 
REMARK    8  A    between atoms: N2_11  and  C6_13 
ROOT
HETATM    1  N2  UNL     1      -3.061   2.453  12.651  1.00  0.00    -0.356 N 
ATOM      2  H2  UNL     1      -2.078   2.184  12.640  1.00  0.00     0.162 HD
ENDROOT
BRANCH   1   3
HETATM    3  C5  UNL     1      -4.010   1.426  12.405  1.00  0.00     0.192 C 
HETATM    4  S1  UNL     1      -4.957   1.339  11.085  1.00  0.00    -0.039 SA
BRANCH   3   5
HETATM    5  N1  UNL     1      -4.173   0.372  13.362  1.00  0.00    -0.241 N 
ATOM      6  H1  UNL     1      -3.699  -0.514  13.182  1.00  0.00     0.197 HD
BRANCH   5   7
HETATM    7  O2  UNL     1      -4.904   0.475  14.474  1.00  0.00    -0.276 OA
BRANCH   7   8
HETATM    8  C4  UNL     1      -4.121   0.605  15.628  1.00  0.00     0.228 C 
BRANCH   8   9
HETATM    9  C3  UNL     1      -4.517   1.861  16.341  1.00  0.00     0.203 C 
BRANCH   9  10
HETATM   10  O1  UNL     1      -5.187   1.517  17.534  1.00  0.00    -0.362 OA
BRANCH  10  11
HETATM   11  C2  UNL     1      -6.508   1.780  17.777  1.00  0.00     0.124 C 
HETATM   12  C1  UNL     1      -7.452   1.284  17.020  1.00  0.00     0.037 C 
ENDBRANCH  10  11
ENDBRANCH   9  10
ENDBRANCH   8   9
ENDBRANCH   7   8
ENDBRANCH   5   7
ENDBRANCH   3   5
ENDBRANCH   1   3
BRANCH   1  13
HETATM   13  C6  UNL     1      -3.353   3.829  12.911  1.00  0.00     0.033 C 
HETATM   14  C7  UNL     1      -3.350   4.667  11.678  1.00  0.00     0.035 C 
HETATM   15  C8  UNL     1      -3.578   6.125  12.017  1.00  0.00    -0.012 C 
HETATM   16  C9  UNL     1      -2.607   6.630  13.045  1.00  0.00     0.009 C 
HETATM   17  C13 UNL     1      -4.981   6.246  12.548  1.00  0.00     0.009 C 
HETATM   18  C10 UNL     1      -2.806   5.806  14.297  1.00  0.00    -0.012 C 
HETATM   19  C11 UNL     1      -4.198   5.939  14.831  1.00  0.00     0.009 C 
HETATM   20  C15 UNL     1      -2.459   4.386  14.015  1.00  0.00     0.035 C 
HETATM   21  C12 UNL     1      -5.130   5.372  13.756  1.00  0.00    -0.012 C 
HETATM   22  C14 UNL     1      -4.772   3.948  13.493  1.00  0.00     0.035 C 
ENDBRANCH   1  13
TORSDOF 8
ENDMDL
MODEL 3
REMARK VINA RESULT: -6.529051483      0.108      1.645
REMARK  8 active torsions:
REMARK  status: ('A' for Active; 'I' for Inactive)
REMARK    1  A    between atoms: C2_2  and  O1_3 
REMARK    2  A    between atoms: O1_3  and  C3_4 
REMARK    3  A    between atoms: C3_4  and  C4_5 
REMARK    4  A    between atoms: C4_5  and  O2_6 
REMARK    5  A    between atoms: O2_6  and  N1_7 
REMARK    6  A    between atoms: N1_7  and  C5_9 
REMARK    7  A    between atoms: C5_9  and  N2_11 
REMARK    8  A    between atoms: N2_11  and  C6_13 
ROOT
HETATM    1  N2  UNL     1      -3.004   2.519  12.619  1.00  0.00    -0.356 N 
ATOM      2  H2  UNL     1      -2.017   2.275  12.542  1.00  0.00     0.162 HD
ENDROOT
BRANCH   1   3
HETATM    3  C5  UNL     1      -3.943   1.480  12.388  1.00  0.00     0.192 C 
HETATM    4  S1  UNL     1      -4.890   1.364  11.070  1.00  0.00    -0.039 SA
BRANCH   3   5
HETATM    5  N1  UNL     1      -4.094   0.437  13.360  1.00  0.00    -0.241 N 
ATOM      6  H1  UNL     1      -3.600  -0.441  13.198  1.00  0.00     0.197 HD
BRANCH   5   7
HETATM    7  O2  UNL     1      -4.839   0.542  14.462  1.00  0.00    -0.276 OA
BRANCH   7   8
HETATM    8  C4  UNL     1      -4.074   0.750  15.616  1.00  0.00     0.228 C 
BRANCH   8   9
HETATM    9  C3  UNL     1      -4.585   1.968  16.322  1.00  0.00     0.203 C 
BRANCH   9  10
HETATM   10  O1  UNL     1      -5.198   1.573  17.530  1.00  0.00    -0.362 OA
BRANCH  10  11
HETATM   11  C2  UNL     1      -6.522   1.767  17.819  1.00  0.00     0.124 C 
HETATM   12  C1  UNL     1      -7.465   1.272  17.062  1.00  0.00     0.037 C 
ENDBRANCH  10  11
ENDBRANCH   9  10
ENDBRANCH   8   9
ENDBRANCH   7   8
ENDBRANCH   5   7
ENDBRANCH   3   5
ENDBRANCH   1   3
BRANCH   1  13
HETATM   13  C6  UNL     1      -3.311   3.877  12.949  1.00  0.00     0.033 C 
HETATM   14  C7  UNL     1      -2.335   4.478  13.902  1.00  0.00     0.035 C 
HETATM   15  C8  UNL     1      -2.750   5.883  14.285  1.00  0.00    -0.012 C 
HETATM   16  C9  UNL     1      -4.158   5.939  14.808  1.00  0.00     0.009 C 
HETATM   17  C13 UNL     1      -2.640   6.735  13.049  1.00  0.00     0.009 C 
HETATM   18  C10 UNL     1      -5.068   5.449  13.705  1.00  0.00    -0.012 C 
HETATM   19  C11 UNL     1      -4.966   6.305  12.482  1.00  0.00     0.009 C 
HETATM   20  C15 UNL     1      -4.759   4.023  13.405  1.00  0.00     0.035 C 
HETATM   21  C12 UNL     1      -3.525   6.172  11.979  1.00  0.00    -0.012 C 
HETATM   22  C14 UNL     1      -3.237   4.740  11.677  1.00  0.00     0.035 C 
ENDBRANCH   1  13
TORSDOF 8
ENDMDL
MODEL 4
REMARK VINA RESULT: -6.275567510      1.027      2.065
REMARK  8 active torsions:
REMARK  status: ('A' for Active; 'I' for Inactive)
REMARK    1  A    between atoms: C2_2  and  O1_3 
REMARK    2  A    between atoms: O1_3  and  C3_4 
REMARK    3  A    between atoms: C3_4  and  C4_5 
REMARK    4  A    between atoms: C4_5  and  O2_6 
REMARK    5  A    between atoms: O2_6  and  N1_7 
REMARK    6  A    between atoms: N1_7  and  C5_9 
REMARK    7  A    between atoms: C5_9  and  N2_11 
REMARK    8  A    between atoms: N2_11  and  C6_13 
ROOT
HETATM    1  N2  UNL     1      -4.852   3.262  12.963  1.00  0.00    -0.356 N 
ATOM      2  H2  UNL     1      -5.797   3.480  13.276  1.00  0.00     0.162 HD
ENDROOT
BRANCH   1   3
HETATM    3  C5  UNL     1      -4.592   1.916  12.595  1.00  0.00     0.192 C 
HETATM    4  S1  UNL     1      -4.888   1.286  11.123  1.00  0.00    -0.039 SA
BRANCH   3   5
HETATM    5  N1  UNL     1      -4.025   1.018  13.556  1.00  0.00    -0.241 N 
ATOM      6  H1  UNL     1      -3.010   0.915  13.573  1.00  0.00     0.197 HD
BRANCH   5   7
HETATM    7  O2  UNL     1      -4.740   0.308  14.432  1.00  0.00    -0.276 OA
BRANCH   7   8
HETATM    8  C4  UNL     1      -4.213   0.357  15.728  1.00  0.00     0.228 C 
BRANCH   8   9
HETATM    9  C3  UNL     1      -4.394   1.742  16.271  1.00  0.00     0.203 C 
BRANCH   9  10
HETATM   10  O1  UNL     1      -5.648   2.235  15.855  1.00  0.00    -0.362 OA
BRANCH  10  11
HETATM   11  C2  UNL     1      -6.740   2.348  16.673  1.00  0.00     0.124 C 
HETATM   12  C1  UNL     1      -7.410   1.296  17.065  1.00  0.00     0.037 C 
ENDBRANCH  10  11
ENDBRANCH   9  10
ENDBRANCH   8   9
ENDBRANCH   7   8
ENDBRANCH   5   7
ENDBRANCH   3   5
ENDBRANCH   1   3
BRANCH   1  13
HETATM   13  C6  UNL     1      -3.913   4.341  12.937  1.00  0.00     0.033 C 
HETATM   14  C7  UNL     1      -3.006   4.294  11.754  1.00  0.00     0.035 C 
HETATM   15  C8  UNL     1      -1.979   5.404  11.817  1.00  0.00    -0.012 C 
HETATM   16  C9  UNL     1      -1.218   5.403  13.113  1.00  0.00     0.009 C 
HETATM   17  C13 UNL     1      -2.719   6.707  11.670  1.00  0.00     0.009 C 
HETATM   18  C10 UNL     1      -2.221   5.608  14.225  1.00  0.00    -0.012 C 
HETATM   19  C11 UNL     1      -2.945   6.910  14.083  1.00  0.00     0.009 C 
HETATM   20  C15 UNL     1      -3.163   4.456  14.260  1.00  0.00     0.035 C 
HETATM   21  C12 UNL     1      -3.729   6.829  12.770  1.00  0.00    -0.012 C 
HETATM   22  C14 UNL     1      -4.672   5.674  12.827  1.00  0.00     0.035 C 
ENDBRANCH   1  13
TORSDOF 8
ENDMDL
MODEL 5
REMARK VINA RESULT: -6.232558326      1.222      2.034
REMARK  8 active torsions:
REMARK  status: ('A' for Active; 'I' for Inactive)
REMARK    1  A    between atoms: C2_2  and  O1_3 
REMARK    2  A    between atoms: O1_3  and  C3_4 
REMARK    3  A    between atoms: C3_4  and  C4_5 
REMARK    4  A    between atoms: C4_5  and  O2_6 
REMARK    5  A    between atoms: O2_6  and  N1_7 
REMARK    6  A    between atoms: N1_7  and  C5_9 
REMARK    7  A    between atoms: C5_9  and  N2_11 
REMARK    8  A    between atoms: N2_11  and  C6_13 
ROOT
HETATM    1  N2  UNL     1      -2.652   3.152  12.288  1.00  0.00    -0.356 N 
ATOM      2  H2  UNL     1      -1.820   2.776  11.833  1.00  0.00     0.162 HD
ENDROOT
BRANCH   1   3
HETATM    3  C5  UNL     1      -3.717   2.245  12.529  1.00  0.00     0.192 C 
HETATM    4  S1  UNL     1      -4.806   1.779  11.413  1.00  0.00    -0.039 SA
BRANCH   3   5
HETATM    5  N1  UNL     1      -3.875   1.673  13.833  1.00  0.00    -0.241 N 
ATOM      6  H1  UNL     1      -4.180   0.702  13.895  1.00  0.00     0.197 HD
BRANCH   5   7
HETATM    7  O2  UNL     1      -3.650   2.332  14.972  1.00  0.00    -0.276 OA
BRANCH   7   8
HETATM    8  C4  UNL     1      -4.007   1.591  16.106  1.00  0.00     0.228 C 
BRANCH   8   9
HETATM    9  C3  UNL     1      -4.596   0.287  15.665  1.00  0.00     0.203 C 
BRANCH   9  10
HETATM   10  O1  UNL     1      -5.593  -0.098  16.587  1.00  0.00    -0.362 OA
BRANCH  10  11
HETATM   11  C2  UNL     1      -6.279   0.775  17.386  1.00  0.00     0.124 C 
HETATM   12  C1  UNL     1      -7.447   1.247  17.036  1.00  0.00     0.037 C 
ENDBRANCH  10  11
ENDBRANCH   9  10
ENDBRANCH   8   9
ENDBRANCH   7   8
ENDBRANCH   5   7
ENDBRANCH   3   5
ENDBRANCH   1   3
BRANCH   1  13
HETATM   13  C6  UNL     1      -2.634   4.542  12.623  1.00  0.00     0.033 C 
HETATM   14  C7  UNL     1      -1.739   4.851  13.776  1.00  0.00     0.035 C 
HETATM   15  C8  UNL     1      -1.821   6.317  14.145  1.00  0.00    -0.012 C 
HETATM   16  C9  UNL     1      -3.234   6.764  14.392  1.00  0.00     0.009 C 
HETATM   17  C13 UNL     1      -1.240   7.100  12.999  1.00  0.00     0.009 C 
HETATM   18  C10 UNL     1      -4.007   6.544  13.111  1.00  0.00    -0.012 C 
HETATM   19  C11 UNL     1      -3.434   7.334  11.977  1.00  0.00     0.009 C 
HETATM   20  C15 UNL     1      -4.047   5.088  12.802  1.00  0.00     0.035 C 
HETATM   21  C12 UNL     1      -2.015   6.803  11.752  1.00  0.00    -0.012 C 
HETATM   22  C14 UNL     1      -2.077   5.346  11.436  1.00  0.00     0.035 C 
ENDBRANCH   1  13
TORSDOF 8
ENDMDL
