MODEL 1
REMARK VINA RESULT: -6.706851804      0.000      0.000
REMARK  7 active torsions:
REMARK  status: ('A' for Active; 'I' for Inactive)
REMARK       I    between atoms: C1_2  and  N1_3 
REMARK    1  A    between atoms: C1_2  and  O2_14 
REMARK    2  A    between atoms: O2_14  and  C9_15 
REMARK    3  A    between atoms: C9_15  and  C10_16 
REMARK    4  A    between atoms: C10_16  and  N3_17 
REMARK    5  A    between atoms: N3_17  and  C11_20 
REMARK    6  A    between atoms: C11_20  and  C12_21 
REMARK    7  A    between atoms: C12_21  and  C13_22 
ROOT
HETATM    1  O1  UNL     1      -3.682   4.115   9.712  1.00  0.00    -0.238 OA
HETATM    2  C1  UNL     1      -4.254   3.554  10.702  1.00  0.00     0.366 C 
HETATM    3  N1  UNL     1      -4.453   4.292  11.880  1.00  0.00    -0.292 N 
ATOM      4  H1  UNL     1      -5.398   4.317  12.265  1.00  0.00     0.172 HD
HETATM    5  C2  UNL     1      -3.523   4.949  12.522  1.00  0.00     0.081 C 
HETATM    6  C3  UNL     1      -4.080   5.610  13.708  1.00  0.00     0.076 C 
HETATM    7  C4  UNL     1      -3.296   6.746  14.261  1.00  0.00     0.007 C 
HETATM    8  C5  UNL     1      -1.818   6.648  14.199  1.00  0.00     0.000 C 
HETATM    9  C6  UNL     1      -1.239   7.560  13.144  1.00  0.00     0.002 C 
HETATM   10  C7  UNL     1      -1.493   7.128  11.740  1.00  0.00     0.020 C 
HETATM   11  C8  UNL     1      -1.170   5.676  11.582  1.00  0.00     0.121 C 
HETATM   12  N2  UNL     1      -2.284   4.814  11.879  1.00  0.00    -0.380 N 
ATOM     13  H2  UNL     1      -2.135   3.866  11.534  1.00  0.00     0.160 HD
ENDROOT
BRANCH   2  14
HETATM   14  O2  UNL     1      -4.623   2.231  10.493  1.00  0.00    -0.302 OA
BRANCH  14  15
HETATM   15  C9  UNL     1      -5.185   1.447  11.534  1.00  0.00     0.208 C 
BRANCH  15  16
HETATM   16  C10 UNL     1      -4.045   0.799  12.308  1.00  0.00     0.259 C 
BRANCH  16  17
HETATM   17  N3  UNL     1      -3.901   1.428  13.608  1.00  0.00    -0.073 N 
ATOM     18  H32 UNL     1      -2.929   1.690  13.770  1.00  0.00     0.277 HD
ATOM     19  H31 UNL     1      -4.334   2.352  13.605  1.00  0.00     0.277 HD
BRANCH  17  20
HETATM   20  C11 UNL     1      -4.392   0.656  14.697  1.00  0.00     0.232 C 
BRANCH  20  21
HETATM   21  C12 UNL     1      -4.777   1.648  15.804  1.00  0.00     0.032 C 
BRANCH  21  22
HETATM   22  C13 UNL     1      -5.698   0.922  16.762  1.00  0.00    -0.013 A 
HETATM   23  C14 UNL     1      -7.109   1.381  16.910  1.00  0.00     0.005 A 
HETATM   24  C15 UNL     1      -6.143   1.814  17.919  1.00  0.00     0.005 A 
ENDBRANCH  21  22
ENDBRANCH  20  21
ENDBRANCH  17  20
ENDBRANCH  16  17
ENDBRANCH  15  16
ENDBRANCH  14  15
ENDBRANCH   2  14
TORSDOF 7
ENDMDL
MODEL 2
REMARK VINA RESULT: -6.423556767      2.082      2.982
REMARK  7 active torsions:
REMARK  status: ('A' for Active; 'I' for Inactive)
REMARK       I    between atoms: C1_2  and  N1_3 
REMARK    1  A    between atoms: C1_2  and  O2_14 
REMARK    2  A    between atoms: O2_14  and  C9_15 
REMARK    3  A    between atoms: C9_15  and  C10_16 
REMARK    4  A    between atoms: C10_16  and  N3_17 
REMARK    5  A    between atoms: N3_17  and  C11_20 
REMARK    6  A    between atoms: C11_20  and  C12_21 
REMARK    7  A    between atoms: C12_21  and  C13_22 
ROOT
HETATM    1  O1  UNL     1      -1.909   4.410  14.732  1.00  0.00    -0.238 OA
HETATM    2  C1  UNL     1      -1.971   4.409  13.460  1.00  0.00     0.366 C 
HETATM    3  N1  UNL     1      -1.405   5.480  12.749  1.00  0.00    -0.292 N 
ATOM      4  H1  UNL     1      -0.745   5.253  12.005  1.00  0.00     0.172 HD
HETATM    5  C2  UNL     1      -1.656   6.744  12.968  1.00  0.00     0.081 C 
HETATM    6  C3  UNL     1      -0.890   7.591  12.048  1.00  0.00     0.076 C 
HETATM    7  C4  UNL     1      -0.696   9.007  12.459  1.00  0.00     0.007 C 
HETATM    8  C5  UNL     1      -1.810   9.665  13.182  1.00  0.00     0.000 C 
HETATM    9  C6  UNL     1      -1.502   9.837  14.651  1.00  0.00     0.002 C 
HETATM   10  C7  UNL     1      -1.515   8.573  15.441  1.00  0.00     0.020 C 
HETATM   11  C8  UNL     1      -2.747   7.784  15.130  1.00  0.00     0.121 C 
HETATM   12  N2  UNL     1      -2.582   6.894  14.012  1.00  0.00    -0.380 N 
ATOM     13  H2  UNL     1      -3.324   6.196  13.966  1.00  0.00     0.160 HD
ENDROOT
BRANCH   2  14
HETATM   14  O2  UNL     1      -2.618   3.311  12.907  1.00  0.00    -0.302 OA
BRANCH  14  15
HETATM   15  C9  UNL     1      -4.008   3.338  12.620  1.00  0.00     0.208 C 
BRANCH  15  16
HETATM   16  C10 UNL     1      -4.727   2.526  13.689  1.00  0.00     0.259 C 
BRANCH  16  17
HETATM   17  N3  UNL     1      -3.934   1.368  14.058  1.00  0.00    -0.073 N 
ATOM     18  H32 UNL     1      -3.799   0.759  13.251  1.00  0.00     0.277 HD
ATOM     19  H31 UNL     1      -2.967   1.642  14.235  1.00  0.00     0.277 HD
BRANCH  17  20
HETATM   20  C11 UNL     1      -4.446   0.625  15.157  1.00  0.00     0.232 C 
BRANCH  20  21
HETATM   21  C12 UNL     1      -4.719   1.632  16.283  1.00  0.00     0.032 C 
BRANCH  21  22
HETATM   22  C13 UNL     1      -5.725   1.001  17.221  1.00  0.00    -0.013 A 
HETATM   23  C14 UNL     1      -7.177   1.293  17.041  1.00  0.00     0.005 A 
HETATM   24  C15 UNL     1      -6.454   2.043  18.068  1.00  0.00     0.005 A 
ENDBRANCH  21  22
ENDBRANCH  20  21
ENDBRANCH  17  20
ENDBRANCH  16  17
ENDBRANCH  15  16
ENDBRANCH  14  15
ENDBRANCH   2  14
TORSDOF 7
ENDMDL
MODEL 3
REMARK VINA RESULT: -6.412980772      1.801      6.156
REMARK  7 active torsions:
REMARK  status: ('A' for Active; 'I' for Inactive)
REMARK       I    between atoms: C1_2  and  N1_3 
REMARK    1  A    between atoms: C1_2  and  O2_14 
REMARK    2  A    between atoms: O2_14  and  C9_15 
REMARK    3  A    between atoms: C9_15  and  C10_16 
REMARK    4  A    between atoms: C10_16  and  N3_17 
REMARK    5  A    between atoms: N3_17  and  C11_20 
REMARK    6  A    between atoms: C11_20  and  C12_21 
REMARK    7  A    between atoms: C12_21  and  C13_22 
ROOT
HETATM    1  O1  UNL     1      -4.806   3.286  12.490  1.00  0.00    -0.238 OA
HETATM    2  C1  UNL     1      -3.831   2.541  12.835  1.00  0.00     0.366 C 
HETATM    3  N1  UNL     1      -4.035   1.572  13.831  1.00  0.00    -0.292 N 
ATOM      4  H1  UNL     1      -3.762   0.613  13.616  1.00  0.00     0.172 HD
HETATM    5  C2  UNL     1      -4.547   1.803  15.011  1.00  0.00     0.081 C 
HETATM    6  C3  UNL     1      -4.620   0.565  15.796  1.00  0.00     0.076 C 
HETATM    7  C4  UNL     1      -5.579   0.558  16.932  1.00  0.00     0.007 C 
HETATM    8  C5  UNL     1      -5.753   1.822  17.685  1.00  0.00     0.000 C 
HETATM    9  C6  UNL     1      -7.074   2.485  17.373  1.00  0.00     0.002 C 
HETATM   10  C7  UNL     1      -7.160   3.090  16.013  1.00  0.00     0.020 C 
HETATM   11  C8  UNL     1      -5.944   3.917  15.739  1.00  0.00     0.121 C 
HETATM   12  N2  UNL     1      -4.865   3.162  15.159  1.00  0.00    -0.380 N 
ATOM     13  H2  UNL     1      -4.151   3.766  14.753  1.00  0.00     0.160 HD
ENDROOT
BRANCH   2  14
HETATM   14  O2  UNL     1      -2.641   2.787  12.164  1.00  0.00    -0.302 OA
BRANCH  14  15
HETATM   15  C9  UNL     1      -2.293   4.092  11.727  1.00  0.00     0.208 C 
BRANCH  15  16
HETATM   16  C10 UNL     1      -1.074   4.547  12.517  1.00  0.00     0.259 C 
BRANCH  16  17
HETATM   17  N3  UNL     1      -1.391   4.615  13.932  1.00  0.00    -0.073 N 
ATOM     18  H32 UNL     1      -1.734   3.713  14.262  1.00  0.00     0.277 HD
ATOM     19  H31 UNL     1      -0.536   4.690  14.484  1.00  0.00     0.277 HD
BRANCH  17  20
HETATM   20  C11 UNL     1      -2.301   5.649  14.287  1.00  0.00     0.232 C 
BRANCH  20  21
HETATM   21  C12 UNL     1      -1.588   6.980  14.010  1.00  0.00     0.032 C 
BRANCH  21  22
HETATM   22  C13 UNL     1      -2.260   8.039  14.857  1.00  0.00    -0.013 A 
HETATM   23  C14 UNL     1      -1.973   9.478  14.593  1.00  0.00     0.005 A 
HETATM   24  C15 UNL     1      -1.254   8.832  15.690  1.00  0.00     0.005 A 
ENDBRANCH  21  22
ENDBRANCH  20  21
ENDBRANCH  17  20
ENDBRANCH  16  17
ENDBRANCH  15  16
ENDBRANCH  14  15
ENDBRANCH   2  14
TORSDOF 7
ENDMDL
MODEL 4
REMARK VINA RESULT: -6.378971846      1.388      1.628
REMARK  7 active torsions:
REMARK  status: ('A' for Active; 'I' for Inactive)
REMARK       I    between atoms: C1_2  and  N1_3 
REMARK    1  A    between atoms: C1_2  and  O2_14 
REMARK    2  A    between atoms: O2_14  and  C9_15 
REMARK    3  A    between atoms: C9_15  and  C10_16 
REMARK    4  A    between atoms: C10_16  and  N3_17 
REMARK    5  A    between atoms: N3_17  and  C11_20 
REMARK    6  A    between atoms: C11_20  and  C12_21 
REMARK    7  A    between atoms: C12_21  and  C13_22 
ROOT
HETATM    1  O1  UNL     1      -5.055   5.197  11.623  1.00  0.00    -0.238 OA
HETATM    2  C1  UNL     1      -4.874   4.668  12.768  1.00  0.00     0.366 C 
HETATM    3  N1  UNL     1      -4.438   5.477  13.830  1.00  0.00    -0.292 N 
ATOM      4  H1  UNL     1      -4.979   5.448  14.694  1.00  0.00     0.172 HD
HETATM    5  C2  UNL     1      -3.394   6.262  13.798  1.00  0.00     0.081 C 
HETATM    6  C3  UNL     1      -3.233   6.963  15.077  1.00  0.00     0.076 C 
HETATM    7  C4  UNL     1      -2.415   8.204  15.052  1.00  0.00     0.007 C 
HETATM    8  C5  UNL     1      -1.249   8.233  14.137  1.00  0.00     0.000 C 
HETATM    9  C6  UNL     1      -1.502   9.107  12.931  1.00  0.00     0.002 C 
HETATM   10  C7  UNL     1      -2.470   8.544  11.947  1.00  0.00     0.020 C 
HETATM   11  C8  UNL     1      -2.130   7.118  11.649  1.00  0.00     0.121 C 
HETATM   12  N2  UNL     1      -2.753   6.187  12.552  1.00  0.00    -0.380 N 
ATOM     13  H2  UNL     1      -2.721   5.232  12.197  1.00  0.00     0.160 HD
ENDROOT
BRANCH   2  14
HETATM   14  O2  UNL     1      -5.136   3.305  12.831  1.00  0.00    -0.302 OA
BRANCH  14  15
HETATM   15  C9  UNL     1      -4.447   2.380  12.003  1.00  0.00     0.208 C 
BRANCH  15  16
HETATM   16  C10 UNL     1      -4.246   1.095  12.794  1.00  0.00     0.259 C 
BRANCH  16  17
HETATM   17  N3  UNL     1      -3.749   1.398  14.124  1.00  0.00    -0.073 N 
ATOM     18  H32 UNL     1      -2.740   1.257  14.167  1.00  0.00     0.277 HD
ATOM     19  H31 UNL     1      -3.793   2.402  14.299  1.00  0.00     0.277 HD
BRANCH  17  20
HETATM   20  C11 UNL     1      -4.391   0.685  15.173  1.00  0.00     0.232 C 
BRANCH  20  21
HETATM   21  C12 UNL     1      -4.851   1.729  16.201  1.00  0.00     0.032 C 
BRANCH  21  22
HETATM   22  C13 UNL     1      -5.794   1.035  17.160  1.00  0.00    -0.013 A 
HETATM   23  C14 UNL     1      -7.245   1.380  17.139  1.00  0.00     0.005 A 
HETATM   24  C15 UNL     1      -6.411   2.007  18.164  1.00  0.00     0.005 A 
ENDBRANCH  21  22
ENDBRANCH  20  21
ENDBRANCH  17  20
ENDBRANCH  16  17
ENDBRANCH  15  16
ENDBRANCH  14  15
ENDBRANCH   2  14
TORSDOF 7
ENDMDL
MODEL 5
REMARK VINA RESULT: -6.319298533      3.380      6.951
REMARK  7 active torsions:
REMARK  status: ('A' for Active; 'I' for Inactive)
REMARK       I    between atoms: C1_2  and  N1_3 
REMARK    1  A    between atoms: C1_2  and  O2_14 
REMARK    2  A    between atoms: O2_14  and  C9_15 
REMARK    3  A    between atoms: C9_15  and  C10_16 
REMARK    4  A    between atoms: C10_16  and  N3_17 
REMARK    5  A    between atoms: N3_17  and  C11_20 
REMARK    6  A    between atoms: C11_20  and  C12_21 
REMARK    7  A    between atoms: C12_21  and  C13_22 
ROOT
HETATM    1  O1  UNL     1      -2.826   3.286  13.124  1.00  0.00    -0.238 OA
HETATM    2  C1  UNL     1      -3.845   3.964  12.773  1.00  0.00     0.366 C 
HETATM    3  N1  UNL     1      -4.810   4.292  13.740  1.00  0.00    -0.292 N 
ATOM      4  H1  UNL     1      -5.075   5.273  13.825  1.00  0.00     0.172 HD
HETATM    5  C2  UNL     1      -5.393   3.438  14.539  1.00  0.00     0.081 C 
HETATM    6  C3  UNL     1      -6.343   4.122  15.424  1.00  0.00     0.076 C 
HETATM    7  C4  UNL     1      -6.722   3.403  16.669  1.00  0.00     0.007 C 
HETATM    8  C5  UNL     1      -6.843   1.927  16.594  1.00  0.00     0.000 C 
HETATM    9  C6  UNL     1      -5.687   1.234  17.274  1.00  0.00     0.002 C 
HETATM   10  C7  UNL     1      -4.388   1.331  16.548  1.00  0.00     0.020 C 
HETATM   11  C8  UNL     1      -4.580   0.995  15.103  1.00  0.00     0.121 C 
HETATM   12  N2  UNL     1      -4.932   2.135  14.299  1.00  0.00    -0.380 N 
ATOM     13  H2  UNL     1      -4.816   1.950  13.303  1.00  0.00     0.160 HD
ENDROOT
BRANCH   2  14
HETATM   14  O2  UNL     1      -3.885   4.309  11.428  1.00  0.00    -0.302 OA
BRANCH  14  15
HETATM   15  C9  UNL     1      -3.751   5.658  11.007  1.00  0.00     0.208 C 
BRANCH  15  16
HETATM   16  C10 UNL     1      -5.125   6.161  10.585  1.00  0.00     0.259 C 
BRANCH  16  17
HETATM   17  N3  UNL     1      -5.496   7.324  11.372  1.00  0.00    -0.073 N 
ATOM     18  H32 UNL     1      -5.259   7.179  12.353  1.00  0.00     0.277 HD
ATOM     19  H31 UNL     1      -4.881   8.108  11.156  1.00  0.00     0.277 HD
BRANCH  17  20
HETATM   20  C11 UNL     1      -6.858   7.715  11.246  1.00  0.00     0.232 C 
BRANCH  20  21
HETATM   21  C12 UNL     1      -6.957   8.569   9.974  1.00  0.00     0.032 C 
BRANCH  21  22
HETATM   22  C13 UNL     1      -8.086   8.005   9.137  1.00  0.00    -0.013 A 
HETATM   23  C14 UNL     1      -7.768   7.103   7.992  1.00  0.00     0.005 A 
HETATM   24  C15 UNL     1      -8.039   8.509   7.696  1.00  0.00     0.005 A 
ENDBRANCH  21  22
ENDBRANCH  20  21
ENDBRANCH  17  20
ENDBRANCH  16  17
ENDBRANCH  15  16
ENDBRANCH  14  15
ENDBRANCH   2  14
TORSDOF 7
ENDMDL
