MODEL 1
REMARK VINA RESULT: -7.157769805      0.000      0.000
REMARK  6 active torsions:
REMARK  status: ('A' for Active; 'I' for Inactive)
REMARK    1  A    between atoms: C3_3  and  C4_4 
REMARK    2  A    between atoms: C4_4  and  C5_5 
REMARK    3  A    between atoms: C5_5  and  C6_6 
REMARK    4  A    between atoms: C6_6  and  C12_20 
REMARK    5  A    between atoms: N1_7  and  N2_9 
REMARK       I    between atoms: N2_9  and  C7_11 
REMARK    6  A    between atoms: C7_11  and  C8_13 
ROOT
HETATM    1  C1  UNL     1      -7.439   7.931  11.370  1.00  0.00     0.012 C 
HETATM    2  C2  UNL     1      -6.423   7.411  10.981  1.00  0.00    -0.117 C 
HETATM    3  C3  UNL     1      -5.183   6.779  10.534  1.00  0.00     0.093 C 
ENDROOT
BRANCH   3   4
HETATM    4  C4  UNL     1      -4.783   5.688  11.503  1.00  0.00     0.018 C 
BRANCH   4   5
HETATM    5  C5  UNL     1      -4.686   6.232  12.913  1.00  0.00     0.055 C 
BRANCH   5   6
HETATM    6  C6  UNL     1      -3.390   5.979  13.540  1.00  0.00     0.008 C 
HETATM    7  N1  UNL     1      -3.285   4.948  14.333  1.00  0.00    -0.306 N 
ATOM      8  H1  UNL     1      -2.380   4.773  14.769  1.00  0.00     0.186 HD
BRANCH   7   9
HETATM    9  N2  UNL     1      -4.315   4.084  14.618  1.00  0.00    -0.268 N 
HETATM   10  C7  UNL     1      -4.210   2.892  15.346  1.00  0.00     0.267 C 
HETATM   11  O1  UNL     1      -3.068   2.572  15.787  1.00  0.00    -0.269 OA
ATOM     12  H2  UNL     1      -5.240   4.333  14.268  1.00  0.00     0.190 HD
BRANCH  10  13
HETATM   13  C8  UNL     1      -5.326   1.980  15.641  1.00  0.00     0.278 C 
HETATM   14  C9  UNL     1      -6.432   2.678  16.434  1.00  0.00     0.044 C 
HETATM   15  C10 UNL     1      -7.178   1.475  16.974  1.00  0.00     0.030 C 
HETATM   16  C11 UNL     1      -6.026   0.566  17.353  1.00  0.00     0.233 C 
HETATM   17  N3  UNL     1      -4.955   0.855  16.439  1.00  0.00    -0.062 N 
ATOM     18  H32 UNL     1      -4.693   0.046  15.875  1.00  0.00     0.278 HD
ATOM     19  H31 UNL     1      -4.062   0.990  16.914  1.00  0.00     0.278 HD
ENDBRANCH  10  13
ENDBRANCH   7   9
BRANCH   6  20
HETATM   20  C12 UNL     1      -2.217   6.823  13.317  1.00  0.00     0.033 C 
HETATM   21  C13 UNL     1      -2.555   8.116  12.591  1.00  0.00     0.010 C 
HETATM   22  C14 UNL     1      -1.602   9.217  12.997  1.00  0.00     0.001 C 
HETATM   23  C15 UNL     1      -1.818   9.650  14.430  1.00  0.00     0.000 C 
HETATM   24  C16 UNL     1      -2.260   8.439  15.224  1.00  0.00     0.001 C 
HETATM   25  C17 UNL     1      -1.575   7.226  14.631  1.00  0.00     0.010 C 
ENDBRANCH   6  20
ENDBRANCH   5   6
ENDBRANCH   4   5
ENDBRANCH   3   4
TORSDOF 6
ENDMDL
MODEL 2
REMARK VINA RESULT: -7.112788941      1.002      1.210
REMARK  6 active torsions:
REMARK  status: ('A' for Active; 'I' for Inactive)
REMARK    1  A    between atoms: C3_3  and  C4_4 
REMARK    2  A    between atoms: C4_4  and  C5_5 
REMARK    3  A    between atoms: C5_5  and  C6_6 
REMARK    4  A    between atoms: C6_6  and  C12_20 
REMARK    5  A    between atoms: N1_7  and  N2_9 
REMARK       I    between atoms: N2_9  and  C7_11 
REMARK    6  A    between atoms: C7_11  and  C8_13 
ROOT
HETATM    1  C1  UNL     1      -7.302   7.811  11.243  1.00  0.00     0.012 C 
HETATM    2  C2  UNL     1      -6.181   7.387  11.373  1.00  0.00    -0.117 C 
HETATM    3  C3  UNL     1      -4.825   6.872  11.556  1.00  0.00     0.093 C 
ENDROOT
BRANCH   3   4
HETATM    4  C4  UNL     1      -4.798   5.893  12.711  1.00  0.00     0.018 C 
BRANCH   4   5
HETATM    5  C5  UNL     1      -3.695   4.874  12.523  1.00  0.00     0.055 C 
BRANCH   5   6
HETATM    6  C6  UNL     1      -2.680   4.923  13.573  1.00  0.00     0.008 C 
HETATM    7  N1  UNL     1      -2.895   4.242  14.665  1.00  0.00    -0.306 N 
ATOM      8  H1  UNL     1      -2.185   4.277  15.397  1.00  0.00     0.186 HD
BRANCH   7   9
HETATM    9  N2  UNL     1      -4.016   3.480  14.892  1.00  0.00    -0.268 N 
HETATM   10  C7  UNL     1      -4.066   2.294  15.635  1.00  0.00     0.267 C 
HETATM   11  O1  UNL     1      -2.988   1.875  16.148  1.00  0.00    -0.269 OA
ATOM     12  H2  UNL     1      -4.890   3.808  14.483  1.00  0.00     0.190 HD
BRANCH  10  13
HETATM   13  C8  UNL     1      -5.278   1.492  15.867  1.00  0.00     0.278 C 
HETATM   14  C9  UNL     1      -6.448   2.358  16.337  1.00  0.00     0.044 C 
HETATM   15  C10 UNL     1      -7.357   1.294  16.916  1.00  0.00     0.030 C 
HETATM   16  C11 UNL     1      -6.352   0.410  17.627  1.00  0.00     0.233 C 
HETATM   17  N3  UNL     1      -5.126   0.498  16.882  1.00  0.00    -0.062 N 
ATOM     18  H32 UNL     1      -4.832  -0.404  16.504  1.00  0.00     0.278 HD
ATOM     19  H31 UNL     1      -4.317   0.670  17.479  1.00  0.00     0.278 HD
ENDBRANCH  10  13
ENDBRANCH   7   9
BRANCH   6  20
HETATM   20  C12 UNL     1      -1.443   5.696  13.453  1.00  0.00     0.033 C 
HETATM   21  C13 UNL     1      -1.214   6.218  12.043  1.00  0.00     0.010 C 
HETATM   22  C14 UNL     1      -0.438   7.515  12.079  1.00  0.00     0.001 C 
HETATM   23  C15 UNL     1      -1.257   8.647  12.655  1.00  0.00     0.000 C 
HETATM   24  C16 UNL     1      -2.184   8.070  13.704  1.00  0.00     0.001 C 
HETATM   25  C17 UNL     1      -1.467   6.909  14.361  1.00  0.00     0.010 C 
ENDBRANCH   6  20
ENDBRANCH   5   6
ENDBRANCH   4   5
ENDBRANCH   3   4
TORSDOF 6
ENDMDL
MODEL 3
REMARK VINA RESULT: -7.067486075      1.512      2.604
REMARK  6 active torsions:
REMARK  status: ('A' for Active; 'I' for Inactive)
REMARK    1  A    between atoms: C3_3  and  C4_4 
REMARK    2  A    between atoms: C4_4  and  C5_5 
REMARK    3  A    between atoms: C5_5  and  C6_6 
REMARK    4  A    between atoms: C6_6  and  C12_20 
REMARK    5  A    between atoms: N1_7  and  N2_9 
REMARK       I    between atoms: N2_9  and  C7_11 
REMARK    6  A    between atoms: C7_11  and  C8_13 
ROOT
HETATM    1  C1  UNL     1      -4.088   0.297  12.494  1.00  0.00     0.012 C 
HETATM    2  C2  UNL     1      -4.408   1.326  11.954  1.00  0.00    -0.117 C 
HETATM    3  C3  UNL     1      -4.786   2.588  11.319  1.00  0.00     0.093 C 
ENDROOT
BRANCH   3   4
HETATM    4  C4  UNL     1      -3.692   3.614  11.522  1.00  0.00     0.018 C 
BRANCH   4   5
HETATM    5  C5  UNL     1      -4.246   4.867  12.168  1.00  0.00     0.055 C 
BRANCH   5   6
HETATM    6  C6  UNL     1      -3.395   5.390  13.235  1.00  0.00     0.008 C 
HETATM    7  N1  UNL     1      -3.617   4.978  14.453  1.00  0.00    -0.306 N 
ATOM      8  H1  UNL     1      -3.022   5.344  15.196  1.00  0.00     0.186 HD
BRANCH   7   9
HETATM    9  N2  UNL     1      -4.601   4.084  14.799  1.00  0.00    -0.268 N 
HETATM   10  C7  UNL     1      -4.399   2.814  15.354  1.00  0.00     0.267 C 
HETATM   11  O1  UNL     1      -3.206   2.446  15.560  1.00  0.00    -0.269 OA
ATOM     12  H2  UNL     1      -5.566   4.370  14.637  1.00  0.00     0.190 HD
BRANCH  10  13
HETATM   13  C8  UNL     1      -5.468   1.870  15.717  1.00  0.00     0.278 C 
HETATM   14  C9  UNL     1      -6.556   2.544  16.554  1.00  0.00     0.044 C 
HETATM   15  C10 UNL     1      -7.234   1.327  17.148  1.00  0.00     0.030 C 
HETATM   16  C11 UNL     1      -6.035   0.463  17.483  1.00  0.00     0.233 C 
HETATM   17  N3  UNL     1      -5.020   0.772  16.513  1.00  0.00    -0.062 N 
ATOM     18  H32 UNL     1      -4.759  -0.038  15.950  1.00  0.00     0.278 HD
ATOM     19  H31 UNL     1      -4.110   0.945  16.941  1.00  0.00     0.278 HD
ENDBRANCH  10  13
ENDBRANCH   7   9
BRANCH   6  20
HETATM   20  C12 UNL     1      -2.313   6.346  12.997  1.00  0.00     0.033 C 
HETATM   21  C13 UNL     1      -2.795   7.618  12.316  1.00  0.00     0.010 C 
HETATM   22  C14 UNL     1      -1.935   8.793  12.721  1.00  0.00     0.001 C 
HETATM   23  C15 UNL     1      -2.140   9.170  14.171  1.00  0.00     0.000 C 
HETATM   24  C16 UNL     1      -2.440   7.905  14.947  1.00  0.00     0.001 C 
HETATM   25  C17 UNL     1      -1.667   6.775  14.299  1.00  0.00     0.010 C 
ENDBRANCH   6  20
ENDBRANCH   5   6
ENDBRANCH   4   5
ENDBRANCH   3   4
TORSDOF 6
ENDMDL
MODEL 4
REMARK VINA RESULT: -7.051214979      3.354      7.100
REMARK  6 active torsions:
REMARK  status: ('A' for Active; 'I' for Inactive)
REMARK    1  A    between atoms: C3_3  and  C4_4 
REMARK    2  A    between atoms: C4_4  and  C5_5 
REMARK    3  A    between atoms: C5_5  and  C6_6 
REMARK    4  A    between atoms: C6_6  and  C12_20 
REMARK    5  A    between atoms: N1_7  and  N2_9 
REMARK       I    between atoms: N2_9  and  C7_11 
REMARK    6  A    between atoms: C7_11  and  C8_13 
ROOT
HETATM    1  C1  UNL     1      -4.085  -1.059  11.803  1.00  0.00     0.012 C 
HETATM    2  C2  UNL     1      -4.385   0.107  11.857  1.00  0.00    -0.117 C 
HETATM    3  C3  UNL     1      -4.731   1.525  11.940  1.00  0.00     0.093 C 
ENDROOT
BRANCH   3   4
HETATM    4  C4  UNL     1      -3.477   2.350  12.136  1.00  0.00     0.018 C 
BRANCH   4   5
HETATM    5  C5  UNL     1      -3.808   3.686  12.768  1.00  0.00     0.055 C 
BRANCH   5   6
HETATM    6  C6  UNL     1      -3.283   3.827  14.125  1.00  0.00     0.008 C 
HETATM    7  N1  UNL     1      -2.018   4.117  14.265  1.00  0.00    -0.306 N 
ATOM      8  H1  UNL     1      -1.654   4.215  15.213  1.00  0.00     0.186 HD
BRANCH   7   9
HETATM    9  N2  UNL     1      -1.146   4.297  13.219  1.00  0.00    -0.268 N 
HETATM   10  C7  UNL     1      -0.718   5.529  12.710  1.00  0.00     0.267 C 
HETATM   11  O1  UNL     1      -1.168   6.579  13.254  1.00  0.00    -0.269 OA
ATOM     12  H2  UNL     1      -0.777   3.458  12.772  1.00  0.00     0.190 HD
BRANCH  10  13
HETATM   13  C8  UNL     1       0.218   5.702  11.587  1.00  0.00     0.278 C 
HETATM   14  C9  UNL     1      -0.394   5.232  10.266  1.00  0.00     0.044 C 
HETATM   15  C10 UNL     1       0.859   5.087   9.425  1.00  0.00     0.030 C 
HETATM   16  C11 UNL     1       1.807   4.459  10.426  1.00  0.00     0.233 C 
HETATM   17  N3  UNL     1       1.424   4.950  11.722  1.00  0.00    -0.062 N 
ATOM     18  H32 UNL     1       2.168   5.483  12.174  1.00  0.00     0.278 HD
ATOM     19  H31 UNL     1       1.345   4.204  12.414  1.00  0.00     0.278 HD
ENDBRANCH  10  13
ENDBRANCH   7   9
BRANCH   6  20
HETATM   20  C12 UNL     1      -4.108   3.660  15.321  1.00  0.00     0.033 C 
HETATM   21  C13 UNL     1      -5.575   3.428  14.993  1.00  0.00     0.010 C 
HETATM   22  C14 UNL     1      -6.228   2.580  16.061  1.00  0.00     0.001 C 
HETATM   23  C15 UNL     1      -5.719   1.156  16.040  1.00  0.00     0.000 C 
HETATM   24  C16 UNL     1      -4.269   1.182  15.609  1.00  0.00     0.001 C 
HETATM   25  C17 UNL     1      -3.656   2.464  16.135  1.00  0.00     0.010 C 
ENDBRANCH   6  20
ENDBRANCH   5   6
ENDBRANCH   4   5
ENDBRANCH   3   4
TORSDOF 6
ENDMDL
MODEL 5
REMARK VINA RESULT: -7.017771483      1.908      2.913
REMARK  6 active torsions:
REMARK  status: ('A' for Active; 'I' for Inactive)
REMARK    1  A    between atoms: C3_3  and  C4_4 
REMARK    2  A    between atoms: C4_4  and  C5_5 
REMARK    3  A    between atoms: C5_5  and  C6_6 
REMARK    4  A    between atoms: C6_6  and  C12_20 
REMARK    5  A    between atoms: N1_7  and  N2_9 
REMARK       I    between atoms: N2_9  and  C7_11 
REMARK    6  A    between atoms: C7_11  and  C8_13 
ROOT
HETATM    1  C1  UNL     1      -4.107   0.084  12.466  1.00  0.00     0.012 C 
HETATM    2  C2  UNL     1      -4.358   1.196  12.077  1.00  0.00    -0.117 C 
HETATM    3  C3  UNL     1      -4.646   2.556  11.623  1.00  0.00     0.093 C 
ENDROOT
BRANCH   3   4
HETATM    4  C4  UNL     1      -3.396   3.405  11.714  1.00  0.00     0.018 C 
BRANCH   4   5
HETATM    5  C5  UNL     1      -3.667   4.674  12.493  1.00  0.00     0.055 C 
BRANCH   5   6
HETATM    6  C6  UNL     1      -2.733   4.882  13.598  1.00  0.00     0.008 C 
HETATM    7  N1  UNL     1      -3.014   4.336  14.749  1.00  0.00    -0.306 N 
ATOM      8  H1  UNL     1      -2.361   4.482  15.519  1.00  0.00     0.186 HD
BRANCH   7   9
HETATM    9  N2  UNL     1      -4.134   3.576  14.991  1.00  0.00    -0.268 N 
HETATM   10  C7  UNL     1      -4.159   2.330  15.630  1.00  0.00     0.267 C 
HETATM   11  O1  UNL     1      -3.057   1.850  16.025  1.00  0.00    -0.269 OA
ATOM     12  H2  UNL     1      -5.027   3.954  14.676  1.00  0.00     0.190 HD
BRANCH  10  13
HETATM   13  C8  UNL     1      -5.369   1.532  15.879  1.00  0.00     0.278 C 
HETATM   14  C9  UNL     1      -6.479   2.372  16.513  1.00  0.00     0.044 C 
HETATM   15  C10 UNL     1      -7.370   1.275  17.061  1.00  0.00     0.030 C 
HETATM   16  C11 UNL     1      -6.336   0.312  17.610  1.00  0.00     0.233 C 
HETATM   17  N3  UNL     1      -5.167   0.446  16.784  1.00  0.00    -0.062 N 
ATOM     18  H32 UNL     1      -4.925  -0.422  16.305  1.00  0.00     0.278 HD
ATOM     19  H31 UNL     1      -4.312   0.548  17.332  1.00  0.00     0.278 HD
ENDBRANCH  10  13
ENDBRANCH   7   9
BRANCH   6  20
HETATM   20  C12 UNL     1      -1.506   5.669  13.470  1.00  0.00     0.033 C 
HETATM   21  C13 UNL     1      -1.163   5.986  12.022  1.00  0.00     0.010 C 
HETATM   22  C14 UNL     1      -0.419   7.299  11.929  1.00  0.00     0.001 C 
HETATM   23  C15 UNL     1      -1.309   8.476  12.258  1.00  0.00     0.000 C 
HETATM   24  C16 UNL     1      -2.313   8.029  13.298  1.00  0.00     0.001 C 
HETATM   25  C17 UNL     1      -1.635   7.002  14.180  1.00  0.00     0.010 C 
ENDBRANCH   6  20
ENDBRANCH   5   6
ENDBRANCH   4   5
ENDBRANCH   3   4
TORSDOF 6
ENDMDL
