MODEL 1
REMARK VINA RESULT: -6.950950028      0.000      0.000
REMARK  6 active torsions:
REMARK  status: ('A' for Active; 'I' for Inactive)
REMARK       I    between atoms: C1_2  and  N1_3 
REMARK    1  A    between atoms: C1_2  and  C14_21 
REMARK    2  A    between atoms: N1_3  and  C2_5 
REMARK    3  A    between atoms: C2_5  and  C3_6 
REMARK    4  A    between atoms: C6_9  and  C7_10 
REMARK    5  A    between atoms: C7_10  and  N2_11 
REMARK    6  A    between atoms: N2_11  and  C8_14 
ROOT
HETATM    1  C3  UNL     1      -4.072   3.383  13.712  1.00  0.00     0.003 C 
HETATM    2  C4  UNL     1      -3.317   3.488  12.379  1.00  0.00     0.007 C 
HETATM    3  C5  UNL     1      -3.146   4.938  12.029  1.00  0.00     0.007 C 
HETATM    4  C6  UNL     1      -2.544   5.767  13.136  1.00  0.00     0.011 C 
HETATM    5  C12 UNL     1      -2.168   4.916  14.307  1.00  0.00     0.007 C 
HETATM    6  C13 UNL     1      -3.237   3.995  14.791  1.00  0.00     0.007 C 
ENDROOT
BRANCH   4   7
HETATM    7  C7  UNL     1      -1.359   6.561  12.667  1.00  0.00     0.237 C 
BRANCH   7   8
HETATM    8  N2  UNL     1      -0.112   5.884  12.862  1.00  0.00    -0.068 N 
ATOM      9  H22 UNL     1       0.519   6.411  13.466  1.00  0.00     0.277 HD
ATOM     10  H21 UNL     1      -0.215   5.053  13.445  1.00  0.00     0.277 HD
BRANCH   8  11
HETATM   11  C8  UNL     1       0.489   5.580  11.581  1.00  0.00     0.211 C 
HETATM   12  C9  UNL     1       1.989   5.755  11.624  1.00  0.00     0.061 C 
HETATM   13  C10 UNL     1       2.464   4.693  10.691  1.00  0.00     0.169 C 
HETATM   14  O2  UNL     1       1.378   3.932  10.292  1.00  0.00    -0.389 OA
HETATM   15  C11 UNL     1       0.383   4.109  11.245  1.00  0.00     0.200 C 
ENDBRANCH   8  11
ENDBRANCH   7   8
ENDBRANCH   4   7
BRANCH   1  16
HETATM   16  C2  UNL     1      -4.418   1.955  13.976  1.00  0.00     0.127 C 
BRANCH  16  17
HETATM   17  N1  UNL     1      -5.318   1.752  15.077  1.00  0.00    -0.360 N 
HETATM   18  C1  UNL     1      -4.921   1.029  16.227  1.00  0.00     0.221 C 
HETATM   19  O1  UNL     1      -3.774   0.557  16.304  1.00  0.00    -0.273 OA
ATOM     20  H1  UNL     1      -6.262   2.137  15.029  1.00  0.00     0.162 HD
BRANCH  18  21
HETATM   21  C14 UNL     1      -5.872   0.817  17.374  1.00  0.00     0.078 A 
HETATM   22  C15 UNL     1      -6.390   2.083  18.004  1.00  0.00     0.015 A 
HETATM   23  C16 UNL     1      -7.284   1.234  17.100  1.00  0.00     0.015 A 
ENDBRANCH  18  21
ENDBRANCH  16  17
ENDBRANCH   1  16
TORSDOF 6
ENDMDL
MODEL 2
REMARK VINA RESULT: -6.879190543      3.174      3.991
REMARK  6 active torsions:
REMARK  status: ('A' for Active; 'I' for Inactive)
REMARK       I    between atoms: C1_2  and  N1_3 
REMARK    1  A    between atoms: C1_2  and  C14_21 
REMARK    2  A    between atoms: N1_3  and  C2_5 
REMARK    3  A    between atoms: C2_5  and  C3_6 
REMARK    4  A    between atoms: C6_9  and  C7_10 
REMARK    5  A    between atoms: C7_10  and  N2_11 
REMARK    6  A    between atoms: N2_11  and  C8_14 
ROOT
HETATM    1  C3  UNL     1      -3.946   3.831  13.823  1.00  0.00     0.003 C 
HETATM    2  C4  UNL     1      -2.561   4.192  14.382  1.00  0.00     0.007 C 
HETATM    3  C5  UNL     1      -2.235   5.606  13.997  1.00  0.00     0.007 C 
HETATM    4  C6  UNL     1      -3.313   6.601  14.350  1.00  0.00     0.011 C 
HETATM    5  C12 UNL     1      -4.431   5.945  15.097  1.00  0.00     0.007 C 
HETATM    6  C13 UNL     1      -4.972   4.705  14.468  1.00  0.00     0.007 C 
ENDROOT
BRANCH   4   7
HETATM    7  C7  UNL     1      -2.774   7.763  15.133  1.00  0.00     0.237 C 
BRANCH   7   8
HETATM    8  N2  UNL     1      -1.555   8.289  14.597  1.00  0.00    -0.068 N 
ATOM      9  H22 UNL     1      -0.752   7.706  14.829  1.00  0.00     0.277 HD
ATOM     10  H21 UNL     1      -1.514   8.201  13.582  1.00  0.00     0.277 HD
BRANCH   8  11
HETATM   11  C8  UNL     1      -1.377   9.659  15.032  1.00  0.00     0.211 C 
HETATM   12  C9  UNL     1       0.088  10.011  15.146  1.00  0.00     0.061 C 
HETATM   13  C10 UNL     1       0.105  11.450  14.757  1.00  0.00     0.169 C 
HETATM   14  O2  UNL     1      -1.165  11.814  14.341  1.00  0.00    -0.389 OA
HETATM   15  C11 UNL     1      -1.826  10.647  13.980  1.00  0.00     0.200 C 
ENDBRANCH   8  11
ENDBRANCH   7   8
ENDBRANCH   4   7
BRANCH   1  16
HETATM   16  C2  UNL     1      -4.200   2.374  14.031  1.00  0.00     0.127 C 
BRANCH  16  17
HETATM   17  N1  UNL     1      -5.133   2.075  15.082  1.00  0.00    -0.360 N 
HETATM   18  C1  UNL     1      -4.782   1.222  16.155  1.00  0.00     0.221 C 
HETATM   19  O1  UNL     1      -3.648   0.716  16.207  1.00  0.00    -0.273 OA
ATOM     20  H1  UNL     1      -6.067   2.486  15.054  1.00  0.00     0.162 HD
BRANCH  18  21
HETATM   21  C14 UNL     1      -5.767   0.910  17.249  1.00  0.00     0.078 A 
HETATM   22  C15 UNL     1      -6.313   2.116  17.967  1.00  0.00     0.015 A 
HETATM   23  C16 UNL     1      -7.172   1.343  16.967  1.00  0.00     0.015 A 
ENDBRANCH  18  21
ENDBRANCH  16  17
ENDBRANCH   1  16
TORSDOF 6
ENDMDL
MODEL 3
REMARK VINA RESULT: -6.848224254      2.710      3.382
REMARK  6 active torsions:
REMARK  status: ('A' for Active; 'I' for Inactive)
REMARK       I    between atoms: C1_2  and  N1_3 
REMARK    1  A    between atoms: C1_2  and  C14_21 
REMARK    2  A    between atoms: N1_3  and  C2_5 
REMARK    3  A    between atoms: C2_5  and  C3_6 
REMARK    4  A    between atoms: C6_9  and  C7_10 
REMARK    5  A    between atoms: C7_10  and  N2_11 
REMARK    6  A    between atoms: N2_11  and  C8_14 
ROOT
HETATM    1  C3  UNL     1      -4.181   3.738  13.637  1.00  0.00     0.003 C 
HETATM    2  C4  UNL     1      -2.687   4.096  13.633  1.00  0.00     0.007 C 
HETATM    3  C5  UNL     1      -2.527   5.509  13.151  1.00  0.00     0.007 C 
HETATM    4  C6  UNL     1      -3.391   6.507  13.882  1.00  0.00     0.011 C 
HETATM    5  C12 UNL     1      -4.147   5.855  14.995  1.00  0.00     0.007 C 
HETATM    6  C13 UNL     1      -4.888   4.615  14.619  1.00  0.00     0.007 C 
ENDROOT
BRANCH   4   7
HETATM    7  C7  UNL     1      -2.595   7.669  14.402  1.00  0.00     0.237 C 
BRANCH   7   8
HETATM    8  N2  UNL     1      -1.265   7.725  13.875  1.00  0.00    -0.068 N 
ATOM      9  H22 UNL     1      -0.643   7.060  14.334  1.00  0.00     0.277 HD
ATOM     10  H21 UNL     1      -1.212   7.347  12.928  1.00  0.00     0.277 HD
BRANCH   8  11
HETATM   11  C8  UNL     1      -0.763   9.081  13.949  1.00  0.00     0.211 C 
HETATM   12  C9  UNL     1      -0.728   9.574  15.377  1.00  0.00     0.061 C 
HETATM   13  C10 UNL     1       0.472  10.460  15.382  1.00  0.00     0.169 C 
HETATM   14  O2  UNL     1       1.105  10.359  14.155  1.00  0.00    -0.389 OA
HETATM   15  C11 UNL     1       0.703   9.158  13.585  1.00  0.00     0.200 C 
ENDBRANCH   8  11
ENDBRANCH   7   8
ENDBRANCH   4   7
BRANCH   1  16
HETATM   16  C2  UNL     1      -4.341   2.282  13.928  1.00  0.00     0.127 C 
BRANCH  16  17
HETATM   17  N1  UNL     1      -5.211   1.987  15.033  1.00  0.00    -0.360 N 
HETATM   18  C1  UNL     1      -4.770   1.198  16.123  1.00  0.00     0.221 C 
HETATM   19  O1  UNL     1      -3.612   0.749  16.143  1.00  0.00    -0.273 OA
ATOM     20  H1  UNL     1      -6.163   2.352  15.031  1.00  0.00     0.162 HD
BRANCH  18  21
HETATM   21  C14 UNL     1      -5.690   0.889  17.274  1.00  0.00     0.078 A 
HETATM   22  C15 UNL     1      -6.274   2.099  17.955  1.00  0.00     0.015 A 
HETATM   23  C16 UNL     1      -7.128   1.228  17.034  1.00  0.00     0.015 A 
ENDBRANCH  18  21
ENDBRANCH  16  17
ENDBRANCH   1  16
TORSDOF 6
ENDMDL
MODEL 4
REMARK VINA RESULT: -6.820205148      3.426      4.349
REMARK  6 active torsions:
REMARK  status: ('A' for Active; 'I' for Inactive)
REMARK       I    between atoms: C1_2  and  N1_3 
REMARK    1  A    between atoms: C1_2  and  C14_21 
REMARK    2  A    between atoms: N1_3  and  C2_5 
REMARK    3  A    between atoms: C2_5  and  C3_6 
REMARK    4  A    between atoms: C6_9  and  C7_10 
REMARK    5  A    between atoms: C7_10  and  N2_11 
REMARK    6  A    between atoms: N2_11  and  C8_14 
ROOT
HETATM    1  C3  UNL     1      -3.379   4.207  14.735  1.00  0.00     0.003 C 
HETATM    2  C4  UNL     1      -4.334   5.372  14.434  1.00  0.00     0.007 C 
HETATM    3  C5  UNL     1      -3.727   6.644  14.950  1.00  0.00     0.007 C 
HETATM    4  C6  UNL     1      -2.312   6.881  14.481  1.00  0.00     0.011 C 
HETATM    5  C12 UNL     1      -1.874   5.819  13.524  1.00  0.00     0.007 C 
HETATM    6  C13 UNL     1      -2.106   4.417  13.981  1.00  0.00     0.007 C 
ENDROOT
BRANCH   4   7
HETATM    7  C7  UNL     1      -2.140   8.240  13.867  1.00  0.00     0.237 C 
BRANCH   7   8
HETATM    8  N2  UNL     1      -1.835   9.259  14.826  1.00  0.00    -0.068 N 
ATOM      9  H22 UNL     1      -2.668   9.585  15.315  1.00  0.00     0.277 HD
ATOM     10  H21 UNL     1      -1.326   8.889  15.628  1.00  0.00     0.277 HD
BRANCH   8  11
HETATM   11  C8  UNL     1      -1.124  10.343  14.182  1.00  0.00     0.211 C 
HETATM   12  C9  UNL     1      -2.002  11.564  14.037  1.00  0.00     0.061 C 
HETATM   13  C10 UNL     1      -1.027  12.682  14.194  1.00  0.00     0.169 C 
HETATM   14  O2  UNL     1       0.208  12.153  14.526  1.00  0.00    -0.389 OA
HETATM   15  C11 UNL     1      -0.018  10.889  15.057  1.00  0.00     0.200 C 
ENDBRANCH   8  11
ENDBRANCH   7   8
ENDBRANCH   4   7
BRANCH   1  16
HETATM   16  C2  UNL     1      -4.052   2.915  14.403  1.00  0.00     0.127 C 
BRANCH  16  17
HETATM   17  N1  UNL     1      -4.998   2.466  15.385  1.00  0.00    -0.360 N 
HETATM   18  C1  UNL     1      -4.699   1.391  16.257  1.00  0.00     0.221 C 
HETATM   19  O1  UNL     1      -3.599   0.817  16.186  1.00  0.00    -0.273 OA
ATOM     20  H1  UNL     1      -5.904   2.930  15.457  1.00  0.00     0.162 HD
BRANCH  18  21
HETATM   21  C14 UNL     1      -5.698   0.924  17.280  1.00  0.00     0.078 A 
HETATM   22  C15 UNL     1      -6.341   2.025  18.081  1.00  0.00     0.015 A 
HETATM   23  C16 UNL     1      -7.117   1.297  16.983  1.00  0.00     0.015 A 
ENDBRANCH  18  21
ENDBRANCH  16  17
ENDBRANCH   1  16
TORSDOF 6
ENDMDL
MODEL 5
REMARK VINA RESULT: -6.759880727      3.678      4.962
REMARK  6 active torsions:
REMARK  status: ('A' for Active; 'I' for Inactive)
REMARK       I    between atoms: C1_2  and  N1_3 
REMARK    1  A    between atoms: C1_2  and  C14_21 
REMARK    2  A    between atoms: N1_3  and  C2_5 
REMARK    3  A    between atoms: C2_5  and  C3_6 
REMARK    4  A    between atoms: C6_9  and  C7_10 
REMARK    5  A    between atoms: C7_10  and  N2_11 
REMARK    6  A    between atoms: N2_11  and  C8_14 
ROOT
HETATM    1  C3  UNL     1      -4.636   3.549  13.274  1.00  0.00     0.003 C 
HETATM    2  C4  UNL     1      -3.533   3.789  12.233  1.00  0.00     0.007 C 
HETATM    3  C5  UNL     1      -4.083   4.645  11.129  1.00  0.00     0.007 C 
HETATM    4  C6  UNL     1      -4.752   5.909  11.610  1.00  0.00     0.011 C 
HETATM    5  C12 UNL     1      -4.624   6.058  13.093  1.00  0.00     0.007 C 
HETATM    6  C13 UNL     1      -5.017   4.857  13.888  1.00  0.00     0.007 C 
ENDROOT
BRANCH   4   7
HETATM    7  C7  UNL     1      -4.219   7.129  10.916  1.00  0.00     0.237 C 
BRANCH   7   8
HETATM    8  N2  UNL     1      -5.248   7.970  10.382  1.00  0.00    -0.068 N 
ATOM      9  H22 UNL     1      -5.676   8.553  11.101  1.00  0.00     0.277 HD
ATOM     10  H21 UNL     1      -4.869   8.713   9.795  1.00  0.00     0.277 HD
BRANCH   8  11
HETATM   11  C8  UNL     1      -6.226   7.165   9.680  1.00  0.00     0.211 C 
HETATM   12  C9  UNL     1      -7.566   7.861   9.621  1.00  0.00     0.061 C 
HETATM   13  C10 UNL     1      -8.099   7.419   8.301  1.00  0.00     0.169 C 
HETATM   14  O2  UNL     1      -7.122   6.689   7.647  1.00  0.00    -0.389 OA
HETATM   15  C11 UNL     1      -5.902   7.044   8.208  1.00  0.00     0.200 C 
ENDBRANCH   8  11
ENDBRANCH   7   8
ENDBRANCH   4   7
BRANCH   1  16
HETATM   16  C2  UNL     1      -4.165   2.546  14.275  1.00  0.00     0.127 C 
BRANCH  16  17
HETATM   17  N1  UNL     1      -5.141   2.188  15.266  1.00  0.00    -0.360 N 
HETATM   18  C1  UNL     1      -4.866   1.201  16.244  1.00  0.00     0.221 C 
HETATM   19  O1  UNL     1      -3.764   0.627  16.261  1.00  0.00    -0.273 OA
ATOM     20  H1  UNL     1      -6.048   2.653  15.266  1.00  0.00     0.162 HD
BRANCH  18  21
HETATM   21  C14 UNL     1      -5.896   0.828  17.276  1.00  0.00     0.078 A 
HETATM   22  C15 UNL     1      -6.395   1.978  18.111  1.00  0.00     0.015 A 
HETATM   23  C16 UNL     1      -7.267   1.368  17.014  1.00  0.00     0.015 A 
ENDBRANCH  18  21
ENDBRANCH  16  17
ENDBRANCH   1  16
TORSDOF 6
ENDMDL
