MODEL 1
REMARK VINA RESULT: -7.792725996      0.000      0.000
REMARK  15 active torsions:
REMARK  status: ('A' for Active; 'I' for Inactive)
REMARK    1  A    between atoms: S1_2  and  N1_5 
REMARK    2  A    between atoms: N1_5  and  C2_7 
REMARK    3  A    between atoms: C2_7  and  C3_8 
REMARK    4  A    between atoms: C2_7  and  N4_17 
REMARK    5  A    between atoms: C3_8  and  C4_9 
REMARK    6  A    between atoms: C5_10  and  C6_11 
REMARK    7  A    between atoms: C6_11  and  N2_12 
REMARK    8  A    between atoms: N4_17  and  C7_19 
REMARK    9  A    between atoms: C7_19  and  C8_20 
REMARK   10  A    between atoms: C8_20  and  N5_21 
REMARK   11  A    between atoms: N5_21  and  C9_23 
REMARK   12  A    between atoms: C9_23  and  C10_25 
REMARK   13  A    between atoms: C10_25  and  N7_26 
REMARK   14  A    between atoms: C10_25  and  N8_29 
REMARK   15  A    between atoms: N8_29  and  N9_31 
ROOT
HETATM    1  N4  UNL     1      61.534  35.197  74.790  1.00  0.00    -0.364 N 
ATOM      2  H4  UNL     1      61.048  34.574  74.146  1.00  0.00     0.162 HD
ENDROOT
BRANCH   1   3
HETATM    3  C2  UNL     1      62.018  34.683  75.985  1.00  0.00     0.159 C 
BRANCH   3   4
HETATM    4  N1  UNL     1      61.326  33.466  76.457  1.00  0.00    -0.264 N 
ATOM      5  H1  UNL     1      61.504  33.141  77.407  1.00  0.00     0.180 HD
BRANCH   4   6
HETATM    6  S1  UNL     1      60.230  32.571  75.472  1.00  0.00     0.228 S 
HETATM    7  C1  UNL     1      59.818  31.079  76.435  1.00  0.00     0.186 C 
HETATM    8  O1  UNL     1      58.954  33.295  75.200  1.00  0.00    -0.206 OA
HETATM    9  O2  UNL     1      60.846  32.133  74.186  1.00  0.00    -0.206 OA
ENDBRANCH   4   6
ENDBRANCH   3   4
BRANCH   3  10
HETATM   10  C3  UNL     1      62.905  35.054  76.780  1.00  0.00    -0.080 C 
BRANCH  10  11
HETATM   11  C4  UNL     1      63.904  35.493  77.694  1.00  0.00     0.061 C 
HETATM   12  C5  UNL     1      63.670  36.665  78.175  1.00  0.00     0.027 C 
BRANCH  12  13
HETATM   13  C6  UNL     1      64.457  37.457  79.114  1.00  0.00     0.107 C 
BRANCH  13  14
HETATM   14  N2  UNL     1      63.793  37.433  80.310  1.00  0.00    -0.318 N 
HETATM   15  N3  UNL     1      62.739  36.976  80.856  1.00  0.00    -0.345 N 
ATOM     16  H32 UNL     1      62.226  36.453  80.147  1.00  0.00     0.176 HD
ATOM     17  H31 UNL     1      62.244  36.958  81.749  1.00  0.00     0.176 HD
ATOM     18  H2  UNL     1      64.326  37.962  81.000  1.00  0.00     0.185 HD
ENDBRANCH  13  14
ENDBRANCH  12  13
ENDBRANCH  10  11
ENDBRANCH   3  10
ENDBRANCH   1   3
BRANCH   1  19
HETATM   19  C7  UNL     1      61.700  36.623  74.419  1.00  0.00     0.166 C 
BRANCH  19  20
HETATM   20  C8  UNL     1      62.081  36.738  72.980  1.00  0.00     0.082 C 
BRANCH  20  21
HETATM   21  N5  UNL     1      61.136  36.413  71.992  1.00  0.00    -0.354 N 
ATOM     22  H5  UNL     1      61.485  36.225  71.052  1.00  0.00     0.166 HD
BRANCH  21  23
HETATM   23  C9  UNL     1      59.775  36.328  72.191  1.00  0.00     0.161 C 
HETATM   24  N6  UNL     1      59.533  34.827  72.326  1.00  0.00    -0.079 NA
BRANCH  23  25
HETATM   25  C10 UNL     1      58.467  36.742  72.581  1.00  0.00     0.155 C 
BRANCH  25  26
HETATM   26  N7  UNL     1      58.321  38.035  72.577  1.00  0.00    -0.382 N 
ATOM     27  H72 UNL     1      58.571  38.652  73.349  1.00  0.00     0.157 HD
ATOM     28  H71 UNL     1      57.864  38.381  71.733  1.00  0.00     0.157 HD
ENDBRANCH  25  26
BRANCH  25  29
HETATM   29  N8  UNL     1      57.419  35.799  72.857  1.00  0.00    -0.290 N 
ATOM     30  H8  UNL     1      56.789  35.494  72.115  1.00  0.00     0.188 HD
BRANCH  29  31
HETATM   31  N9  UNL     1      57.271  35.292  74.189  1.00  0.00    -0.344 N 
ATOM     32  H92 UNL     1      57.656  35.819  74.973  1.00  0.00     0.176 HD
ATOM     33  H91 UNL     1      56.780  34.410  74.332  1.00  0.00     0.176 HD
ENDBRANCH  29  31
ENDBRANCH  25  29
ENDBRANCH  23  25
ENDBRANCH  21  23
ENDBRANCH  20  21
ENDBRANCH  19  20
ENDBRANCH   1  19
TORSDOF 15
ENDMDL
MODEL 2
REMARK VINA RESULT: -7.706557725      3.047      4.265
REMARK  15 active torsions:
REMARK  status: ('A' for Active; 'I' for Inactive)
REMARK    1  A    between atoms: S1_2  and  N1_5 
REMARK    2  A    between atoms: N1_5  and  C2_7 
REMARK    3  A    between atoms: C2_7  and  C3_8 
REMARK    4  A    between atoms: C2_7  and  N4_17 
REMARK    5  A    between atoms: C3_8  and  C4_9 
REMARK    6  A    between atoms: C5_10  and  C6_11 
REMARK    7  A    between atoms: C6_11  and  N2_12 
REMARK    8  A    between atoms: N4_17  and  C7_19 
REMARK    9  A    between atoms: C7_19  and  C8_20 
REMARK   10  A    between atoms: C8_20  and  N5_21 
REMARK   11  A    between atoms: N5_21  and  C9_23 
REMARK   12  A    between atoms: C9_23  and  C10_25 
REMARK   13  A    between atoms: C10_25  and  N7_26 
REMARK   14  A    between atoms: C10_25  and  N8_29 
REMARK   15  A    between atoms: N8_29  and  N9_31 
ROOT
HETATM    1  N4  UNL     1      62.726  35.717  74.523  1.00  0.00    -0.364 N 
ATOM      2  H4  UNL     1      62.723  34.833  74.015  1.00  0.00     0.162 HD
ENDROOT
BRANCH   1   3
HETATM    3  C2  UNL     1      63.943  36.286  74.873  1.00  0.00     0.159 C 
BRANCH   3   4
HETATM    4  N1  UNL     1      64.687  36.887  73.748  1.00  0.00    -0.264 N 
ATOM      5  H1  UNL     1      64.937  37.875  73.800  1.00  0.00     0.180 HD
BRANCH   4   6
HETATM    6  S1  UNL     1      65.152  35.993  72.349  1.00  0.00     0.228 S 
HETATM    7  C1  UNL     1      64.923  37.133  70.944  1.00  0.00     0.186 C 
HETATM    8  O1  UNL     1      66.587  35.582  72.362  1.00  0.00    -0.206 OA
HETATM    9  O2  UNL     1      64.287  34.800  72.120  1.00  0.00    -0.206 OA
ENDBRANCH   4   6
ENDBRANCH   3   4
BRANCH   3  10
HETATM   10  C3  UNL     1      64.572  36.369  75.947  1.00  0.00    -0.080 C 
BRANCH  10  11
HETATM   11  C4  UNL     1      65.281  36.447  77.179  1.00  0.00     0.061 C 
HETATM   12  C5  UNL     1      64.683  37.171  78.061  1.00  0.00     0.027 C 
BRANCH  12  13
HETATM   13  C6  UNL     1      65.093  37.504  79.421  1.00  0.00     0.107 C 
BRANCH  13  14
HETATM   14  N2  UNL     1      63.957  37.545  80.182  1.00  0.00    -0.318 N 
HETATM   15  N3  UNL     1      62.894  36.888  80.423  1.00  0.00    -0.345 N 
ATOM     16  H32 UNL     1      62.912  36.049  79.843  1.00  0.00     0.176 HD
ATOM     17  H31 UNL     1      62.047  36.919  80.990  1.00  0.00     0.176 HD
ATOM     18  H2  UNL     1      63.963  38.391  80.750  1.00  0.00     0.185 HD
ENDBRANCH  13  14
ENDBRANCH  12  13
ENDBRANCH  10  11
ENDBRANCH   3  10
ENDBRANCH   1   3
BRANCH   1  19
HETATM   19  C7  UNL     1      61.430  36.352  74.863  1.00  0.00     0.166 C 
BRANCH  19  20
HETATM   20  C8  UNL     1      61.057  36.034  76.273  1.00  0.00     0.082 C 
BRANCH  20  21
HETATM   21  N5  UNL     1      59.707  36.101  76.658  1.00  0.00    -0.354 N 
ATOM     22  H5  UNL     1      59.479  36.673  77.471  1.00  0.00     0.166 HD
BRANCH  21  23
HETATM   23  C9  UNL     1      58.668  35.456  76.025  1.00  0.00     0.161 C 
HETATM   24  N6  UNL     1      57.859  34.875  77.181  1.00  0.00    -0.079 NA
BRANCH  23  25
HETATM   25  C10 UNL     1      57.723  35.161  74.997  1.00  0.00     0.155 C 
BRANCH  25  26
HETATM   26  N7  UNL     1      57.228  33.962  75.092  1.00  0.00    -0.382 N 
ATOM     27  H72 UNL     1      57.768  33.124  75.305  1.00  0.00     0.157 HD
ATOM     28  H71 UNL     1      56.233  33.923  74.867  1.00  0.00     0.157 HD
ENDBRANCH  25  26
BRANCH  25  29
HETATM   29  N8  UNL     1      57.319  36.142  74.028  1.00  0.00    -0.290 N 
ATOM     30  H8  UNL     1      57.078  37.089  74.320  1.00  0.00     0.188 HD
BRANCH  29  31
HETATM   31  N9  UNL     1      57.258  35.771  72.646  1.00  0.00    -0.344 N 
ATOM     32  H92 UNL     1      56.496  36.120  72.065  1.00  0.00     0.176 HD
ATOM     33  H91 UNL     1      57.981  35.162  72.264  1.00  0.00     0.176 HD
ENDBRANCH  29  31
ENDBRANCH  25  29
ENDBRANCH  23  25
ENDBRANCH  21  23
ENDBRANCH  20  21
ENDBRANCH  19  20
ENDBRANCH   1  19
TORSDOF 15
ENDMDL
MODEL 3
REMARK VINA RESULT: -7.688107127      2.825      4.011
REMARK  15 active torsions:
REMARK  status: ('A' for Active; 'I' for Inactive)
REMARK    1  A    between atoms: S1_2  and  N1_5 
REMARK    2  A    between atoms: N1_5  and  C2_7 
REMARK    3  A    between atoms: C2_7  and  C3_8 
REMARK    4  A    between atoms: C2_7  and  N4_17 
REMARK    5  A    between atoms: C3_8  and  C4_9 
REMARK    6  A    between atoms: C5_10  and  C6_11 
REMARK    7  A    between atoms: C6_11  and  N2_12 
REMARK    8  A    between atoms: N4_17  and  C7_19 
REMARK    9  A    between atoms: C7_19  and  C8_20 
REMARK   10  A    between atoms: C8_20  and  N5_21 
REMARK   11  A    between atoms: N5_21  and  C9_23 
REMARK   12  A    between atoms: C9_23  and  C10_25 
REMARK   13  A    between atoms: C10_25  and  N7_26 
REMARK   14  A    between atoms: C10_25  and  N8_29 
REMARK   15  A    between atoms: N8_29  and  N9_31 
ROOT
HETATM    1  N4  UNL     1      62.909  35.336  74.571  1.00  0.00    -0.364 N 
ATOM      2  H4  UNL     1      62.899  34.846  73.676  1.00  0.00     0.162 HD
ENDROOT
BRANCH   1   3
HETATM    3  C2  UNL     1      64.017  36.105  74.902  1.00  0.00     0.159 C 
BRANCH   3   4
HETATM    4  N1  UNL     1      64.661  36.781  73.757  1.00  0.00    -0.264 N 
ATOM      5  H1  UNL     1      64.824  37.787  73.814  1.00  0.00     0.180 HD
BRANCH   4   6
HETATM    6  S1  UNL     1      65.149  35.946  72.331  1.00  0.00     0.228 S 
HETATM    7  C1  UNL     1      64.933  37.141  70.970  1.00  0.00     0.186 C 
HETATM    8  O1  UNL     1      66.585  35.541  72.347  1.00  0.00    -0.206 OA
HETATM    9  O2  UNL     1      64.293  34.759  72.042  1.00  0.00    -0.206 OA
ENDBRANCH   4   6
ENDBRANCH   3   4
BRANCH   3  10
HETATM   10  C3  UNL     1      64.618  36.323  75.972  1.00  0.00    -0.080 C 
BRANCH  10  11
HETATM   11  C4  UNL     1      65.296  36.555  77.203  1.00  0.00     0.061 C 
HETATM   12  C5  UNL     1      64.533  37.053  78.114  1.00  0.00     0.027 C 
BRANCH  12  13
HETATM   13  C6  UNL     1      64.854  37.443  79.483  1.00  0.00     0.107 C 
BRANCH  13  14
HETATM   14  N2  UNL     1      63.670  37.512  80.166  1.00  0.00    -0.318 N 
HETATM   15  N3  UNL     1      62.692  36.790  80.540  1.00  0.00    -0.345 N 
ATOM     16  H32 UNL     1      62.865  35.841  80.209  1.00  0.00     0.176 HD
ATOM     17  H31 UNL     1      61.809  36.841  81.050  1.00  0.00     0.176 HD
ATOM     18  H2  UNL     1      63.522  38.469  80.484  1.00  0.00     0.185 HD
ENDBRANCH  13  14
ENDBRANCH  12  13
ENDBRANCH  10  11
ENDBRANCH   3  10
ENDBRANCH   1   3
BRANCH   1  19
HETATM   19  C7  UNL     1      61.740  35.205  75.473  1.00  0.00     0.166 C 
BRANCH  19  20
HETATM   20  C8  UNL     1      60.997  36.497  75.542  1.00  0.00     0.082 C 
BRANCH  20  21
HETATM   21  N5  UNL     1      59.595  36.489  75.448  1.00  0.00    -0.354 N 
ATOM     22  H5  UNL     1      59.067  36.778  76.271  1.00  0.00     0.166 HD
BRANCH  21  23
HETATM   23  C9  UNL     1      58.877  36.122  74.331  1.00  0.00     0.161 C 
HETATM   24  N6  UNL     1      57.523  35.712  74.903  1.00  0.00    -0.079 NA
BRANCH  23  25
HETATM   25  C10 UNL     1      58.493  36.085  72.957  1.00  0.00     0.155 C 
BRANCH  25  26
HETATM   26  N7  UNL     1      57.260  35.708  72.784  1.00  0.00    -0.382 N 
ATOM     27  H72 UNL     1      56.645  35.369  73.524  1.00  0.00     0.157 HD
ATOM     28  H71 UNL     1      56.973  35.722  71.805  1.00  0.00     0.157 HD
ENDBRANCH  25  26
BRANCH  25  29
HETATM   29  N8  UNL     1      59.376  36.512  71.907  1.00  0.00    -0.290 N 
ATOM     30  H8  UNL     1      59.008  36.992  71.085  1.00  0.00     0.188 HD
BRANCH  29  31
HETATM   31  N9  UNL     1      60.780  36.255  72.030  1.00  0.00    -0.344 N 
ATOM     32  H92 UNL     1      61.173  36.039  72.946  1.00  0.00     0.176 HD
ATOM     33  H91 UNL     1      61.365  36.293  71.196  1.00  0.00     0.176 HD
ENDBRANCH  29  31
ENDBRANCH  25  29
ENDBRANCH  23  25
ENDBRANCH  21  23
ENDBRANCH  20  21
ENDBRANCH  19  20
ENDBRANCH   1  19
TORSDOF 15
ENDMDL
MODEL 4
REMARK VINA RESULT: -7.666316490      2.170      3.680
REMARK  15 active torsions:
REMARK  status: ('A' for Active; 'I' for Inactive)
REMARK    1  A    between atoms: S1_2  and  N1_5 
REMARK    2  A    between atoms: N1_5  and  C2_7 
REMARK    3  A    between atoms: C2_7  and  C3_8 
REMARK    4  A    between atoms: C2_7  and  N4_17 
REMARK    5  A    between atoms: C3_8  and  C4_9 
REMARK    6  A    between atoms: C5_10  and  C6_11 
REMARK    7  A    between atoms: C6_11  and  N2_12 
REMARK    8  A    between atoms: N4_17  and  C7_19 
REMARK    9  A    between atoms: C7_19  and  C8_20 
REMARK   10  A    between atoms: C8_20  and  N5_21 
REMARK   11  A    between atoms: N5_21  and  C9_23 
REMARK   12  A    between atoms: C9_23  and  C10_25 
REMARK   13  A    between atoms: C10_25  and  N7_26 
REMARK   14  A    between atoms: C10_25  and  N8_29 
REMARK   15  A    between atoms: N8_29  and  N9_31 
ROOT
HETATM    1  N4  UNL     1      61.197  33.239  75.431  1.00  0.00    -0.364 N 
ATOM      2  H4  UNL     1      61.426  33.007  74.464  1.00  0.00     0.162 HD
ENDROOT
BRANCH   1   3
HETATM    3  C2  UNL     1      61.834  34.316  76.031  1.00  0.00     0.159 C 
BRANCH   3   4
HETATM    4  N1  UNL     1      62.264  35.376  75.096  1.00  0.00    -0.264 N 
ATOM      5  H1  UNL     1      62.832  36.143  75.456  1.00  0.00     0.180 HD
BRANCH   4   6
HETATM    6  S1  UNL     1      61.848  35.374  73.423  1.00  0.00     0.228 S 
HETATM    7  C1  UNL     1      63.023  36.519  72.628  1.00  0.00     0.186 C 
HETATM    8  O1  UNL     1      62.015  34.040  72.775  1.00  0.00    -0.206 OA
HETATM    9  O2  UNL     1      60.469  35.885  73.177  1.00  0.00    -0.206 OA
ENDBRANCH   4   6
ENDBRANCH   3   4
BRANCH   3  10
HETATM   10  C3  UNL     1      62.160  34.571  77.208  1.00  0.00    -0.080 C 
BRANCH  10  11
HETATM   11  C4  UNL     1      62.520  34.848  78.557  1.00  0.00     0.061 C 
HETATM   12  C5  UNL     1      62.363  36.086  78.878  1.00  0.00     0.027 C 
BRANCH  12  13
HETATM   13  C6  UNL     1      62.634  36.758  80.145  1.00  0.00     0.107 C 
BRANCH  13  14
HETATM   14  N2  UNL     1      63.715  37.571  79.942  1.00  0.00    -0.318 N 
HETATM   15  N3  UNL     1      64.981  37.597  80.069  1.00  0.00    -0.345 N 
ATOM     16  H32 UNL     1      65.270  36.699  80.455  1.00  0.00     0.176 HD
ATOM     17  H31 UNL     1      65.787  38.204  79.916  1.00  0.00     0.176 HD
ATOM     18  H2  UNL     1      63.398  38.460  79.557  1.00  0.00     0.185 HD
ENDBRANCH  13  14
ENDBRANCH  12  13
ENDBRANCH  10  11
ENDBRANCH   3  10
ENDBRANCH   1   3
BRANCH   1  19
HETATM   19  C7  UNL     1      60.195  32.414  76.148  1.00  0.00     0.166 C 
BRANCH  19  20
HETATM   20  C8  UNL     1      58.992  32.208  75.289  1.00  0.00     0.082 C 
BRANCH  20  21
HETATM   21  N5  UNL     1      57.811  32.913  75.583  1.00  0.00    -0.354 N 
ATOM     22  H5  UNL     1      56.985  32.364  75.823  1.00  0.00     0.166 HD
BRANCH  21  23
HETATM   23  C9  UNL     1      57.681  34.284  75.572  1.00  0.00     0.161 C 
HETATM   24  N6  UNL     1      57.054  34.588  76.929  1.00  0.00    -0.079 NA
BRANCH  23  25
HETATM   25  C10 UNL     1      57.957  35.636  75.211  1.00  0.00     0.155 C 
BRANCH  25  26
HETATM   26  N7  UNL     1      58.884  36.179  75.946  1.00  0.00    -0.382 N 
ATOM     27  H72 UNL     1      59.820  36.418  75.620  1.00  0.00     0.157 HD
ATOM     28  H71 UNL     1      58.605  36.290  76.921  1.00  0.00     0.157 HD
ENDBRANCH  25  26
BRANCH  25  29
HETATM   29  N8  UNL     1      57.321  36.272  74.091  1.00  0.00    -0.290 N 
ATOM     30  H8  UNL     1      56.854  37.172  74.203  1.00  0.00     0.188 HD
BRANCH  29  31
HETATM   31  N9  UNL     1      57.351  35.624  72.813  1.00  0.00    -0.344 N 
ATOM     32  H92 UNL     1      57.385  34.605  72.768  1.00  0.00     0.176 HD
ATOM     33  H91 UNL     1      57.337  36.194  71.968  1.00  0.00     0.176 HD
ENDBRANCH  29  31
ENDBRANCH  25  29
ENDBRANCH  23  25
ENDBRANCH  21  23
ENDBRANCH  20  21
ENDBRANCH  19  20
ENDBRANCH   1  19
TORSDOF 15
ENDMDL
MODEL 5
REMARK VINA RESULT: -7.623635300      2.944      5.061
REMARK  15 active torsions:
REMARK  status: ('A' for Active; 'I' for Inactive)
REMARK    1  A    between atoms: S1_2  and  N1_5 
REMARK    2  A    between atoms: N1_5  and  C2_7 
REMARK    3  A    between atoms: C2_7  and  C3_8 
REMARK    4  A    between atoms: C2_7  and  N4_17 
REMARK    5  A    between atoms: C3_8  and  C4_9 
REMARK    6  A    between atoms: C5_10  and  C6_11 
REMARK    7  A    between atoms: C6_11  and  N2_12 
REMARK    8  A    between atoms: N4_17  and  C7_19 
REMARK    9  A    between atoms: C7_19  and  C8_20 
REMARK   10  A    between atoms: C8_20  and  N5_21 
REMARK   11  A    between atoms: N5_21  and  C9_23 
REMARK   12  A    between atoms: C9_23  and  C10_25 
REMARK   13  A    between atoms: C10_25  and  N7_26 
REMARK   14  A    between atoms: C10_25  and  N8_29 
REMARK   15  A    between atoms: N8_29  and  N9_31 
ROOT
HETATM    1  N4  UNL     1      61.748  33.941  75.603  1.00  0.00    -0.364 N 
ATOM      2  H4  UNL     1      61.757  33.419  76.479  1.00  0.00     0.162 HD
ENDROOT
BRANCH   1   3
HETATM    3  C2  UNL     1      62.516  35.092  75.500  1.00  0.00     0.159 C 
BRANCH   3   4
HETATM    4  N1  UNL     1      62.832  35.739  76.790  1.00  0.00    -0.264 N 
ATOM      5  H1  UNL     1      63.634  36.368  76.836  1.00  0.00     0.180 HD
BRANCH   4   6
HETATM    6  S1  UNL     1      61.906  35.478  78.220  1.00  0.00     0.228 S 
HETATM    7  C1  UNL     1      62.458  36.756  79.398  1.00  0.00     0.186 C 
HETATM    8  O1  UNL     1      60.439  35.661  78.015  1.00  0.00    -0.206 OA
HETATM    9  O2  UNL     1      62.167  34.143  78.833  1.00  0.00    -0.206 OA
ENDBRANCH   4   6
ENDBRANCH   3   4
BRANCH   3  10
HETATM   10  C3  UNL     1      62.976  35.730  74.532  1.00  0.00    -0.080 C 
BRANCH  10  11
HETATM   11  C4  UNL     1      63.516  36.445  73.425  1.00  0.00     0.061 C 
HETATM   12  C5  UNL     1      64.577  35.899  72.940  1.00  0.00     0.027 C 
BRANCH  12  13
HETATM   13  C6  UNL     1      65.420  36.333  71.830  1.00  0.00     0.107 C 
BRANCH  13  14
HETATM   14  N2  UNL     1      65.589  35.251  71.011  1.00  0.00    -0.318 N 
HETATM   15  N3  UNL     1      65.445  33.987  70.985  1.00  0.00    -0.345 N 
ATOM     16  H32 UNL     1      65.076  33.701  71.892  1.00  0.00     0.176 HD
ATOM     17  H31 UNL     1      65.571  33.180  70.374  1.00  0.00     0.176 HD
ATOM     18  H2  UNL     1      65.958  35.565  70.113  1.00  0.00     0.185 HD
ENDBRANCH  13  14
ENDBRANCH  12  13
ENDBRANCH  10  11
ENDBRANCH   3  10
ENDBRANCH   1   3
BRANCH   1  19
HETATM   19  C7  UNL     1      60.914  33.444  74.482  1.00  0.00     0.166 C 
BRANCH  19  20
HETATM   20  C8  UNL     1      59.791  32.613  75.007  1.00  0.00     0.082 C 
BRANCH  20  21
HETATM   21  N5  UNL     1      58.724  33.243  75.672  1.00  0.00    -0.354 N 
ATOM     22  H5  UNL     1      58.277  32.730  76.432  1.00  0.00     0.166 HD
BRANCH  21  23
HETATM   23  C9  UNL     1      58.235  34.496  75.378  1.00  0.00     0.161 C 
HETATM   24  N6  UNL     1      57.055  34.646  76.335  1.00  0.00    -0.079 NA
BRANCH  23  25
HETATM   25  C10 UNL     1      58.245  35.846  74.917  1.00  0.00     0.155 C 
BRANCH  25  26
HETATM   26  N7  UNL     1      59.230  36.542  75.407  1.00  0.00    -0.382 N 
ATOM     27  H72 UNL     1      59.935  37.024  74.850  1.00  0.00     0.157 HD
ATOM     28  H71 UNL     1      59.271  36.511  76.426  1.00  0.00     0.157 HD
ENDBRANCH  25  26
BRANCH  25  29
HETATM   29  N8  UNL     1      57.303  36.328  73.945  1.00  0.00    -0.290 N 
ATOM     30  H8  UNL     1      56.668  37.092  74.175  1.00  0.00     0.188 HD
BRANCH  29  31
HETATM   31  N9  UNL     1      57.268  35.719  72.649  1.00  0.00    -0.344 N 
ATOM     32  H92 UNL     1      58.041  35.123  72.352  1.00  0.00     0.176 HD
ATOM     33  H91 UNL     1      56.467  35.892  72.041  1.00  0.00     0.176 HD
ENDBRANCH  29  31
ENDBRANCH  25  29
ENDBRANCH  23  25
ENDBRANCH  21  23
ENDBRANCH  20  21
ENDBRANCH  19  20
ENDBRANCH   1  19
TORSDOF 15
ENDMDL
