MODEL 1
REMARK VINA RESULT: -8.799392064      0.000      0.000
REMARK  8 active torsions:
REMARK  status: ('A' for Active; 'I' for Inactive)
REMARK    1  A    between atoms: C2_4  and  N2_5 
REMARK    2  A    between atoms: C2_4  and  C7_11 
REMARK    3  A    between atoms: N2_5  and  C3_7 
REMARK    4  A    between atoms: C7_11  and  N3_12 
REMARK    5  A    between atoms: C7_11  and  C9_23 
REMARK       I    between atoms: N3_12  and  C8_14 
REMARK       I    between atoms: C8_14  and  N4_15 
REMARK       I    between atoms: C8_14  and  N5_19 
REMARK       I    between atoms: C9_23  and  N6_25 
REMARK    6  A    between atoms: N6_25  and  C10_27 
REMARK    7  A    between atoms: C10_27  and  C11_28 
REMARK    8  A    between atoms: C10_27  and  C12_30 
ROOT
HETATM    1  C7  UNL     1      60.449  35.864  74.495  1.00  0.00     0.143 C 
ENDROOT
BRANCH   1   2
HETATM    2  C2  UNL     1      61.929  35.765  74.567  1.00  0.00     0.130 C 
HETATM    3  N1  UNL     1      62.652  36.325  73.645  1.00  0.00    -0.379 N 
HETATM    4  C1  UNL     1      64.070  36.310  73.635  1.00  0.00     0.147 C 
ATOM      5  H1  UNL     1      62.172  36.803  72.883  1.00  0.00     0.160 HD
BRANCH   2   6
HETATM    6  N2  UNL     1      62.585  35.108  75.611  1.00  0.00    -0.366 N 
ATOM      7  H2  UNL     1      63.021  34.223  75.354  1.00  0.00     0.162 HD
BRANCH   6   8
HETATM    8  C3  UNL     1      62.739  35.477  76.970  1.00  0.00     0.021 C 
HETATM    9  C4  UNL     1      61.826  36.581  77.453  1.00  0.00     0.037 C 
HETATM   10  C5  UNL     1      64.166  35.834  77.285  1.00  0.00     0.037 C 
HETATM   11  C6  UNL     1      62.395  34.256  77.865  1.00  0.00     0.037 C 
ENDBRANCH   6   8
ENDBRANCH   2   6
ENDBRANCH   1   2
BRANCH   1  12
HETATM   12  N3  UNL     1      59.965  36.810  73.562  1.00  0.00    -0.334 N 
HETATM   13  C8  UNL     1      58.580  36.914  73.327  1.00  0.00     0.481 C 
HETATM   14  N4  UNL     1      57.725  37.254  74.412  1.00  0.00    -0.033 N 
HETATM   15  N5  UNL     1      58.404  38.002  72.341  1.00  0.00    -0.033 N 
ATOM     16  H43 UNL     1      57.882  36.595  75.175  1.00  0.00     0.278 HD
ATOM     17  H42 UNL     1      58.054  38.123  74.832  1.00  0.00     0.278 HD
ATOM     18  H41 UNL     1      56.722  37.329  74.242  1.00  0.00     0.278 HD
ATOM     19  H53 UNL     1      58.833  38.882  72.628  1.00  0.00     0.278 HD
ATOM     20  H52 UNL     1      58.950  37.868  71.490  1.00  0.00     0.278 HD
ATOM     21  H51 UNL     1      57.401  38.077  72.171  1.00  0.00     0.278 HD
ATOM     22  H3  UNL     1      60.616  37.415  73.062  1.00  0.00     0.163 HD
ENDBRANCH   1  12
BRANCH   1  23
HETATM   23  C9  UNL     1      59.740  34.580  74.585  1.00  0.00     0.272 C 
HETATM   24  O1  UNL     1      59.734  33.774  73.624  1.00  0.00    -0.266 OA
HETATM   25  N6  UNL     1      59.025  34.163  75.736  1.00  0.00    -0.335 N 
ATOM     26  H6  UNL     1      59.002  34.787  76.542  1.00  0.00     0.164 HD
BRANCH  25  27
HETATM   27  C10 UNL     1      58.327  32.902  75.829  1.00  0.00     0.247 C 
BRANCH  27  28
HETATM   28  C11 UNL     1      57.086  33.010  76.640  1.00  0.00     0.267 C 
HETATM   29  O2  UNL     1      56.661  34.053  77.078  1.00  0.00    -0.304 OA
ENDBRANCH  27  28
BRANCH  27  30
HETATM   30  C12 UNL     1      59.168  31.815  76.356  1.00  0.00     0.203 C 
HETATM   31  O3  UNL     1      59.161  31.590  77.588  1.00  0.00    -0.646 OA
HETATM   32  O4  UNL     1      59.930  31.084  75.479  1.00  0.00    -0.646 OA
ENDBRANCH  27  30
ENDBRANCH  25  27
ENDBRANCH   1  23
TORSDOF 8
ENDMDL
MODEL 2
REMARK VINA RESULT: -8.782353729      1.341      2.090
REMARK  8 active torsions:
REMARK  status: ('A' for Active; 'I' for Inactive)
REMARK    1  A    between atoms: C2_4  and  N2_5 
REMARK    2  A    between atoms: C2_4  and  C7_11 
REMARK    3  A    between atoms: N2_5  and  C3_7 
REMARK    4  A    between atoms: C7_11  and  N3_12 
REMARK    5  A    between atoms: C7_11  and  C9_23 
REMARK       I    between atoms: N3_12  and  C8_14 
REMARK       I    between atoms: C8_14  and  N4_15 
REMARK       I    between atoms: C8_14  and  N5_19 
REMARK       I    between atoms: C9_23  and  N6_25 
REMARK    6  A    between atoms: N6_25  and  C10_27 
REMARK    7  A    between atoms: C10_27  and  C11_28 
REMARK    8  A    between atoms: C10_27  and  C12_30 
ROOT
HETATM    1  C7  UNL     1      59.831  35.321  74.921  1.00  0.00     0.143 C 
ENDROOT
BRANCH   1   2
HETATM    2  C2  UNL     1      61.302  35.276  74.724  1.00  0.00     0.130 C 
HETATM    3  N1  UNL     1      61.810  35.692  73.604  1.00  0.00    -0.379 N 
HETATM    4  C1  UNL     1      63.201  35.715  73.328  1.00  0.00     0.147 C 
ATOM      5  H1  UNL     1      61.171  36.023  72.881  1.00  0.00     0.160 HD
BRANCH   2   6
HETATM    6  N2  UNL     1      62.175  34.822  75.716  1.00  0.00    -0.366 N 
ATOM      7  H2  UNL     1      62.516  33.869  75.584  1.00  0.00     0.162 HD
BRANCH   6   8
HETATM    8  C3  UNL     1      62.662  35.474  76.875  1.00  0.00     0.021 C 
HETATM    9  C4  UNL     1      61.890  36.702  77.304  1.00  0.00     0.037 C 
HETATM   10  C5  UNL     1      64.120  35.821  76.741  1.00  0.00     0.037 C 
HETATM   11  C6  UNL     1      62.562  34.501  78.080  1.00  0.00     0.037 C 
ENDBRANCH   6   8
ENDBRANCH   2   6
ENDBRANCH   1   2
BRANCH   1  12
HETATM   12  N3  UNL     1      59.078  35.408  73.727  1.00  0.00    -0.334 N 
HETATM   13  C8  UNL     1      57.795  35.988  73.751  1.00  0.00     0.481 C 
HETATM   14  N4  UNL     1      57.664  37.343  74.165  1.00  0.00    -0.033 N 
HETATM   15  N5  UNL     1      57.297  35.958  72.359  1.00  0.00    -0.033 N 
ATOM     16  H43 UNL     1      58.092  37.450  75.084  1.00  0.00     0.278 HD
ATOM     17  H42 UNL     1      58.277  37.924  73.593  1.00  0.00     0.278 HD
ATOM     18  H41 UNL     1      56.734  37.764  74.182  1.00  0.00     0.278 HD
ATOM     19  H53 UNL     1      57.929  36.403  71.693  1.00  0.00     0.278 HD
ATOM     20  H52 UNL     1      57.312  35.027  71.944  1.00  0.00     0.278 HD
ATOM     21  H51 UNL     1      56.367  36.379  72.377  1.00  0.00     0.278 HD
ATOM     22  H3  UNL     1      59.463  35.052  72.852  1.00  0.00     0.163 HD
ENDBRANCH   1  12
BRANCH   1  23
HETATM   23  C9  UNL     1      59.323  34.436  75.977  1.00  0.00     0.272 C 
HETATM   24  O1  UNL     1      59.115  34.864  77.138  1.00  0.00    -0.266 OA
HETATM   25  N6  UNL     1      59.036  33.063  75.774  1.00  0.00    -0.335 N 
ATOM     26  H6  UNL     1      59.191  32.670  74.845  1.00  0.00     0.164 HD
BRANCH  25  27
HETATM   27  C10 UNL     1      58.536  32.188  76.809  1.00  0.00     0.247 C 
BRANCH  27  28
HETATM   28  C11 UNL     1      59.152  30.838  76.745  1.00  0.00     0.267 C 
HETATM   29  O2  UNL     1      59.923  30.495  75.880  1.00  0.00    -0.304 OA
ENDBRANCH  27  28
BRANCH  27  30
HETATM   30  C12 UNL     1      57.069  32.063  76.800  1.00  0.00     0.203 C 
HETATM   31  O3  UNL     1      56.545  31.072  77.359  1.00  0.00    -0.646 OA
HETATM   32  O4  UNL     1      56.325  33.036  76.179  1.00  0.00    -0.646 OA
ENDBRANCH  27  30
ENDBRANCH  25  27
ENDBRANCH   1  23
TORSDOF 8
ENDMDL
MODEL 3
REMARK VINA RESULT: -8.612390023      1.621      2.618
REMARK  8 active torsions:
REMARK  status: ('A' for Active; 'I' for Inactive)
REMARK    1  A    between atoms: C2_4  and  N2_5 
REMARK    2  A    between atoms: C2_4  and  C7_11 
REMARK    3  A    between atoms: N2_5  and  C3_7 
REMARK    4  A    between atoms: C7_11  and  N3_12 
REMARK    5  A    between atoms: C7_11  and  C9_23 
REMARK       I    between atoms: N3_12  and  C8_14 
REMARK       I    between atoms: C8_14  and  N4_15 
REMARK       I    between atoms: C8_14  and  N5_19 
REMARK       I    between atoms: C9_23  and  N6_25 
REMARK    6  A    between atoms: N6_25  and  C10_27 
REMARK    7  A    between atoms: C10_27  and  C11_28 
REMARK    8  A    between atoms: C10_27  and  C12_30 
ROOT
HETATM    1  C7  UNL     1      58.909  36.015  75.432  1.00  0.00     0.143 C 
ENDROOT
BRANCH   1   2
HETATM    2  C2  UNL     1      59.958  36.297  76.444  1.00  0.00     0.130 C 
HETATM    3  N1  UNL     1      59.629  36.390  77.697  1.00  0.00    -0.379 N 
HETATM    4  C1  UNL     1      60.557  36.630  78.742  1.00  0.00     0.147 C 
ATOM      5  H1  UNL     1      58.645  36.284  77.944  1.00  0.00     0.160 HD
BRANCH   2   6
HETATM    6  N2  UNL     1      61.305  36.442  76.104  1.00  0.00    -0.366 N 
ATOM      7  H2  UNL     1      61.628  37.407  76.033  1.00  0.00     0.162 HD
BRANCH   6   8
HETATM    8  C3  UNL     1      62.294  35.462  75.842  1.00  0.00     0.021 C 
HETATM    9  C4  UNL     1      62.596  35.216  74.381  1.00  0.00     0.037 C 
HETATM   10  C5  UNL     1      61.966  34.155  76.512  1.00  0.00     0.037 C 
HETATM   11  C6  UNL     1      63.642  35.930  76.454  1.00  0.00     0.037 C 
ENDBRANCH   6   8
ENDBRANCH   2   6
ENDBRANCH   1   2
BRANCH   1  12
HETATM   12  N3  UNL     1      59.238  36.412  74.115  1.00  0.00    -0.334 N 
HETATM   13  C8  UNL     1      58.660  35.742  73.019  1.00  0.00     0.481 C 
HETATM   14  N4  UNL     1      57.244  35.754  72.878  1.00  0.00    -0.033 N 
HETATM   15  N5  UNL     1      59.175  36.408  71.803  1.00  0.00    -0.033 N 
ATOM     16  H43 UNL     1      56.825  35.403  73.739  1.00  0.00     0.278 HD
ATOM     17  H42 UNL     1      56.921  36.721  72.882  1.00  0.00     0.278 HD
ATOM     18  H41 UNL     1      56.825  35.269  72.085  1.00  0.00     0.278 HD
ATOM     19  H53 UNL     1      59.012  37.416  71.793  1.00  0.00     0.278 HD
ATOM     20  H52 UNL     1      60.193  36.446  71.763  1.00  0.00     0.278 HD
ATOM     21  H51 UNL     1      58.756  35.923  71.009  1.00  0.00     0.278 HD
ATOM     22  H3  UNL     1      59.892  37.179  73.959  1.00  0.00     0.163 HD
ENDBRANCH   1  12
BRANCH   1  23
HETATM   23  C9  UNL     1      58.221  34.729  75.598  1.00  0.00     0.272 C 
HETATM   24  O1  UNL     1      56.972  34.645  75.509  1.00  0.00    -0.266 OA
HETATM   25  N6  UNL     1      58.895  33.512  75.867  1.00  0.00    -0.335 N 
ATOM     26  H6  UNL     1      59.911  33.532  75.950  1.00  0.00     0.164 HD
BRANCH  25  27
HETATM   27  C10 UNL     1      58.222  32.244  76.032  1.00  0.00     0.247 C 
BRANCH  27  28
HETATM   28  C11 UNL     1      57.328  32.237  77.219  1.00  0.00     0.267 C 
HETATM   29  O2  UNL     1      56.170  31.894  77.181  1.00  0.00    -0.304 OA
ENDBRANCH  27  28
BRANCH  27  30
HETATM   30  C12 UNL     1      59.150  31.104  76.106  1.00  0.00     0.203 C 
HETATM   31  O3  UNL     1      60.140  31.081  75.339  1.00  0.00    -0.646 OA
HETATM   32  O4  UNL     1      58.901  30.106  77.015  1.00  0.00    -0.646 OA
ENDBRANCH  27  30
ENDBRANCH  25  27
ENDBRANCH   1  23
TORSDOF 8
ENDMDL
MODEL 4
REMARK VINA RESULT: -8.572038161      1.546      1.895
REMARK  8 active torsions:
REMARK  status: ('A' for Active; 'I' for Inactive)
REMARK    1  A    between atoms: C2_4  and  N2_5 
REMARK    2  A    between atoms: C2_4  and  C7_11 
REMARK    3  A    between atoms: N2_5  and  C3_7 
REMARK    4  A    between atoms: C7_11  and  N3_12 
REMARK    5  A    between atoms: C7_11  and  C9_23 
REMARK       I    between atoms: N3_12  and  C8_14 
REMARK       I    between atoms: C8_14  and  N4_15 
REMARK       I    between atoms: C8_14  and  N5_19 
REMARK       I    between atoms: C9_23  and  N6_25 
REMARK    6  A    between atoms: N6_25  and  C10_27 
REMARK    7  A    between atoms: C10_27  and  C11_28 
REMARK    8  A    between atoms: C10_27  and  C12_30 
ROOT
HETATM    1  C7  UNL     1      59.796  34.091  74.920  1.00  0.00     0.143 C 
ENDROOT
BRANCH   1   2
HETATM    2  C2  UNL     1      61.224  34.453  74.737  1.00  0.00     0.130 C 
HETATM    3  N1  UNL     1      61.618  34.949  73.604  1.00  0.00    -0.379 N 
HETATM    4  C1  UNL     1      62.952  35.350  73.337  1.00  0.00     0.147 C 
ATOM      5  H1  UNL     1      60.926  35.056  72.861  1.00  0.00     0.160 HD
BRANCH   2   6
HETATM    6  N2  UNL     1      62.169  34.304  75.755  1.00  0.00    -0.366 N 
ATOM      7  H2  UNL     1      62.746  33.465  75.686  1.00  0.00     0.162 HD
BRANCH   6   8
HETATM    8  C3  UNL     1      62.454  35.133  76.868  1.00  0.00     0.021 C 
HETATM    9  C4  UNL     1      61.451  36.234  77.134  1.00  0.00     0.037 C 
HETATM   10  C5  UNL     1      63.834  35.726  76.776  1.00  0.00     0.037 C 
HETATM   11  C6  UNL     1      62.445  34.267  78.157  1.00  0.00     0.037 C 
ENDBRANCH   6   8
ENDBRANCH   2   6
ENDBRANCH   1   2
BRANCH   1  12
HETATM   12  N3  UNL     1      58.931  34.573  73.910  1.00  0.00    -0.334 N 
HETATM   13  C8  UNL     1      57.953  35.536  74.229  1.00  0.00     0.481 C 
HETATM   14  N4  UNL     1      58.374  36.794  74.742  1.00  0.00    -0.033 N 
HETATM   15  N5  UNL     1      57.249  35.849  72.966  1.00  0.00    -0.033 N 
ATOM     16  H43 UNL     1      58.961  36.636  75.561  1.00  0.00     0.278 HD
ATOM     17  H42 UNL     1      59.046  37.207  74.095  1.00  0.00     0.278 HD
ATOM     18  H41 UNL     1      57.667  37.492  74.973  1.00  0.00     0.278 HD
ATOM     19  H53 UNL     1      57.875  36.141  72.215  1.00  0.00     0.278 HD
ATOM     20  H52 UNL     1      56.869  35.026  72.500  1.00  0.00     0.278 HD
ATOM     21  H51 UNL     1      56.542  36.547  73.197  1.00  0.00     0.278 HD
ATOM     22  H3  UNL     1      59.014  34.224  72.955  1.00  0.00     0.163 HD
ENDBRANCH   1  12
BRANCH   1  23
HETATM   23  C9  UNL     1      59.564  32.728  75.415  1.00  0.00     0.272 C 
HETATM   24  O1  UNL     1      60.173  31.747  74.924  1.00  0.00    -0.266 OA
HETATM   25  N6  UNL     1      58.656  32.421  76.459  1.00  0.00    -0.335 N 
ATOM     26  H6  UNL     1      58.137  33.187  76.888  1.00  0.00     0.164 HD
BRANCH  25  27
HETATM   27  C10 UNL     1      58.424  31.082  76.949  1.00  0.00     0.247 C 
BRANCH  27  28
HETATM   28  C11 UNL     1      57.009  30.872  77.352  1.00  0.00     0.267 C 
HETATM   29  O2  UNL     1      56.178  31.749  77.358  1.00  0.00    -0.304 OA
ENDBRANCH  27  28
BRANCH  27  30
HETATM   30  C12 UNL     1      59.314  30.713  78.062  1.00  0.00     0.203 C 
HETATM   31  O3  UNL     1      60.347  31.394  78.260  1.00  0.00    -0.646 OA
HETATM   32  O4  UNL     1      58.982  29.637  78.847  1.00  0.00    -0.646 OA
ENDBRANCH  27  30
ENDBRANCH  25  27
ENDBRANCH   1  23
TORSDOF 8
ENDMDL
MODEL 5
REMARK VINA RESULT: -8.568879799      1.101      2.032
REMARK  8 active torsions:
REMARK  status: ('A' for Active; 'I' for Inactive)
REMARK    1  A    between atoms: C2_4  and  N2_5 
REMARK    2  A    between atoms: C2_4  and  C7_11 
REMARK    3  A    between atoms: N2_5  and  C3_7 
REMARK    4  A    between atoms: C7_11  and  N3_12 
REMARK    5  A    between atoms: C7_11  and  C9_23 
REMARK       I    between atoms: N3_12  and  C8_14 
REMARK       I    between atoms: C8_14  and  N4_15 
REMARK       I    between atoms: C8_14  and  N5_19 
REMARK       I    between atoms: C9_23  and  N6_25 
REMARK    6  A    between atoms: N6_25  and  C10_27 
REMARK    7  A    between atoms: C10_27  and  C11_28 
REMARK    8  A    between atoms: C10_27  and  C12_30 
ROOT
HETATM    1  C7  UNL     1      60.679  36.228  75.068  1.00  0.00     0.143 C 
ENDROOT
BRANCH   1   2
HETATM    2  C2  UNL     1      62.151  36.028  75.089  1.00  0.00     0.130 C 
HETATM    3  N1  UNL     1      62.879  36.537  74.142  1.00  0.00    -0.379 N 
HETATM    4  C1  UNL     1      64.292  36.424  74.085  1.00  0.00     0.147 C 
ATOM      5  H1  UNL     1      62.407  37.047  73.396  1.00  0.00     0.160 HD
BRANCH   2   6
HETATM    6  N2  UNL     1      62.795  35.328  76.112  1.00  0.00    -0.366 N 
ATOM      7  H2  UNL     1      63.037  34.363  75.886  1.00  0.00     0.162 HD
BRANCH   6   8
HETATM    8  C3  UNL     1      63.165  35.745  77.415  1.00  0.00     0.021 C 
HETATM    9  C4  UNL     1      62.440  36.965  77.938  1.00  0.00     0.037 C 
HETATM   10  C5  UNL     1      64.650  35.961  77.523  1.00  0.00     0.037 C 
HETATM   11  C6  UNL     1      62.821  34.615  78.422  1.00  0.00     0.037 C 
ENDBRANCH   6   8
ENDBRANCH   2   6
ENDBRANCH   1   2
BRANCH   1  12
HETATM   12  N3  UNL     1      60.151  36.587  73.805  1.00  0.00    -0.334 N 
HETATM   13  C8  UNL     1      58.767  36.474  73.570  1.00  0.00     0.481 C 
HETATM   14  N4  UNL     1      57.871  37.228  74.378  1.00  0.00    -0.033 N 
HETATM   15  N5  UNL     1      58.538  36.952  72.189  1.00  0.00    -0.033 N 
ATOM     16  H43 UNL     1      58.058  37.019  75.359  1.00  0.00     0.278 HD
ATOM     17  H42 UNL     1      58.134  38.212  74.333  1.00  0.00     0.278 HD
ATOM     18  H41 UNL     1      56.869  37.146  74.208  1.00  0.00     0.278 HD
ATOM     19  H53 UNL     1      58.902  37.890  72.020  1.00  0.00     0.278 HD
ATOM     20  H52 UNL     1      59.108  36.470  71.494  1.00  0.00     0.278 HD
ATOM     21  H51 UNL     1      57.536  36.870  72.019  1.00  0.00     0.278 HD
ATOM     22  H3  UNL     1      60.770  36.926  73.069  1.00  0.00     0.163 HD
ENDBRANCH   1  12
BRANCH   1  23
HETATM   23  C9  UNL     1      59.914  35.266  75.872  1.00  0.00     0.272 C 
HETATM   24  O1  UNL     1      59.677  35.479  77.085  1.00  0.00    -0.266 OA
HETATM   25  N6  UNL     1      59.398  34.052  75.354  1.00  0.00    -0.335 N 
ATOM     26  H6  UNL     1      59.568  33.836  74.372  1.00  0.00     0.164 HD
BRANCH  25  27
HETATM   27  C10 UNL     1      58.645  33.104  76.141  1.00  0.00     0.247 C 
BRANCH  27  28
HETATM   28  C11 UNL     1      58.805  31.713  75.642  1.00  0.00     0.267 C 
HETATM   29  O2  UNL     1      59.878  31.193  75.441  1.00  0.00    -0.304 OA
ENDBRANCH  27  28
BRANCH  27  30
HETATM   30  C12 UNL     1      57.214  33.435  76.229  1.00  0.00     0.203 C 
HETATM   31  O3  UNL     1      56.806  34.495  75.701  1.00  0.00    -0.646 OA
HETATM   32  O4  UNL     1      56.374  32.570  76.886  1.00  0.00    -0.646 OA
ENDBRANCH  27  30
ENDBRANCH  25  27
ENDBRANCH   1  23
TORSDOF 8
ENDMDL
