MODEL 1
REMARK VINA RESULT: -9.041163092      0.000      0.000
REMARK  9 active torsions:
REMARK  status: ('A' for Active; 'I' for Inactive)
REMARK       I    between atoms: C2_2  and  N1_4 
REMARK    1  A    between atoms: N1_4  and  C3_6 
REMARK    2  A    between atoms: C4_7  and  O2_8 
REMARK    3  A    between atoms: C6_11  and  C7_12 
REMARK    4  A    between atoms: C7_12  and  N3_14 
REMARK    5  A    between atoms: N3_14  and  C8_16 
REMARK    6  A    between atoms: C8_16  and  C9_17 
REMARK    7  A    between atoms: C8_16  and  C10_20 
REMARK    8  A    between atoms: C10_20  and  O4_22 
REMARK    9  A    between atoms: C12_24  and  C13_25 
ROOT
HETATM    1  C3  UNL     1      62.395  35.911  73.621  1.00  0.00     0.122 C 
HETATM    2  C4  UNL     1      62.632  35.988  75.093  1.00  0.00     0.142 C 
HETATM    3  C5  UNL     1      61.645  35.045  75.767  1.00  0.00     0.046 C 
HETATM    4  C6  UNL     1      60.627  34.683  74.752  1.00  0.00     0.064 C 
HETATM    5  C12 UNL     1      61.266  34.929  73.388  1.00  0.00     0.060 C 
ENDROOT
BRANCH   4   6
HETATM    6  C7  UNL     1      60.106  33.252  74.842  1.00  0.00     0.094 C 
HETATM    7  N2  UNL     1      61.024  32.418  74.185  1.00  0.00    -0.087 NA
BRANCH   6   8
HETATM    8  N3  UNL     1      59.515  32.895  76.053  1.00  0.00    -0.366 N 
ATOM      9  H3  UNL     1      60.052  33.032  76.910  1.00  0.00     0.161 HD
BRANCH   8  10
HETATM   10  C8  UNL     1      58.230  32.358  76.159  1.00  0.00     0.200 C 
BRANCH  10  11
HETATM   11  C9  UNL     1      57.276  33.332  76.733  1.00  0.00     0.256 C 
HETATM   12  N4  UNL     1      57.635  34.564  77.315  1.00  0.00    -0.060 NA
HETATM   13  O3  UNL     1      56.044  33.056  76.711  1.00  0.00    -0.274 OA
ENDBRANCH  10  11
BRANCH  10  14
HETATM   14  C10 UNL     1      58.249  31.184  77.169  1.00  0.00     0.145 C 
HETATM   15  C11 UNL     1      59.533  30.409  77.094  1.00  0.00     0.042 C 
BRANCH  14  16
HETATM   16  O4  UNL     1      58.082  31.662  78.462  1.00  0.00    -0.393 OA
ATOM     17  H4  UNL     1      58.443  31.045  79.088  1.00  0.00     0.210 HD
ENDBRANCH  14  16
ENDBRANCH  10  14
ENDBRANCH   8  10
ENDBRANCH   6   8
ENDBRANCH   4   6
BRANCH   5  18
HETATM   18  C13 UNL     1      60.316  35.442  72.388  1.00  0.00     0.060 C 
HETATM   19  N5  UNL     1      60.017  36.675  72.356  1.00  0.00    -0.411 N 
ATOM     20  H52 UNL     1      60.447  37.302  73.036  1.00  0.00     0.155 HD
ATOM     21  H51 UNL     1      59.359  37.030  71.663  1.00  0.00     0.155 HD
ENDBRANCH   5  18
BRANCH   2  22
HETATM   22  O2  UNL     1      63.912  35.607  75.467  1.00  0.00    -0.393 OA
ATOM     23  H2  UNL     1      63.931  35.042  76.229  1.00  0.00     0.210 HD
ENDBRANCH   2  22
BRANCH   1  24
HETATM   24  N1  UNL     1      63.534  35.418  72.872  1.00  0.00    -0.354 N 
HETATM   25  C2  UNL     1      64.664  36.234  72.614  1.00  0.00     0.214 C 
HETATM   26  C1  UNL     1      65.794  35.679  71.845  1.00  0.00     0.117 C 
HETATM   27  O1  UNL     1      64.682  37.425  73.047  1.00  0.00    -0.274 OA
ATOM     28  H1  UNL     1      63.522  34.459  72.521  1.00  0.00     0.163 HD
ENDBRANCH   1  24
TORSDOF 9
ENDMDL
MODEL 2
REMARK VINA RESULT: -8.792949973      2.177      3.320
REMARK  9 active torsions:
REMARK  status: ('A' for Active; 'I' for Inactive)
REMARK       I    between atoms: C2_2  and  N1_4 
REMARK    1  A    between atoms: N1_4  and  C3_6 
REMARK    2  A    between atoms: C4_7  and  O2_8 
REMARK    3  A    between atoms: C6_11  and  C7_12 
REMARK    4  A    between atoms: C7_12  and  N3_14 
REMARK    5  A    between atoms: N3_14  and  C8_16 
REMARK    6  A    between atoms: C8_16  and  C9_17 
REMARK    7  A    between atoms: C8_16  and  C10_20 
REMARK    8  A    between atoms: C10_20  and  O4_22 
REMARK    9  A    between atoms: C12_24  and  C13_25 
ROOT
HETATM    1  C3  UNL     1      60.577  36.400  74.619  1.00  0.00     0.122 C 
HETATM    2  C4  UNL     1      59.134  36.379  74.240  1.00  0.00     0.142 C 
HETATM    3  C5  UNL     1      58.723  34.923  74.072  1.00  0.00     0.046 C 
HETATM    4  C6  UNL     1      59.970  34.124  74.015  1.00  0.00     0.064 C 
HETATM    5  C12 UNL     1      61.057  34.965  74.679  1.00  0.00     0.060 C 
ENDROOT
BRANCH   4   6
HETATM    6  C7  UNL     1      59.888  32.749  74.672  1.00  0.00     0.094 C 
HETATM    7  N2  UNL     1      61.071  32.058  74.371  1.00  0.00    -0.087 NA
BRANCH   6   8
HETATM    8  N3  UNL     1      59.312  32.716  75.942  1.00  0.00    -0.366 N 
ATOM      9  H3  UNL     1      59.831  33.128  76.717  1.00  0.00     0.161 HD
BRANCH   8  10
HETATM   10  C8  UNL     1      58.064  32.149  76.211  1.00  0.00     0.200 C 
BRANCH  10  11
HETATM   11  C9  UNL     1      57.120  33.142  76.768  1.00  0.00     0.256 C 
HETATM   12  N4  UNL     1      57.483  34.414  77.254  1.00  0.00    -0.060 NA
HETATM   13  O3  UNL     1      55.894  32.847  76.822  1.00  0.00    -0.274 OA
ENDBRANCH  10  11
BRANCH  10  14
HETATM   14  C10 UNL     1      58.218  31.084  77.324  1.00  0.00     0.145 C 
HETATM   15  C11 UNL     1      59.562  30.418  77.273  1.00  0.00     0.042 C 
BRANCH  14  16
HETATM   16  O4  UNL     1      58.048  31.668  78.572  1.00  0.00    -0.393 OA
ATOM     17  H4  UNL     1      58.871  31.672  79.047  1.00  0.00     0.210 HD
ENDBRANCH  14  16
ENDBRANCH  10  14
ENDBRANCH   8  10
ENDBRANCH   6   8
ENDBRANCH   4   6
BRANCH   5  18
HETATM   18  C13 UNL     1      62.374  34.819  74.039  1.00  0.00     0.060 C 
HETATM   19  N5  UNL     1      62.471  34.349  72.864  1.00  0.00    -0.411 N 
ATOM     20  H52 UNL     1      61.619  34.075  72.374  1.00  0.00     0.155 HD
ATOM     21  H51 UNL     1      63.384  34.248  72.421  1.00  0.00     0.155 HD
ENDBRANCH   5  18
BRANCH   2  22
HETATM   22  O2  UNL     1      58.305  36.950  75.195  1.00  0.00    -0.393 OA
ATOM     23  H2  UNL     1      58.766  37.502  75.814  1.00  0.00     0.210 HD
ENDBRANCH   2  22
BRANCH   1  24
HETATM   24  N1  UNL     1      60.831  36.976  75.924  1.00  0.00    -0.354 N 
HETATM   25  C2  UNL     1      60.876  36.176  77.094  1.00  0.00     0.214 C 
HETATM   26  C1  UNL     1      61.138  36.817  78.396  1.00  0.00     0.117 C 
HETATM   27  O1  UNL     1      60.691  34.926  76.999  1.00  0.00    -0.274 OA
ATOM     28  H1  UNL     1      60.980  37.983  76.003  1.00  0.00     0.163 HD
ENDBRANCH   1  24
TORSDOF 9
ENDMDL
MODEL 3
REMARK VINA RESULT: -8.634665410      2.577      5.657
REMARK  9 active torsions:
REMARK  status: ('A' for Active; 'I' for Inactive)
REMARK       I    between atoms: C2_2  and  N1_4 
REMARK    1  A    between atoms: N1_4  and  C3_6 
REMARK    2  A    between atoms: C4_7  and  O2_8 
REMARK    3  A    between atoms: C6_11  and  C7_12 
REMARK    4  A    between atoms: C7_12  and  N3_14 
REMARK    5  A    between atoms: N3_14  and  C8_16 
REMARK    6  A    between atoms: C8_16  and  C9_17 
REMARK    7  A    between atoms: C8_16  and  C10_20 
REMARK    8  A    between atoms: C10_20  and  O4_22 
REMARK    9  A    between atoms: C12_24  and  C13_25 
ROOT
HETATM    1  C3  UNL     1      59.228  33.536  74.551  1.00  0.00     0.122 C 
HETATM    2  C4  UNL     1      60.448  33.095  73.812  1.00  0.00     0.142 C 
HETATM    3  C5  UNL     1      61.426  34.261  73.801  1.00  0.00     0.046 C 
HETATM    4  C6  UNL     1      60.670  35.466  74.220  1.00  0.00     0.064 C 
HETATM    5  C12 UNL     1      59.450  34.968  74.990  1.00  0.00     0.060 C 
ENDROOT
BRANCH   4   6
HETATM    6  C7  UNL     1      61.459  36.462  75.064  1.00  0.00     0.094 C 
HETATM    7  N2  UNL     1      61.818  37.537  74.236  1.00  0.00    -0.087 NA
BRANCH   6   8
HETATM    8  N3  UNL     1      61.001  36.651  76.367  1.00  0.00    -0.366 N 
ATOM      9  H3  UNL     1      60.029  36.928  76.501  1.00  0.00     0.161 HD
BRANCH   8  10
HETATM   10  C8  UNL     1      61.800  36.483  77.500  1.00  0.00     0.200 C 
BRANCH  10  11
HETATM   11  C9  UNL     1      62.409  35.135  77.546  1.00  0.00     0.256 C 
HETATM   12  N4  UNL     1      61.705  33.928  77.356  1.00  0.00    -0.060 NA
HETATM   13  O3  UNL     1      63.646  35.037  77.774  1.00  0.00    -0.274 OA
ENDBRANCH  10  11
BRANCH  10  14
HETATM   14  C10 UNL     1      60.912  36.557  78.767  1.00  0.00     0.145 C 
HETATM   15  C11 UNL     1      59.452  36.512  78.423  1.00  0.00     0.042 C 
BRANCH  14  16
HETATM   16  O4  UNL     1      61.211  35.505  79.622  1.00  0.00    -0.393 OA
ATOM     17  H4  UNL     1      60.504  34.870  79.619  1.00  0.00     0.210 HD
ENDBRANCH  14  16
ENDBRANCH  10  14
ENDBRANCH   8  10
ENDBRANCH   6   8
ENDBRANCH   4   6
BRANCH   5  18
HETATM   18  C13 UNL     1      58.248  35.785  74.759  1.00  0.00     0.060 C 
HETATM   19  N5  UNL     1      57.430  35.482  73.838  1.00  0.00    -0.411 N 
ATOM     20  H52 UNL     1      57.621  34.663  73.261  1.00  0.00     0.155 HD
ATOM     21  H51 UNL     1      56.596  36.048  73.679  1.00  0.00     0.155 HD
ENDBRANCH   5  18
BRANCH   2  22
HETATM   22  O2  UNL     1      61.084  32.008  74.395  1.00  0.00    -0.393 OA
ATOM     23  H2  UNL     1      62.031  32.054  74.345  1.00  0.00     0.210 HD
ENDBRANCH   2  22
BRANCH   1  24
HETATM   24  N1  UNL     1      58.965  32.770  75.753  1.00  0.00    -0.354 N 
HETATM   25  C2  UNL     1      57.645  32.555  76.223  1.00  0.00     0.214 C 
HETATM   26  C1  UNL     1      57.436  31.768  77.453  1.00  0.00     0.117 C 
HETATM   27  O1  UNL     1      56.668  33.043  75.578  1.00  0.00    -0.274 OA
ATOM     28  H1  UNL     1      59.749  32.377  76.274  1.00  0.00     0.163 HD
ENDBRANCH   1  24
TORSDOF 9
ENDMDL
MODEL 4
REMARK VINA RESULT: -8.613012064      2.086      7.083
REMARK  9 active torsions:
REMARK  status: ('A' for Active; 'I' for Inactive)
REMARK       I    between atoms: C2_2  and  N1_4 
REMARK    1  A    between atoms: N1_4  and  C3_6 
REMARK    2  A    between atoms: C4_7  and  O2_8 
REMARK    3  A    between atoms: C6_11  and  C7_12 
REMARK    4  A    between atoms: C7_12  and  N3_14 
REMARK    5  A    between atoms: N3_14  and  C8_16 
REMARK    6  A    between atoms: C8_16  and  C9_17 
REMARK    7  A    between atoms: C8_16  and  C10_20 
REMARK    8  A    between atoms: C10_20  and  O4_22 
REMARK    9  A    between atoms: C12_24  and  C13_25 
ROOT
HETATM    1  C3  UNL     1      58.523  35.657  74.963  1.00  0.00     0.122 C 
HETATM    2  C4  UNL     1      58.204  36.312  73.660  1.00  0.00     0.142 C 
HETATM    3  C5  UNL     1      59.489  36.367  72.846  1.00  0.00     0.046 C 
HETATM    4  C6  UNL     1      60.605  36.069  73.775  1.00  0.00     0.064 C 
HETATM    5  C12 UNL     1      59.998  35.316  74.956  1.00  0.00     0.060 C 
ENDROOT
BRANCH   4   6
HETATM    6  C7  UNL     1      61.754  35.268  73.169  1.00  0.00     0.094 C 
HETATM    7  N2  UNL     1      61.201  34.176  72.484  1.00  0.00    -0.087 NA
BRANCH   6   8
HETATM    8  N3  UNL     1      62.806  36.017  72.644  1.00  0.00    -0.366 N 
ATOM      9  H3  UNL     1      62.589  36.733  71.951  1.00  0.00     0.161 HD
BRANCH   8  10
HETATM   10  C8  UNL     1      64.141  35.841  73.014  1.00  0.00     0.200 C 
BRANCH  10  11
HETATM   11  C9  UNL     1      64.448  36.512  74.297  1.00  0.00     0.256 C 
HETATM   12  N4  UNL     1      64.092  36.017  75.568  1.00  0.00    -0.060 NA
HETATM   13  O3  UNL     1      65.070  37.610  74.272  1.00  0.00    -0.274 OA
ENDBRANCH  10  11
BRANCH  10  14
HETATM   14  C10 UNL     1      65.055  36.539  71.977  1.00  0.00     0.145 C 
HETATM   15  C11 UNL     1      65.596  35.566  70.971  1.00  0.00     0.042 C 
BRANCH  14  16
HETATM   16  O4  UNL     1      64.350  37.535  71.313  1.00  0.00    -0.393 OA
ATOM     17  H4  UNL     1      64.882  37.902  70.616  1.00  0.00     0.210 HD
ENDBRANCH  14  16
ENDBRANCH  10  14
ENDBRANCH   8  10
ENDBRANCH   6   8
ENDBRANCH   4   6
BRANCH   5  18
HETATM   18  C13 UNL     1      60.627  35.654  76.242  1.00  0.00     0.060 C 
HETATM   19  N5  UNL     1      61.109  36.811  76.440  1.00  0.00    -0.411 N 
ATOM     20  H52 UNL     1      61.052  37.501  75.690  1.00  0.00     0.155 HD
ATOM     21  H51 UNL     1      61.544  37.045  77.332  1.00  0.00     0.155 HD
ENDBRANCH   5  18
BRANCH   2  22
HETATM   22  O2  UNL     1      57.256  35.626  72.916  1.00  0.00    -0.393 OA
ATOM     23  H2  UNL     1      57.213  35.904  72.009  1.00  0.00     0.210 HD
ENDBRANCH   2  22
BRANCH   1  24
HETATM   24  N1  UNL     1      57.812  34.414  75.182  1.00  0.00    -0.354 N 
HETATM   25  C2  UNL     1      57.356  34.036  76.471  1.00  0.00     0.214 C 
HETATM   26  C1  UNL     1      56.636  32.758  76.635  1.00  0.00     0.117 C 
HETATM   27  O1  UNL     1      57.574  34.802  77.457  1.00  0.00    -0.274 OA
ATOM     28  H1  UNL     1      57.634  33.796  74.390  1.00  0.00     0.163 HD
ENDBRANCH   1  24
TORSDOF 9
ENDMDL
MODEL 5
REMARK VINA RESULT: -8.535960389      1.595      2.216
REMARK  9 active torsions:
REMARK  status: ('A' for Active; 'I' for Inactive)
REMARK       I    between atoms: C2_2  and  N1_4 
REMARK    1  A    between atoms: N1_4  and  C3_6 
REMARK    2  A    between atoms: C4_7  and  O2_8 
REMARK    3  A    between atoms: C6_11  and  C7_12 
REMARK    4  A    between atoms: C7_12  and  N3_14 
REMARK    5  A    between atoms: N3_14  and  C8_16 
REMARK    6  A    between atoms: C8_16  and  C9_17 
REMARK    7  A    between atoms: C8_16  and  C10_20 
REMARK    8  A    between atoms: C10_20  and  O4_22 
REMARK    9  A    between atoms: C12_24  and  C13_25 
ROOT
HETATM    1  C3  UNL     1      62.165  36.102  75.256  1.00  0.00     0.122 C 
HETATM    2  C4  UNL     1      60.838  36.650  75.663  1.00  0.00     0.142 C 
HETATM    3  C5  UNL     1      59.789  35.589  75.362  1.00  0.00     0.046 C 
HETATM    4  C6  UNL     1      60.431  34.581  74.486  1.00  0.00     0.064 C 
HETATM    5  C12 UNL     1      61.937  34.712  74.702  1.00  0.00     0.060 C 
ENDROOT
BRANCH   4   6
HETATM    6  C7  UNL     1      59.985  33.141  74.722  1.00  0.00     0.094 C 
HETATM    7  N2  UNL     1      60.961  32.294  74.176  1.00  0.00    -0.087 NA
BRANCH   6   8
HETATM    8  N3  UNL     1      59.386  32.885  75.955  1.00  0.00    -0.366 N 
ATOM      9  H3  UNL     1      59.889  33.156  76.800  1.00  0.00     0.161 HD
BRANCH   8  10
HETATM   10  C8  UNL     1      58.137  32.277  76.097  1.00  0.00     0.200 C 
BRANCH  10  11
HETATM   11  C9  UNL     1      57.125  33.220  76.621  1.00  0.00     0.256 C 
HETATM   12  N4  UNL     1      57.418  34.402  77.331  1.00  0.00    -0.060 NA
HETATM   13  O3  UNL     1      55.904  32.965  76.431  1.00  0.00    -0.274 OA
ENDBRANCH  10  11
BRANCH  10  14
HETATM   14  C10 UNL     1      58.230  31.164  77.170  1.00  0.00     0.145 C 
HETATM   15  C11 UNL     1      59.553  30.456  77.121  1.00  0.00     0.042 C 
BRANCH  14  16
HETATM   16  O4  UNL     1      58.052  31.705  78.437  1.00  0.00    -0.393 OA
ATOM     17  H4  UNL     1      58.821  31.546  78.972  1.00  0.00     0.210 HD
ENDBRANCH  14  16
ENDBRANCH  10  14
ENDBRANCH   8  10
ENDBRANCH   6   8
ENDBRANCH   4   6
BRANCH   5  18
HETATM   18  C13 UNL     1      62.718  34.495  73.474  1.00  0.00     0.060 C 
HETATM   19  N5  UNL     1      63.186  35.481  72.826  1.00  0.00    -0.411 N 
ATOM     20  H52 UNL     1      63.010  36.424  73.172  1.00  0.00     0.155 HD
ATOM     21  H51 UNL     1      63.728  35.331  71.975  1.00  0.00     0.155 HD
ENDBRANCH   5  18
BRANCH   2  22
HETATM   22  O2  UNL     1      60.759  36.959  77.013  1.00  0.00    -0.393 OA
ATOM     23  H2  UNL     1      61.323  36.422  77.557  1.00  0.00     0.210 HD
ENDBRANCH   2  22
BRANCH   1  24
HETATM   24  N1  UNL     1      63.101  35.961  76.354  1.00  0.00    -0.354 N 
HETATM   25  C2  UNL     1      64.474  36.283  76.206  1.00  0.00     0.214 C 
HETATM   26  C1  UNL     1      65.381  36.120  77.358  1.00  0.00     0.117 C 
HETATM   27  O1  UNL     1      64.896  36.704  75.087  1.00  0.00    -0.274 OA
ATOM     28  H1  UNL     1      62.763  35.622  77.255  1.00  0.00     0.163 HD
ENDBRANCH   1  24
TORSDOF 9
ENDMDL
