MODEL 1
REMARK VINA RESULT: -8.641149837      0.000      0.000
REMARK  7 active torsions:
REMARK  status: ('A' for Active; 'I' for Inactive)
REMARK    1  A    between atoms: C2_2  and  N1_3 
REMARK    2  A    between atoms: C2_2  and  C3_7 
REMARK    3  A    between atoms: N1_3  and  N2_4 
REMARK    4  A    between atoms: C3_7  and  N3_8 
REMARK    5  A    between atoms: C3_7  and  C10_26 
REMARK       I    between atoms: N3_8  and  C4_10 
REMARK    6  A    between atoms: C4_10  and  C5_12 
REMARK       I    between atoms: N4_16  and  C9_17 
REMARK       I    between atoms: C9_17  and  N6_21 
REMARK    7  A    between atoms: N6_21  and  N7_23 
ROOT
HETATM    1  C5  UNL     1      60.237  34.290  75.227  1.00  0.00     0.194 C 
HETATM    2  C6  UNL     1      61.095  33.257  74.507  1.00  0.00     0.037 C 
HETATM    3  C7  UNL     1      61.125  33.793  73.112  1.00  0.00     0.023 C 
HETATM    4  C8  UNL     1      59.897  34.622  72.934  1.00  0.00     0.142 C 
HETATM    5  N4  UNL     1      59.281  34.759  74.257  1.00  0.00    -0.203 N 
HETATM    6  C9  UNL     1      57.981  35.270  74.433  1.00  0.00     0.694 C 
HETATM    7  N5  UNL     1      57.718  36.487  74.160  1.00  0.00    -0.233 N 
ATOM      8  H51 UNL     1      56.776  36.858  74.289  1.00  0.00     0.174 HD
ATOM      9  H52 UNL     1      58.453  37.101  73.810  1.00  0.00     0.174 HD
HETATM   10  N6  UNL     1      56.966  34.422  74.918  1.00  0.00    -0.072 N 
ATOM     11  H6  UNL     1      56.088  34.376  74.401  1.00  0.00     0.212 HD
ENDROOT
BRANCH   1  12
HETATM   12  C4  UNL     1      61.072  35.395  75.759  1.00  0.00     0.242 C 
HETATM   13  N3  UNL     1      62.255  35.104  76.467  1.00  0.00    -0.343 N 
ATOM     14  H3  UNL     1      62.535  34.134  76.613  1.00  0.00     0.163 HD
HETATM   15  O1  UNL     1      60.682  36.573  75.553  1.00  0.00    -0.271 OA
BRANCH  13  16
HETATM   16  C3  UNL     1      63.072  36.178  76.986  1.00  0.00     0.206 C 
BRANCH  16  17
HETATM   17  C2  UNL     1      63.279  35.887  78.457  1.00  0.00     0.128 C 
HETATM   18  C1  UNL     1      62.479  34.699  78.909  1.00  0.00     0.032 C 
BRANCH  17  19
HETATM   19  N1  UNL     1      63.054  37.066  79.270  1.00  0.00    -0.141 NA
BRANCH  19  20
HETATM   20  N2  UNL     1      62.673  36.781  80.568  1.00  0.00    -0.348 N 
ATOM     21  H22 UNL     1      63.316  36.376  81.248  1.00  0.00     0.172 HD
ATOM     22  H21 UNL     1      61.700  37.012  80.769  1.00  0.00     0.172 HD
ENDBRANCH  19  20
ENDBRANCH  17  19
ENDBRANCH  16  17
BRANCH  16  23
HETATM   23  C10 UNL     1      64.333  36.220  76.235  1.00  0.00     0.198 C 
HETATM   24  O4  UNL     1      64.359  36.116  74.998  1.00  0.00    -0.646 OA
HETATM   25  O5  UNL     1      65.514  36.377  76.918  1.00  0.00    -0.646 OA
ENDBRANCH  16  23
ENDBRANCH  13  16
ENDBRANCH   1  12
BRANCH  10  26
HETATM   26  N7  UNL     1      57.097  33.640  76.069  1.00  0.00    -0.024 N 
HETATM   27  O2  UNL     1      57.265  32.425  75.977  1.00  0.00    -0.516 OA
HETATM   28  O3  UNL     1      57.033  34.280  77.292  1.00  0.00    -0.516 OA
ENDBRANCH  10  26
TORSDOF 7
ENDMDL
MODEL 2
REMARK VINA RESULT: -8.155412636      2.834      5.924
REMARK  7 active torsions:
REMARK  status: ('A' for Active; 'I' for Inactive)
REMARK    1  A    between atoms: C2_2  and  N1_3 
REMARK    2  A    between atoms: C2_2  and  C3_7 
REMARK    3  A    between atoms: N1_3  and  N2_4 
REMARK    4  A    between atoms: C3_7  and  N3_8 
REMARK    5  A    between atoms: C3_7  and  C10_26 
REMARK       I    between atoms: N3_8  and  C4_10 
REMARK    6  A    between atoms: C4_10  and  C5_12 
REMARK       I    between atoms: N4_16  and  C9_17 
REMARK       I    between atoms: C9_17  and  N6_21 
REMARK    7  A    between atoms: N6_21  and  N7_23 
ROOT
HETATM    1  C5  UNL     1      61.795  34.718  75.253  1.00  0.00     0.194 C 
HETATM    2  C6  UNL     1      62.201  34.645  76.720  1.00  0.00     0.037 C 
HETATM    3  C7  UNL     1      61.437  35.785  77.312  1.00  0.00     0.023 C 
HETATM    4  C8  UNL     1      61.190  36.766  76.215  1.00  0.00     0.142 C 
HETATM    5  N4  UNL     1      61.594  36.116  74.965  1.00  0.00    -0.203 N 
HETATM    6  C9  UNL     1      61.729  36.825  73.756  1.00  0.00     0.694 C 
HETATM    7  N5  UNL     1      60.711  37.339  73.186  1.00  0.00    -0.233 N 
ATOM      8  H51 UNL     1      60.808  37.852  72.309  1.00  0.00     0.174 HD
ATOM      9  H52 UNL     1      59.787  37.238  73.605  1.00  0.00     0.174 HD
HETATM   10  N6  UNL     1      63.005  36.963  73.176  1.00  0.00    -0.072 N 
ATOM     11  H6  UNL     1      63.315  37.898  72.910  1.00  0.00     0.212 HD
ENDROOT
BRANCH   1  12
HETATM   12  C4  UNL     1      60.571  33.920  75.000  1.00  0.00     0.242 C 
HETATM   13  N3  UNL     1      59.727  33.570  76.073  1.00  0.00    -0.343 N 
ATOM     14  H3  UNL     1      59.959  33.866  77.021  1.00  0.00     0.163 HD
HETATM   15  O1  UNL     1      60.330  33.579  73.814  1.00  0.00    -0.271 OA
BRANCH  13  16
HETATM   16  C3  UNL     1      58.532  32.793  75.831  1.00  0.00     0.206 C 
BRANCH  16  17
HETATM   17  C2  UNL     1      58.731  31.469  76.537  1.00  0.00     0.128 C 
HETATM   18  C1  UNL     1      57.514  31.068  77.322  1.00  0.00     0.032 C 
BRANCH  17  19
HETATM   19  N1  UNL     1      59.945  31.463  77.328  1.00  0.00    -0.141 NA
BRANCH  19  20
HETATM   20  N2  UNL     1      60.105  30.320  78.090  1.00  0.00    -0.348 N 
ATOM     21  H22 UNL     1      60.584  29.492  77.737  1.00  0.00     0.172 HD
ATOM     22  H21 UNL     1      59.702  30.392  79.024  1.00  0.00     0.172 HD
ENDBRANCH  19  20
ENDBRANCH  17  19
ENDBRANCH  16  17
BRANCH  16  23
HETATM   23  C10 UNL     1      57.372  33.537  76.339  1.00  0.00     0.198 C 
HETATM   24  O4  UNL     1      56.239  33.388  75.856  1.00  0.00    -0.646 OA
HETATM   25  O5  UNL     1      57.545  34.421  77.376  1.00  0.00    -0.646 OA
ENDBRANCH  16  23
ENDBRANCH  13  16
ENDBRANCH   1  12
BRANCH  10  26
HETATM   26  N7  UNL     1      63.869  35.889  72.947  1.00  0.00    -0.024 N 
HETATM   27  O2  UNL     1      63.436  34.828  72.501  1.00  0.00    -0.516 OA
HETATM   28  O3  UNL     1      65.209  36.068  73.237  1.00  0.00    -0.516 OA
ENDBRANCH  10  26
TORSDOF 7
ENDMDL
MODEL 3
REMARK VINA RESULT: -8.154442308      2.813      5.743
REMARK  7 active torsions:
REMARK  status: ('A' for Active; 'I' for Inactive)
REMARK    1  A    between atoms: C2_2  and  N1_3 
REMARK    2  A    between atoms: C2_2  and  C3_7 
REMARK    3  A    between atoms: N1_3  and  N2_4 
REMARK    4  A    between atoms: C3_7  and  N3_8 
REMARK    5  A    between atoms: C3_7  and  C10_26 
REMARK       I    between atoms: N3_8  and  C4_10 
REMARK    6  A    between atoms: C4_10  and  C5_12 
REMARK       I    between atoms: N4_16  and  C9_17 
REMARK       I    between atoms: C9_17  and  N6_21 
REMARK    7  A    between atoms: N6_21  and  N7_23 
ROOT
HETATM    1  C5  UNL     1      61.099  34.349  75.081  1.00  0.00     0.194 C 
HETATM    2  C6  UNL     1      62.318  34.261  75.991  1.00  0.00     0.037 C 
HETATM    3  C7  UNL     1      61.858  35.009  77.201  1.00  0.00     0.023 C 
HETATM    4  C8  UNL     1      60.799  35.960  76.754  1.00  0.00     0.142 C 
HETATM    5  N4  UNL     1      60.481  35.620  75.365  1.00  0.00    -0.203 N 
HETATM    6  C9  UNL     1      59.702  36.457  74.544  1.00  0.00     0.694 C 
HETATM    7  N5  UNL     1      58.469  36.656  74.800  1.00  0.00    -0.233 N 
ATOM      8  H51 UNL     1      57.904  37.263  74.205  1.00  0.00     0.174 HD
ATOM      9  H52 UNL     1      58.038  36.207  75.608  1.00  0.00     0.174 HD
HETATM   10  N6  UNL     1      60.298  37.077  73.428  1.00  0.00    -0.072 N 
ATOM     11  H6  UNL     1      60.180  38.084  73.316  1.00  0.00     0.212 HD
ENDROOT
BRANCH   1  12
HETATM   12  C4  UNL     1      60.171  33.217  75.325  1.00  0.00     0.242 C 
HETATM   13  N3  UNL     1      59.048  33.397  76.157  1.00  0.00    -0.343 N 
ATOM     14  H3  UNL     1      58.875  34.304  76.590  1.00  0.00     0.163 HD
HETATM   15  O1  UNL     1      60.430  32.120  74.769  1.00  0.00    -0.271 OA
BRANCH  13  16
HETATM   16  C3  UNL     1      58.142  32.297  76.397  1.00  0.00     0.206 C 
BRANCH  16  17
HETATM   17  C2  UNL     1      58.818  31.396  77.409  1.00  0.00     0.128 C 
HETATM   18  C1  UNL     1      59.195  30.071  76.811  1.00  0.00     0.032 C 
BRANCH  17  19
HETATM   19  N1  UNL     1      58.031  31.270  78.620  1.00  0.00    -0.141 NA
BRANCH  19  20
HETATM   20  N2  UNL     1      58.348  30.155  79.374  1.00  0.00    -0.348 N 
ATOM     21  H22 UNL     1      58.103  29.210  79.078  1.00  0.00     0.172 HD
ATOM     22  H21 UNL     1      58.841  30.372  80.239  1.00  0.00     0.172 HD
ENDBRANCH  19  20
ENDBRANCH  17  19
ENDBRANCH  16  17
BRANCH  16  23
HETATM   23  C10 UNL     1      56.863  32.833  76.882  1.00  0.00     0.198 C 
HETATM   24  O4  UNL     1      55.886  32.098  77.094  1.00  0.00    -0.646 OA
HETATM   25  O5  UNL     1      56.745  34.184  77.106  1.00  0.00    -0.646 OA
ENDBRANCH  16  23
ENDBRANCH  13  16
ENDBRANCH   1  12
BRANCH  10  26
HETATM   26  N7  UNL     1      61.041  36.387  72.467  1.00  0.00    -0.024 N 
HETATM   27  O2  UNL     1      60.488  35.598  71.703  1.00  0.00    -0.516 OA
HETATM   28  O3  UNL     1      62.402  36.626  72.412  1.00  0.00    -0.516 OA
ENDBRANCH  10  26
TORSDOF 7
ENDMDL
MODEL 4
REMARK VINA RESULT: -8.097542806      2.020      2.426
REMARK  7 active torsions:
REMARK  status: ('A' for Active; 'I' for Inactive)
REMARK    1  A    between atoms: C2_2  and  N1_3 
REMARK    2  A    between atoms: C2_2  and  C3_7 
REMARK    3  A    between atoms: N1_3  and  N2_4 
REMARK    4  A    between atoms: C3_7  and  N3_8 
REMARK    5  A    between atoms: C3_7  and  C10_26 
REMARK       I    between atoms: N3_8  and  C4_10 
REMARK    6  A    between atoms: C4_10  and  C5_12 
REMARK       I    between atoms: N4_16  and  C9_17 
REMARK       I    between atoms: C9_17  and  N6_21 
REMARK    7  A    between atoms: N6_21  and  N7_23 
ROOT
HETATM    1  C5  UNL     1      62.036  35.222  74.660  1.00  0.00     0.194 C 
HETATM    2  C6  UNL     1      63.245  35.418  73.753  1.00  0.00     0.037 C 
HETATM    3  C7  UNL     1      62.814  36.569  72.903  1.00  0.00     0.023 C 
HETATM    4  C8  UNL     1      61.323  36.564  72.877  1.00  0.00     0.142 C 
HETATM    5  N4  UNL     1      60.885  35.579  73.870  1.00  0.00    -0.203 N 
HETATM    6  C9  UNL     1      59.552  35.131  73.950  1.00  0.00     0.694 C 
HETATM    7  N5  UNL     1      58.617  35.927  74.294  1.00  0.00    -0.233 N 
ATOM      8  H51 UNL     1      57.651  35.603  74.352  1.00  0.00     0.174 HD
ATOM      9  H52 UNL     1      58.832  36.899  74.515  1.00  0.00     0.174 HD
HETATM   10  N6  UNL     1      59.256  33.789  73.644  1.00  0.00    -0.072 N 
ATOM     11  H6  UNL     1      58.509  33.599  72.976  1.00  0.00     0.212 HD
ENDROOT
BRANCH   1  12
HETATM   12  C4  UNL     1      62.148  36.057  75.881  1.00  0.00     0.242 C 
HETATM   13  N3  UNL     1      63.181  35.811  76.808  1.00  0.00    -0.343 N 
ATOM     14  H3  UNL     1      63.849  35.059  76.637  1.00  0.00     0.163 HD
HETATM   15  O1  UNL     1      61.299  36.970  76.044  1.00  0.00    -0.271 OA
BRANCH  13  16
HETATM   16  C3  UNL     1      63.294  36.623  77.998  1.00  0.00     0.206 C 
BRANCH  16  17
HETATM   17  C2  UNL     1      62.635  35.842  79.115  1.00  0.00     0.128 C 
HETATM   18  C1  UNL     1      62.414  34.405  78.735  1.00  0.00     0.032 C 
BRANCH  17  19
HETATM   19  N1  UNL     1      61.430  36.497  79.585  1.00  0.00    -0.141 NA
BRANCH  19  20
HETATM   20  N2  UNL     1      60.312  36.216  78.822  1.00  0.00    -0.348 N 
ATOM     21  H22 UNL     1      59.877  35.293  78.812  1.00  0.00     0.172 HD
ATOM     22  H21 UNL     1      59.975  37.012  78.281  1.00  0.00     0.172 HD
ENDBRANCH  19  20
ENDBRANCH  17  19
ENDBRANCH  16  17
BRANCH  16  23
HETATM   23  C10 UNL     1      64.715  36.889  78.257  1.00  0.00     0.198 C 
HETATM   24  O4  UNL     1      65.608  36.426  77.530  1.00  0.00    -0.646 OA
HETATM   25  O5  UNL     1      65.065  37.670  79.332  1.00  0.00    -0.646 OA
ENDBRANCH  16  23
ENDBRANCH  13  16
ENDBRANCH   1  12
BRANCH  10  26
HETATM   26  N7  UNL     1      59.930  32.702  74.208  1.00  0.00    -0.024 N 
HETATM   27  O2  UNL     1      61.024  32.353  73.767  1.00  0.00    -0.516 OA
HETATM   28  O3  UNL     1      59.325  32.048  75.265  1.00  0.00    -0.516 OA
ENDBRANCH  10  26
TORSDOF 7
ENDMDL
MODEL 5
REMARK VINA RESULT: -7.981670107      1.537      1.714
REMARK  7 active torsions:
REMARK  status: ('A' for Active; 'I' for Inactive)
REMARK    1  A    between atoms: C2_2  and  N1_3 
REMARK    2  A    between atoms: C2_2  and  C3_7 
REMARK    3  A    between atoms: N1_3  and  N2_4 
REMARK    4  A    between atoms: C3_7  and  N3_8 
REMARK    5  A    between atoms: C3_7  and  C10_26 
REMARK       I    between atoms: N3_8  and  C4_10 
REMARK    6  A    between atoms: C4_10  and  C5_12 
REMARK       I    between atoms: N4_16  and  C9_17 
REMARK       I    between atoms: C9_17  and  N6_21 
REMARK    7  A    between atoms: N6_21  and  N7_23 
ROOT
HETATM    1  C5  UNL     1      60.324  34.054  74.975  1.00  0.00     0.194 C 
HETATM    2  C6  UNL     1      60.898  33.042  73.991  1.00  0.00     0.037 C 
HETATM    3  C7  UNL     1      60.875  33.807  72.707  1.00  0.00     0.023 C 
HETATM    4  C8  UNL     1      59.807  34.842  72.831  1.00  0.00     0.142 C 
HETATM    5  N4  UNL     1      59.371  34.837  74.230  1.00  0.00    -0.203 N 
HETATM    6  C9  UNL     1      58.212  35.511  74.661  1.00  0.00     0.694 C 
HETATM    7  N5  UNL     1      58.148  36.784  74.622  1.00  0.00    -0.233 N 
ATOM      8  H51 UNL     1      57.308  37.273  74.934  1.00  0.00     0.174 HD
ATOM      9  H52 UNL     1      58.941  37.324  74.276  1.00  0.00     0.174 HD
HETATM   10  N6  UNL     1      57.118  34.765  75.138  1.00  0.00    -0.072 N 
ATOM     11  H6  UNL     1      56.196  34.955  74.745  1.00  0.00     0.212 HD
ENDROOT
BRANCH   1  12
HETATM   12  C4  UNL     1      61.398  34.897  75.556  1.00  0.00     0.242 C 
HETATM   13  N3  UNL     1      61.280  35.372  76.877  1.00  0.00    -0.343 N 
ATOM     14  H3  UNL     1      60.457  35.137  77.432  1.00  0.00     0.163 HD
HETATM   15  O1  UNL     1      62.391  35.159  74.831  1.00  0.00    -0.271 OA
BRANCH  13  16
HETATM   16  C3  UNL     1      62.324  36.193  77.447  1.00  0.00     0.206 C 
BRANCH  16  17
HETATM   17  C2  UNL     1      61.726  36.865  78.665  1.00  0.00     0.128 C 
HETATM   18  C1  UNL     1      62.752  37.085  79.740  1.00  0.00     0.032 C 
BRANCH  17  19
HETATM   19  N1  UNL     1      60.549  36.163  79.137  1.00  0.00    -0.141 NA
BRANCH  19  20
HETATM   20  N2  UNL     1      59.365  36.654  78.618  1.00  0.00    -0.348 N 
ATOM     21  H22 UNL     1      59.169  37.653  78.558  1.00  0.00     0.172 HD
ATOM     22  H21 UNL     1      58.721  35.926  78.309  1.00  0.00     0.172 HD
ENDBRANCH  19  20
ENDBRANCH  17  19
ENDBRANCH  16  17
BRANCH  16  23
HETATM   23  C10 UNL     1      63.471  35.338  77.779  1.00  0.00     0.198 C 
HETATM   24  O4  UNL     1      64.637  35.691  77.542  1.00  0.00    -0.646 OA
HETATM   25  O5  UNL     1      63.248  34.116  78.366  1.00  0.00    -0.646 OA
ENDBRANCH  16  23
ENDBRANCH  13  16
ENDBRANCH   1  12
BRANCH  10  26
HETATM   26  N7  UNL     1      57.226  33.779  76.123  1.00  0.00    -0.024 N 
HETATM   27  O2  UNL     1      57.001  32.601  75.848  1.00  0.00    -0.516 OA
HETATM   28  O3  UNL     1      57.592  34.177  77.395  1.00  0.00    -0.516 OA
ENDBRANCH  10  26
TORSDOF 7
ENDMDL
