MODEL 1
REMARK VINA RESULT: -9.835813593      0.000      0.000
REMARK  3 active torsions:
REMARK  status: ('A' for Active; 'I' for Inactive)
REMARK    1  A    between atoms: C1_1  and  C8_10 
REMARK    2  A    between atoms: C2_2  and  C3_3 
REMARK    3  A    between atoms: C8_10  and  N2_11 
ROOT
HETATM    1  N2  UNL     1      14.540  13.866  16.844  1.00  0.00     0.110 N 
HETATM    2  C9  UNL     1      14.217  14.980  17.671  1.00  0.00     0.315 C 
HETATM    3  C10 UNL     1      14.619  14.824  19.070  1.00  0.00    -0.003 A 
HETATM    4  C11 UNL     1      14.128  15.887  19.828  1.00  0.00     0.011 A 
HETATM    5  C12 UNL     1      14.381  15.968  21.177  1.00  0.00     0.001 A 
HETATM    6  C13 UNL     1      15.142  14.966  21.789  1.00  0.00     0.002 A 
HETATM    7  C14 UNL     1      15.639  13.906  21.066  1.00  0.00     0.031 A 
HETATM    8  C15 UNL     1      15.376  13.846  19.729  1.00  0.00     0.049 A 
HETATM    9  N3  UNL     1      15.935  12.703  19.076  1.00  0.00    -0.293 N 
HETATM   10  C16 UNL     1      16.275  11.586  19.727  1.00  0.00     0.206 A 
HETATM   11  N4  UNL     1      16.766  10.749  18.778  1.00  0.00    -0.294 N 
ATOM     12  H4  UNL     1      17.112   9.808  18.958  1.00  0.00     0.187 HD
HETATM   13  N5  UNL     1      16.732  11.323  17.588  1.00  0.00    -0.286 N 
ATOM     14  H5  UNL     1      17.043  10.910  16.709  1.00  0.00     0.188 HD
HETATM   15  C17 UNL     1      16.223  12.527  17.750  1.00  0.00     0.132 A 
HETATM   16  C18 UNL     1      15.955  13.585  16.716  1.00  0.00     0.352 C 
ENDROOT
BRANCH   1  17
HETATM   17  C8  UNL     1      13.966  13.992  15.528  1.00  0.00     0.367 C 
BRANCH  17  18
HETATM   18  C1  UNL     1      12.506  14.004  15.559  1.00  0.00    -0.069 C 
HETATM   19  C2  UNL     1      11.301  14.023  15.565  1.00  0.00    -0.047 C 
BRANCH  19  20
HETATM   20  C3  UNL     1       9.859  14.040  15.547  1.00  0.00     0.086 A 
HETATM   21  C4  UNL     1       9.138  13.241  16.404  1.00  0.00     0.039 A 
HETATM   22  C5  UNL     1       7.752  13.282  16.359  1.00  0.00     0.004 A 
HETATM   23  C6  UNL     1       7.082  14.102  15.479  1.00  0.00     0.017 A 
HETATM   24  C7  UNL     1       7.838  14.893  14.631  1.00  0.00     0.089 A 
HETATM   25  N1  UNL     1       9.181  14.838  14.690  1.00  0.00    -0.359 N 
ATOM     26  H1  UNL     1       9.716  15.431  14.056  1.00  0.00     0.166 HD
ENDBRANCH  19  20
ENDBRANCH  17  18
ENDBRANCH   1  17
TORSDOF 3
ENDMDL
MODEL 2
REMARK VINA RESULT: -9.692641410      0.760      1.116
REMARK  3 active torsions:
REMARK  status: ('A' for Active; 'I' for Inactive)
REMARK    1  A    between atoms: C1_1  and  C8_10 
REMARK    2  A    between atoms: C2_2  and  C3_3 
REMARK    3  A    between atoms: C8_10  and  N2_11 
ROOT
HETATM    1  N2  UNL     1      14.842  13.893  17.021  1.00  0.00     0.110 N 
HETATM    2  C9  UNL     1      14.666  14.917  17.995  1.00  0.00     0.315 C 
HETATM    3  C10 UNL     1      15.044  14.522  19.354  1.00  0.00    -0.003 A 
HETATM    4  C11 UNL     1      14.695  15.527  20.256  1.00  0.00     0.011 A 
HETATM    5  C12 UNL     1      14.957  15.392  21.599  1.00  0.00     0.001 A 
HETATM    6  C13 UNL     1      15.581  14.227  22.057  1.00  0.00     0.002 A 
HETATM    7  C14 UNL     1      15.937  13.219  21.189  1.00  0.00     0.031 A 
HETATM    8  C15 UNL     1      15.669  13.375  19.862  1.00  0.00     0.049 A 
HETATM    9  N3  UNL     1      16.075  12.269  19.052  1.00  0.00    -0.293 N 
HETATM   10  C16 UNL     1      16.267  11.040  19.541  1.00  0.00     0.206 A 
HETATM   11  N4  UNL     1      16.646  10.284  18.479  1.00  0.00    -0.294 N 
ATOM     12  H4  UNL     1      16.867   9.290  18.525  1.00  0.00     0.187 HD
HETATM   13  N5  UNL     1      16.687  11.013  17.378  1.00  0.00    -0.286 N 
ATOM     14  H5  UNL     1      16.942  10.687  16.446  1.00  0.00     0.188 HD
HETATM   15  C17 UNL     1      16.338  12.239  17.709  1.00  0.00     0.132 A 
HETATM   16  C18 UNL     1      16.209  13.453  16.831  1.00  0.00     0.352 C 
ENDROOT
BRANCH   1  17
HETATM   17  C8  UNL     1      14.289  14.269  15.743  1.00  0.00     0.367 C 
BRANCH  17  18
HETATM   18  C1  UNL     1      12.835  14.134  15.708  1.00  0.00    -0.069 C 
HETATM   19  C2  UNL     1      11.634  14.045  15.674  1.00  0.00    -0.047 C 
BRANCH  19  20
HETATM   20  C3  UNL     1      10.196  13.952  15.611  1.00  0.00     0.086 A 
HETATM   21  C4  UNL     1       9.501  14.538  14.579  1.00  0.00     0.039 A 
HETATM   22  C5  UNL     1       8.118  14.429  14.550  1.00  0.00     0.004 A 
HETATM   23  C6  UNL     1       7.426  13.751  15.528  1.00  0.00     0.017 A 
HETATM   24  C7  UNL     1       8.157  13.174  16.553  1.00  0.00     0.089 A 
HETATM   25  N1  UNL     1       9.497  13.291  16.562  1.00  0.00    -0.359 N 
ATOM     26  H1  UNL     1      10.013  12.857  17.327  1.00  0.00     0.166 HD
ENDBRANCH  19  20
ENDBRANCH  17  18
ENDBRANCH   1  17
TORSDOF 3
ENDMDL
MODEL 3
REMARK VINA RESULT: -9.500714314      1.595      3.120
REMARK  3 active torsions:
REMARK  status: ('A' for Active; 'I' for Inactive)
REMARK    1  A    between atoms: C1_1  and  C8_10 
REMARK    2  A    between atoms: C2_2  and  C3_3 
REMARK    3  A    between atoms: C8_10  and  N2_11 
ROOT
HETATM    1  N2  UNL     1      14.703  14.611  16.942  1.00  0.00     0.110 N 
HETATM    2  C9  UNL     1      15.208  13.281  17.010  1.00  0.00     0.315 C 
HETATM    3  C10 UNL     1      15.933  12.978  18.246  1.00  0.00    -0.003 A 
HETATM    4  C11 UNL     1      16.519  11.715  18.157  1.00  0.00     0.011 A 
HETATM    5  C12 UNL     1      17.250  11.201  19.202  1.00  0.00     0.001 A 
HETATM    6  C13 UNL     1      17.404  11.963  20.365  1.00  0.00     0.002 A 
HETATM    7  C14 UNL     1      16.837  13.213  20.480  1.00  0.00     0.031 A 
HETATM    8  C15 UNL     1      16.116  13.702  19.432  1.00  0.00     0.049 A 
HETATM    9  N3  UNL     1      15.576  15.007  19.655  1.00  0.00    -0.293 N 
HETATM   10  C16 UNL     1      16.074  15.856  20.560  1.00  0.00     0.206 A 
HETATM   11  N4  UNL     1      15.300  16.968  20.476  1.00  0.00    -0.294 N 
ATOM     12  H4  UNL     1      15.426  17.806  21.043  1.00  0.00     0.187 HD
HETATM   13  N5  UNL     1      14.361  16.816  19.559  1.00  0.00    -0.286 N 
ATOM     14  H5  UNL     1      13.651  17.500  19.300  1.00  0.00     0.188 HD
HETATM   15  C17 UNL     1      14.515  15.614  19.040  1.00  0.00     0.132 A 
HETATM   16  C18 UNL     1      13.720  14.948  17.950  1.00  0.00     0.352 C 
ENDROOT
BRANCH   1  17
HETATM   17  C8  UNL     1      14.161  14.911  15.640  1.00  0.00     0.367 C 
BRANCH  17  18
HETATM   18  C1  UNL     1      12.734  14.615  15.552  1.00  0.00    -0.069 C 
HETATM   19  C2  UNL     1      11.554  14.379  15.500  1.00  0.00    -0.047 C 
BRANCH  19  20
HETATM   20  C3  UNL     1      10.135  14.119  15.448  1.00  0.00     0.086 A 
HETATM   21  C4  UNL     1       9.580  13.113  16.204  1.00  0.00     0.039 A 
HETATM   22  C5  UNL     1       8.212  12.891  16.130  1.00  0.00     0.004 A 
HETATM   23  C6  UNL     1       7.400  13.653  15.321  1.00  0.00     0.017 A 
HETATM   24  C7  UNL     1       7.991  14.657  14.574  1.00  0.00     0.089 A 
HETATM   25  N1  UNL     1       9.319  14.856  14.660  1.00  0.00    -0.359 N 
ATOM     26  H1  UNL     1       9.732  15.602  14.101  1.00  0.00     0.166 HD
ENDBRANCH  19  20
ENDBRANCH  17  18
ENDBRANCH   1  17
TORSDOF 3
ENDMDL
MODEL 4
REMARK VINA RESULT: -8.956361348      1.823      3.364
REMARK  3 active torsions:
REMARK  status: ('A' for Active; 'I' for Inactive)
REMARK    1  A    between atoms: C1_1  and  C8_10 
REMARK    2  A    between atoms: C2_2  and  C3_3 
REMARK    3  A    between atoms: C8_10  and  N2_11 
ROOT
HETATM    1  N2  UNL     1      14.708  14.950  17.650  1.00  0.00     0.110 N 
HETATM    2  C9  UNL     1      15.231  13.643  17.434  1.00  0.00     0.315 C 
HETATM    3  C10 UNL     1      15.950  13.088  18.582  1.00  0.00    -0.003 A 
HETATM    4  C11 UNL     1      16.554  11.882  18.228  1.00  0.00     0.011 A 
HETATM    5  C12 UNL     1      17.284  11.162  19.145  1.00  0.00     0.001 A 
HETATM    6  C13 UNL     1      17.418  11.655  20.447  1.00  0.00     0.002 A 
HETATM    7  C14 UNL     1      16.833  12.843  20.824  1.00  0.00     0.031 A 
HETATM    8  C15 UNL     1      16.113  13.540  19.899  1.00  0.00     0.049 A 
HETATM    9  N3  UNL     1      15.554  14.759  20.393  1.00  0.00    -0.293 N 
HETATM   10  C16 UNL     1      16.032  15.397  21.467  1.00  0.00     0.206 A 
HETATM   11  N4  UNL     1      15.243  16.491  21.618  1.00  0.00    -0.294 N 
ATOM     12  H4  UNL     1      15.353  17.187  22.354  1.00  0.00     0.187 HD
HETATM   13  N5  UNL     1      14.314  16.530  20.679  1.00  0.00    -0.286 N 
ATOM     14  H5  UNL     1      13.596  17.246  20.567  1.00  0.00     0.188 HD
HETATM   15  C17 UNL     1      14.489  15.472  19.914  1.00  0.00     0.132 A 
HETATM   16  C18 UNL     1      13.712  15.049  18.697  1.00  0.00     0.352 C 
ENDROOT
BRANCH   1  17
HETATM   17  C8  UNL     1      14.172  15.519  16.438  1.00  0.00     0.367 C 
BRANCH  17  18
HETATM   18  C1  UNL     1      12.847  14.995  16.118  1.00  0.00    -0.069 C 
HETATM   19  C2  UNL     1      11.748  14.564  15.876  1.00  0.00    -0.047 C 
BRANCH  19  20
HETATM   20  C3  UNL     1      10.422  14.065  15.602  1.00  0.00     0.086 A 
HETATM   21  C4  UNL     1       9.812  14.324  14.396  1.00  0.00     0.039 A 
HETATM   22  C5  UNL     1       8.537  13.829  14.166  1.00  0.00     0.004 A 
HETATM   23  C6  UNL     1       7.869  13.086  15.114  1.00  0.00     0.017 A 
HETATM   24  C7  UNL     1       8.512  12.846  16.316  1.00  0.00     0.089 A 
HETATM   25  N1  UNL     1       9.748  13.334  16.519  1.00  0.00    -0.359 N 
ATOM     26  H1  UNL     1      10.202  13.143  17.412  1.00  0.00     0.166 HD
ENDBRANCH  19  20
ENDBRANCH  17  18
ENDBRANCH   1  17
TORSDOF 3
ENDMDL
MODEL 5
REMARK VINA RESULT: -8.546019581      1.817      3.368
REMARK  3 active torsions:
REMARK  status: ('A' for Active; 'I' for Inactive)
REMARK    1  A    between atoms: C1_1  and  C8_10 
REMARK    2  A    between atoms: C2_2  and  C3_3 
REMARK    3  A    between atoms: C8_10  and  N2_11 
ROOT
HETATM    1  N2  UNL     1      14.564  14.686  15.974  1.00  0.00     0.110 N 
HETATM    2  C9  UNL     1      15.684  13.841  15.728  1.00  0.00     0.315 C 
HETATM    3  C10 UNL     1      16.568  13.667  16.882  1.00  0.00    -0.003 A 
HETATM    4  C11 UNL     1      17.708  12.956  16.506  1.00  0.00     0.011 A 
HETATM    5  C12 UNL     1      18.689  12.659  17.423  1.00  0.00     0.001 A 
HETATM    6  C13 UNL     1      18.533  13.080  18.748  1.00  0.00     0.002 A 
HETATM    7  C14 UNL     1      17.418  13.783  19.147  1.00  0.00     0.031 A 
HETATM    8  C15 UNL     1      16.458  14.066  18.221  1.00  0.00     0.049 A 
HETATM    9  N3  UNL     1      15.348  14.802  18.740  1.00  0.00    -0.293 N 
HETATM   10  C16 UNL     1      15.417  15.535  19.856  1.00  0.00     0.206 A 
HETATM   11  N4  UNL     1      14.179  16.066  20.017  1.00  0.00    -0.294 N 
ATOM     12  H4  UNL     1      13.907  16.680  20.784  1.00  0.00     0.187 HD
HETATM   13  N5  UNL     1      13.374  15.679  19.043  1.00  0.00    -0.286 N 
ATOM     14  H5  UNL     1      12.393  15.935  18.931  1.00  0.00     0.188 HD
HETATM   15  C17 UNL     1      14.076  14.900  18.246  1.00  0.00     0.132 A 
HETATM   16  C18 UNL     1      13.642  14.208  16.982  1.00  0.00     0.352 C 
ENDROOT
BRANCH   1  17
HETATM   17  C8  UNL     1      13.831  14.969  14.764  1.00  0.00     0.367 C 
BRANCH  17  18
HETATM   18  C1  UNL     1      12.404  14.695  14.905  1.00  0.00    -0.069 C 
HETATM   19  C2  UNL     1      11.230  14.463  15.041  1.00  0.00    -0.047 C 
BRANCH  19  20
HETATM   20  C3  UNL     1       9.824  14.195  15.229  1.00  0.00     0.086 A 
HETATM   21  C4  UNL     1       8.875  14.964  14.598  1.00  0.00     0.039 A 
HETATM   22  C5  UNL     1       7.532  14.679  14.801  1.00  0.00     0.004 A 
HETATM   23  C6  UNL     1       7.129  13.646  15.617  1.00  0.00     0.017 A 
HETATM   24  C7  UNL     1       8.111  12.893  16.237  1.00  0.00     0.089 A 
HETATM   25  N1  UNL     1       9.407  13.186  16.027  1.00  0.00    -0.359 N 
ATOM     26  H1  UNL     1      10.112  12.616  16.495  1.00  0.00     0.166 HD
ENDBRANCH  19  20
ENDBRANCH  17  18
ENDBRANCH   1  17
TORSDOF 3
ENDMDL
