MODEL 1
REMARK VINA RESULT: -7.784324017      0.000      0.000
REMARK  5 active torsions:
REMARK  status: ('A' for Active; 'I' for Inactive)
REMARK    1  A    between atoms: C5_6  and  C6_7 
REMARK    2  A    between atoms: N5_14  and  C7_15 
REMARK    3  A    between atoms: C7_15  and  C10_18 
REMARK    4  A    between atoms: C11_19  and  C12_20 
REMARK    5  A    between atoms: C13_21  and  C14_22 
ROOT
HETATM    1  C6  UNL     1      16.100  13.472  20.631  1.00  0.00     0.152 A 
HETATM    2  N2  UNL     1      16.073  12.388  21.511  1.00  0.00    -0.268 N 
ATOM      3  H2  UNL     1      16.535  11.489  21.376  1.00  0.00     0.190 HD
HETATM    4  N3  UNL     1      15.356  12.732  22.521  1.00  0.00    -0.226 N 
ATOM      5  H3  UNL     1      15.156  12.143  23.330  1.00  0.00     0.210 HD
HETATM    6  N4  UNL     1      14.932  13.928  22.355  1.00  0.00    -0.223 N 
ATOM      7  H4  UNL     1      14.342  14.429  23.018  1.00  0.00     0.210 HD
HETATM    8  N5  UNL     1      15.374  14.437  21.176  1.00  0.00    -0.237 N 
ENDROOT
BRANCH   8   9
HETATM    9  C7  UNL     1      14.960  15.750  20.788  1.00  0.00     0.113 C 
HETATM   10  C8  UNL     1      16.021  16.776  20.633  1.00  0.00     0.055 C 
HETATM   11  C9  UNL     1      13.813  16.298  21.607  1.00  0.00     0.055 C 
BRANCH   9  12
HETATM   12  C10 UNL     1      14.382  15.626  19.387  1.00  0.00    -0.059 C 
HETATM   13  C11 UNL     1      13.947  15.530  18.270  1.00  0.00    -0.012 C 
BRANCH  13  14
HETATM   14  C12 UNL     1      13.447  15.396  16.959  1.00  0.00    -0.014 C 
HETATM   15  C13 UNL     1      13.040  15.282  15.830  1.00  0.00    -0.084 C 
BRANCH  15  16
HETATM   16  C14 UNL     1      12.568  15.131  14.455  1.00  0.00     0.013 C 
HETATM   17  C15 UNL     1      11.143  14.688  14.474  1.00  0.00     0.028 C 
HETATM   18  C16 UNL     1      13.394  14.121  13.688  1.00  0.00     0.028 C 
HETATM   19  C17 UNL     1      12.653  16.478  13.783  1.00  0.00     0.028 C 
ENDBRANCH  15  16
ENDBRANCH  13  14
ENDBRANCH   9  12
ENDBRANCH   8   9
BRANCH   1  20
HETATM   20  C5  UNL     1      16.773  13.377  19.374  1.00  0.00     0.026 A 
HETATM   21  C4  UNL     1      17.996  13.847  19.052  1.00  0.00     0.018 A 
HETATM   22  C3  UNL     1      18.501  13.768  17.747  1.00  0.00     0.018 A 
HETATM   23  C2  UNL     1      17.744  13.198  16.763  1.00  0.00     0.090 A 
HETATM   24  N1  UNL     1      16.530  12.726  17.068  1.00  0.00    -0.370 N 
HETATM   25  C1  UNL     1      15.766  12.132  15.987  1.00  0.00     0.154 C 
HETATM   26  C18 UNL     1      16.040  12.799  18.314  1.00  0.00     0.105 A 
ENDBRANCH   1  20
TORSDOF 5
ENDMDL
MODEL 2
REMARK VINA RESULT: -7.662397202      4.078      7.513
REMARK  5 active torsions:
REMARK  status: ('A' for Active; 'I' for Inactive)
REMARK    1  A    between atoms: C5_6  and  C6_7 
REMARK    2  A    between atoms: N5_14  and  C7_15 
REMARK    3  A    between atoms: C7_15  and  C10_18 
REMARK    4  A    between atoms: C11_19  and  C12_20 
REMARK    5  A    between atoms: C13_21  and  C14_22 
ROOT
HETATM    1  C6  UNL     1      12.337  15.364  14.206  1.00  0.00     0.152 A 
HETATM    2  N2  UNL     1      12.045  16.370  13.282  1.00  0.00    -0.268 N 
ATOM      3  H2  UNL     1      11.122  16.752  13.076  1.00  0.00     0.190 HD
HETATM    4  N3  UNL     1      13.155  16.727  12.741  1.00  0.00    -0.226 N 
ATOM      5  H3  UNL     1      13.258  17.448  12.027  1.00  0.00     0.210 HD
HETATM    6  N4  UNL     1      14.112  16.038  13.237  1.00  0.00    -0.223 N 
ATOM      7  H4  UNL     1      15.092  16.133  12.972  1.00  0.00     0.210 HD
HETATM    8  N5  UNL     1      13.646  15.163  14.165  1.00  0.00    -0.237 N 
ENDROOT
BRANCH   8   9
HETATM    9  C7  UNL     1      14.563  14.264  14.796  1.00  0.00     0.113 C 
HETATM   10  C8  UNL     1      16.011  14.524  14.595  1.00  0.00     0.055 C 
HETATM   11  C9  UNL     1      14.252  12.804  14.559  1.00  0.00     0.055 C 
BRANCH   9  12
HETATM   12  C10 UNL     1      14.379  14.439  16.296  1.00  0.00    -0.059 C 
HETATM   13  C11 UNL     1      14.222  14.597  17.477  1.00  0.00    -0.012 C 
BRANCH  13  14
HETATM   14  C12 UNL     1      14.016  14.780  18.859  1.00  0.00    -0.014 C 
HETATM   15  C13 UNL     1      13.819  14.929  20.039  1.00  0.00    -0.084 C 
BRANCH  15  16
HETATM   16  C14 UNL     1      13.563  15.092  21.469  1.00  0.00     0.013 C 
HETATM   17  C15 UNL     1      12.171  14.645  21.769  1.00  0.00     0.028 C 
HETATM   18  C16 UNL     1      13.731  16.530  21.908  1.00  0.00     0.028 C 
HETATM   19  C17 UNL     1      14.531  14.212  22.218  1.00  0.00     0.028 C 
ENDBRANCH  15  16
ENDBRANCH  13  14
ENDBRANCH   9  12
ENDBRANCH   8   9
BRANCH   1  20
HETATM   20  C5  UNL     1      11.292  14.714  14.933  1.00  0.00     0.026 A 
HETATM   21  C4  UNL     1      11.415  13.786  15.905  1.00  0.00     0.018 A 
HETATM   22  C3  UNL     1      10.299  13.157  16.474  1.00  0.00     0.018 A 
HETATM   23  C2  UNL     1       9.045  13.485  16.043  1.00  0.00     0.090 A 
HETATM   24  N1  UNL     1       8.909  14.405  15.081  1.00  0.00    -0.370 N 
HETATM   25  C1  UNL     1       7.556  14.717  14.658  1.00  0.00     0.154 C 
HETATM   26  C18 UNL     1       9.971  15.011  14.531  1.00  0.00     0.105 A 
ENDBRANCH   1  20
TORSDOF 5
ENDMDL
MODEL 3
REMARK VINA RESULT: -7.511649756      1.472      3.907
REMARK  5 active torsions:
REMARK  status: ('A' for Active; 'I' for Inactive)
REMARK    1  A    between atoms: C5_6  and  C6_7 
REMARK    2  A    between atoms: N5_14  and  C7_15 
REMARK    3  A    between atoms: C7_15  and  C10_18 
REMARK    4  A    between atoms: C11_19  and  C12_20 
REMARK    5  A    between atoms: C13_21  and  C14_22 
ROOT
HETATM    1  C6  UNL     1      16.388  13.139  20.479  1.00  0.00     0.152 A 
HETATM    2  N2  UNL     1      16.397  12.032  21.331  1.00  0.00    -0.268 N 
ATOM      3  H2  UNL     1      15.878  11.937  22.203  1.00  0.00     0.190 HD
HETATM    4  N3  UNL     1      17.181  11.156  20.811  1.00  0.00    -0.226 N 
ATOM      5  H3  UNL     1      17.386  10.239  21.210  1.00  0.00     0.210 HD
HETATM    6  N4  UNL     1      17.663  11.610  19.717  1.00  0.00    -0.223 N 
ATOM      7  H4  UNL     1      18.312  11.103  19.116  1.00  0.00     0.210 HD
HETATM    8  N5  UNL     1      17.194  12.860  19.465  1.00  0.00    -0.237 N 
ENDROOT
BRANCH   8   9
HETATM    9  C7  UNL     1      17.662  13.558  18.308  1.00  0.00     0.113 C 
HETATM   10  C8  UNL     1      18.540  12.809  17.375  1.00  0.00     0.055 C 
HETATM   11  C9  UNL     1      18.253  14.917  18.610  1.00  0.00     0.055 C 
BRANCH   9  12
HETATM   12  C10 UNL     1      16.437  13.871  17.464  1.00  0.00    -0.059 C 
HETATM   13  C11 UNL     1      15.454  14.107  16.813  1.00  0.00    -0.012 C 
BRANCH  13  14
HETATM   14  C12 UNL     1      14.295  14.397  16.066  1.00  0.00    -0.014 C 
HETATM   15  C13 UNL     1      13.315  14.657  15.414  1.00  0.00    -0.084 C 
BRANCH  15  16
HETATM   16  C14 UNL     1      12.141  14.975  14.602  1.00  0.00     0.013 C 
HETATM   17  C15 UNL     1      11.908  16.449  14.638  1.00  0.00     0.028 C 
HETATM   18  C16 UNL     1      10.905  14.262  15.103  1.00  0.00     0.028 C 
HETATM   19  C17 UNL     1      12.431  14.560  13.182  1.00  0.00     0.028 C 
ENDBRANCH  15  16
ENDBRANCH  13  14
ENDBRANCH   9  12
ENDBRANCH   8   9
BRANCH   1  20
HETATM   20  C5  UNL     1      15.650  14.316  20.817  1.00  0.00     0.026 A 
HETATM   21  C4  UNL     1      16.130  15.556  21.048  1.00  0.00     0.018 A 
HETATM   22  C3  UNL     1      15.300  16.606  21.464  1.00  0.00     0.018 A 
HETATM   23  C2  UNL     1      13.964  16.382  21.644  1.00  0.00     0.090 A 
HETATM   24  N1  UNL     1      13.475  15.158  21.416  1.00  0.00    -0.370 N 
HETATM   25  C1  UNL     1      12.050  14.971  21.622  1.00  0.00     0.154 C 
HETATM   26  C18 UNL     1      14.262  14.147  21.018  1.00  0.00     0.105 A 
ENDBRANCH   1  20
TORSDOF 5
ENDMDL
MODEL 4
REMARK VINA RESULT: -7.398716251      2.416      6.067
REMARK  5 active torsions:
REMARK  status: ('A' for Active; 'I' for Inactive)
REMARK    1  A    between atoms: C5_6  and  C6_7 
REMARK    2  A    between atoms: N5_14  and  C7_15 
REMARK    3  A    between atoms: C7_15  and  C10_18 
REMARK    4  A    between atoms: C11_19  and  C12_20 
REMARK    5  A    between atoms: C13_21  and  C14_22 
ROOT
HETATM    1  C6  UNL     1      14.793  13.308  14.286  1.00  0.00     0.152 A 
HETATM    2  N2  UNL     1      14.873  12.346  13.276  1.00  0.00    -0.268 N 
ATOM      3  H2  UNL     1      15.490  11.534  13.263  1.00  0.00     0.190 HD
HETATM    4  N3  UNL     1      14.024  12.673  12.368  1.00  0.00    -0.226 N 
ATOM      5  H3  UNL     1      13.856  12.155  11.505  1.00  0.00     0.210 HD
HETATM    6  N4  UNL     1      13.423  13.749  12.713  1.00  0.00    -0.223 N 
ATOM      7  H4  UNL     1      12.703  14.212  12.159  1.00  0.00     0.210 HD
HETATM    8  N5  UNL     1      13.875  14.189  13.916  1.00  0.00    -0.237 N 
ENDROOT
BRANCH   8   9
HETATM    9  C7  UNL     1      13.357  15.412  14.447  1.00  0.00     0.113 C 
HETATM   10  C8  UNL     1      11.924  15.706  14.195  1.00  0.00     0.055 C 
HETATM   11  C9  UNL     1      14.206  16.624  14.135  1.00  0.00     0.055 C 
BRANCH   9  12
HETATM   12  C10 UNL     1      13.432  15.293  15.961  1.00  0.00    -0.059 C 
HETATM   13  C11 UNL     1      13.500  15.221  17.159  1.00  0.00    -0.012 C 
BRANCH  13  14
HETATM   14  C12 UNL     1      13.563  15.153  18.566  1.00  0.00    -0.014 C 
HETATM   15  C13 UNL     1      13.606  15.113  19.770  1.00  0.00    -0.084 C 
BRANCH  15  16
HETATM   16  C14 UNL     1      13.636  15.077  21.231  1.00  0.00     0.013 C 
HETATM   17  C15 UNL     1      13.908  16.451  21.747  1.00  0.00     0.028 C 
HETATM   18  C16 UNL     1      14.698  14.131  21.746  1.00  0.00     0.028 C 
HETATM   19  C17 UNL     1      12.278  14.633  21.714  1.00  0.00     0.028 C 
ENDBRANCH  15  16
ENDBRANCH  13  14
ENDBRANCH   9  12
ENDBRANCH   8   9
BRANCH   1  20
HETATM   20  C5  UNL     1      15.664  13.255  15.418  1.00  0.00     0.026 A 
HETATM   21  C4  UNL     1      16.637  14.127  15.755  1.00  0.00     0.018 A 
HETATM   22  C3  UNL     1      17.485  13.904  16.848  1.00  0.00     0.018 A 
HETATM   23  C2  UNL     1      17.332  12.777  17.604  1.00  0.00     0.090 A 
HETATM   24  N1  UNL     1      16.370  11.904  17.283  1.00  0.00    -0.370 N 
HETATM   25  C1  UNL     1      16.249  10.723  18.116  1.00  0.00     0.154 C 
HETATM   26  C18 UNL     1      15.555  12.109  16.238  1.00  0.00     0.105 A 
ENDBRANCH   1  20
TORSDOF 5
ENDMDL
MODEL 5
REMARK VINA RESULT: -7.346652319      1.579      3.976
REMARK  5 active torsions:
REMARK  status: ('A' for Active; 'I' for Inactive)
REMARK    1  A    between atoms: C5_6  and  C6_7 
REMARK    2  A    between atoms: N5_14  and  C7_15 
REMARK    3  A    between atoms: C7_15  and  C10_18 
REMARK    4  A    between atoms: C11_19  and  C12_20 
REMARK    5  A    between atoms: C13_21  and  C14_22 
ROOT
HETATM    1  C6  UNL     1      16.416  12.747  19.720  1.00  0.00     0.152 A 
HETATM    2  N2  UNL     1      16.058  11.579  20.397  1.00  0.00    -0.268 N 
ATOM      3  H2  UNL     1      15.541  11.524  21.275  1.00  0.00     0.190 HD
HETATM    4  N3  UNL     1      16.499  10.587  19.709  1.00  0.00    -0.226 N 
ATOM      5  H3  UNL     1      16.387   9.603  19.956  1.00  0.00     0.210 HD
HETATM    6  N4  UNL     1      17.100  11.024  18.668  1.00  0.00    -0.223 N 
ATOM      7  H4  UNL     1      17.538  10.432  17.962  1.00  0.00     0.210 HD
HETATM    8  N5  UNL     1      17.075  12.381  18.631  1.00  0.00    -0.237 N 
ENDROOT
BRANCH   8   9
HETATM    9  C7  UNL     1      17.745  13.059  17.563  1.00  0.00     0.113 C 
HETATM   10  C8  UNL     1      18.672  12.256  16.728  1.00  0.00     0.055 C 
HETATM   11  C9  UNL     1      18.400  14.358  17.978  1.00  0.00     0.055 C 
BRANCH   9  12
HETATM   12  C10 UNL     1      16.668  13.490  16.580  1.00  0.00    -0.059 C 
HETATM   13  C11 UNL     1      15.806  13.811  15.807  1.00  0.00    -0.012 C 
BRANCH  13  14
HETATM   14  C12 UNL     1      14.779  14.187  14.917  1.00  0.00    -0.014 C 
HETATM   15  C13 UNL     1      13.894  14.522  14.171  1.00  0.00    -0.084 C 
BRANCH  15  16
HETATM   16  C14 UNL     1      12.818  14.951  13.279  1.00  0.00     0.013 C 
HETATM   17  C15 UNL     1      12.724  13.998  12.134  1.00  0.00     0.028 C 
HETATM   18  C16 UNL     1      13.056  16.348  12.747  1.00  0.00     0.028 C 
HETATM   19  C17 UNL     1      11.525  14.913  14.054  1.00  0.00     0.028 C 
ENDBRANCH  15  16
ENDBRANCH  13  14
ENDBRANCH   9  12
ENDBRANCH   8   9
BRANCH   1  20
HETATM   20  C5  UNL     1      16.117  14.032  20.270  1.00  0.00     0.026 A 
HETATM   21  C4  UNL     1      16.495  14.528  21.466  1.00  0.00     0.018 A 
HETATM   22  C3  UNL     1      16.052  15.777  21.924  1.00  0.00     0.018 A 
HETATM   23  C2  UNL     1      15.215  16.524  21.145  1.00  0.00     0.090 A 
HETATM   24  N1  UNL     1      14.834  16.046  19.956  1.00  0.00    -0.370 N 
HETATM   25  C1  UNL     1      13.944  16.877  19.167  1.00  0.00     0.154 C 
HETATM   26  C18 UNL     1      15.253  14.852  19.511  1.00  0.00     0.105 A 
ENDBRANCH   1  20
TORSDOF 5
ENDMDL
