MODEL 1
REMARK VINA RESULT: -8.302663381      0.000      0.000
REMARK  2 active torsions:
REMARK  status: ('A' for Active; 'I' for Inactive)
REMARK    1  A    between atoms: C4_6  and  N2_7 
REMARK    2  A    between atoms: C12_18  and  N5_19 
ROOT
HETATM    1  N2  UNL     1      15.189  13.854  17.763  1.00  0.00    -0.087 N 
HETATM    2  N3  UNL     1      14.705  13.268  16.550  1.00  0.00    -0.086 NA
HETATM    3  C5  UNL     1      14.047  14.421  15.908  1.00  0.00     0.139 C 
HETATM    4  C6  UNL     1      15.075  15.126  15.096  1.00  0.00     0.051 C 
HETATM    5  C7  UNL     1      14.933  14.916  13.614  1.00  0.00     0.004 C 
HETATM    6  C8  UNL     1      13.972  15.937  13.067  1.00  0.00     0.000 C 
HETATM    7  C9  UNL     1      12.546  15.434  13.111  1.00  0.00     0.000 C 
HETATM    8  C10 UNL     1      12.162  15.160  14.548  1.00  0.00     0.004 C 
HETATM    9  C11 UNL     1      12.845  13.965  15.118  1.00  0.00     0.051 C 
HETATM   10  N4  UNL     1      13.545  15.195  17.022  1.00  0.00    -0.199 N 
ATOM     11  H4  UNL     1      12.798  15.889  16.990  1.00  0.00     0.180 HD
HETATM   12  C12 UNL     1      14.237  14.835  18.090  1.00  0.00     0.697 C 
ENDROOT
BRANCH   1  13
HETATM   13  C4  UNL     1      16.419  13.465  18.402  1.00  0.00     0.086 A 
HETATM   14  C3  UNL     1      17.572  14.195  18.141  1.00  0.00     0.119 A 
HETATM   15  N1  UNL     1      18.737  13.850  18.694  1.00  0.00    -0.373 N 
HETATM   16  C2  UNL     1      18.878  12.811  19.516  1.00  0.00     0.088 A 
ATOM     17  H1  UNL     1      19.561  14.410  18.477  1.00  0.00     0.164 HD
HETATM   18  C1  UNL     1      17.761  12.065  19.800  1.00  0.00     0.019 A 
HETATM   19  C17 UNL     1      16.535  12.388  19.248  1.00  0.00     0.034 A 
ENDBRANCH   1  13
BRANCH  12  20
HETATM   20  N5  UNL     1      14.020  15.398  19.392  1.00  0.00    -0.212 N 
HETATM   21  C13 UNL     1      13.252  14.694  20.391  1.00  0.00     0.167 C 
HETATM   22  C14 UNL     1      13.986  14.636  21.718  1.00  0.00     0.188 C 
HETATM   23  O1  UNL     1      14.936  15.655  21.812  1.00  0.00    -0.388 OA
HETATM   24  C15 UNL     1      14.514  16.833  21.241  1.00  0.00     0.188 C 
HETATM   25  C16 UNL     1      14.599  16.673  19.731  1.00  0.00     0.167 C 
ENDBRANCH  12  20
TORSDOF 2
ENDMDL
MODEL 2
REMARK VINA RESULT: -8.142936705      1.478      3.947
REMARK  2 active torsions:
REMARK  status: ('A' for Active; 'I' for Inactive)
REMARK    1  A    between atoms: C4_6  and  N2_7 
REMARK    2  A    between atoms: C12_18  and  N5_19 
ROOT
HETATM    1  N2  UNL     1      14.152  15.266  18.193  1.00  0.00    -0.087 N 
HETATM    2  N3  UNL     1      13.730  16.081  17.095  1.00  0.00    -0.086 NA
HETATM    3  C5  UNL     1      13.747  15.110  15.984  1.00  0.00     0.139 C 
HETATM    4  C6  UNL     1      12.411  14.455  15.944  1.00  0.00     0.051 C 
HETATM    5  C7  UNL     1      11.540  14.912  14.808  1.00  0.00     0.004 C 
HETATM    6  C8  UNL     1      11.851  14.083  13.591  1.00  0.00     0.000 C 
HETATM    7  C9  UNL     1      12.963  14.699  12.772  1.00  0.00     0.000 C 
HETATM    8  C10 UNL     1      14.217  14.772  13.615  1.00  0.00     0.004 C 
HETATM    9  C11 UNL     1      14.135  15.793  14.697  1.00  0.00     0.051 C 
HETATM   10  N4  UNL     1      14.830  14.215  16.326  1.00  0.00    -0.199 N 
ATOM     11  H4  UNL     1      15.338  13.606  15.685  1.00  0.00     0.180 HD
HETATM   12  C12 UNL     1      15.039  14.335  17.627  1.00  0.00     0.697 C 
ENDROOT
BRANCH   1  13
HETATM   13  C4  UNL     1      13.676  15.434  19.542  1.00  0.00     0.086 A 
HETATM   14  C3  UNL     1      14.120  16.522  20.281  1.00  0.00     0.119 A 
HETATM   15  N1  UNL     1      13.722  16.698  21.543  1.00  0.00    -0.373 N 
HETATM   16  C2  UNL     1      12.891  15.867  22.170  1.00  0.00     0.088 A 
ATOM     17  H1  UNL     1      14.072  17.510  22.052  1.00  0.00     0.164 HD
HETATM   18  C1  UNL     1      12.428  14.779  21.473  1.00  0.00     0.019 A 
HETATM   19  C17 UNL     1      12.817  14.559  20.164  1.00  0.00     0.034 A 
ENDBRANCH   1  13
BRANCH  12  20
HETATM   20  N5  UNL     1      16.044  13.592  18.331  1.00  0.00    -0.212 N 
HETATM   21  C13 UNL     1      16.987  14.251  19.204  1.00  0.00     0.167 C 
HETATM   22  C14 UNL     1      17.062  13.570  20.557  1.00  0.00     0.188 C 
HETATM   23  O1  UNL     1      16.625  12.246  20.479  1.00  0.00    -0.388 OA
HETATM   24  C15 UNL     1      16.999  11.629  19.309  1.00  0.00     0.188 C 
HETATM   25  C16 UNL     1      16.106  12.159  18.199  1.00  0.00     0.167 C 
ENDBRANCH  12  20
TORSDOF 2
ENDMDL
MODEL 3
REMARK VINA RESULT: -7.792441973      1.731      4.199
REMARK  2 active torsions:
REMARK  status: ('A' for Active; 'I' for Inactive)
REMARK    1  A    between atoms: C4_6  and  N2_7 
REMARK    2  A    between atoms: C12_18  and  N5_19 
ROOT
HETATM    1  N2  UNL     1      14.064  15.361  18.219  1.00  0.00    -0.087 N 
HETATM    2  N3  UNL     1      13.594  16.192  17.153  1.00  0.00    -0.086 NA
HETATM    3  C5  UNL     1      13.630  15.257  16.013  1.00  0.00     0.139 C 
HETATM    4  C6  UNL     1      12.319  14.554  15.972  1.00  0.00     0.051 C 
HETATM    5  C7  UNL     1      11.414  15.012  14.864  1.00  0.00     0.004 C 
HETATM    6  C8  UNL     1      11.736  14.233  13.617  1.00  0.00     0.000 C 
HETATM    7  C9  UNL     1      12.811  14.916  12.801  1.00  0.00     0.000 C 
HETATM    8  C10 UNL     1      14.074  15.011  13.627  1.00  0.00     0.004 C 
HETATM    9  C11 UNL     1      13.971  15.994  14.742  1.00  0.00     0.051 C 
HETATM   10  N4  UNL     1      14.751  14.394  16.310  1.00  0.00    -0.199 N 
ATOM     11  H4  UNL     1      15.271  13.825  15.643  1.00  0.00     0.180 HD
HETATM   12  C12 UNL     1      14.977  14.482  17.611  1.00  0.00     0.697 C 
ENDROOT
BRANCH   1  13
HETATM   13  C4  UNL     1      13.604  15.469  19.579  1.00  0.00     0.086 A 
HETATM   14  C3  UNL     1      12.705  14.526  20.061  1.00  0.00     0.119 A 
HETATM   15  N1  UNL     1      12.235  14.608  21.308  1.00  0.00    -0.373 N 
HETATM   16  C2  UNL     1      12.584  15.571  22.160  1.00  0.00     0.088 A 
ATOM     17  H1  UNL     1      11.576  13.897  21.625  1.00  0.00     0.164 HD
HETATM   18  C1  UNL     1      13.471  16.521  21.721  1.00  0.00     0.019 A 
HETATM   19  C17 UNL     1      13.982  16.474  20.437  1.00  0.00     0.034 A 
ENDBRANCH   1  13
BRANCH  12  20
HETATM   20  N5  UNL     1      16.020  13.757  18.276  1.00  0.00    -0.212 N 
HETATM   21  C13 UNL     1      16.201  12.341  18.060  1.00  0.00     0.167 C 
HETATM   22  C14 UNL     1      17.646  12.007  17.737  1.00  0.00     0.188 C 
HETATM   23  O1  UNL     1      18.508  13.002  18.204  1.00  0.00    -0.388 OA
HETATM   24  C15 UNL     1      18.113  13.527  19.412  1.00  0.00     0.188 C 
HETATM   25  C16 UNL     1      16.931  14.447  19.154  1.00  0.00     0.167 C 
ENDBRANCH  12  20
TORSDOF 2
ENDMDL
MODEL 4
REMARK VINA RESULT: -7.732128980      2.710      6.777
REMARK  2 active torsions:
REMARK  status: ('A' for Active; 'I' for Inactive)
REMARK    1  A    between atoms: C4_6  and  N2_7 
REMARK    2  A    between atoms: C12_18  and  N5_19 
ROOT
HETATM    1  N2  UNL     1      13.029  14.172  17.175  1.00  0.00    -0.087 N 
HETATM    2  N3  UNL     1      13.041  13.984  18.594  1.00  0.00    -0.086 NA
HETATM    3  C5  UNL     1      14.280  14.690  18.973  1.00  0.00     0.139 C 
HETATM    4  C6  UNL     1      13.925  16.114  19.216  1.00  0.00     0.051 C 
HETATM    5  C7  UNL     1      13.909  16.500  20.669  1.00  0.00     0.004 C 
HETATM    6  C8  UNL     1      15.300  16.899  21.083  1.00  0.00     0.000 C 
HETATM    7  C9  UNL     1      16.093  15.710  21.576  1.00  0.00     0.000 C 
HETATM    8  C10 UNL     1      16.215  14.698  20.458  1.00  0.00     0.004 C 
HETATM    9  C11 UNL     1      14.931  14.009  20.151  1.00  0.00     0.051 C 
HETATM   10  N4  UNL     1      15.153  14.487  17.838  1.00  0.00    -0.199 N 
ATOM     11  H4  UNL     1      16.170  14.563  17.834  1.00  0.00     0.180 HD
HETATM   12  C12 UNL     1      14.384  14.184  16.804  1.00  0.00     0.697 C 
ENDROOT
BRANCH   1  13
HETATM   13  C4  UNL     1      11.825  14.336  16.401  1.00  0.00     0.086 A 
HETATM   14  C3  UNL     1      10.722  13.546  16.699  1.00  0.00     0.119 A 
HETATM   15  N1  UNL     1       9.597  13.650  15.988  1.00  0.00    -0.373 N 
HETATM   16  C2  UNL     1       9.452  14.496  14.968  1.00  0.00     0.088 A 
ATOM     17  H1  UNL     1       8.809  13.053  16.237  1.00  0.00     0.164 HD
HETATM   18  C1  UNL     1      10.520  15.294  14.643  1.00  0.00     0.019 A 
HETATM   19  C17 UNL     1      11.703  15.218  15.354  1.00  0.00     0.034 A 
ENDBRANCH   1  13
BRANCH  12  20
HETATM   20  N5  UNL     1      14.903  13.917  15.494  1.00  0.00    -0.212 N 
HETATM   21  C13 UNL     1      15.166  12.566  15.056  1.00  0.00     0.167 C 
HETATM   22  C14 UNL     1      14.549  12.292  13.697  1.00  0.00     0.188 C 
HETATM   23  O1  UNL     1      14.331  13.479  12.995  1.00  0.00    -0.388 OA
HETATM   24  C15 UNL     1      15.328  14.407  13.191  1.00  0.00     0.188 C 
HETATM   25  C16 UNL     1      15.140  15.003  14.577  1.00  0.00     0.167 C 
ENDBRANCH  12  20
TORSDOF 2
ENDMDL
MODEL 5
REMARK VINA RESULT: -7.526858448      2.322      4.237
REMARK  2 active torsions:
REMARK  status: ('A' for Active; 'I' for Inactive)
REMARK    1  A    between atoms: C4_6  and  N2_7 
REMARK    2  A    between atoms: C12_18  and  N5_19 
ROOT
HETATM    1  N2  UNL     1      14.163  14.639  17.846  1.00  0.00    -0.087 N 
HETATM    2  N3  UNL     1      13.060  15.423  17.379  1.00  0.00    -0.086 NA
HETATM    3  C5  UNL     1      12.452  14.515  16.390  1.00  0.00     0.139 C 
HETATM    4  C6  UNL     1      11.471  13.660  17.113  1.00  0.00     0.051 C 
HETATM    5  C7  UNL     1      10.036  14.022  16.852  1.00  0.00     0.004 C 
HETATM    6  C8  UNL     1       9.569  13.304  15.614  1.00  0.00     0.000 C 
HETATM    7  C9  UNL     1       9.832  14.121  14.369  1.00  0.00     0.000 C 
HETATM    8  C10 UNL     1      11.320  14.356  14.235  1.00  0.00     0.004 C 
HETATM    9  C11 UNL     1      11.856  15.304  15.251  1.00  0.00     0.051 C 
HETATM   10  N4  UNL     1      13.579  13.788  15.850  1.00  0.00    -0.199 N 
ATOM     11  H4  UNL     1      13.611  13.294  14.958  1.00  0.00     0.180 HD
HETATM   12  C12 UNL     1      14.563  13.884  16.730  1.00  0.00     0.697 C 
ENDROOT
BRANCH   1  13
HETATM   13  C4  UNL     1      14.651  14.673  19.200  1.00  0.00     0.086 A 
HETATM   14  C3  UNL     1      14.634  15.878  19.891  1.00  0.00     0.119 A 
HETATM   15  N1  UNL     1      15.101  15.956  21.139  1.00  0.00    -0.373 N 
HETATM   16  C2  UNL     1      15.605  14.913  21.798  1.00  0.00     0.088 A 
ATOM     17  H1  UNL     1      15.072  16.859  21.612  1.00  0.00     0.164 HD
HETATM   18  C1  UNL     1      15.639  13.703  21.149  1.00  0.00     0.019 A 
HETATM   19  C17 UNL     1      15.165  13.580  19.856  1.00  0.00     0.034 A 
ENDBRANCH   1  13
BRANCH  12  20
HETATM   20  N5  UNL     1      15.849  13.280  16.537  1.00  0.00    -0.212 N 
HETATM   21  C13 UNL     1      17.045  14.084  16.441  1.00  0.00     0.167 C 
HETATM   22  C14 UNL     1      18.135  13.571  17.364  1.00  0.00     0.188 C 
HETATM   23  O1  UNL     1      17.932  12.227  17.683  1.00  0.00    -0.388 OA
HETATM   24  C15 UNL     1      17.439  11.495  16.629  1.00  0.00     0.188 C 
HETATM   25  C16 UNL     1      15.969  11.846  16.468  1.00  0.00     0.167 C 
ENDBRANCH  12  20
TORSDOF 2
ENDMDL
