MODEL 1
REMARK VINA RESULT: -4.875108134      0.000      0.000
REMARK  3 active torsions:
REMARK  status: ('A' for Active; 'I' for Inactive)
REMARK    1  A    between atoms: C5_5  and  N1_6 
REMARK    2  A    between atoms: N2_9  and  C8_10 
REMARK    3  A    between atoms: C9_11  and  C10_12 
ROOT
HETATM    1  C1  UNL     1      15.712  12.772  23.385  1.00  0.00     0.019 C 
HETATM    2  C2  UNL     1      15.881  13.257  22.289  1.00  0.00    -0.059 C 
HETATM    3  C3  UNL     1      16.101  13.849  20.987  1.00  0.00     0.091 A 
HETATM    4  C4  UNL     1      15.076  13.878  20.081  1.00  0.00     0.087 A 
HETATM    5  C5  UNL     1      15.280  14.436  18.854  1.00  0.00     0.108 A 
HETATM    6  N3  UNL     1      16.501  14.960  18.532  1.00  0.00    -0.320 N 
ATOM      7  H3  UNL     1      16.666  15.379  17.617  1.00  0.00     0.169 HD
HETATM    8  C17 UNL     1      17.468  14.908  19.444  1.00  0.00     0.190 A 
HETATM    9  C18 UNL     1      18.793  15.440  19.187  1.00  0.00     0.137 C 
HETATM   10  N4  UNL     1      19.845  15.875  18.966  1.00  0.00    -0.188 NA
HETATM   11  N5  UNL     1      17.306  14.367  20.666  1.00  0.00    -0.326 N 
ATOM     12  H5  UNL     1      18.077  14.348  21.335  1.00  0.00     0.169 HD
ENDROOT
BRANCH   5  13
HETATM   13  N1  UNL     1      14.235  14.493  17.877  1.00  0.00    -0.364 N 
HETATM   14  C6  UNL     1      12.882  14.664  18.365  1.00  0.00     0.145 C 
HETATM   15  C7  UNL     1      12.076  13.491  17.849  1.00  0.00     0.152 C 
HETATM   16  N2  UNL     1      12.091  13.597  16.413  1.00  0.00    -0.339 N 
HETATM   17  C15 UNL     1      13.370  13.554  15.756  1.00  0.00     0.152 C 
HETATM   18  C16 UNL     1      14.430  14.393  16.463  1.00  0.00     0.145 C 
BRANCH  16  19
HETATM   19  C8  UNL     1      10.899  13.734  15.719  1.00  0.00     0.008 C 
HETATM   20  C9  UNL     1       9.852  13.842  15.129  1.00  0.00    -0.079 C 
BRANCH  20  21
HETATM   21  C10 UNL     1       8.564  13.967  14.433  1.00  0.00     0.067 C 
HETATM   22  C11 UNL     1       7.512  13.383  15.316  1.00  0.00     0.017 C 
HETATM   23  C12 UNL     1       6.269  14.175  14.932  1.00  0.00     0.001 C 
HETATM   24  C13 UNL     1       6.735  15.486  14.389  1.00  0.00     0.001 C 
HETATM   25  C14 UNL     1       8.238  15.430  14.275  1.00  0.00     0.017 C 
ENDBRANCH  20  21
ENDBRANCH  16  19
ENDBRANCH   5  13
TORSDOF 3
ENDMDL
MODEL 2
REMARK VINA RESULT: -4.457703799      0.956      2.638
REMARK  3 active torsions:
REMARK  status: ('A' for Active; 'I' for Inactive)
REMARK    1  A    between atoms: C5_5  and  N1_6 
REMARK    2  A    between atoms: N2_9  and  C8_10 
REMARK    3  A    between atoms: C9_11  and  C10_12 
ROOT
HETATM    1  C1  UNL     1      19.851  16.069  19.063  1.00  0.00     0.019 C 
HETATM    2  C2  UNL     1      18.762  15.584  19.273  1.00  0.00    -0.059 C 
HETATM    3  C3  UNL     1      17.469  14.991  19.541  1.00  0.00     0.091 A 
HETATM    4  C4  UNL     1      16.489  15.058  18.588  1.00  0.00     0.087 A 
HETATM    5  C5  UNL     1      15.270  14.500  18.837  1.00  0.00     0.108 A 
HETATM    6  N3  UNL     1      15.031  13.880  20.031  1.00  0.00    -0.320 N 
ATOM      7  H3  UNL     1      14.123  13.458  20.229  1.00  0.00     0.169 HD
HETATM    8  C17 UNL     1      16.013  13.839  20.928  1.00  0.00     0.190 A 
HETATM    9  C18 UNL     1      15.845  13.201  22.220  1.00  0.00     0.137 C 
HETATM   10  N4  UNL     1      15.694  12.683  23.246  1.00  0.00    -0.188 NA
HETATM   11  N5  UNL     1      17.229  14.378  20.720  1.00  0.00    -0.326 N 
ATOM     12  H5  UNL     1      17.953  14.324  21.437  1.00  0.00     0.169 HD
ENDROOT
BRANCH   5  13
HETATM   13  N1  UNL     1      14.218  14.543  17.868  1.00  0.00    -0.364 N 
HETATM   14  C6  UNL     1      12.862  14.642  18.368  1.00  0.00     0.145 C 
HETATM   15  C7  UNL     1      12.102  13.452  17.820  1.00  0.00     0.152 C 
HETATM   16  N2  UNL     1      12.104  13.602  16.387  1.00  0.00    -0.339 N 
HETATM   17  C15 UNL     1      13.380  13.633  15.723  1.00  0.00     0.152 C 
HETATM   18  C16 UNL     1      14.407  14.494  16.450  1.00  0.00     0.145 C 
BRANCH  16  19
HETATM   19  C8  UNL     1      10.903  13.710  15.704  1.00  0.00     0.008 C 
HETATM   20  C9  UNL     1       9.847  13.800  15.126  1.00  0.00    -0.079 C 
BRANCH  20  21
HETATM   21  C10 UNL     1       8.550  13.913  14.446  1.00  0.00     0.067 C 
HETATM   22  C11 UNL     1       7.504  13.400  15.377  1.00  0.00     0.017 C 
HETATM   23  C12 UNL     1       6.269  14.195  14.972  1.00  0.00     0.001 C 
HETATM   24  C13 UNL     1       6.751  15.464  14.350  1.00  0.00     0.001 C 
HETATM   25  C14 UNL     1       8.250  15.371  14.214  1.00  0.00     0.017 C 
ENDBRANCH  20  21
ENDBRANCH  16  19
ENDBRANCH   5  13
TORSDOF 3
ENDMDL
MODEL 3
REMARK VINA RESULT: -4.133496281      1.517      2.664
REMARK  3 active torsions:
REMARK  status: ('A' for Active; 'I' for Inactive)
REMARK    1  A    between atoms: C5_5  and  N1_6 
REMARK    2  A    between atoms: N2_9  and  C8_10 
REMARK    3  A    between atoms: C9_11  and  C10_12 
ROOT
HETATM    1  C1  UNL     1      19.686  12.791  16.911  1.00  0.00     0.019 C 
HETATM    2  C2  UNL     1      18.739  13.240  17.516  1.00  0.00    -0.059 C 
HETATM    3  C3  UNL     1      17.617  13.771  18.261  1.00  0.00     0.091 A 
HETATM    4  C4  UNL     1      16.420  13.960  17.626  1.00  0.00     0.087 A 
HETATM    5  C5  UNL     1      15.361  14.459  18.325  1.00  0.00     0.108 A 
HETATM    6  N3  UNL     1      15.496  14.769  19.648  1.00  0.00    -0.320 N 
ATOM      7  H3  UNL     1      14.711  15.143  20.182  1.00  0.00     0.169 HD
HETATM    8  C17 UNL     1      16.679  14.570  20.224  1.00  0.00     0.190 A 
HETATM    9  C18 UNL     1      16.911  14.871  21.624  1.00  0.00     0.137 C 
HETATM   10  N4  UNL     1      17.077  15.113  22.745  1.00  0.00    -0.188 NA
HETATM   11  N5  UNL     1      17.748  14.079  19.569  1.00  0.00    -0.326 N 
ATOM     12  H5  UNL     1      18.637  13.942  20.051  1.00  0.00     0.169 HD
ENDROOT
BRANCH   5  13
HETATM   13  N1  UNL     1      14.088  14.669  17.702  1.00  0.00    -0.364 N 
HETATM   14  C6  UNL     1      13.229  13.512  17.549  1.00  0.00     0.145 C 
HETATM   15  C7  UNL     1      12.925  13.383  16.071  1.00  0.00     0.152 C 
HETATM   16  N2  UNL     1      12.204  14.576  15.706  1.00  0.00    -0.339 N 
HETATM   17  C15 UNL     1      12.868  15.839  15.894  1.00  0.00     0.152 C 
HETATM   18  C16 UNL     1      13.607  15.929  17.225  1.00  0.00     0.145 C 
BRANCH  16  19
HETATM   19  C8  UNL     1      10.919  14.477  15.196  1.00  0.00     0.008 C 
HETATM   20  C9  UNL     1       9.795  14.378  14.768  1.00  0.00    -0.079 C 
BRANCH  20  21
HETATM   21  C10 UNL     1       8.419  14.249  14.269  1.00  0.00     0.067 C 
HETATM   22  C11 UNL     1       7.723  13.236  15.116  1.00  0.00     0.017 C 
HETATM   23  C12 UNL     1       6.270  13.690  15.063  1.00  0.00     0.001 C 
HETATM   24  C13 UNL     1       6.280  15.156  14.775  1.00  0.00     0.001 C 
HETATM   25  C14 UNL     1       7.703  15.558  14.479  1.00  0.00     0.017 C 
ENDBRANCH  20  21
ENDBRANCH  16  19
ENDBRANCH   5  13
TORSDOF 3
ENDMDL
MODEL 4
REMARK VINA RESULT: -4.035760898      1.471      1.599
REMARK  3 active torsions:
REMARK  status: ('A' for Active; 'I' for Inactive)
REMARK    1  A    between atoms: C5_5  and  N1_6 
REMARK    2  A    between atoms: N2_9  and  C8_10 
REMARK    3  A    between atoms: C9_11  and  C10_12 
ROOT
HETATM    1  C1  UNL     1      17.227  15.026  22.863  1.00  0.00     0.019 C 
HETATM    2  C2  UNL     1      17.039  14.782  21.693  1.00  0.00    -0.059 C 
HETATM    3  C3  UNL     1      16.837  14.493  20.289  1.00  0.00     0.091 A 
HETATM    4  C4  UNL     1      15.603  14.694  19.733  1.00  0.00     0.087 A 
HETATM    5  C5  UNL     1      15.410  14.422  18.411  1.00  0.00     0.108 A 
HETATM    6  N3  UNL     1      16.442  13.953  17.649  1.00  0.00    -0.320 N 
ATOM      7  H3  UNL     1      16.310  13.746  16.658  1.00  0.00     0.169 HD
HETATM    8  C17 UNL     1      17.624  13.772  18.232  1.00  0.00     0.190 A 
HETATM    9  C18 UNL     1      18.774  13.278  17.497  1.00  0.00     0.137 C 
HETATM   10  N4  UNL     1      19.683  12.886  16.894  1.00  0.00    -0.188 NA
HETATM   11  N5  UNL     1      17.855  14.028  19.533  1.00  0.00    -0.326 N 
ATOM     12  H5  UNL     1      18.778  13.875  19.939  1.00  0.00     0.169 HD
ENDROOT
BRANCH   5  13
HETATM   13  N1  UNL     1      14.137  14.621  17.786  1.00  0.00    -0.364 N 
HETATM   14  C6  UNL     1      13.272  13.466  17.665  1.00  0.00     0.145 C 
HETATM   15  C7  UNL     1      12.962  13.299  16.192  1.00  0.00     0.152 C 
HETATM   16  N2  UNL     1      12.247  14.486  15.798  1.00  0.00    -0.339 N 
HETATM   17  C15 UNL     1      12.917  15.749  15.951  1.00  0.00     0.152 C 
HETATM   18  C16 UNL     1      13.661  15.871  17.277  1.00  0.00     0.145 C 
BRANCH  16  19
HETATM   19  C8  UNL     1      10.960  14.380  15.294  1.00  0.00     0.008 C 
HETATM   20  C9  UNL     1       9.834  14.277  14.872  1.00  0.00    -0.079 C 
BRANCH  20  21
HETATM   21  C10 UNL     1       8.455  14.146  14.382  1.00  0.00     0.067 C 
HETATM   22  C11 UNL     1       7.732  13.223  15.305  1.00  0.00     0.017 C 
HETATM   23  C12 UNL     1       6.292  13.711  15.213  1.00  0.00     0.001 C 
HETATM   24  C13 UNL     1       6.341  15.148  14.808  1.00  0.00     0.001 C 
HETATM   25  C14 UNL     1       7.775  15.487  14.485  1.00  0.00     0.017 C 
ENDBRANCH  20  21
ENDBRANCH  16  19
ENDBRANCH   5  13
TORSDOF 3
ENDMDL
MODEL 5
REMARK VINA RESULT: -3.081153734      2.677      9.175
REMARK  3 active torsions:
REMARK  status: ('A' for Active; 'I' for Inactive)
REMARK    1  A    between atoms: C5_5  and  N1_6 
REMARK    2  A    between atoms: N2_9  and  C8_10 
REMARK    3  A    between atoms: C9_11  and  C10_12 
ROOT
HETATM    1  C1  UNL     1       6.270  10.790  16.820  1.00  0.00     0.019 C 
HETATM    2  C2  UNL     1       6.888  11.723  16.360  1.00  0.00    -0.059 C 
HETATM    3  C3  UNL     1       7.609  12.844  15.794  1.00  0.00     0.091 A 
HETATM    4  C4  UNL     1       8.962  12.930  15.975  1.00  0.00     0.087 A 
HETATM    5  C5  UNL     1       9.644  13.984  15.443  1.00  0.00     0.108 A 
HETATM    6  N3  UNL     1       8.979  14.946  14.736  1.00  0.00    -0.320 N 
ATOM      7  H3  UNL     1       9.479  15.739  14.332  1.00  0.00     0.169 HD
HETATM    8  C17 UNL     1       7.663  14.821  14.586  1.00  0.00     0.190 A 
HETATM    9  C18 UNL     1       6.879  15.795  13.850  1.00  0.00     0.137 C 
HETATM   10  N4  UNL     1       6.269  16.580  13.255  1.00  0.00    -0.188 NA
HETATM   11  N5  UNL     1       6.954  13.796  15.095  1.00  0.00    -0.326 N 
ATOM     12  H5  UNL     1       5.945  13.740  14.956  1.00  0.00     0.169 HD
ENDROOT
BRANCH   5  13
HETATM   13  N1  UNL     1      11.062  14.113  15.603  1.00  0.00    -0.364 N 
HETATM   14  C6  UNL     1      11.716  13.168  16.485  1.00  0.00     0.145 C 
HETATM   15  C7  UNL     1      12.426  13.979  17.549  1.00  0.00     0.152 C 
HETATM   16  N2  UNL     1      13.416  14.765  16.859  1.00  0.00    -0.339 N 
HETATM   17  C15 UNL     1      12.952  15.691  15.860  1.00  0.00     0.152 C 
HETATM   18  C16 UNL     1      11.872  15.101  14.958  1.00  0.00     0.145 C 
BRANCH  16  19
HETATM   19  C8  UNL     1      14.757  14.612  17.169  1.00  0.00     0.008 C 
HETATM   20  C9  UNL     1      15.924  14.494  17.454  1.00  0.00    -0.079 C 
BRANCH  20  21
HETATM   21  C10 UNL     1      17.341  14.363  17.821  1.00  0.00     0.067 C 
HETATM   22  C11 UNL     1      17.527  15.017  19.150  1.00  0.00     0.017 C 
HETATM   23  C12 UNL     1      18.687  14.236  19.753  1.00  0.00     0.001 C 
HETATM   24  C13 UNL     1      18.689  12.888  19.109  1.00  0.00     0.001 C 
HETATM   25  C14 UNL     1      17.661  12.903  18.005  1.00  0.00     0.017 C 
ENDBRANCH  20  21
ENDBRANCH  16  19
ENDBRANCH   5  13
TORSDOF 3
ENDMDL
