MODEL 1
REMARK VINA RESULT: -9.355261179      0.000      0.000
REMARK  3 active torsions:
REMARK  status: ('A' for Active; 'I' for Inactive)
REMARK    1  A    between atoms: C1_1  and  C12_16 
REMARK    2  A    between atoms: C2_2  and  C3_3 
REMARK    3  A    between atoms: C7_9  and  N2_10 
ROOT
HETATM    1  C3  UNL     1      14.593  13.905  16.437  1.00  0.00     0.062 A 
HETATM    2  C4  UNL     1      15.094  13.690  17.727  1.00  0.00     0.026 A 
HETATM    3  C5  UNL     1      16.453  13.645  17.897  1.00  0.00     0.019 A 
HETATM    4  C6  UNL     1      17.327  13.803  16.849  1.00  0.00     0.090 A 
HETATM    5  N1  UNL     1      16.804  14.007  15.636  1.00  0.00    -0.351 N 
ATOM      6  H1  UNL     1      17.444  14.127  14.851  1.00  0.00     0.166 HD
HETATM    7  C7  UNL     1      15.466  14.064  15.386  1.00  0.00     0.122 A 
ENDROOT
BRANCH   1   8
HETATM    8  C2  UNL     1      13.165  13.953  16.255  1.00  0.00    -0.058 C 
HETATM    9  C1  UNL     1      11.951  13.987  16.122  1.00  0.00    -0.061 C 
BRANCH   9  10
HETATM   10  C12 UNL     1      10.525  14.025  15.942  1.00  0.00     0.021 A 
HETATM   11  C13 UNL     1       9.679  13.300  16.785  1.00  0.00     0.023 A 
HETATM   12  C14 UNL     1       8.311  13.327  16.627  1.00  0.00     0.041 A 
HETATM   13  C15 UNL     1       7.739  14.074  15.626  1.00  0.00     0.105 A 
HETATM   14  C16 UNL     1       8.546  14.807  14.768  1.00  0.00     0.106 A 
HETATM   15  O3  UNL     1       6.395  14.255  15.272  1.00  0.00    -0.323 OA
HETATM   16  C17 UNL     1       9.919  14.764  14.948  1.00  0.00     0.060 A 
HETATM   17  O2  UNL     1       7.721  15.444  13.882  1.00  0.00    -0.323 OA
HETATM   18  C18 UNL     1       6.373  15.189  14.231  1.00  0.00     0.352 A 
ENDBRANCH   9  10
ENDBRANCH   1   8
BRANCH   7  19
HETATM   19  N2  UNL     1      14.949  14.278  14.094  1.00  0.00    -0.362 N 
HETATM   20  C8  UNL     1      14.875  15.617  13.577  1.00  0.00     0.150 C 
HETATM   21  C9  UNL     1      13.413  15.909  13.226  1.00  0.00     0.187 C 
HETATM   22  O1  UNL     1      12.669  14.765  13.071  1.00  0.00    -0.388 OA
HETATM   23  C10 UNL     1      13.332  13.728  12.427  1.00  0.00     0.187 C 
HETATM   24  C11 UNL     1      14.486  13.200  13.265  1.00  0.00     0.150 C 
ENDBRANCH   7  19
TORSDOF 3
ENDMDL
MODEL 2
REMARK VINA RESULT: -9.242786061      0.788      1.484
REMARK  3 active torsions:
REMARK  status: ('A' for Active; 'I' for Inactive)
REMARK    1  A    between atoms: C1_1  and  C12_16 
REMARK    2  A    between atoms: C2_2  and  C3_3 
REMARK    3  A    between atoms: C7_9  and  N2_10 
ROOT
HETATM    1  C3  UNL     1      14.814  13.912  16.733  1.00  0.00     0.062 A 
HETATM    2  C4  UNL     1      15.208  13.799  18.072  1.00  0.00     0.026 A 
HETATM    3  C5  UNL     1      16.548  13.745  18.353  1.00  0.00     0.019 A 
HETATM    4  C6  UNL     1      17.505  13.799  17.369  1.00  0.00     0.090 A 
HETATM    5  N1  UNL     1      17.083  13.907  16.105  1.00  0.00    -0.351 N 
ATOM      6  H1  UNL     1      17.784  13.948  15.367  1.00  0.00     0.166 HD
HETATM    7  C7  UNL     1      15.770  13.966  15.745  1.00  0.00     0.122 A 
ENDROOT
BRANCH   1   8
HETATM    8  C2  UNL     1      13.407  13.968  16.434  1.00  0.00    -0.058 C 
HETATM    9  C1  UNL     1      12.213  13.995  16.173  1.00  0.00    -0.061 C 
BRANCH   9  10
HETATM   10  C12 UNL     1      10.809  14.049  15.865  1.00  0.00     0.021 A 
HETATM   11  C13 UNL     1      10.335  14.863  14.833  1.00  0.00     0.023 A 
HETATM   12  C14 UNL     1       8.994  14.926  14.527  1.00  0.00     0.041 A 
HETATM   13  C15 UNL     1       8.080  14.183  15.235  1.00  0.00     0.105 A 
HETATM   14  C16 UNL     1       8.513  13.363  16.267  1.00  0.00     0.106 A 
HETATM   15  O3  UNL     1       6.688  14.082  15.110  1.00  0.00    -0.323 OA
HETATM   16  C17 UNL     1       9.867  13.317  16.556  1.00  0.00     0.060 A 
HETATM   17  O2  UNL     1       7.406  12.751  16.789  1.00  0.00    -0.323 OA
HETATM   18  C18 UNL     1       6.269  13.113  16.027  1.00  0.00     0.352 A 
ENDBRANCH   9  10
ENDBRANCH   1   8
BRANCH   7  19
HETATM   19  N2  UNL     1      15.361  14.078  14.403  1.00  0.00    -0.362 N 
HETATM   20  C8  UNL     1      15.420  15.357  13.752  1.00  0.00     0.150 C 
HETATM   21  C9  UNL     1      14.011  15.707  13.263  1.00  0.00     0.187 C 
HETATM   22  O1  UNL     1      13.198  14.604  13.166  1.00  0.00    -0.388 OA
HETATM   23  C10 UNL     1      13.827  13.464  12.680  1.00  0.00     0.187 C 
HETATM   24  C11 UNL     1      14.879  12.951  13.652  1.00  0.00     0.150 C 
ENDBRANCH   7  19
TORSDOF 3
ENDMDL
MODEL 3
REMARK VINA RESULT: -8.883003550      2.927      4.560
REMARK  3 active torsions:
REMARK  status: ('A' for Active; 'I' for Inactive)
REMARK    1  A    between atoms: C1_1  and  C12_16 
REMARK    2  A    between atoms: C2_2  and  C3_3 
REMARK    3  A    between atoms: C7_9  and  N2_10 
ROOT
HETATM    1  C3  UNL     1      16.170  13.810  17.464  1.00  0.00     0.062 A 
HETATM    2  C4  UNL     1      17.130  13.179  16.663  1.00  0.00     0.026 A 
HETATM    3  C5  UNL     1      18.387  12.998  17.178  1.00  0.00     0.019 A 
HETATM    4  C6  UNL     1      18.728  13.413  18.443  1.00  0.00     0.090 A 
HETATM    5  N1  UNL     1      17.779  14.009  19.170  1.00  0.00    -0.351 N 
ATOM      6  H1  UNL     1      18.020  14.321  20.111  1.00  0.00     0.166 HD
HETATM    7  C7  UNL     1      16.508  14.226  18.731  1.00  0.00     0.122 A 
ENDROOT
BRANCH   1   8
HETATM    8  C2  UNL     1      14.848  14.002  16.926  1.00  0.00    -0.058 C 
HETATM    9  C1  UNL     1      13.722  14.144  16.474  1.00  0.00    -0.061 C 
BRANCH   9  10
HETATM   10  C12 UNL     1      12.402  14.329  15.932  1.00  0.00     0.021 A 
HETATM   11  C13 UNL     1      12.121  15.411  15.093  1.00  0.00     0.023 A 
HETATM   12  C14 UNL     1      10.864  15.602  14.565  1.00  0.00     0.041 A 
HETATM   13  C15 UNL     1       9.844  14.726  14.854  1.00  0.00     0.105 A 
HETATM   14  C16 UNL     1      10.086  13.640  15.683  1.00  0.00     0.106 A 
HETATM   15  O3  UNL     1       8.505  14.712  14.443  1.00  0.00    -0.323 OA
HETATM   16  C17 UNL     1      11.358  13.470  16.201  1.00  0.00     0.060 A 
HETATM   17  O2  UNL     1       8.911  12.948  15.796  1.00  0.00    -0.323 OA
HETATM   18  C18 UNL     1       7.935  13.544  14.961  1.00  0.00     0.352 A 
ENDBRANCH   9  10
ENDBRANCH   1   8
BRANCH   7  19
HETATM   19  N2  UNL     1      15.533  14.861  19.524  1.00  0.00    -0.362 N 
HETATM   20  C8  UNL     1      15.590  16.285  19.708  1.00  0.00     0.150 C 
HETATM   21  C9  UNL     1      15.691  16.566  21.211  1.00  0.00     0.187 C 
HETATM   22  O1  UNL     1      15.274  15.503  21.975  1.00  0.00    -0.388 OA
HETATM   23  C10 UNL     1      14.161  14.836  21.477  1.00  0.00     0.187 C 
HETATM   24  C11 UNL     1      14.474  14.132  20.166  1.00  0.00     0.150 C 
ENDBRANCH   7  19
TORSDOF 3
ENDMDL
MODEL 4
REMARK VINA RESULT: -8.788336188      3.068      7.044
REMARK  3 active torsions:
REMARK  status: ('A' for Active; 'I' for Inactive)
REMARK    1  A    between atoms: C1_1  and  C12_16 
REMARK    2  A    between atoms: C2_2  and  C3_3 
REMARK    3  A    between atoms: C7_9  and  N2_10 
ROOT
HETATM    1  C3  UNL     1      10.904  13.976  15.982  1.00  0.00     0.062 A 
HETATM    2  C4  UNL     1       9.832  13.358  16.638  1.00  0.00     0.026 A 
HETATM    3  C5  UNL     1       8.649  13.220  15.960  1.00  0.00     0.019 A 
HETATM    4  C6  UNL     1       8.487  13.666  14.671  1.00  0.00     0.090 A 
HETATM    5  N1  UNL     1       9.537  14.248  14.085  1.00  0.00    -0.351 N 
ATOM      6  H1  UNL     1       9.428  14.582  13.128  1.00  0.00     0.166 HD
HETATM    7  C7  UNL     1      10.744  14.423  14.691  1.00  0.00     0.122 A 
ENDROOT
BRANCH   1   8
HETATM    8  C2  UNL     1      12.149  14.123  16.691  1.00  0.00    -0.058 C 
HETATM    9  C1  UNL     1      13.194  14.245  17.311  1.00  0.00    -0.061 C 
BRANCH   9  10
HETATM   10  C12 UNL     1      14.434  14.399  18.024  1.00  0.00     0.021 A 
HETATM   11  C13 UNL     1      14.543  15.308  19.080  1.00  0.00     0.023 A 
HETATM   12  C14 UNL     1      15.722  15.467  19.772  1.00  0.00     0.041 A 
HETATM   13  C15 UNL     1      16.832  14.729  19.438  1.00  0.00     0.105 A 
HETATM   14  C16 UNL     1      16.763  13.816  18.395  1.00  0.00     0.106 A 
HETATM   15  O3  UNL     1      18.122  14.716  19.987  1.00  0.00    -0.323 OA
HETATM   16  C17 UNL     1      15.566  13.675  17.715  1.00  0.00     0.060 A 
HETATM   17  O2  UNL     1      17.996  13.233  18.286  1.00  0.00    -0.323 OA
HETATM   18  C18 UNL     1      18.833  13.710  19.323  1.00  0.00     0.352 A 
ENDBRANCH   9  10
ENDBRANCH   1   8
BRANCH   7  19
HETATM   19  N2  UNL     1      11.830  15.044  14.044  1.00  0.00    -0.362 N 
HETATM   20  C8  UNL     1      12.567  14.317  13.048  1.00  0.00     0.150 C 
HETATM   21  C9  UNL     1      14.034  14.263  13.489  1.00  0.00     0.187 C 
HETATM   22  O1  UNL     1      14.343  15.231  14.412  1.00  0.00    -0.388 OA
HETATM   23  C10 UNL     1      13.744  16.464  14.179  1.00  0.00     0.187 C 
HETATM   24  C11 UNL     1      12.234  16.390  14.345  1.00  0.00     0.150 C 
ENDBRANCH   7  19
TORSDOF 3
ENDMDL
MODEL 5
REMARK VINA RESULT: -8.628299245      3.093      7.192
REMARK  3 active torsions:
REMARK  status: ('A' for Active; 'I' for Inactive)
REMARK    1  A    between atoms: C1_1  and  C12_16 
REMARK    2  A    between atoms: C2_2  and  C3_3 
REMARK    3  A    between atoms: C7_9  and  N2_10 
ROOT
HETATM    1  C3  UNL     1      11.254  13.911  15.923  1.00  0.00     0.062 A 
HETATM    2  C4  UNL     1      10.246  13.311  16.689  1.00  0.00     0.026 A 
HETATM    3  C5  UNL     1       8.959  13.363  16.223  1.00  0.00     0.019 A 
HETATM    4  C6  UNL     1       8.632  13.980  15.040  1.00  0.00     0.090 A 
HETATM    5  N1  UNL     1       9.626  14.539  14.343  1.00  0.00    -0.351 N 
ATOM      6  H1  UNL     1       9.395  14.999  13.463  1.00  0.00     0.166 HD
HETATM    7  C7  UNL     1      10.929  14.530  14.738  1.00  0.00     0.122 A 
ENDROOT
BRANCH   1   8
HETATM    8  C2  UNL     1      12.608  13.858  16.409  1.00  0.00    -0.058 C 
HETATM    9  C1  UNL     1      13.763  13.800  16.803  1.00  0.00    -0.061 C 
BRANCH   9  10
HETATM   10  C12 UNL     1      15.116  13.738  17.289  1.00  0.00     0.021 A 
HETATM   11  C13 UNL     1      16.180  13.514  16.411  1.00  0.00     0.023 A 
HETATM   12  C14 UNL     1      17.480  13.452  16.860  1.00  0.00     0.041 A 
HETATM   13  C15 UNL     1      17.766  13.610  18.195  1.00  0.00     0.105 A 
HETATM   14  C16 UNL     1      16.736  13.833  19.097  1.00  0.00     0.106 A 
HETATM   15  O3  UNL     1      18.990  13.587  18.878  1.00  0.00    -0.323 OA
HETATM   16  C17 UNL     1      15.437  13.891  18.621  1.00  0.00     0.060 A 
HETATM   17  O2  UNL     1      17.302  13.950  20.337  1.00  0.00    -0.323 OA
HETATM   18  C18 UNL     1      18.711  13.891  20.215  1.00  0.00     0.352 A 
ENDBRANCH   9  10
ENDBRANCH   1   8
BRANCH   7  19
HETATM   19  N2  UNL     1      11.951  15.130  13.978  1.00  0.00    -0.362 N 
HETATM   20  C8  UNL     1      12.574  14.385  12.920  1.00  0.00     0.150 C 
HETATM   21  C9  UNL     1      14.077  14.314  13.210  1.00  0.00     0.187 C 
HETATM   22  O1  UNL     1      14.491  15.286  14.088  1.00  0.00    -0.388 OA
HETATM   23  C10 UNL     1      13.887  16.525  13.905  1.00  0.00     0.187 C 
HETATM   24  C11 UNL     1      12.402  16.473  14.225  1.00  0.00     0.150 C 
ENDBRANCH   7  19
TORSDOF 3
ENDMDL
