MODEL 1
REMARK VINA RESULT: -7.524894218      0.000      0.000
REMARK  1 active torsions:
REMARK  status: ('A' for Active; 'I' for Inactive)
REMARK    1  A    between atoms: C2_3  and  C3_4 
REMARK       I    between atoms: C3_4  and  N2_6 
ROOT
HETATM    1  N1  UNL     1      16.371  11.579  20.917  1.00  0.00    -0.196 NA
HETATM    2  C1  UNL     1      16.185  12.576  20.334  1.00  0.00     0.079 C 
HETATM    3  C2  UNL     1      15.960  13.859  19.613  1.00  0.00     0.131 C 
HETATM    4  C11 UNL     1      16.727  14.888  20.414  1.00  0.00     0.045 C 
HETATM    5  C12 UNL     1      16.344  16.309  20.069  1.00  0.00     0.076 C 
HETATM    6  S1  UNL     1      14.658  16.537  20.765  1.00  0.00    -0.169 SA
HETATM    7  C13 UNL     1      14.007  14.825  20.897  1.00  0.00     0.076 C 
HETATM    8  C14 UNL     1      14.476  14.092  19.660  1.00  0.00     0.045 C 
ENDROOT
BRANCH   3   9
HETATM    9  C3  UNL     1      16.501  13.792  18.248  1.00  0.00     0.242 C 
HETATM   10  O1  UNL     1      17.772  13.654  18.130  1.00  0.00    -0.271 OA
HETATM   11  N2  UNL     1      15.792  13.860  17.040  1.00  0.00    -0.350 N 
HETATM   12  C4  UNL     1      16.448  13.769  15.743  1.00  0.00     0.131 C 
HETATM   13  C8  UNL     1      14.364  14.030  17.026  1.00  0.00     0.131 C 
HETATM   14  C5  UNL     1      15.912  14.838  14.795  1.00  0.00     0.088 C 
HETATM   15  C6  UNL     1      14.415  14.694  14.614  1.00  0.00     0.167 C 
HETATM   16  C7  UNL     1      13.874  13.688  15.627  1.00  0.00     0.088 C 
HETATM   17  O2  UNL     1      13.849  15.936  14.755  1.00  0.00    -0.353 OA
HETATM   18  O3  UNL     1      14.087  14.206  13.359  1.00  0.00    -0.353 OA
HETATM   19  C9  UNL     1      13.245  16.277  13.551  1.00  0.00     0.197 C 
HETATM   20  C10 UNL     1      12.921  14.882  12.999  1.00  0.00     0.197 C 
ENDBRANCH   3   9
TORSDOF 1
ENDMDL
MODEL 2
REMARK VINA RESULT: -7.230547500      2.443      3.331
REMARK  1 active torsions:
REMARK  status: ('A' for Active; 'I' for Inactive)
REMARK    1  A    between atoms: C2_3  and  C3_4 
REMARK       I    between atoms: C3_4  and  N2_6 
ROOT
HETATM    1  N1  UNL     1      15.997  16.508  21.630  1.00  0.00    -0.196 NA
HETATM    2  C1  UNL     1      15.956  15.657  20.828  1.00  0.00     0.079 C 
HETATM    3  C2  UNL     1      15.906  14.556  19.828  1.00  0.00     0.131 C 
HETATM    4  C11 UNL     1      15.767  13.295  20.654  1.00  0.00     0.045 C 
HETATM    5  C12 UNL     1      16.058  12.039  19.866  1.00  0.00     0.076 C 
HETATM    6  S1  UNL     1      17.875  12.054  19.589  1.00  0.00    -0.169 SA
HETATM    7  C13 UNL     1      18.327  13.825  19.759  1.00  0.00     0.076 C 
HETATM    8  C14 UNL     1      17.218  14.616  19.098  1.00  0.00     0.045 C 
ENDROOT
BRANCH   3   9
HETATM    9  C3  UNL     1      14.737  14.701  18.948  1.00  0.00     0.242 C 
HETATM   10  O1  UNL     1      13.641  15.085  19.494  1.00  0.00    -0.271 OA
HETATM   11  N2  UNL     1      14.670  14.473  17.567  1.00  0.00    -0.350 N 
HETATM   12  C4  UNL     1      13.446  14.666  16.802  1.00  0.00     0.131 C 
HETATM   13  C8  UNL     1      15.821  14.024  16.832  1.00  0.00     0.131 C 
HETATM   14  C5  UNL     1      13.217  13.495  15.851  1.00  0.00     0.088 C 
HETATM   15  C6  UNL     1      14.386  13.337  14.900  1.00  0.00     0.167 C 
HETATM   16  C7  UNL     1      15.534  14.236  15.353  1.00  0.00     0.088 C 
HETATM   17  O2  UNL     1      14.737  12.011  14.876  1.00  0.00    -0.353 OA
HETATM   18  O3  UNL     1      14.063  13.727  13.610  1.00  0.00    -0.353 OA
HETATM   19  C9  UNL     1      14.541  11.535  13.585  1.00  0.00     0.197 C 
HETATM   20  C10 UNL     1      14.734  12.828  12.781  1.00  0.00     0.197 C 
ENDBRANCH   3   9
TORSDOF 1
ENDMDL
MODEL 3
REMARK VINA RESULT: -7.019566186      1.607      1.942
REMARK  1 active torsions:
REMARK  status: ('A' for Active; 'I' for Inactive)
REMARK    1  A    between atoms: C2_3  and  C3_4 
REMARK       I    between atoms: C3_4  and  N2_6 
ROOT
HETATM    1  N1  UNL     1      16.028  10.918  20.606  1.00  0.00    -0.196 NA
HETATM    2  C1  UNL     1      16.290  11.737  19.812  1.00  0.00     0.079 C 
HETATM    3  C2  UNL     1      16.650  12.779  18.812  1.00  0.00     0.131 C 
HETATM    4  C11 UNL     1      18.155  12.898  18.909  1.00  0.00     0.045 C 
HETATM    5  C12 UNL     1      18.692  14.145  18.244  1.00  0.00     0.076 C 
HETATM    6  S1  UNL     1      18.179  15.533  19.334  1.00  0.00    -0.169 SA
HETATM    7  C13 UNL     1      16.742  14.855  20.254  1.00  0.00     0.076 C 
HETATM    8  C14 UNL     1      15.950  14.030  19.263  1.00  0.00     0.045 C 
ENDROOT
BRANCH   3   9
HETATM    9  C3  UNL     1      16.275  12.353  17.455  1.00  0.00     0.242 C 
HETATM   10  O1  UNL     1      16.895  11.340  16.970  1.00  0.00    -0.271 OA
HETATM   11  N2  UNL     1      15.308  12.923  16.615  1.00  0.00    -0.350 N 
HETATM   12  C4  UNL     1      15.020  12.396  15.288  1.00  0.00     0.131 C 
HETATM   13  C8  UNL     1      14.550  14.073  17.027  1.00  0.00     0.131 C 
HETATM   14  C5  UNL     1      14.919  13.530  14.272  1.00  0.00     0.088 C 
HETATM   15  C6  UNL     1      13.839  14.515  14.669  1.00  0.00     0.167 C 
HETATM   16  C7  UNL     1      13.362  14.203  16.085  1.00  0.00     0.088 C 
HETATM   17  O2  UNL     1      14.356  15.780  14.557  1.00  0.00    -0.353 OA
HETATM   18  O3  UNL     1      12.726  14.425  13.848  1.00  0.00    -0.353 OA
HETATM   19  C9  UNL     1      13.629  16.463  13.589  1.00  0.00     0.197 C 
HETATM   20  C10 UNL     1      12.280  15.739  13.696  1.00  0.00     0.197 C 
ENDBRANCH   3   9
TORSDOF 1
ENDMDL
MODEL 4
REMARK VINA RESULT: -6.893309159      2.536      3.409
REMARK  1 active torsions:
REMARK  status: ('A' for Active; 'I' for Inactive)
REMARK    1  A    between atoms: C2_3  and  C3_4 
REMARK       I    between atoms: C3_4  and  N2_6 
ROOT
HETATM    1  N1  UNL     1      12.678  16.526  22.356  1.00  0.00    -0.196 NA
HETATM    2  C1  UNL     1      13.195  15.995  21.450  1.00  0.00     0.079 C 
HETATM    3  C2  UNL     1      13.868  15.305  20.316  1.00  0.00     0.131 C 
HETATM    4  C11 UNL     1      14.692  14.215  20.965  1.00  0.00     0.045 C 
HETATM    5  C12 UNL     1      15.729  13.628  20.036  1.00  0.00     0.076 C 
HETATM    6  S1  UNL     1      17.004  14.937  19.846  1.00  0.00    -0.169 SA
HETATM    7  C13 UNL     1      16.106  16.483  20.263  1.00  0.00     0.076 C 
HETATM    8  C14 UNL     1      14.724  16.352  19.660  1.00  0.00     0.045 C 
ENDROOT
BRANCH   3   9
HETATM    9  C3  UNL     1      12.879  14.704  19.409  1.00  0.00     0.242 C 
HETATM   10  O1  UNL     1      11.926  14.033  19.948  1.00  0.00    -0.271 OA
HETATM   11  N2  UNL     1      12.844  14.774  18.010  1.00  0.00    -0.350 N 
HETATM   12  C4  UNL     1      11.796  14.140  17.222  1.00  0.00     0.131 C 
HETATM   13  C8  UNL     1      13.859  15.480  17.276  1.00  0.00     0.131 C 
HETATM   14  C5  UNL     1      12.395  13.401  16.029  1.00  0.00     0.088 C 
HETATM   15  C6  UNL     1      13.184  14.349  15.149  1.00  0.00     0.167 C 
HETATM   16  C7  UNL     1      13.342  15.690  15.861  1.00  0.00     0.088 C 
HETATM   17  O2  UNL     1      14.390  13.761  14.865  1.00  0.00    -0.353 OA
HETATM   18  O3  UNL     1      12.534  14.610  13.953  1.00  0.00    -0.353 OA
HETATM   19  C9  UNL     1      14.461  13.559  13.491  1.00  0.00     0.197 C 
HETATM   20  C10 UNL     1      13.548  14.689  12.998  1.00  0.00     0.197 C 
ENDBRANCH   3   9
TORSDOF 1
ENDMDL
MODEL 5
REMARK VINA RESULT: -6.840908460      2.687      6.098
REMARK  1 active torsions:
REMARK  status: ('A' for Active; 'I' for Inactive)
REMARK    1  A    between atoms: C2_3  and  C3_4 
REMARK       I    between atoms: C3_4  and  N2_6 
ROOT
HETATM    1  N1  UNL     1      15.427  15.305  13.989  1.00  0.00    -0.196 NA
HETATM    2  C1  UNL     1      14.519  15.291  14.727  1.00  0.00     0.079 C 
HETATM    3  C2  UNL     1      13.357  15.247  15.656  1.00  0.00     0.131 C 
HETATM    4  C11 UNL     1      12.871  13.816  15.593  1.00  0.00     0.045 C 
HETATM    5  C12 UNL     1      11.488  13.637  16.178  1.00  0.00     0.076 C 
HETATM    6  S1  UNL     1      10.348  14.428  14.974  1.00  0.00    -0.169 SA
HETATM    7  C13 UNL     1      11.423  15.608  14.067  1.00  0.00     0.076 C 
HETATM    8  C14 UNL     1      12.355  16.215  15.094  1.00  0.00     0.045 C 
ENDROOT
BRANCH   3   9
HETATM    9  C3  UNL     1      13.775  15.566  17.030  1.00  0.00     0.242 C 
HETATM   10  O1  UNL     1      13.339  16.664  17.531  1.00  0.00    -0.271 OA
HETATM   11  N2  UNL     1      14.600  14.809  17.873  1.00  0.00    -0.350 N 
HETATM   12  C4  UNL     1      14.930  15.232  19.227  1.00  0.00     0.131 C 
HETATM   13  C8  UNL     1      15.170  13.565  17.433  1.00  0.00     0.131 C 
HETATM   14  C5  UNL     1      16.421  15.047  19.497  1.00  0.00     0.088 C 
HETATM   15  C6  UNL     1      16.827  13.600  19.308  1.00  0.00     0.167 C 
HETATM   16  C7  UNL     1      15.677  12.829  18.664  1.00  0.00     0.088 C 
HETATM   17  O2  UNL     1      17.966  13.575  18.544  1.00  0.00    -0.353 OA
HETATM   18  O3  UNL     1      17.097  12.973  20.514  1.00  0.00    -0.353 OA
HETATM   19  C9  UNL     1      18.987  13.019  19.306  1.00  0.00     0.197 C 
HETATM   20  C10 UNL     1      18.173  12.125  20.249  1.00  0.00     0.197 C 
ENDBRANCH   3   9
TORSDOF 1
ENDMDL
