MODEL 1
REMARK VINA RESULT: -9.248852856      0.000      0.000
REMARK  1 active torsions:
REMARK  status: ('A' for Active; 'I' for Inactive)
REMARK    1  A    between atoms: C7_9  and  N2_10 
ROOT
HETATM    1  C1  UNL     1      18.632  13.118  17.763  1.00  0.00     0.070 C 
HETATM    2  C2  UNL     1      17.229  13.535  17.423  1.00  0.00     0.025 A 
HETATM    3  C3  UNL     1      16.599  13.328  16.211  1.00  0.00     0.059 A 
HETATM    4  C4  UNL     1      15.331  13.849  16.305  1.00  0.00     0.085 A 
HETATM    5  C5  UNL     1      14.251  13.922  15.400  1.00  0.00    -0.005 A 
HETATM    6  C6  UNL     1      13.105  14.510  15.820  1.00  0.00     0.035 A 
HETATM    7  N1  UNL     1      13.031  15.008  17.088  1.00  0.00    -0.193 N 
ATOM      8  H1  UNL     1      12.160  15.447  17.385  1.00  0.00     0.184 HD
HETATM    9  C7  UNL     1      14.044  14.949  17.962  1.00  0.00     0.702 A 
HETATM   10  N4  UNL     1      15.192  14.363  17.549  1.00  0.00    -0.086 N 
HETATM   11  N5  UNL     1      16.340  14.165  18.201  1.00  0.00    -0.284 N 
ATOM     12  H5  UNL     1      16.516  14.455  19.163  1.00  0.00     0.188 HD
HETATM   13  C13 UNL     1      11.838  14.726  15.123  1.00  0.00     0.058 C 
HETATM   14  C14 UNL     1      11.874  14.667  13.648  1.00  0.00     0.006 C 
HETATM   15  C15 UNL     1      13.243  15.003  13.090  1.00  0.00     0.001 C 
HETATM   16  C16 UNL     1      13.944  13.692  12.913  1.00  0.00     0.005 C 
HETATM   17  C17 UNL     1      14.664  13.309  14.156  1.00  0.00     0.043 C 
ENDROOT
BRANCH   9  18
HETATM   18  N2  UNL     1      13.976  15.453  19.278  1.00  0.00    -0.213 N 
HETATM   19  C8  UNL     1      13.447  14.656  20.363  1.00  0.00     0.160 C 
HETATM   20  C9  UNL     1      13.991  15.165  21.678  1.00  0.00     0.136 C 
HETATM   21  N3  UNL     1      15.286  15.730  21.637  1.00  0.00    -0.414 N 
HETATM   22  C10 UNL     1      16.365  14.918  22.095  1.00  0.00     0.143 C 
HETATM   23  C11 UNL     1      15.599  16.603  20.564  1.00  0.00     0.136 C 
HETATM   24  C12 UNL     1      14.416  16.797  19.636  1.00  0.00     0.160 C 
ENDBRANCH   9  18
TORSDOF 1
ENDMDL
MODEL 2
REMARK VINA RESULT: -8.340298894      2.049      6.624
REMARK  1 active torsions:
REMARK  status: ('A' for Active; 'I' for Inactive)
REMARK    1  A    between atoms: C7_9  and  N2_10 
ROOT
HETATM    1  C1  UNL     1       9.183  12.905  16.064  1.00  0.00     0.070 C 
HETATM    2  C2  UNL     1      10.436  13.446  16.691  1.00  0.00     0.025 A 
HETATM    3  C3  UNL     1      10.672  13.565  18.047  1.00  0.00     0.059 A 
HETATM    4  C4  UNL     1      11.928  14.097  18.209  1.00  0.00     0.085 A 
HETATM    5  C5  UNL     1      12.693  14.430  19.346  1.00  0.00    -0.005 A 
HETATM    6  C6  UNL     1      13.933  14.942  19.154  1.00  0.00     0.035 A 
HETATM    7  N1  UNL     1      14.396  15.120  17.883  1.00  0.00    -0.193 N 
ATOM      8  H1  UNL     1      15.331  15.508  17.759  1.00  0.00     0.184 HD
HETATM    9  C7  UNL     1      13.686  14.812  16.791  1.00  0.00     0.702 A 
HETATM   10  N4  UNL     1      12.447  14.299  16.975  1.00  0.00    -0.086 N 
HETATM   11  N5  UNL     1      11.537  13.903  16.082  1.00  0.00    -0.284 N 
ATOM     12  H5  UNL     1      11.664  13.944  15.071  1.00  0.00     0.188 HD
HETATM   13  C13 UNL     1      14.944  15.371  20.119  1.00  0.00     0.058 C 
HETATM   14  C14 UNL     1      14.471  15.670  21.486  1.00  0.00     0.006 C 
HETATM   15  C15 UNL     1      13.011  16.078  21.515  1.00  0.00     0.001 C 
HETATM   16  C16 UNL     1      12.243  14.822  21.790  1.00  0.00     0.005 C 
HETATM   17  C17 UNL     1      11.910  14.121  20.523  1.00  0.00     0.043 C 
ENDROOT
BRANCH   9  18
HETATM   18  N2  UNL     1      14.158  14.983  15.472  1.00  0.00    -0.213 N 
HETATM   19  C8  UNL     1      14.953  13.967  14.818  1.00  0.00     0.160 C 
HETATM   20  C9  UNL     1      14.841  14.121  13.319  1.00  0.00     0.136 C 
HETATM   21  N3  UNL     1      13.614  14.632  12.838  1.00  0.00    -0.414 N 
HETATM   22  C10 UNL     1      12.688  13.694  12.293  1.00  0.00     0.143 C 
HETATM   23  C11 UNL     1      13.032  15.727  13.526  1.00  0.00     0.136 C 
HETATM   24  C12 UNL     1      13.895  16.183  14.685  1.00  0.00     0.160 C 
ENDBRANCH   9  18
TORSDOF 1
ENDMDL
MODEL 3
REMARK VINA RESULT: -8.198401709      1.682      3.967
REMARK  1 active torsions:
REMARK  status: ('A' for Active; 'I' for Inactive)
REMARK    1  A    between atoms: C7_9  and  N2_10 
ROOT
HETATM    1  C1  UNL     1      13.014  14.791  20.814  1.00  0.00     0.070 C 
HETATM    2  C2  UNL     1      13.568  14.671  19.423  1.00  0.00     0.025 A 
HETATM    3  C3  UNL     1      12.998  15.197  18.280  1.00  0.00     0.059 A 
HETATM    4  C4  UNL     1      13.809  14.873  17.220  1.00  0.00     0.085 A 
HETATM    5  C5  UNL     1      13.739  15.141  15.837  1.00  0.00    -0.005 A 
HETATM    6  C6  UNL     1      14.733  14.673  15.044  1.00  0.00     0.035 A 
HETATM    7  N1  UNL     1      15.757  13.963  15.600  1.00  0.00    -0.193 N 
ATOM      8  H1  UNL     1      16.495  13.618  14.987  1.00  0.00     0.184 HD
HETATM    9  C7  UNL     1      15.842  13.697  16.910  1.00  0.00     0.702 A 
HETATM   10  N4  UNL     1      14.853  14.163  17.707  1.00  0.00    -0.086 N 
HETATM   11  N5  UNL     1      14.688  14.053  19.028  1.00  0.00    -0.284 N 
ATOM     12  H5  UNL     1      15.330  13.564  19.652  1.00  0.00     0.188 HD
HETATM   13  C13 UNL     1      14.933  14.792  13.601  1.00  0.00     0.058 C 
HETATM   14  C14 UNL     1      13.743  15.121  12.791  1.00  0.00     0.006 C 
HETATM   15  C15 UNL     1      12.453  14.685  13.458  1.00  0.00     0.001 C 
HETATM   16  C16 UNL     1      11.962  15.880  14.215  1.00  0.00     0.005 C 
HETATM   17  C17 UNL     1      12.536  15.905  15.586  1.00  0.00     0.043 C 
ENDROOT
BRANCH   9  18
HETATM   18  N2  UNL     1      16.901  12.972  17.497  1.00  0.00    -0.213 N 
HETATM   19  C8  UNL     1      17.917  13.630  18.289  1.00  0.00     0.160 C 
HETATM   20  C9  UNL     1      18.555  12.632  19.227  1.00  0.00     0.136 C 
HETATM   21  N3  UNL     1      17.722  11.583  19.677  1.00  0.00    -0.414 N 
HETATM   22  C10 UNL     1      17.185  11.699  20.993  1.00  0.00     0.143 C 
HETATM   23  C11 UNL     1      16.874  10.951  18.731  1.00  0.00     0.136 C 
HETATM   24  C12 UNL     1      17.056  11.530  17.342  1.00  0.00     0.160 C 
ENDBRANCH   9  18
TORSDOF 1
ENDMDL
MODEL 4
REMARK VINA RESULT: -8.190486700      1.535      5.923
REMARK  1 active torsions:
REMARK  status: ('A' for Active; 'I' for Inactive)
REMARK    1  A    between atoms: C7_9  and  N2_10 
ROOT
HETATM    1  C1  UNL     1      13.008  16.174  21.929  1.00  0.00     0.070 C 
HETATM    2  C2  UNL     1      13.700  15.524  20.764  1.00  0.00     0.025 A 
HETATM    3  C3  UNL     1      14.900  14.841  20.818  1.00  0.00     0.059 A 
HETATM    4  C4  UNL     1      15.187  14.398  19.550  1.00  0.00     0.085 A 
HETATM    5  C5  UNL     1      16.257  13.654  19.010  1.00  0.00    -0.005 A 
HETATM    6  C6  UNL     1      16.233  13.370  17.685  1.00  0.00     0.035 A 
HETATM    7  N1  UNL     1      15.189  13.809  16.924  1.00  0.00    -0.193 N 
ATOM      8  H1  UNL     1      15.189  13.586  15.929  1.00  0.00     0.184 HD
HETATM    9  C7  UNL     1      14.164  14.516  17.417  1.00  0.00     0.702 A 
HETATM   10  N4  UNL     1      14.182  14.802  18.739  1.00  0.00    -0.086 N 
HETATM   11  N5  UNL     1      13.303  15.475  19.487  1.00  0.00    -0.284 N 
ATOM     12  H5  UNL     1      12.444  15.896  19.131  1.00  0.00     0.188 HD
HETATM   13  C13 UNL     1      17.180  12.628  16.855  1.00  0.00     0.058 C 
HETATM   14  C14 UNL     1      18.549  12.472  17.388  1.00  0.00     0.006 C 
HETATM   15  C15 UNL     1      18.920  13.578  18.357  1.00  0.00     0.001 C 
HETATM   16  C16 UNL     1      18.594  13.051  19.720  1.00  0.00     0.005 C 
HETATM   17  C17 UNL     1      17.185  13.357  20.080  1.00  0.00     0.043 C 
ENDROOT
BRANCH   9  18
HETATM   18  N2  UNL     1      13.075  14.967  16.641  1.00  0.00    -0.213 N 
HETATM   19  C8  UNL     1      13.128  16.221  15.923  1.00  0.00     0.160 C 
HETATM   20  C9  UNL     1      12.142  16.195  14.779  1.00  0.00     0.136 C 
HETATM   21  N3  UNL     1      11.905  14.930  14.194  1.00  0.00    -0.414 N 
HETATM   22  C10 UNL     1      12.560  14.652  12.958  1.00  0.00     0.143 C 
HETATM   23  C11 UNL     1      11.743  13.816  15.056  1.00  0.00     0.136 C 
HETATM   24  C12 UNL     1      11.828  14.219  16.515  1.00  0.00     0.160 C 
ENDBRANCH   9  18
TORSDOF 1
ENDMDL
MODEL 5
REMARK VINA RESULT: -8.165013501      0.968      1.603
REMARK  1 active torsions:
REMARK  status: ('A' for Active; 'I' for Inactive)
REMARK    1  A    between atoms: C7_9  and  N2_10 
ROOT
HETATM    1  C1  UNL     1      18.657  12.436  16.762  1.00  0.00     0.070 C 
HETATM    2  C2  UNL     1      17.307  13.094  16.802  1.00  0.00     0.025 A 
HETATM    3  C3  UNL     1      16.417  13.171  15.748  1.00  0.00     0.059 A 
HETATM    4  C4  UNL     1      15.303  13.844  16.189  1.00  0.00     0.085 A 
HETATM    5  C5  UNL     1      14.091  14.209  15.568  1.00  0.00    -0.005 A 
HETATM    6  C6  UNL     1      13.172  14.879  16.306  1.00  0.00     0.035 A 
HETATM    7  N1  UNL     1      13.445  15.177  17.608  1.00  0.00    -0.193 N 
ATOM      8  H1  UNL     1      12.742  15.682  18.147  1.00  0.00     0.184 HD
HETATM    9  C7  UNL     1      14.590  14.840  18.216  1.00  0.00     0.702 A 
HETATM   10  N4  UNL     1      15.512  14.170  17.486  1.00  0.00    -0.086 N 
HETATM   11  N5  UNL     1      16.717  13.713  17.832  1.00  0.00    -0.284 N 
ATOM     12  H5  UNL     1      17.133  13.820  18.757  1.00  0.00     0.188 HD
HETATM   13  C13 UNL     1      11.846  15.377  15.946  1.00  0.00     0.058 C 
HETATM   14  C14 UNL     1      11.569  15.546  14.505  1.00  0.00     0.006 C 
HETATM   15  C15 UNL     1      12.833  15.770  13.697  1.00  0.00     0.001 C 
HETATM   16  C16 UNL     1      13.247  14.417  13.206  1.00  0.00     0.005 C 
HETATM   17  C17 UNL     1      14.129  13.747  14.198  1.00  0.00     0.043 C 
ENDROOT
BRANCH   9  18
HETATM   18  N2  UNL     1      14.879  15.135  19.566  1.00  0.00    -0.213 N 
HETATM   19  C8  UNL     1      15.259  16.467  19.981  1.00  0.00     0.160 C 
HETATM   20  C9  UNL     1      14.961  16.646  21.451  1.00  0.00     0.136 C 
HETATM   21  N3  UNL     1      13.857  15.920  21.953  1.00  0.00    -0.414 N 
HETATM   22  C10 UNL     1      12.640  16.637  22.146  1.00  0.00     0.143 C 
HETATM   23  C11 UNL     1      13.705  14.570  21.543  1.00  0.00     0.136 C 
HETATM   24  C12 UNL     1      14.829  14.133  20.625  1.00  0.00     0.160 C 
ENDBRANCH   9  18
TORSDOF 1
ENDMDL
