MODEL 1
REMARK VINA RESULT: -8.530433760      0.000      0.000
REMARK  7 active torsions:
REMARK  status: ('A' for Active; 'I' for Inactive)
REMARK    1  A    between atoms: N2_5  and  C3_6 
REMARK    2  A    between atoms: C5_10  and  N4_11 
REMARK    3  A    between atoms: N4_11  and  C6_13 
REMARK    4  A    between atoms: C11_20  and  N6_21 
REMARK    5  A    between atoms: N9_31  and  C14_32 
REMARK    6  A    between atoms: C14_32  and  C15_33 
REMARK    7  A    between atoms: C15_33  and  N10_34 
ROOT
HETATM    1  C3  UNL     1      33.429 -58.182  42.690  1.00  0.00     0.710 A 
HETATM    2  N3  UNL     1      32.829 -59.402  42.803  1.00  0.00    -0.182 N 
ATOM      3  H3  UNL     1      32.761 -60.096  42.058  1.00  0.00     0.184 HD
HETATM    4  C4  UNL     1      32.346 -59.549  44.034  1.00  0.00     0.138 A 
HETATM    5  C5  UNL     1      31.649 -60.589  44.675  1.00  0.00     0.148 A 
HETATM    6  N5  UNL     1      31.293 -60.418  45.958  1.00  0.00    -0.175 N 
ATOM      7  H5  UNL     1      30.786 -61.167  46.431  1.00  0.00     0.186 HD
HETATM    8  C11 UNL     1      31.582 -59.285  46.653  1.00  0.00     0.679 A 
HETATM    9  N7  UNL     1      32.244 -58.302  46.039  1.00  0.00    -0.174 N 
ATOM     10  H7  UNL     1      32.464 -57.449  46.553  1.00  0.00     0.186 HD
HETATM   11  C12 UNL     1      32.624 -58.418  44.754  1.00  0.00     0.167 A 
HETATM   12  N8  UNL     1      33.290 -57.605  43.894  1.00  0.00    -0.172 N 
ATOM     13  H8  UNL     1      33.638 -56.676  44.131  1.00  0.00     0.186 HD
ENDROOT
BRANCH   1  14
HETATM   14  N2  UNL     1      34.051 -57.690  41.510  1.00  0.00    -0.029 N 
HETATM   15  N1  UNL     1      33.553 -56.819  40.635  1.00  0.00    -0.263 N 
HETATM   16  C2  UNL     1      34.424 -56.589  39.641  1.00  0.00     0.103 A 
ATOM     17  H1  UNL     1      32.632 -56.385  40.709  1.00  0.00     0.189 HD
HETATM   18  C1  UNL     1      34.350 -55.724  38.451  1.00  0.00     0.091 C 
HETATM   19  N9  UNL     1      35.506 -57.350  39.910  1.00  0.00    -0.263 N 
HETATM   20  C13 UNL     1      35.258 -58.015  41.056  1.00  0.00     0.368 A 
HETATM   21  O1  UNL     1      36.012 -58.838  41.666  1.00  0.00    -0.243 OA
BRANCH  19  22
HETATM   22  C14 UNL     1      36.711 -57.503  39.202  1.00  0.00     0.103 C 
BRANCH  22  23
HETATM   23  C15 UNL     1      37.853 -56.640  39.503  1.00  0.00     0.274 C 
BRANCH  23  24
HETATM   24  N10 UNL     1      38.030 -55.629  38.476  1.00  0.00    -0.075 N 
ATOM     25 3H10 UNL     1      38.762 -55.890  37.814  1.00  0.00     0.274 HD
ATOM     26 2H10 UNL     1      37.239 -55.606  37.832  1.00  0.00     0.274 HD
ATOM     27 1H10 UNL     1      38.206 -54.713  38.889  1.00  0.00     0.274 HD
ENDBRANCH  23  24
ENDBRANCH  22  23
ENDBRANCH  19  22
ENDBRANCH   1  14
BRANCH   5  28
HETATM   28  N4  UNL     1      31.409 -61.614  43.993  1.00  0.00    -0.369 N 
ATOM     29  H4  UNL     1      31.285 -61.419  42.999  1.00  0.00     0.161 HD
BRANCH  28  30
HETATM   30  C6  UNL     1      31.275 -62.994  44.318  1.00  0.00     0.083 C 
HETATM   31  C7  UNL     1      29.950 -63.571  43.951  1.00  0.00     0.025 C 
HETATM   32  C8  UNL     1      30.176 -64.950  43.429  1.00  0.00     0.002 C 
HETATM   33  C9  UNL     1      31.655 -65.200  43.454  1.00  0.00     0.002 C 
HETATM   34  C10 UNL     1      32.288 -63.873  43.656  1.00  0.00     0.025 C 
ENDBRANCH  28  30
ENDBRANCH   5  28
BRANCH   8  35
HETATM   35  N6  UNL     1      31.204 -59.193  47.894  1.00  0.00    -0.234 N 
ATOM     36  H62 UNL     1      31.789 -59.518  48.664  1.00  0.00     0.174 HD
ATOM     37  H61 UNL     1      30.295 -58.782  48.104  1.00  0.00     0.174 HD
ENDBRANCH   8  35
TORSDOF 7
ENDMDL
MODEL 2
REMARK VINA RESULT: -8.150637173      2.689      3.764
REMARK  7 active torsions:
REMARK  status: ('A' for Active; 'I' for Inactive)
REMARK    1  A    between atoms: N2_5  and  C3_6 
REMARK    2  A    between atoms: C5_10  and  N4_11 
REMARK    3  A    between atoms: N4_11  and  C6_13 
REMARK    4  A    between atoms: C11_20  and  N6_21 
REMARK    5  A    between atoms: N9_31  and  C14_32 
REMARK    6  A    between atoms: C14_32  and  C15_33 
REMARK    7  A    between atoms: C15_33  and  N10_34 
ROOT
HETATM    1  C3  UNL     1      33.563 -60.272  42.185  1.00  0.00     0.710 A 
HETATM    2  N3  UNL     1      34.089 -61.530  42.167  1.00  0.00    -0.182 N 
ATOM      3  H3  UNL     1      34.936 -61.808  41.670  1.00  0.00     0.184 HD
HETATM    4  C4  UNL     1      33.329 -62.341  42.899  1.00  0.00     0.138 A 
HETATM    5  C5  UNL     1      33.409 -63.709  43.212  1.00  0.00     0.148 A 
HETATM    6  N5  UNL     1      32.455 -64.238  43.996  1.00  0.00    -0.175 N 
ATOM      7  H5  UNL     1      32.505 -65.231  44.227  1.00  0.00     0.186 HD
HETATM    8  C11 UNL     1      31.427 -63.501  44.495  1.00  0.00     0.679 A 
HETATM    9  N7  UNL     1      31.357 -62.203  44.194  1.00  0.00    -0.174 N 
ATOM     10  H7  UNL     1      30.589 -61.643  44.563  1.00  0.00     0.186 HD
HETATM   11  C12 UNL     1      32.283 -61.621  43.412  1.00  0.00     0.167 A 
HETATM   12  N8  UNL     1      32.464 -60.355  42.950  1.00  0.00    -0.172 N 
ATOM     13  H8  UNL     1      31.846 -59.572  43.158  1.00  0.00     0.186 HD
ENDROOT
BRANCH   1  14
HETATM   14  N2  UNL     1      34.117 -59.151  41.506  1.00  0.00    -0.029 N 
HETATM   15  N1  UNL     1      33.491 -58.313  40.682  1.00  0.00    -0.263 N 
HETATM   16  C2  UNL     1      34.333 -57.374  40.226  1.00  0.00     0.103 A 
ATOM     17  H1  UNL     1      32.504 -58.376  40.431  1.00  0.00     0.189 HD
HETATM   18  C1  UNL     1      34.135 -56.239  39.307  1.00  0.00     0.091 C 
HETATM   19  N9  UNL     1      35.530 -57.641  40.789  1.00  0.00    -0.263 N 
HETATM   20  C13 UNL     1      35.378 -58.731  41.567  1.00  0.00     0.368 A 
HETATM   21  O1  UNL     1      36.253 -59.320  42.278  1.00  0.00    -0.243 OA
BRANCH  19  22
HETATM   22  C14 UNL     1      36.766 -56.983  40.659  1.00  0.00     0.103 C 
BRANCH  22  23
HETATM   23  C15 UNL     1      37.535 -57.103  39.422  1.00  0.00     0.274 C 
BRANCH  23  24
HETATM   24  N10 UNL     1      38.364 -55.930  39.204  1.00  0.00    -0.075 N 
ATOM     25 3H10 UNL     1      37.809 -55.075  39.198  1.00  0.00     0.274 HD
ATOM     26 2H10 UNL     1      38.951 -55.730  40.014  1.00  0.00     0.274 HD
ATOM     27 1H10 UNL     1      38.918 -56.025  38.352  1.00  0.00     0.274 HD
ENDBRANCH  23  24
ENDBRANCH  22  23
ENDBRANCH  19  22
ENDBRANCH   1  14
BRANCH   5  28
HETATM   28  N4  UNL     1      34.377 -64.345  42.730  1.00  0.00    -0.369 N 
ATOM     29  H4  UNL     1      34.161 -64.803  41.845  1.00  0.00     0.161 HD
BRANCH  28  30
HETATM   30  C6  UNL     1      35.717 -64.559  43.164  1.00  0.00     0.083 C 
HETATM   31  C7  UNL     1      36.149 -65.985  43.097  1.00  0.00     0.025 C 
HETATM   32  C8  UNL     1      37.566 -66.017  42.632  1.00  0.00     0.002 C 
HETATM   33  C9  UNL     1      37.987 -64.598  42.388  1.00  0.00     0.002 C 
HETATM   34  C10 UNL     1      36.736 -63.798  42.378  1.00  0.00     0.025 C 
ENDBRANCH  28  30
ENDBRANCH   5  28
BRANCH   8  35
HETATM   35  N6  UNL     1      30.541 -64.084  45.248  1.00  0.00    -0.234 N 
ATOM     36  H62 UNL     1      30.722 -64.302  46.228  1.00  0.00     0.174 HD
ATOM     37  H61 UNL     1      29.636 -64.330  44.846  1.00  0.00     0.174 HD
ENDBRANCH   8  35
TORSDOF 7
ENDMDL
MODEL 3
REMARK VINA RESULT: -8.084446019      2.897      7.999
REMARK  7 active torsions:
REMARK  status: ('A' for Active; 'I' for Inactive)
REMARK    1  A    between atoms: N2_5  and  C3_6 
REMARK    2  A    between atoms: C5_10  and  N4_11 
REMARK    3  A    between atoms: N4_11  and  C6_13 
REMARK    4  A    between atoms: C11_20  and  N6_21 
REMARK    5  A    between atoms: N9_31  and  C14_32 
REMARK    6  A    between atoms: C14_32  and  C15_33 
REMARK    7  A    between atoms: C15_33  and  N10_34 
ROOT
HETATM    1  C3  UNL     1      31.978 -62.762  43.937  1.00  0.00     0.710 A 
HETATM    2  N3  UNL     1      32.437 -61.654  43.288  1.00  0.00    -0.182 N 
ATOM      3  H3  UNL     1      32.845 -61.646  42.353  1.00  0.00     0.184 HD
HETATM    4  C4  UNL     1      32.270 -60.584  44.061  1.00  0.00     0.138 A 
HETATM    5  C5  UNL     1      32.563 -59.220  43.889  1.00  0.00     0.148 A 
HETATM    6  N5  UNL     1      32.263 -58.375  44.890  1.00  0.00    -0.175 N 
ATOM      7  H5  UNL     1      32.474 -57.383  44.774  1.00  0.00     0.186 HD
HETATM    8  C11 UNL     1      31.689 -58.790  46.051  1.00  0.00     0.679 A 
HETATM    9  N7  UNL     1      31.414 -60.087  46.207  1.00  0.00    -0.174 N 
ATOM     10  H7  UNL     1      30.984 -60.406  47.075  1.00  0.00     0.186 HD
HETATM   11  C12 UNL     1      31.694 -60.978  45.239  1.00  0.00     0.167 A 
HETATM   12  N8  UNL     1      31.530 -62.322  45.122  1.00  0.00    -0.172 N 
ATOM     13  H8  UNL     1      31.121 -62.917  45.841  1.00  0.00     0.186 HD
ENDROOT
BRANCH   1  14
HETATM   14  N2  UNL     1      32.002 -64.081  43.406  1.00  0.00    -0.029 N 
HETATM   15  N1  UNL     1      32.907 -64.607  42.582  1.00  0.00    -0.263 N 
HETATM   16  C2  UNL     1      32.604 -65.880  42.290  1.00  0.00     0.103 A 
ATOM     17  H1  UNL     1      33.720 -64.107  42.221  1.00  0.00     0.189 HD
HETATM   18  C1  UNL     1      33.277 -66.879  41.440  1.00  0.00     0.091 C 
HETATM   19  N9  UNL     1      31.465 -66.156  42.958  1.00  0.00    -0.263 N 
HETATM   20  C13 UNL     1      31.112 -65.044  43.634  1.00  0.00     0.368 A 
HETATM   21  O1  UNL     1      30.105 -64.869  44.390  1.00  0.00    -0.243 OA
BRANCH  19  22
HETATM   22  C14 UNL     1      30.702 -67.336  43.011  1.00  0.00     0.103 C 
BRANCH  22  23
HETATM   23  C15 UNL     1      30.816 -68.233  44.160  1.00  0.00     0.274 C 
BRANCH  23  24
HETATM   24  N10 UNL     1      29.515 -68.501  44.747  1.00  0.00    -0.075 N 
ATOM     25 3H10 UNL     1      29.588 -69.114  45.559  1.00  0.00     0.274 HD
ATOM     26 2H10 UNL     1      29.135 -67.675  45.209  1.00  0.00     0.274 HD
ATOM     27 1H10 UNL     1      28.868 -68.874  44.052  1.00  0.00     0.274 HD
ENDBRANCH  23  24
ENDBRANCH  22  23
ENDBRANCH  19  22
ENDBRANCH   1  14
BRANCH   5  28
HETATM   28  N4  UNL     1      33.089 -58.886  42.801  1.00  0.00    -0.369 N 
ATOM     29  H4  UNL     1      32.963 -59.578  42.062  1.00  0.00     0.161 HD
BRANCH  28  30
HETATM   30  C6  UNL     1      33.826 -57.741  42.381  1.00  0.00     0.083 C 
HETATM   31  C7  UNL     1      35.296 -57.863  42.595  1.00  0.00     0.025 C 
HETATM   32  C8  UNL     1      35.985 -57.246  41.424  1.00  0.00     0.002 C 
HETATM   33  C9  UNL     1      34.920 -56.772  40.479  1.00  0.00     0.002 C 
HETATM   34  C10 UNL     1      33.660 -57.413  40.932  1.00  0.00     0.025 C 
ENDBRANCH  28  30
ENDBRANCH   5  28
BRANCH   8  35
HETATM   35  N6  UNL     1      31.428 -57.913  46.974  1.00  0.00    -0.234 N 
ATOM     36  H62 UNL     1      30.478 -57.598  47.169  1.00  0.00     0.174 HD
ATOM     37  H61 UNL     1      32.198 -57.527  47.521  1.00  0.00     0.174 HD
ENDBRANCH   8  35
TORSDOF 7
ENDMDL
MODEL 4
REMARK VINA RESULT: -8.072297515      4.029      8.959
REMARK  7 active torsions:
REMARK  status: ('A' for Active; 'I' for Inactive)
REMARK    1  A    between atoms: N2_5  and  C3_6 
REMARK    2  A    between atoms: C5_10  and  N4_11 
REMARK    3  A    between atoms: N4_11  and  C6_13 
REMARK    4  A    between atoms: C11_20  and  N6_21 
REMARK    5  A    between atoms: N9_31  and  C14_32 
REMARK    6  A    between atoms: C14_32  and  C15_33 
REMARK    7  A    between atoms: C15_33  and  N10_34 
ROOT
HETATM    1  C3  UNL     1      31.153 -63.722  45.696  1.00  0.00     0.710 A 
HETATM    2  N3  UNL     1      31.516 -63.127  44.523  1.00  0.00    -0.182 N 
ATOM      3  H3  UNL     1      31.650 -63.610  43.634  1.00  0.00     0.184 HD
HETATM    4  C4  UNL     1      31.670 -61.820  44.716  1.00  0.00     0.138 A 
HETATM    5  C5  UNL     1      32.029 -60.759  43.866  1.00  0.00     0.148 A 
HETATM    6  N5  UNL     1      32.097 -59.523  44.386  1.00  0.00    -0.175 N 
ATOM      7  H5  UNL     1      32.359 -58.748  43.776  1.00  0.00     0.186 HD
HETATM    8  C11 UNL     1      31.830 -59.265  45.694  1.00  0.00     0.679 A 
HETATM    9  N7  UNL     1      31.489 -60.276  46.496  1.00  0.00    -0.174 N 
ATOM     10  H7  UNL     1      31.287 -60.090  47.478  1.00  0.00     0.186 HD
HETATM   11  C12 UNL     1      31.407 -61.534  46.029  1.00  0.00     0.167 A 
HETATM   12  N8  UNL     1      31.093 -62.729  46.596  1.00  0.00    -0.172 N 
ATOM     13  H8  UNL     1      30.845 -62.854  47.576  1.00  0.00     0.186 HD
ENDROOT
BRANCH   1  14
HETATM   14  N2  UNL     1      30.907 -65.113  45.857  1.00  0.00    -0.029 N 
HETATM   15  N1  UNL     1      30.547 -65.987  44.919  1.00  0.00    -0.263 N 
HETATM   16  C2  UNL     1      30.403 -67.215  45.439  1.00  0.00     0.103 A 
ATOM     17  H1  UNL     1      30.401 -65.754  43.936  1.00  0.00     0.189 HD
HETATM   18  C1  UNL     1      30.025 -68.502  44.829  1.00  0.00     0.091 C 
HETATM   19  N9  UNL     1      30.682 -67.098  46.754  1.00  0.00    -0.263 N 
HETATM   20  C13 UNL     1      30.988 -65.806  46.990  1.00  0.00     0.368 A 
HETATM   21  O1  UNL     1      31.313 -65.264  48.093  1.00  0.00    -0.243 OA
BRANCH  19  22
HETATM   22  C14 UNL     1      30.683 -68.065  47.775  1.00  0.00     0.103 C 
BRANCH  22  23
HETATM   23  C15 UNL     1      29.621 -68.073  48.779  1.00  0.00     0.274 C 
BRANCH  23  24
HETATM   24  N10 UNL     1      30.094 -67.546  50.047  1.00  0.00    -0.075 N 
ATOM     25 3H10 UNL     1      30.779 -68.166  50.480  1.00  0.00     0.274 HD
ATOM     26 2H10 UNL     1      30.687 -66.727  49.915  1.00  0.00     0.274 HD
ATOM     27 1H10 UNL     1      29.316 -67.349  50.677  1.00  0.00     0.274 HD
ENDBRANCH  23  24
ENDBRANCH  22  23
ENDBRANCH  19  22
ENDBRANCH   1  14
BRANCH   5  28
HETATM   28  N4  UNL     1      32.263 -61.048  42.668  1.00  0.00    -0.369 N 
ATOM     29  H4  UNL     1      31.420 -61.116  42.096  1.00  0.00     0.161 HD
BRANCH  28  30
HETATM   30  C6  UNL     1      33.460 -61.301  41.939  1.00  0.00     0.083 C 
HETATM   31  C7  UNL     1      34.325 -60.098  41.770  1.00  0.00     0.025 C 
HETATM   32  C8  UNL     1      35.746 -60.528  41.916  1.00  0.00     0.002 C 
HETATM   33  C9  UNL     1      35.739 -62.000  42.204  1.00  0.00     0.002 C 
HETATM   34  C10 UNL     1      34.339 -62.339  42.561  1.00  0.00     0.025 C 
ENDBRANCH  28  30
ENDBRANCH   5  28
BRANCH   8  35
HETATM   35  N6  UNL     1      31.917 -58.041  46.126  1.00  0.00    -0.234 N 
ATOM     36  H62 UNL     1      32.717 -57.713  46.666  1.00  0.00     0.174 HD
ATOM     37  H61 UNL     1      31.161 -57.388  45.916  1.00  0.00     0.174 HD
ENDBRANCH   8  35
TORSDOF 7
ENDMDL
MODEL 5
REMARK VINA RESULT: -8.061980446      3.277      8.396
REMARK  7 active torsions:
REMARK  status: ('A' for Active; 'I' for Inactive)
REMARK    1  A    between atoms: N2_5  and  C3_6 
REMARK    2  A    between atoms: C5_10  and  N4_11 
REMARK    3  A    between atoms: N4_11  and  C6_13 
REMARK    4  A    between atoms: C11_20  and  N6_21 
REMARK    5  A    between atoms: N9_31  and  C14_32 
REMARK    6  A    between atoms: C14_32  and  C15_33 
REMARK    7  A    between atoms: C15_33  and  N10_34 
ROOT
HETATM    1  C3  UNL     1      31.387 -62.855  45.452  1.00  0.00     0.710 A 
HETATM    2  N3  UNL     1      31.780 -61.878  44.584  1.00  0.00    -0.182 N 
ATOM      3  H3  UNL     1      32.027 -62.025  43.605  1.00  0.00     0.184 HD
HETATM    4  C4  UNL     1      31.791 -60.704  45.211  1.00  0.00     0.138 A 
HETATM    5  C5  UNL     1      32.111 -59.399  44.799  1.00  0.00     0.148 A 
HETATM    6  N5  UNL     1      32.018 -58.408  45.700  1.00  0.00    -0.175 N 
ATOM      7  H5  UNL     1      32.250 -57.457  45.410  1.00  0.00     0.186 HD
HETATM    8  C11 UNL     1      31.628 -58.622  46.985  1.00  0.00     0.679 A 
HETATM    9  N7  UNL     1      31.326 -59.864  47.370  1.00  0.00    -0.174 N 
ATOM     10  H7  UNL     1      31.032 -60.033  48.332  1.00  0.00     0.186 HD
HETATM   11  C12 UNL     1      31.402 -60.895  46.510  1.00  0.00     0.167 A 
HETATM   12  N8  UNL     1      31.162 -62.228  46.617  1.00  0.00    -0.172 N 
ATOM     13  H8  UNL     1      30.853 -62.692  47.470  1.00  0.00     0.186 HD
ENDROOT
BRANCH   1  14
HETATM   14  N2  UNL     1      31.265 -64.233  45.121  1.00  0.00    -0.029 N 
HETATM   15  N1  UNL     1      31.168 -64.769  43.905  1.00  0.00    -0.263 N 
HETATM   16  C2  UNL     1      31.066 -66.104  43.979  1.00  0.00     0.103 A 
ATOM     17  H1  UNL     1      31.171 -64.235  43.036  1.00  0.00     0.189 HD
HETATM   18  C1  UNL     1      30.938 -67.138  42.937  1.00  0.00     0.091 C 
HETATM   19  N9  UNL     1      31.099 -66.409  45.294  1.00  0.00    -0.263 N 
HETATM   20  C13 UNL     1      31.220 -65.252  45.975  1.00  0.00     0.368 A 
HETATM   21  O1  UNL     1      31.290 -65.084  47.233  1.00  0.00    -0.243 OA
BRANCH  19  22
HETATM   22  C14 UNL     1      31.024 -67.654  45.942  1.00  0.00     0.103 C 
BRANCH  22  23
HETATM   23  C15 UNL     1      29.729 -68.186  46.365  1.00  0.00     0.274 C 
BRANCH  23  24
HETATM   24  N10 UNL     1      29.304 -67.593  47.620  1.00  0.00    -0.075 N 
ATOM     25 3H10 UNL     1      30.080 -67.508  48.277  1.00  0.00     0.274 HD
ATOM     26 2H10 UNL     1      29.083 -66.603  47.512  1.00  0.00     0.274 HD
ATOM     27 1H10 UNL     1      28.524 -68.111  48.026  1.00  0.00     0.274 HD
ENDBRANCH  23  24
ENDBRANCH  22  23
ENDBRANCH  19  22
ENDBRANCH   1  14
BRANCH   5  28
HETATM   28  N4  UNL     1      32.462 -59.253  43.604  1.00  0.00    -0.369 N 
ATOM     29  H4  UNL     1      31.739 -59.517  42.934  1.00  0.00     0.161 HD
BRANCH  28  30
HETATM   30  C6  UNL     1      33.662 -58.794  42.987  1.00  0.00     0.083 C 
HETATM   31  C7  UNL     1      34.079 -59.606  41.808  1.00  0.00     0.025 C 
HETATM   32  C8  UNL     1      34.610 -58.675  40.771  1.00  0.00     0.002 C 
HETATM   33  C9  UNL     1      34.488 -57.283  41.318  1.00  0.00     0.002 C 
HETATM   34  C10 UNL     1      33.587 -57.385  42.493  1.00  0.00     0.025 C 
ENDBRANCH  28  30
ENDBRANCH   5  28
BRANCH   8  35
HETATM   35  N6  UNL     1      31.563 -57.611  47.801  1.00  0.00    -0.234 N 
ATOM     36  H62 UNL     1      31.558 -56.647  47.469  1.00  0.00     0.174 HD
ATOM     37  H61 UNL     1      31.514 -57.789  48.805  1.00  0.00     0.174 HD
ENDBRANCH   8  35
TORSDOF 7
ENDMDL
