MODEL 1
REMARK VINA RESULT: -7.936750245      0.000      0.000
REMARK  9 active torsions:
REMARK  status: ('A' for Active; 'I' for Inactive)
REMARK    1  A    between atoms: O1_2  and  C2_3 
REMARK    2  A    between atoms: C3_6  and  C4_7 
REMARK    3  A    between atoms: C4_7  and  C5_8 
REMARK    4  A    between atoms: C5_8  and  N2_9 
REMARK    5  A    between atoms: C6_15  and  C7_16 
REMARK    6  A    between atoms: C7_16  and  C8_17 
REMARK    7  A    between atoms: C9_18  and  C10_19 
REMARK    8  A    between atoms: C13_24  and  N5_25 
REMARK    9  A    between atoms: C14_30  and  N7_31 
ROOT
HETATM    1  C10 UNL     1      30.761 -64.666  46.311  1.00  0.00     0.103 A 
HETATM    2  C11 UNL     1      30.675 -64.513  47.693  1.00  0.00     0.127 A 
HETATM    3  N4  UNL     1      30.404 -65.530  48.530  1.00  0.00    -0.357 N 
ATOM      4  H4  UNL     1      30.349 -65.381  49.537  1.00  0.00     0.165 HD
HETATM    5  C12 UNL     1      30.207 -66.764  47.992  1.00  0.00     0.122 A 
HETATM    6  C13 UNL     1      29.926 -67.831  48.845  1.00  0.00     0.145 A 
HETATM    7  N6  UNL     1      29.737 -69.038  48.266  1.00  0.00    -0.175 N 
ATOM      8  H6  UNL     1      29.529 -69.846  48.852  1.00  0.00     0.186 HD
HETATM    9  C14 UNL     1      29.819 -69.195  46.933  1.00  0.00     0.681 A 
HETATM   10  N8  UNL     1      30.091 -68.161  46.120  1.00  0.00    -0.170 N 
HETATM   11  C15 UNL     1      30.175 -68.341  44.690  1.00  0.00     0.177 C 
HETATM   12  C16 UNL     1      30.293 -66.914  46.624  1.00  0.00     0.154 A 
HETATM   13  N9  UNL     1      30.565 -65.890  45.790  1.00  0.00    -0.332 N 
ATOM     14  H9  UNL     1      30.621 -66.040  44.782  1.00  0.00     0.168 HD
ENDROOT
BRANCH   1  15
HETATM   15  C9  UNL     1      31.058 -63.524  45.462  1.00  0.00    -0.047 C 
HETATM   16  C8  UNL     1      31.288 -62.562  44.764  1.00  0.00    -0.093 C 
BRANCH  16  17
HETATM   17  C7  UNL     1      31.545 -61.391  43.934  1.00  0.00     0.155 C 
BRANCH  17  18
HETATM   18  C6  UNL     1      31.773 -60.189  44.777  1.00  0.00     0.073 A 
HETATM   19  C2  UNL     1      32.466 -59.074  44.379  1.00  0.00     0.167 A 
HETATM   20  N1  UNL     1      32.452 -58.217  45.411  1.00  0.00    -0.325 N 
HETATM   21  C3  UNL     1      31.770 -58.771  46.439  1.00  0.00     0.085 A 
ATOM     22  H1  UNL     1      32.887 -57.295  45.420  1.00  0.00     0.169 HD
HETATM   23  N3  UNL     1      31.353 -59.985  46.046  1.00  0.00    -0.345 N 
ATOM     24  H3  UNL     1      30.811 -60.641  46.608  1.00  0.00     0.167 HD
BRANCH  19  25
HETATM   25  O1  UNL     1      33.066 -58.876  43.137  1.00  0.00    -0.339 OA
HETATM   26  C1  UNL     1      33.928 -57.812  42.852  1.00  0.00     0.211 C 
ENDBRANCH  19  25
BRANCH  21  27
HETATM   27  C4  UNL     1      31.568 -58.084  47.746  1.00  0.00     0.104 C 
BRANCH  27  28
HETATM   28  C5  UNL     1      30.372 -57.156  47.697  1.00  0.00     0.237 C 
BRANCH  28  29
HETATM   29  N2  UNL     1      30.798 -55.820  47.319  1.00  0.00    -0.079 N 
ATOM     30  H23 UNL     1      30.187 -55.407  46.615  1.00  0.00     0.274 HD
ATOM     31  H22 UNL     1      30.643 -55.143  48.066  1.00  0.00     0.274 HD
ATOM     32  H21 UNL     1      31.772 -55.839  47.017  1.00  0.00     0.274 HD
ENDBRANCH  28  29
ENDBRANCH  27  28
ENDBRANCH  21  27
ENDBRANCH  17  18
ENDBRANCH  16  17
ENDBRANCH   1  15
BRANCH   6  33
HETATM   33  N5  UNL     1      29.850 -67.666  50.122  1.00  0.00    -0.383 N 
ATOM     34  H52 UNL     1      30.636 -67.315  50.670  1.00  0.00     0.157 HD
ATOM     35  H51 UNL     1      28.996 -67.884  50.635  1.00  0.00     0.157 HD
ENDBRANCH   6  33
BRANCH   9  36
HETATM   36  N7  UNL     1      29.625 -70.394  46.446  1.00  0.00    -0.234 N 
ATOM     37  H72 UNL     1      30.309 -70.816  45.818  1.00  0.00     0.174 HD
ATOM     38  H71 UNL     1      28.773 -70.885  46.713  1.00  0.00     0.174 HD
ENDBRANCH   9  36
TORSDOF 9
ENDMDL
MODEL 2
REMARK VINA RESULT: -7.699115861      1.099      2.358
REMARK  9 active torsions:
REMARK  status: ('A' for Active; 'I' for Inactive)
REMARK    1  A    between atoms: O1_2  and  C2_3 
REMARK    2  A    between atoms: C3_6  and  C4_7 
REMARK    3  A    between atoms: C4_7  and  C5_8 
REMARK    4  A    between atoms: C5_8  and  N2_9 
REMARK    5  A    between atoms: C6_15  and  C7_16 
REMARK    6  A    between atoms: C7_16  and  C8_17 
REMARK    7  A    between atoms: C9_18  and  C10_19 
REMARK    8  A    between atoms: C13_24  and  N5_25 
REMARK    9  A    between atoms: C14_30  and  N7_31 
ROOT
HETATM    1  C10 UNL     1      30.893 -64.797  44.586  1.00  0.00     0.103 A 
HETATM    2  C11 UNL     1      30.849 -65.931  43.779  1.00  0.00     0.127 A 
HETATM    3  N4  UNL     1      30.560 -67.157  44.249  1.00  0.00    -0.357 N 
ATOM      4  H4  UNL     1      30.537 -67.966  43.627  1.00  0.00     0.165 HD
HETATM    5  C12 UNL     1      30.299 -67.287  45.577  1.00  0.00     0.122 A 
HETATM    6  C13 UNL     1      29.997 -68.552  46.081  1.00  0.00     0.145 A 
HETATM    7  N6  UNL     1      29.745 -68.632  47.408  1.00  0.00    -0.175 N 
ATOM      8  H6  UNL     1      29.520 -69.538  47.819  1.00  0.00     0.186 HD
HETATM    9  C14 UNL     1      29.784 -67.543  48.195  1.00  0.00     0.681 A 
HETATM   10  N8  UNL     1      30.077 -66.329  47.699  1.00  0.00    -0.170 N 
HETATM   11  C15 UNL     1      30.117 -65.166  48.553  1.00  0.00     0.177 C 
HETATM   12  C16 UNL     1      30.342 -66.163  46.376  1.00  0.00     0.154 A 
HETATM   13  N9  UNL     1      30.633 -64.936  45.898  1.00  0.00    -0.332 N 
ATOM     14  H9  UNL     1      30.655 -64.128  46.521  1.00  0.00     0.168 HD
ENDROOT
BRANCH   1  15
HETATM   15  C9  UNL     1      31.212 -63.499  44.015  1.00  0.00    -0.047 C 
HETATM   16  C8  UNL     1      31.491 -62.413  43.557  1.00  0.00    -0.093 C 
BRANCH  16  17
HETATM   17  C7  UNL     1      31.839 -61.101  43.026  1.00  0.00     0.155 C 
BRANCH  17  18
HETATM   18  C6  UNL     1      31.986 -60.112  44.126  1.00  0.00     0.073 A 
HETATM   19  C2  UNL     1      32.723 -58.958  44.047  1.00  0.00     0.167 A 
HETATM   20  N1  UNL     1      32.608 -58.340  45.231  1.00  0.00    -0.325 N 
HETATM   21  C3  UNL     1      31.819 -59.080  46.043  1.00  0.00     0.085 A 
ATOM     22  H1  UNL     1      33.045 -57.453  45.481  1.00  0.00     0.169 HD
HETATM   23  N3  UNL     1      31.437 -60.170  45.360  1.00  0.00    -0.345 N 
ATOM     24  H3  UNL     1      30.836 -60.915  45.712  1.00  0.00     0.167 HD
BRANCH  19  25
HETATM   25  O1  UNL     1      33.450 -58.518  42.942  1.00  0.00    -0.339 OA
HETATM   26  C1  UNL     1      34.531 -57.634  43.026  1.00  0.00     0.211 C 
ENDBRANCH  19  25
BRANCH  21  27
HETATM   27  C4  UNL     1      31.486 -58.680  47.440  1.00  0.00     0.104 C 
BRANCH  27  28
HETATM   28  C5  UNL     1      30.310 -57.726  47.471  1.00  0.00     0.237 C 
BRANCH  28  29
HETATM   29  N2  UNL     1      30.787 -56.354  47.452  1.00  0.00    -0.079 N 
ATOM     30  H23 UNL     1      31.535 -56.217  46.773  1.00  0.00     0.274 HD
ATOM     31  H22 UNL     1      30.101 -55.716  47.048  1.00  0.00     0.274 HD
ATOM     32  H21 UNL     1      31.066 -56.070  48.391  1.00  0.00     0.274 HD
ENDBRANCH  28  29
ENDBRANCH  27  28
ENDBRANCH  21  27
ENDBRANCH  17  18
ENDBRANCH  16  17
ENDBRANCH   1  15
BRANCH   6  33
HETATM   33  N5  UNL     1      29.962 -69.589  45.315  1.00  0.00    -0.383 N 
ATOM     34  H52 UNL     1      30.811 -70.068  45.016  1.00  0.00     0.157 HD
ATOM     35  H51 UNL     1      29.079 -69.968  44.975  1.00  0.00     0.157 HD
ENDBRANCH   6  33
BRANCH   9  36
HETATM   36  N7  UNL     1      29.528 -67.699  49.468  1.00  0.00    -0.234 N 
ATOM     37  H72 UNL     1      29.698 -66.941  50.129  1.00  0.00     0.174 HD
ATOM     38  H71 UNL     1      29.157 -68.598  49.773  1.00  0.00     0.174 HD
ENDBRANCH   9  36
TORSDOF 9
ENDMDL
MODEL 3
REMARK VINA RESULT: -7.511016539      7.846     11.306
REMARK  9 active torsions:
REMARK  status: ('A' for Active; 'I' for Inactive)
REMARK    1  A    between atoms: O1_2  and  C2_3 
REMARK    2  A    between atoms: C3_6  and  C4_7 
REMARK    3  A    between atoms: C4_7  and  C5_8 
REMARK    4  A    between atoms: C5_8  and  N2_9 
REMARK    5  A    between atoms: C6_15  and  C7_16 
REMARK    6  A    between atoms: C7_16  and  C8_17 
REMARK    7  A    between atoms: C9_18  and  C10_19 
REMARK    8  A    between atoms: C13_24  and  N5_25 
REMARK    9  A    between atoms: C14_30  and  N7_31 
ROOT
HETATM    1  C10 UNL     1      36.393 -62.340  41.946  1.00  0.00     0.103 A 
HETATM    2  C11 UNL     1      35.236 -62.879  42.504  1.00  0.00     0.127 A 
HETATM    3  N4  UNL     1      34.130 -62.153  42.748  1.00  0.00    -0.357 N 
ATOM      4  H4  UNL     1      33.301 -62.582  43.158  1.00  0.00     0.165 HD
HETATM    5  C12 UNL     1      34.152 -60.831  42.430  1.00  0.00     0.122 A 
HETATM    6  C13 UNL     1      33.013 -60.064  42.675  1.00  0.00     0.145 A 
HETATM    7  N6  UNL     1      33.080 -58.754  42.344  1.00  0.00    -0.175 N 
ATOM      8  H6  UNL     1      32.271 -58.156  42.506  1.00  0.00     0.186 HD
HETATM    9  C14 UNL     1      34.192 -58.225  41.804  1.00  0.00     0.681 A 
HETATM   10  N8  UNL     1      35.284 -58.973  41.572  1.00  0.00    -0.170 N 
HETATM   11  C15 UNL     1      36.473 -58.395  40.992  1.00  0.00     0.177 C 
HETATM   12  C16 UNL     1      35.297 -60.298  41.877  1.00  0.00     0.154 A 
HETATM   13  N9  UNL     1      36.403 -61.032  41.635  1.00  0.00    -0.332 N 
ATOM     14  H9  UNL     1      37.232 -60.602  41.224  1.00  0.00     0.168 HD
ENDROOT
BRANCH   1  15
HETATM   15  C9  UNL     1      37.555 -63.180  41.708  1.00  0.00    -0.047 C 
HETATM   16  C8  UNL     1      38.535 -63.865  41.521  1.00  0.00    -0.093 C 
BRANCH  16  17
HETATM   17  C7  UNL     1      39.731 -64.672  41.307  1.00  0.00     0.155 C 
BRANCH  17  18
HETATM   18  C6  UNL     1      40.947 -63.817  41.296  1.00  0.00     0.073 A 
HETATM   19  C2  UNL     1      41.835 -63.707  42.335  1.00  0.00     0.167 A 
HETATM   20  N1  UNL     1      42.788 -62.849  41.943  1.00  0.00    -0.325 N 
HETATM   21  C3  UNL     1      42.514 -62.423  40.690  1.00  0.00     0.085 A 
ATOM     22  H1  UNL     1      43.592 -62.563  42.502  1.00  0.00     0.169 HD
HETATM   23  N3  UNL     1      41.380 -63.021  40.293  1.00  0.00    -0.345 N 
ATOM     24  H3  UNL     1      40.924 -62.896  39.390  1.00  0.00     0.167 HD
BRANCH  19  25
HETATM   25  O1  UNL     1      41.756 -64.366  43.561  1.00  0.00    -0.339 OA
HETATM   26  C1  UNL     1      42.304 -65.630  43.799  1.00  0.00     0.211 C 
ENDBRANCH  19  25
BRANCH  21  27
HETATM   27  C4  UNL     1      43.376 -61.455  39.953  1.00  0.00     0.104 C 
BRANCH  27  28
HETATM   28  C5  UNL     1      43.259 -61.648  38.456  1.00  0.00     0.237 C 
BRANCH  28  29
HETATM   29  N2  UNL     1      43.634 -60.423  37.769  1.00  0.00    -0.079 N 
ATOM     30  H23 UNL     1      42.992 -59.658  37.972  1.00  0.00     0.274 HD
ATOM     31  H22 UNL     1      44.483 -60.012  38.157  1.00  0.00     0.274 HD
ATOM     32  H21 UNL     1      43.717 -60.598  36.768  1.00  0.00     0.274 HD
ENDBRANCH  28  29
ENDBRANCH  27  28
ENDBRANCH  21  27
ENDBRANCH  17  18
ENDBRANCH  16  17
ENDBRANCH   1  15
BRANCH   6  33
HETATM   33  N5  UNL     1      31.952 -60.584  43.194  1.00  0.00    -0.383 N 
ATOM     34  H52 UNL     1      31.766 -61.586  43.152  1.00  0.00     0.157 HD
ATOM     35  H51 UNL     1      31.256 -60.008  43.666  1.00  0.00     0.157 HD
ENDBRANCH   6  33
BRANCH   9  36
HETATM   36  N7  UNL     1      34.182 -56.951  41.508  1.00  0.00    -0.234 N 
ATOM     37  H72 UNL     1      33.504 -56.577  40.845  1.00  0.00     0.174 HD
ATOM     38  H71 UNL     1      34.871 -56.351  41.961  1.00  0.00     0.174 HD
ENDBRANCH   9  36
TORSDOF 9
ENDMDL
MODEL 4
REMARK VINA RESULT: -7.451807376      2.035      3.185
REMARK  9 active torsions:
REMARK  status: ('A' for Active; 'I' for Inactive)
REMARK    1  A    between atoms: O1_2  and  C2_3 
REMARK    2  A    between atoms: C3_6  and  C4_7 
REMARK    3  A    between atoms: C4_7  and  C5_8 
REMARK    4  A    between atoms: C5_8  and  N2_9 
REMARK    5  A    between atoms: C6_15  and  C7_16 
REMARK    6  A    between atoms: C7_16  and  C8_17 
REMARK    7  A    between atoms: C9_18  and  C10_19 
REMARK    8  A    between atoms: C13_24  and  N5_25 
REMARK    9  A    between atoms: C14_30  and  N7_31 
ROOT
HETATM    1  C10 UNL     1      31.110 -64.120  46.028  1.00  0.00     0.103 A 
HETATM    2  C11 UNL     1      30.441 -64.084  47.249  1.00  0.00     0.127 A 
HETATM    3  N4  UNL     1      30.436 -65.112  48.115  1.00  0.00    -0.357 N 
ATOM      4  H4  UNL     1      29.934 -65.049  49.001  1.00  0.00     0.165 HD
HETATM    5  C12 UNL     1      31.121 -66.237  47.776  1.00  0.00     0.122 A 
HETATM    6  C13 UNL     1      31.127 -67.312  48.664  1.00  0.00     0.145 A 
HETATM    7  N6  UNL     1      31.821 -68.409  48.283  1.00  0.00    -0.175 N 
ATOM      8  H6  UNL     1      31.851 -69.220  48.902  1.00  0.00     0.186 HD
HETATM    9  C14 UNL     1      32.470 -68.454  47.107  1.00  0.00     0.681 A 
HETATM   10  N8  UNL     1      32.458 -67.412  46.259  1.00  0.00    -0.170 N 
HETATM   11  C15 UNL     1      33.158 -67.471  44.998  1.00  0.00     0.177 C 
HETATM   12  C16 UNL     1      31.784 -66.272  46.567  1.00  0.00     0.154 A 
HETATM   13  N9  UNL     1      31.784 -65.237  45.701  1.00  0.00    -0.332 N 
ATOM     14  H9  UNL     1      32.287 -65.301  44.816  1.00  0.00     0.168 HD
ENDROOT
BRANCH   1  15
HETATM   15  C9  UNL     1      31.075 -62.974  45.135  1.00  0.00    -0.047 C 
HETATM   16  C8  UNL     1      31.027 -62.026  44.384  1.00  0.00    -0.093 C 
BRANCH  16  17
HETATM   17  C7  UNL     1      30.948 -60.894  43.468  1.00  0.00     0.155 C 
BRANCH  17  18
HETATM   18  C6  UNL     1      31.918 -59.836  43.854  1.00  0.00     0.073 A 
HETATM   19  C2  UNL     1      31.910 -59.167  45.052  1.00  0.00     0.167 A 
HETATM   20  N1  UNL     1      32.933 -58.301  45.020  1.00  0.00    -0.325 N 
HETATM   21  C3  UNL     1      33.574 -58.413  43.835  1.00  0.00     0.085 A 
ATOM     22  H1  UNL     1      33.186 -57.658  45.771  1.00  0.00     0.169 HD
HETATM   23  N3  UNL     1      32.948 -59.360  43.120  1.00  0.00    -0.345 N 
ATOM     24  H3  UNL     1      33.205 -59.667  42.182  1.00  0.00     0.167 HD
BRANCH  19  25
HETATM   25  O1  UNL     1      31.008 -59.359  46.097  1.00  0.00    -0.339 OA
HETATM   26  C1  UNL     1      31.145 -58.769  47.358  1.00  0.00     0.211 C 
ENDBRANCH  19  25
BRANCH  21  27
HETATM   27  C4  UNL     1      34.761 -57.588  43.471  1.00  0.00     0.104 C 
BRANCH  27  28
HETATM   28  C5  UNL     1      34.778 -57.279  41.989  1.00  0.00     0.237 C 
BRANCH  28  29
HETATM   29  N2  UNL     1      36.149 -57.244  41.508  1.00  0.00    -0.079 N 
ATOM     30  H23 UNL     1      36.615 -58.144  41.614  1.00  0.00     0.274 HD
ATOM     31  H22 UNL     1      36.196 -57.170  40.492  1.00  0.00     0.274 HD
ATOM     32  H21 UNL     1      36.660 -56.492  41.970  1.00  0.00     0.274 HD
ENDBRANCH  28  29
ENDBRANCH  27  28
ENDBRANCH  21  27
ENDBRANCH  17  18
ENDBRANCH  16  17
ENDBRANCH   1  15
BRANCH   6  33
HETATM   33  N5  UNL     1      30.500 -67.256  49.789  1.00  0.00    -0.383 N 
ATOM     34  H52 UNL     1      30.312 -66.372  50.260  1.00  0.00     0.157 HD
ATOM     35  H51 UNL     1      30.167 -68.101  50.253  1.00  0.00     0.157 HD
ENDBRANCH   6  33
BRANCH   9  36
HETATM   36  N7  UNL     1      33.120 -69.549  46.808  1.00  0.00    -0.234 N 
ATOM     37  H72 UNL     1      33.989 -69.785  47.288  1.00  0.00     0.174 HD
ATOM     38  H71 UNL     1      32.731 -70.153  46.084  1.00  0.00     0.174 HD
ENDBRANCH   9  36
TORSDOF 9
ENDMDL
MODEL 5
REMARK VINA RESULT: -7.397849906      1.868      3.291
REMARK  9 active torsions:
REMARK  status: ('A' for Active; 'I' for Inactive)
REMARK    1  A    between atoms: O1_2  and  C2_3 
REMARK    2  A    between atoms: C3_6  and  C4_7 
REMARK    3  A    between atoms: C4_7  and  C5_8 
REMARK    4  A    between atoms: C5_8  and  N2_9 
REMARK    5  A    between atoms: C6_15  and  C7_16 
REMARK    6  A    between atoms: C7_16  and  C8_17 
REMARK    7  A    between atoms: C9_18  and  C10_19 
REMARK    8  A    between atoms: C13_24  and  N5_25 
REMARK    9  A    between atoms: C14_30  and  N7_31 
ROOT
HETATM    1  C10 UNL     1      30.805 -63.498  46.790  1.00  0.00     0.103 A 
HETATM    2  C11 UNL     1      30.031 -63.993  47.836  1.00  0.00     0.127 A 
HETATM    3  N4  UNL     1      29.710 -65.293  47.964  1.00  0.00    -0.357 N 
ATOM      4  H4  UNL     1      29.141 -65.619  48.744  1.00  0.00     0.165 HD
HETATM    5  C12 UNL     1      30.169 -66.158  47.020  1.00  0.00     0.122 A 
HETATM    6  C13 UNL     1      29.846 -67.510  47.137  1.00  0.00     0.145 A 
HETATM    7  N6  UNL     1      30.323 -68.333  46.175  1.00  0.00    -0.175 N 
ATOM      8  H6  UNL     1      30.111 -69.330  46.221  1.00  0.00     0.186 HD
HETATM    9  C14 UNL     1      31.071 -67.865  45.161  1.00  0.00     0.681 A 
HETATM   10  N8  UNL     1      31.376 -66.561  45.058  1.00  0.00    -0.170 N 
HETATM   11  C15 UNL     1      32.180 -66.068  43.964  1.00  0.00     0.177 C 
HETATM   12  C16 UNL     1      30.935 -65.668  45.984  1.00  0.00     0.154 A 
HETATM   13  N9  UNL     1      31.253 -64.363  45.862  1.00  0.00    -0.332 N 
ATOM     14  H9  UNL     1      31.823 -64.037  45.081  1.00  0.00     0.168 HD
ENDROOT
BRANCH   1  15
HETATM   15  C9  UNL     1      31.116 -62.081  46.711  1.00  0.00    -0.047 C 
HETATM   16  C8  UNL     1      31.354 -60.896  46.637  1.00  0.00    -0.093 C 
BRANCH  16  17
HETATM   17  C7  UNL     1      31.619 -59.465  46.537  1.00  0.00     0.155 C 
BRANCH  17  18
HETATM   18  C6  UNL     1      32.185 -59.127  45.205  1.00  0.00     0.073 A 
HETATM   19  C2  UNL     1      31.865 -59.766  44.035  1.00  0.00     0.167 A 
HETATM   20  N1  UNL     1      32.578 -59.178  43.063  1.00  0.00    -0.325 N 
HETATM   21  C3  UNL     1      33.332 -58.192  43.599  1.00  0.00     0.085 A 
ATOM     22  H1  UNL     1      32.555 -59.433  42.076  1.00  0.00     0.169 HD
HETATM   23  N3  UNL     1      33.088 -58.163  44.918  1.00  0.00    -0.345 N 
ATOM     24  H3  UNL     1      33.511 -57.522  45.590  1.00  0.00     0.167 HD
BRANCH  19  25
HETATM   25  O1  UNL     1      30.969 -60.824  43.890  1.00  0.00    -0.339 OA
HETATM   26  C1  UNL     1      31.233 -61.967  43.130  1.00  0.00     0.211 C 
ENDBRANCH  19  25
BRANCH  21  27
HETATM   27  C4  UNL     1      34.248 -57.337  42.792  1.00  0.00     0.104 C 
BRANCH  27  28
HETATM   28  C5  UNL     1      33.638 -57.000  41.447  1.00  0.00     0.237 C 
BRANCH  28  29
HETATM   29  N2  UNL     1      34.688 -56.836  40.456  1.00  0.00    -0.079 N 
ATOM     30  H23 UNL     1      35.349 -56.104  40.716  1.00  0.00     0.274 HD
ATOM     31  H22 UNL     1      35.335 -57.625  40.449  1.00  0.00     0.274 HD
ATOM     32  H21 UNL     1      34.276 -56.671  39.538  1.00  0.00     0.274 HD
ENDBRANCH  28  29
ENDBRANCH  27  28
ENDBRANCH  21  27
ENDBRANCH  17  18
ENDBRANCH  16  17
ENDBRANCH   1  15
BRANCH   6  33
HETATM   33  N5  UNL     1      29.127 -67.946  48.115  1.00  0.00    -0.383 N 
ATOM     34  H52 UNL     1      29.479 -67.979  49.071  1.00  0.00     0.157 HD
ATOM     35  H51 UNL     1      28.175 -68.278  47.966  1.00  0.00     0.157 HD
ENDBRANCH   6  33
BRANCH   9  36
HETATM   36  N7  UNL     1      31.498 -68.722  44.269  1.00  0.00    -0.234 N 
ATOM     37  H72 UNL     1      30.885 -69.037  43.517  1.00  0.00     0.174 HD
ATOM     38  H71 UNL     1      32.456 -69.060  44.353  1.00  0.00     0.174 HD
ENDBRANCH   9  36
TORSDOF 9
ENDMDL
