MODEL 1
REMARK VINA RESULT: -9.467409816      0.000      0.000
REMARK  6 active torsions:
REMARK  status: ('A' for Active; 'I' for Inactive)
REMARK    1  A    between atoms: C3_3  and  N1_4 
REMARK    2  A    between atoms: N3_10  and  C7_12 
REMARK    3  A    between atoms: C7_12  and  C8_13 
REMARK    4  A    between atoms: C8_13  and  C9_14 
REMARK    5  A    between atoms: C14_24  and  N7_25 
REMARK    6  A    between atoms: C15_32  and  N10_33 
ROOT
HETATM    1  C1  UNL     1      37.256 -57.274  40.028  1.00  0.00     0.014 C 
HETATM    2  C2  UNL     1      36.473 -57.271  40.946  1.00  0.00    -0.097 C 
HETATM    3  C3  UNL     1      35.514 -57.293  42.069  1.00  0.00     0.224 C 
ENDROOT
BRANCH   3   4
HETATM    4  N1  UNL     1      34.720 -58.500  41.968  1.00  0.00    -0.316 N 
HETATM    5  C4  UNL     1      34.751 -59.429  40.991  1.00  0.00     0.186 A 
HETATM    6  N2  UNL     1      33.845 -60.369  41.315  1.00  0.00    -0.346 N 
HETATM    7  C5  UNL     1      33.260 -60.026  42.473  1.00  0.00     0.123 A 
ATOM      8  H2  UNL     1      33.636 -61.205  40.769  1.00  0.00     0.167 HD
HETATM    9  C6  UNL     1      32.279 -60.605  43.263  1.00  0.00     0.147 A 
HETATM   10  C16 UNL     1      33.804 -58.837  42.909  1.00  0.00     0.155 A 
HETATM   11  N3  UNL     1      31.798 -61.716  42.821  1.00  0.00    -0.373 N 
HETATM   12  N9  UNL     1      31.873 -60.027  44.409  1.00  0.00    -0.175 N 
ATOM     13  H3  UNL     1      32.168 -62.077  41.942  1.00  0.00     0.161 HD
HETATM   14  C15 UNL     1      32.422 -58.857  44.817  1.00  0.00     0.679 A 
ATOM     15  H9  UNL     1      31.149 -60.472  44.974  1.00  0.00     0.186 HD
HETATM   16  N11 UNL     1      33.374 -58.293  44.054  1.00  0.00    -0.174 N 
ATOM     17  H11 UNL     1      33.786 -57.411  44.360  1.00  0.00     0.186 HD
BRANCH  11  18
HETATM   18  C7  UNL     1      30.767 -62.487  43.488  1.00  0.00     0.129 C 
BRANCH  18  19
HETATM   19  C8  UNL     1      31.238 -63.899  43.610  1.00  0.00     0.096 C 
BRANCH  19  20
HETATM   20  C9  UNL     1      31.083 -64.376  45.002  1.00  0.00     0.085 A 
HETATM   21  N4  UNL     1      31.813 -65.481  45.392  1.00  0.00    -0.330 N 
HETATM   22  C10 UNL     1      31.790 -66.005  46.612  1.00  0.00     0.140 A 
ATOM     23  H4  UNL     1      32.410 -65.926  44.695  1.00  0.00     0.168 HD
HETATM   24  C11 UNL     1      30.973 -65.387  47.534  1.00  0.00     0.122 A 
HETATM   25  N6  UNL     1      32.385 -67.047  47.239  1.00  0.00    -0.332 N 
HETATM   26  N5  UNL     1      31.098 -66.073  48.696  1.00  0.00    -0.346 N 
HETATM   27  C14 UNL     1      30.242 -64.290  47.163  1.00  0.00     0.131 A 
HETATM   28  C12 UNL     1      31.963 -67.091  48.514  1.00  0.00     0.184 A 
ATOM     29  H5  UNL     1      30.616 -65.855  49.567  1.00  0.00     0.167 HD
HETATM   30  N8  UNL     1      30.307 -63.792  45.889  1.00  0.00    -0.330 N 
ATOM     31  H8  UNL     1      29.757 -62.973  45.629  1.00  0.00     0.168 HD
HETATM   32  C13 UNL     1      33.321 -67.931  46.567  1.00  0.00     0.158 C 
BRANCH  27  33
HETATM   33  N7  UNL     1      29.479 -63.723  48.050  1.00  0.00    -0.383 N 
ATOM     34  H72 UNL     1      29.211 -64.227  48.895  1.00  0.00     0.157 HD
ATOM     35  H71 UNL     1      29.157 -62.770  47.878  1.00  0.00     0.157 HD
ENDBRANCH  27  33
ENDBRANCH  19  20
ENDBRANCH  18  19
ENDBRANCH  11  18
BRANCH  14  36
HETATM   36  N10 UNL     1      32.020 -58.312  45.924  1.00  0.00    -0.234 N 
ATOM     37 2H10 UNL     1      31.112 -58.531  46.333  1.00  0.00     0.174 HD
ATOM     38 1H10 UNL     1      32.623 -57.645  46.405  1.00  0.00     0.174 HD
ENDBRANCH  14  36
ENDBRANCH   3   4
TORSDOF 6
ENDMDL
MODEL 2
REMARK VINA RESULT: -9.456201077      1.649      3.610
REMARK  6 active torsions:
REMARK  status: ('A' for Active; 'I' for Inactive)
REMARK    1  A    between atoms: C3_3  and  N1_4 
REMARK    2  A    between atoms: N3_10  and  C7_12 
REMARK    3  A    between atoms: C7_12  and  C8_13 
REMARK    4  A    between atoms: C8_13  and  C9_14 
REMARK    5  A    between atoms: C14_24  and  N7_25 
REMARK    6  A    between atoms: C15_32  and  N10_33 
ROOT
HETATM    1  C1  UNL     1      38.164 -55.504  39.226  1.00  0.00     0.014 C 
HETATM    2  C2  UNL     1      37.653 -56.597  39.223  1.00  0.00    -0.097 C 
HETATM    3  C3  UNL     1      37.005 -57.925  39.225  1.00  0.00     0.224 C 
ENDROOT
BRANCH   3   4
HETATM    4  N1  UNL     1      35.880 -57.883  40.136  1.00  0.00    -0.316 N 
HETATM    5  C4  UNL     1      35.040 -56.851  40.364  1.00  0.00     0.186 A 
HETATM    6  N2  UNL     1      34.152 -57.265  41.285  1.00  0.00    -0.346 N 
HETATM    7  C5  UNL     1      34.437 -58.533  41.622  1.00  0.00     0.123 A 
ATOM      8  H2  UNL     1      33.387 -56.707  41.664  1.00  0.00     0.167 HD
HETATM    9  C6  UNL     1      33.871 -59.444  42.501  1.00  0.00     0.147 A 
HETATM   10  C16 UNL     1      35.535 -58.947  40.901  1.00  0.00     0.155 A 
HETATM   11  N3  UNL     1      32.846 -59.017  43.155  1.00  0.00    -0.373 N 
HETATM   12  N9  UNL     1      34.376 -60.683  42.643  1.00  0.00    -0.175 N 
ATOM     13  H3  UNL     1      32.535 -58.061  42.980  1.00  0.00     0.161 HD
HETATM   14  C15 UNL     1      35.458 -61.069  41.923  1.00  0.00     0.679 A 
ATOM     15  H9  UNL     1      33.942 -61.336  43.296  1.00  0.00     0.186 HD
HETATM   16  N11 UNL     1      36.009 -60.188  41.070  1.00  0.00    -0.174 N 
ATOM     17  H11 UNL     1      36.824 -60.477  40.529  1.00  0.00     0.186 HD
BRANCH  11  18
HETATM   18  C7  UNL     1      32.104 -59.803  44.122  1.00  0.00     0.129 C 
BRANCH  18  19
HETATM   19  C8  UNL     1      31.137 -60.668  43.384  1.00  0.00     0.096 C 
BRANCH  19  20
HETATM   20  C9  UNL     1      31.392 -62.096  43.681  1.00  0.00     0.085 A 
HETATM   21  N4  UNL     1      30.989 -62.584  44.908  1.00  0.00    -0.330 N 
HETATM   22  C10 UNL     1      31.133 -63.845  45.299  1.00  0.00     0.140 A 
ATOM     23  H4  UNL     1      30.550 -61.932  45.558  1.00  0.00     0.168 HD
HETATM   24  C11 UNL     1      31.729 -64.706  44.403  1.00  0.00     0.122 A 
HETATM   25  N6  UNL     1      30.837 -64.563  46.409  1.00  0.00    -0.332 N 
HETATM   26  N5  UNL     1      31.777 -65.923  44.996  1.00  0.00    -0.346 N 
HETATM   27  C14 UNL     1      32.135 -64.237  43.183  1.00  0.00     0.131 A 
HETATM   28  C12 UNL     1      31.230 -65.835  46.226  1.00  0.00     0.184 A 
ATOM     29  H5  UNL     1      32.163 -66.769  44.580  1.00  0.00     0.167 HD
HETATM   30  N8  UNL     1      31.959 -62.925  42.831  1.00  0.00    -0.330 N 
ATOM     31  H8  UNL     1      32.266 -62.592  41.917  1.00  0.00     0.168 HD
HETATM   32  C13 UNL     1      30.194 -63.975  47.571  1.00  0.00     0.158 C 
BRANCH  27  33
HETATM   33  N7  UNL     1      32.695 -65.067  42.353  1.00  0.00    -0.383 N 
ATOM     34  H72 UNL     1      32.430 -65.066  41.368  1.00  0.00     0.157 HD
ATOM     35  H71 UNL     1      33.398 -65.713  42.710  1.00  0.00     0.157 HD
ENDBRANCH  27  33
ENDBRANCH  19  20
ENDBRANCH  18  19
ENDBRANCH  11  18
BRANCH  14  36
HETATM   36  N10 UNL     1      35.933 -62.266  42.071  1.00  0.00    -0.234 N 
ATOM     37 2H10 UNL     1      35.382 -63.016  42.489  1.00  0.00     0.174 HD
ATOM     38 1H10 UNL     1      36.883 -62.474  41.764  1.00  0.00     0.174 HD
ENDBRANCH  14  36
ENDBRANCH   3   4
TORSDOF 6
ENDMDL
MODEL 3
REMARK VINA RESULT: -9.274314457      1.027      1.027
REMARK  6 active torsions:
REMARK  status: ('A' for Active; 'I' for Inactive)
REMARK    1  A    between atoms: C3_3  and  N1_4 
REMARK    2  A    between atoms: N3_10  and  C7_12 
REMARK    3  A    between atoms: C7_12  and  C8_13 
REMARK    4  A    between atoms: C8_13  and  C9_14 
REMARK    5  A    between atoms: C14_24  and  N7_25 
REMARK    6  A    between atoms: C15_32  and  N10_33 
ROOT
HETATM    1  C1  UNL     1      37.218 -57.271  40.019  1.00  0.00     0.014 C 
HETATM    2  C2  UNL     1      36.413 -57.257  40.918  1.00  0.00    -0.097 C 
HETATM    3  C3  UNL     1      35.428 -57.265  42.019  1.00  0.00     0.224 C 
ENDROOT
BRANCH   3   4
HETATM    4  N1  UNL     1      34.669 -58.497  41.943  1.00  0.00    -0.316 N 
HETATM    5  C4  UNL     1      34.718 -59.439  40.979  1.00  0.00     0.186 A 
HETATM    6  N2  UNL     1      33.844 -60.401  41.325  1.00  0.00    -0.346 N 
HETATM    7  C5  UNL     1      33.262 -60.059  42.486  1.00  0.00     0.123 A 
ATOM      8  H2  UNL     1      33.654 -61.250  40.794  1.00  0.00     0.167 HD
HETATM    9  C6  UNL     1      32.307 -60.656  43.295  1.00  0.00     0.147 A 
HETATM   10  C16 UNL     1      33.774 -58.848  42.899  1.00  0.00     0.155 A 
HETATM   11  N3  UNL     1      31.855 -61.786  42.874  1.00  0.00    -0.373 N 
HETATM   12  N9  UNL     1      31.897 -60.074  44.437  1.00  0.00    -0.175 N 
ATOM     13  H3  UNL     1      32.226 -62.149  41.995  1.00  0.00     0.161 HD
HETATM   14  C15 UNL     1      32.414 -58.883  44.823  1.00  0.00     0.679 A 
ATOM     15  H9  UNL     1      31.193 -60.533  45.016  1.00  0.00     0.186 HD
HETATM   16  N11 UNL     1      33.340 -58.301  44.041  1.00  0.00    -0.174 N 
ATOM     17  H11 UNL     1      33.729 -57.403  44.330  1.00  0.00     0.186 HD
BRANCH  11  18
HETATM   18  C7  UNL     1      30.855 -62.579  43.563  1.00  0.00     0.129 C 
BRANCH  18  19
HETATM   19  C8  UNL     1      31.407 -63.949  43.780  1.00  0.00     0.096 C 
BRANCH  19  20
HETATM   20  C9  UNL     1      30.860 -64.534  45.025  1.00  0.00     0.085 A 
HETATM   21  N4  UNL     1      30.849 -65.910  45.142  1.00  0.00    -0.330 N 
HETATM   22  C10 UNL     1      30.410 -66.569  46.209  1.00  0.00     0.140 A 
ATOM     23  H4  UNL     1      31.201 -66.457  44.357  1.00  0.00     0.168 HD
HETATM   24  C11 UNL     1      29.939 -65.807  47.255  1.00  0.00     0.122 A 
HETATM   25  N6  UNL     1      30.291 -67.868  46.573  1.00  0.00    -0.332 N 
HETATM   26  N5  UNL     1      29.546 -66.668  48.225  1.00  0.00    -0.346 N 
HETATM   27  C14 UNL     1      29.942 -64.442  47.154  1.00  0.00     0.131 A 
HETATM   28  C12 UNL     1      29.762 -67.931  47.806  1.00  0.00     0.184 A 
ATOM     29  H5  UNL     1      29.151 -66.403  49.128  1.00  0.00     0.167 HD
HETATM   30  N8  UNL     1      30.409 -63.815  46.029  1.00  0.00    -0.330 N 
ATOM     31  H8  UNL     1      30.406 -62.796  45.970  1.00  0.00     0.168 HD
HETATM   32  C13 UNL     1      30.694 -68.962  45.707  1.00  0.00     0.158 C 
BRANCH  27  33
HETATM   33  N7  UNL     1      29.493 -63.743  48.154  1.00  0.00    -0.383 N 
ATOM     34  H72 UNL     1      29.555 -64.108  49.105  1.00  0.00     0.157 HD
ATOM     35  H71 UNL     1      29.080 -62.830  47.964  1.00  0.00     0.157 HD
ENDBRANCH  27  33
ENDBRANCH  19  20
ENDBRANCH  18  19
ENDBRANCH  11  18
BRANCH  14  36
HETATM   36  N10 UNL     1      32.009 -58.334  45.926  1.00  0.00    -0.234 N 
ATOM     37 2H10 UNL     1      31.142 -58.620  46.382  1.00  0.00     0.174 HD
ATOM     38 1H10 UNL     1      32.565 -57.596  46.357  1.00  0.00     0.174 HD
ENDBRANCH  14  36
ENDBRANCH   3   4
TORSDOF 6
ENDMDL
MODEL 4
REMARK VINA RESULT: -9.085190166      1.449      2.368
REMARK  6 active torsions:
REMARK  status: ('A' for Active; 'I' for Inactive)
REMARK    1  A    between atoms: C3_3  and  N1_4 
REMARK    2  A    between atoms: N3_10  and  C7_12 
REMARK    3  A    between atoms: C7_12  and  C8_13 
REMARK    4  A    between atoms: C8_13  and  C9_14 
REMARK    5  A    between atoms: C14_24  and  N7_25 
REMARK    6  A    between atoms: C15_32  and  N10_33 
ROOT
HETATM    1  C1  UNL     1      37.093 -57.627  39.214  1.00  0.00     0.014 C 
HETATM    2  C2  UNL     1      36.735 -57.439  40.351  1.00  0.00    -0.097 C 
HETATM    3  C3  UNL     1      36.286 -57.232  41.743  1.00  0.00     0.224 C 
ENDROOT
BRANCH   3   4
HETATM    4  N1  UNL     1      35.124 -58.064  41.977  1.00  0.00    -0.316 N 
HETATM    5  C4  UNL     1      33.847 -57.667  42.159  1.00  0.00     0.186 A 
HETATM    6  N2  UNL     1      33.113 -58.779  42.340  1.00  0.00    -0.346 N 
HETATM    7  C5  UNL     1      33.922 -59.849  42.271  1.00  0.00     0.123 A 
ATOM      8  H2  UNL     1      32.106 -58.806  42.503  1.00  0.00     0.167 HD
HETATM    9  C6  UNL     1      33.720 -61.216  42.381  1.00  0.00     0.147 A 
HETATM   10  C16 UNL     1      35.209 -59.416  42.039  1.00  0.00     0.155 A 
HETATM   11  N3  UNL     1      32.502 -61.578  42.597  1.00  0.00    -0.373 N 
HETATM   12  N9  UNL     1      34.741 -62.085  42.266  1.00  0.00    -0.175 N 
ATOM     13  H3  UNL     1      31.795 -60.847  42.669  1.00  0.00     0.161 HD
HETATM   14  C15 UNL     1      35.999 -61.636  42.039  1.00  0.00     0.679 A 
ATOM     15  H9  UNL     1      34.567 -63.086  42.351  1.00  0.00     0.186 HD
HETATM   16  N11 UNL     1      36.199 -60.311  41.932  1.00  0.00    -0.174 N 
ATOM     17  H11 UNL     1      37.147 -59.972  41.762  1.00  0.00     0.186 HD
BRANCH  11  18
HETATM   18  C7  UNL     1      32.069 -62.954  42.744  1.00  0.00     0.129 C 
BRANCH  18  19
HETATM   19  C8  UNL     1      30.728 -62.959  43.401  1.00  0.00     0.096 C 
BRANCH  19  20
HETATM   20  C9  UNL     1      30.777 -63.722  44.669  1.00  0.00     0.085 A 
HETATM   21  N4  UNL     1      31.594 -64.834  44.723  1.00  0.00    -0.330 N 
HETATM   22  C10 UNL     1      31.753 -65.597  45.798  1.00  0.00     0.140 A 
ATOM     23  H4  UNL     1      32.110 -65.086  43.881  1.00  0.00     0.168 HD
HETATM   24  C11 UNL     1      31.044 -65.235  46.923  1.00  0.00     0.122 A 
HETATM   25  N6  UNL     1      32.465 -66.706  46.112  1.00  0.00    -0.332 N 
HETATM   26  N5  UNL     1      31.348 -66.136  47.888  1.00  0.00    -0.346 N 
HETATM   27  C14 UNL     1      30.229 -64.136  46.885  1.00  0.00     0.131 A 
HETATM   28  C12 UNL     1      32.218 -67.038  47.391  1.00  0.00     0.184 A 
ATOM     29  H5  UNL     1      30.977 -66.133  48.839  1.00  0.00     0.167 HD
HETATM   30  N8  UNL     1      30.105 -63.383  45.747  1.00  0.00    -0.330 N 
ATOM     31  H8  UNL     1      29.495 -62.565  45.736  1.00  0.00     0.168 HD
HETATM   32  C13 UNL     1      33.336 -67.370  45.159  1.00  0.00     0.158 C 
BRANCH  27  33
HETATM   33  N7  UNL     1      29.570 -63.813  47.958  1.00  0.00    -0.383 N 
ATOM     34  H72 UNL     1      30.067 -63.488  48.788  1.00  0.00     0.157 HD
ATOM     35  H71 UNL     1      28.554 -63.893  47.949  1.00  0.00     0.157 HD
ENDBRANCH  27  33
ENDBRANCH  19  20
ENDBRANCH  18  19
ENDBRANCH  11  18
BRANCH  14  36
HETATM   36  N10 UNL     1      36.974 -62.485  41.931  1.00  0.00    -0.234 N 
ATOM     37 2H10 UNL     1      36.814 -63.492  41.951  1.00  0.00     0.174 HD
ATOM     38 1H10 UNL     1      37.929 -62.146  41.822  1.00  0.00     0.174 HD
ENDBRANCH  14  36
ENDBRANCH   3   4
TORSDOF 6
ENDMDL
MODEL 5
REMARK VINA RESULT: -8.979327485      1.780      2.573
REMARK  6 active torsions:
REMARK  status: ('A' for Active; 'I' for Inactive)
REMARK    1  A    between atoms: C3_3  and  N1_4 
REMARK    2  A    between atoms: N3_10  and  C7_12 
REMARK    3  A    between atoms: C7_12  and  C8_13 
REMARK    4  A    between atoms: C8_13  and  C9_14 
REMARK    5  A    between atoms: C14_24  and  N7_25 
REMARK    6  A    between atoms: C15_32  and  N10_33 
ROOT
HETATM    1  C1  UNL     1      37.282 -57.289  40.015  1.00  0.00     0.014 C 
HETATM    2  C2  UNL     1      36.507 -57.274  40.940  1.00  0.00    -0.097 C 
HETATM    3  C3  UNL     1      35.558 -57.280  42.072  1.00  0.00     0.224 C 
ENDROOT
BRANCH   3   4
HETATM    4  N1  UNL     1      34.754 -58.481  41.987  1.00  0.00    -0.316 N 
HETATM    5  C4  UNL     1      34.778 -59.425  41.022  1.00  0.00     0.186 A 
HETATM    6  N2  UNL     1      33.864 -60.353  41.358  1.00  0.00    -0.346 N 
HETATM    7  C5  UNL     1      33.282 -59.989  42.513  1.00  0.00     0.123 A 
ATOM      8  H2  UNL     1      33.648 -61.194  40.824  1.00  0.00     0.167 HD
HETATM    9  C6  UNL     1      32.296 -60.550  43.310  1.00  0.00     0.147 A 
HETATM   10  C16 UNL     1      33.835 -58.799  42.932  1.00  0.00     0.155 A 
HETATM   11  N3  UNL     1      31.806 -61.662  42.883  1.00  0.00    -0.373 N 
HETATM   12  N9  UNL     1      31.895 -59.953  44.448  1.00  0.00    -0.175 N 
ATOM     13  H3  UNL     1      32.173 -62.038  42.009  1.00  0.00     0.161 HD
HETATM   14  C15 UNL     1      32.453 -58.782  44.840  1.00  0.00     0.679 A 
ATOM     15  H9  UNL     1      31.168 -60.385  45.019  1.00  0.00     0.186 HD
HETATM   16  N11 UNL     1      33.410 -58.236  44.070  1.00  0.00    -0.174 N 
ATOM     17  H11 UNL     1      33.829 -57.354  44.364  1.00  0.00     0.186 HD
BRANCH  11  18
HETATM   18  C7  UNL     1      30.769 -62.416  43.560  1.00  0.00     0.129 C 
BRANCH  18  19
HETATM   19  C8  UNL     1      31.408 -63.253  44.618  1.00  0.00     0.096 C 
BRANCH  19  20
HETATM   20  C9  UNL     1      31.220 -64.691  44.322  1.00  0.00     0.085 A 
HETATM   21  N4  UNL     1      30.793 -65.512  45.347  1.00  0.00    -0.330 N 
HETATM   22  C10 UNL     1      30.562 -66.813  45.220  1.00  0.00     0.140 A 
ATOM     23  H4  UNL     1      30.645 -65.090  46.263  1.00  0.00     0.168 HD
HETATM   24  C11 UNL     1      30.770 -67.359  43.972  1.00  0.00     0.122 A 
HETATM   25  N6  UNL     1      30.152 -67.816  46.033  1.00  0.00    -0.332 N 
HETATM   26  N5  UNL     1      30.480 -68.680  44.065  1.00  0.00    -0.346 N 
HETATM   27  C14 UNL     1      31.195 -66.559  42.946  1.00  0.00     0.131 A 
HETATM   28  C12 UNL     1      30.101 -68.960  45.328  1.00  0.00     0.184 A 
ATOM     29  H5  UNL     1      30.539 -69.354  43.302  1.00  0.00     0.167 HD
HETATM   30  N8  UNL     1      31.417 -65.220  43.134  1.00  0.00    -0.330 N 
ATOM     31  H8  UNL     1      31.732 -64.638  42.358  1.00  0.00     0.168 HD
HETATM   32  C13 UNL     1      29.836 -67.605  47.434  1.00  0.00     0.158 C 
BRANCH  27  33
HETATM   33  N7  UNL     1      31.386 -67.096  41.777  1.00  0.00    -0.383 N 
ATOM     34  H72 UNL     1      32.326 -67.157  41.387  1.00  0.00     0.157 HD
ATOM     35  H71 UNL     1      30.578 -67.448  41.265  1.00  0.00     0.157 HD
ENDBRANCH  27  33
ENDBRANCH  19  20
ENDBRANCH  18  19
ENDBRANCH  11  18
BRANCH  14  36
HETATM   36  N10 UNL     1      32.056 -58.219  45.939  1.00  0.00    -0.234 N 
ATOM     37 2H10 UNL     1      31.998 -58.735  46.817  1.00  0.00     0.174 HD
ATOM     38 1H10 UNL     1      31.794 -57.233  45.935  1.00  0.00     0.174 HD
ENDBRANCH  14  36
ENDBRANCH   3   4
TORSDOF 6
ENDMDL
