MODEL 1
REMARK VINA RESULT: -9.599447278      0.000      0.000
REMARK  6 active torsions:
REMARK  status: ('A' for Active; 'I' for Inactive)
REMARK    1  A    between atoms: C2_5  and  O2_6 
REMARK    2  A    between atoms: C3_8  and  C4_9 
REMARK    3  A    between atoms: C5_12  and  C6_13 
REMARK    4  A    between atoms: C6_13  and  C7_14 
REMARK    5  A    between atoms: C7_14  and  N3_15 
REMARK    6  A    between atoms: C11_19  and  O3_20 
ROOT
HETATM    1  C4  UNL     1      33.300 -59.169  42.982  1.00  0.00     0.097 A 
HETATM    2  N2  UNL     1      33.008 -60.424  42.545  1.00  0.00    -0.342 N 
ATOM      3  H2  UNL     1      33.429 -60.722  41.665  1.00  0.00     0.167 HD
HETATM    4  C5  UNL     1      32.225 -61.285  43.165  1.00  0.00     0.085 A 
HETATM    5  N4  UNL     1      31.655 -60.922  44.327  1.00  0.00    -0.329 N 
ATOM      6  H4  UNL     1      31.049 -61.584  44.812  1.00  0.00     0.168 HD
HETATM    7  C13 UNL     1      31.865 -59.712  44.864  1.00  0.00     0.153 A 
HETATM    8  N5  UNL     1      31.441 -59.091  45.982  1.00  0.00    -0.269 N 
ATOM      9  H5  UNL     1      30.818 -59.488  46.685  1.00  0.00     0.190 HD
HETATM   10  N6  UNL     1      31.970 -57.880  46.012  1.00  0.00    -0.240 N 
ATOM     11  H6  UNL     1      31.826 -57.180  46.740  1.00  0.00     0.208 HD
HETATM   12  N7  UNL     1      32.713 -57.735  44.939  1.00  0.00    -0.280 N 
ATOM     13  H7  UNL     1      33.236 -56.888  44.719  1.00  0.00     0.188 HD
HETATM   14  C14 UNL     1      32.705 -58.824  44.171  1.00  0.00     0.124 A 
ENDROOT
BRANCH   1  15
HETATM   15  C3  UNL     1      34.177 -58.312  42.210  1.00  0.00     0.117 A 
HETATM   16  C2  UNL     1      33.940 -57.211  41.445  1.00  0.00     0.174 A 
HETATM   17  N1  UNL     1      35.159 -56.822  40.959  1.00  0.00    -0.287 N 
HETATM   18  C1  UNL     1      36.127 -57.635  41.391  1.00  0.00     0.326 A 
ATOM     19  H1  UNL     1      35.309 -56.019  40.348  1.00  0.00     0.172 HD
HETATM   20  O1  UNL     1      37.375 -57.572  41.137  1.00  0.00    -0.247 OA
HETATM   21  N8  UNL     1      35.514 -58.544  42.157  1.00  0.00    -0.303 N 
ATOM     22  H8  UNL     1      35.987 -59.310  42.637  1.00  0.00     0.171 HD
BRANCH  16  23
HETATM   23  O2  UNL     1      32.736 -56.577  41.183  1.00  0.00    -0.344 OA
ATOM     24  H2  UNL     1      31.876 -56.928  41.383  1.00  0.00     0.219 HD
ENDBRANCH  16  23
ENDBRANCH   1  15
BRANCH   4  25
HETATM   25  C6  UNL     1      31.961 -62.659  42.600  1.00  0.00     0.106 C 
BRANCH  25  26
HETATM   26  C7  UNL     1      30.822 -63.242  43.366  1.00  0.00     0.280 C 
BRANCH  26  27
HETATM   27  N3  UNL     1      31.213 -64.330  44.229  1.00  0.00     0.091 N 
HETATM   28  C8  UNL     1      30.575 -65.520  43.714  1.00  0.00     0.272 C 
HETATM   29  C9  UNL     1      30.431 -66.640  44.666  1.00  0.00     0.033 C 
HETATM   30  C10 UNL     1      31.292 -66.590  45.875  1.00  0.00     0.035 C 
HETATM   31  C11 UNL     1      31.502 -65.203  46.424  1.00  0.00     0.146 C 
HETATM   32  C12 UNL     1      30.814 -64.147  45.588  1.00  0.00     0.303 C 
BRANCH  31  33
HETATM   33  O3  UNL     1      31.074 -65.062  47.737  1.00  0.00    -0.394 OA
ATOM     34  H3  UNL     1      30.233 -65.470  47.904  1.00  0.00     0.210 HD
ENDBRANCH  31  33
ENDBRANCH  26  27
ENDBRANCH  25  26
ENDBRANCH   4  25
TORSDOF 6
ENDMDL
MODEL 2
REMARK VINA RESULT: -9.440832418      1.276      1.422
REMARK  6 active torsions:
REMARK  status: ('A' for Active; 'I' for Inactive)
REMARK    1  A    between atoms: C2_5  and  O2_6 
REMARK    2  A    between atoms: C3_8  and  C4_9 
REMARK    3  A    between atoms: C5_12  and  C6_13 
REMARK    4  A    between atoms: C6_13  and  C7_14 
REMARK    5  A    between atoms: C7_14  and  N3_15 
REMARK    6  A    between atoms: C11_19  and  O3_20 
ROOT
HETATM    1  C4  UNL     1      33.455 -59.663  42.611  1.00  0.00     0.097 A 
HETATM    2  N2  UNL     1      32.992 -60.928  42.426  1.00  0.00    -0.342 N 
ATOM      3  H2  UNL     1      33.327 -61.434  41.606  1.00  0.00     0.167 HD
HETATM    4  C5  UNL     1      32.145 -61.555  43.219  1.00  0.00     0.085 A 
HETATM    5  N4  UNL     1      31.685 -60.916  44.309  1.00  0.00    -0.329 N 
ATOM      6  H4  UNL     1      31.030 -61.395  44.928  1.00  0.00     0.168 HD
HETATM    7  C13 UNL     1      32.067 -59.665  44.603  1.00  0.00     0.153 A 
HETATM    8  N5  UNL     1      31.780 -58.801  45.596  1.00  0.00    -0.269 N 
ATOM      9  H5  UNL     1      31.152 -58.980  46.379  1.00  0.00     0.190 HD
HETATM   10  N6  UNL     1      32.451 -57.683  45.383  1.00  0.00    -0.240 N 
ATOM     11  H6  UNL     1      32.431 -56.850  45.971  1.00  0.00     0.208 HD
HETATM   12  N7  UNL     1      33.149 -57.833  44.280  1.00  0.00    -0.280 N 
ATOM     13  H7  UNL     1      33.757 -57.113  43.890  1.00  0.00     0.188 HD
HETATM   14  C14 UNL     1      32.970 -59.033  43.731  1.00  0.00     0.124 A 
ENDROOT
BRANCH   1  15
HETATM   15  C3  UNL     1      34.386 -59.080  41.667  1.00  0.00     0.117 A 
HETATM   16  C2  UNL     1      34.383 -59.000  40.308  1.00  0.00     0.174 A 
HETATM   17  N1  UNL     1      35.529 -58.333  39.968  1.00  0.00    -0.287 N 
HETATM   18  C1  UNL     1      36.231 -58.003  41.056  1.00  0.00     0.326 A 
ATOM     19  H1  UNL     1      35.810 -58.116  39.011  1.00  0.00     0.172 HD
HETATM   20  O1  UNL     1      37.342 -57.380  41.113  1.00  0.00    -0.247 OA
HETATM   21  N8  UNL     1      35.521 -58.466  42.091  1.00  0.00    -0.303 N 
ATOM     22  H8  UNL     1      35.796 -58.370  43.069  1.00  0.00     0.171 HD
BRANCH  16  23
HETATM   23  O2  UNL     1      33.441 -59.478  39.411  1.00  0.00    -0.344 OA
ATOM     24  H2  UNL     1      32.543 -59.174  39.346  1.00  0.00     0.219 HD
ENDBRANCH  16  23
ENDBRANCH   1  15
BRANCH   4  25
HETATM   25  C6  UNL     1      31.688 -62.963  42.931  1.00  0.00     0.106 C 
BRANCH  25  26
HETATM   26  C7  UNL     1      30.423 -63.184  43.688  1.00  0.00     0.280 C 
BRANCH  26  27
HETATM   27  N3  UNL     1      30.640 -63.639  45.041  1.00  0.00     0.091 N 
HETATM   28  C8  UNL     1      31.357 -64.890  44.948  1.00  0.00     0.272 C 
HETATM   29  C9  UNL     1      31.278 -65.770  46.132  1.00  0.00     0.033 C 
HETATM   30  C10 UNL     1      30.842 -65.129  47.399  1.00  0.00     0.035 C 
HETATM   31  C11 UNL     1      29.788 -64.068  47.221  1.00  0.00     0.146 C 
HETATM   32  C12 UNL     1      29.430 -63.857  45.767  1.00  0.00     0.303 C 
BRANCH  31  33
HETATM   33  O3  UNL     1      28.618 -64.333  47.920  1.00  0.00    -0.394 OA
ATOM     34  H3  UNL     1      28.101 -63.555  48.095  1.00  0.00     0.210 HD
ENDBRANCH  31  33
ENDBRANCH  26  27
ENDBRANCH  25  26
ENDBRANCH   4  25
TORSDOF 6
ENDMDL
MODEL 3
REMARK VINA RESULT: -9.412524507      0.996      1.242
REMARK  6 active torsions:
REMARK  status: ('A' for Active; 'I' for Inactive)
REMARK    1  A    between atoms: C2_5  and  O2_6 
REMARK    2  A    between atoms: C3_8  and  C4_9 
REMARK    3  A    between atoms: C5_12  and  C6_13 
REMARK    4  A    between atoms: C6_13  and  C7_14 
REMARK    5  A    between atoms: C7_14  and  N3_15 
REMARK    6  A    between atoms: C11_19  and  O3_20 
ROOT
HETATM    1  C4  UNL     1      33.297 -59.186  42.984  1.00  0.00     0.097 A 
HETATM    2  N2  UNL     1      33.010 -60.445  42.558  1.00  0.00    -0.342 N 
ATOM      3  H2  UNL     1      33.432 -60.750  41.680  1.00  0.00     0.167 HD
HETATM    4  C5  UNL     1      32.231 -61.304  43.185  1.00  0.00     0.085 A 
HETATM    5  N4  UNL     1      31.660 -60.934  44.345  1.00  0.00    -0.329 N 
ATOM      6  H4  UNL     1      31.056 -61.594  44.836  1.00  0.00     0.168 HD
HETATM    7  C13 UNL     1      31.865 -59.717  44.871  1.00  0.00     0.153 A 
HETATM    8  N5  UNL     1      31.439 -59.088  45.983  1.00  0.00    -0.269 N 
ATOM      9  H5  UNL     1      30.818 -59.482  46.690  1.00  0.00     0.190 HD
HETATM   10  N6  UNL     1      31.963 -57.875  46.003  1.00  0.00    -0.240 N 
ATOM     11  H6  UNL     1      31.816 -57.170  46.725  1.00  0.00     0.208 HD
HETATM   12  N7  UNL     1      32.705 -57.737  44.928  1.00  0.00    -0.280 N 
ATOM     13  H7  UNL     1      33.224 -56.889  44.701  1.00  0.00     0.188 HD
HETATM   14  C14 UNL     1      32.701 -58.832  44.170  1.00  0.00     0.124 A 
ENDROOT
BRANCH   1  15
HETATM   15  C3  UNL     1      34.170 -58.331  42.205  1.00  0.00     0.117 A 
HETATM   16  C2  UNL     1      33.932 -57.224  41.449  1.00  0.00     0.174 A 
HETATM   17  N1  UNL     1      35.148 -56.843  40.947  1.00  0.00    -0.287 N 
HETATM   18  C1  UNL     1      36.115 -57.667  41.362  1.00  0.00     0.326 A 
ATOM     19  H1  UNL     1      35.295 -56.038  40.339  1.00  0.00     0.172 HD
HETATM   20  O1  UNL     1      37.360 -57.612  41.091  1.00  0.00    -0.247 OA
HETATM   21  N8  UNL     1      35.504 -58.575  42.132  1.00  0.00    -0.303 N 
ATOM     22  H8  UNL     1      35.978 -59.346  42.601  1.00  0.00     0.171 HD
BRANCH  16  23
HETATM   23  O2  UNL     1      32.729 -56.579  41.206  1.00  0.00    -0.344 OA
ATOM     24  H2  UNL     1      32.108 -56.309  41.872  1.00  0.00     0.219 HD
ENDBRANCH  16  23
ENDBRANCH   1  15
BRANCH   4  25
HETATM   25  C6  UNL     1      31.972 -62.683  42.633  1.00  0.00     0.106 C 
BRANCH  25  26
HETATM   26  C7  UNL     1      30.704 -63.176  43.244  1.00  0.00     0.280 C 
BRANCH  26  27
HETATM   27  N3  UNL     1      30.879 -64.370  44.036  1.00  0.00     0.091 N 
HETATM   28  C8  UNL     1      30.471 -64.039  45.382  1.00  0.00     0.272 C 
HETATM   29  C9  UNL     1      30.991 -64.917  46.449  1.00  0.00     0.033 C 
HETATM   30  C10 UNL     1      31.512 -66.239  46.017  1.00  0.00     0.035 C 
HETATM   31  C11 UNL     1      32.231 -66.214  44.694  1.00  0.00     0.146 C 
HETATM   32  C12 UNL     1      32.227 -64.838  44.067  1.00  0.00     0.303 C 
BRANCH  31  33
HETATM   33  O3  UNL     1      33.546 -66.650  44.774  1.00  0.00    -0.394 OA
ATOM     34  H3  UNL     1      33.989 -66.666  43.934  1.00  0.00     0.210 HD
ENDBRANCH  31  33
ENDBRANCH  26  27
ENDBRANCH  25  26
ENDBRANCH   4  25
TORSDOF 6
ENDMDL
MODEL 4
REMARK VINA RESULT: -9.411807953      2.170      3.428
REMARK  6 active torsions:
REMARK  status: ('A' for Active; 'I' for Inactive)
REMARK    1  A    between atoms: C2_5  and  O2_6 
REMARK    2  A    between atoms: C3_8  and  C4_9 
REMARK    3  A    between atoms: C5_12  and  C6_13 
REMARK    4  A    between atoms: C6_13  and  C7_14 
REMARK    5  A    between atoms: C7_14  and  N3_15 
REMARK    6  A    between atoms: C11_19  and  O3_20 
ROOT
HETATM    1  C4  UNL     1      33.747 -60.432  42.440  1.00  0.00     0.097 A 
HETATM    2  N2  UNL     1      32.684 -61.112  42.948  1.00  0.00    -0.342 N 
ATOM      3  H2  UNL     1      31.845 -60.574  43.166  1.00  0.00     0.167 HD
HETATM    4  C5  UNL     1      32.649 -62.410  43.180  1.00  0.00     0.085 A 
HETATM    5  N4  UNL     1      33.738 -63.147  42.902  1.00  0.00    -0.329 N 
ATOM      6  H4  UNL     1      33.718 -64.152  43.079  1.00  0.00     0.168 HD
HETATM    7  C13 UNL     1      34.851 -62.594  42.398  1.00  0.00     0.153 A 
HETATM    8  N5  UNL     1      36.057 -63.069  42.032  1.00  0.00    -0.269 N 
ATOM      9  H5  UNL     1      36.355 -64.043  42.085  1.00  0.00     0.190 HD
HETATM   10  N6  UNL     1      36.787 -62.059  41.593  1.00  0.00    -0.240 N 
ATOM     11  H6  UNL     1      37.746 -62.117  41.249  1.00  0.00     0.208 HD
HETATM   12  N7  UNL     1      36.062 -60.968  41.676  1.00  0.00    -0.280 N 
ATOM     13  H7  UNL     1      36.391 -60.043  41.399  1.00  0.00     0.188 HD
HETATM   14  C14 UNL     1      34.846 -61.208  42.166  1.00  0.00     0.124 A 
ENDROOT
BRANCH   1  15
HETATM   15  C3  UNL     1      33.665 -59.001  42.229  1.00  0.00     0.117 A 
HETATM   16  C2  UNL     1      33.644 -57.947  43.090  1.00  0.00     0.174 A 
HETATM   17  N1  UNL     1      33.555 -56.825  42.310  1.00  0.00    -0.287 N 
HETATM   18  C1  UNL     1      33.520 -57.147  41.014  1.00  0.00     0.326 A 
ATOM     19  H1  UNL     1      33.521 -55.872  42.671  1.00  0.00     0.172 HD
HETATM   20  O1  UNL     1      33.440 -56.360  40.014  1.00  0.00    -0.247 OA
HETATM   21  N8  UNL     1      33.588 -58.482  40.976  1.00  0.00    -0.303 N 
ATOM     22  H8  UNL     1      33.583 -59.037  40.120  1.00  0.00     0.171 HD
BRANCH  16  23
HETATM   23  O2  UNL     1      33.700 -57.955  44.475  1.00  0.00    -0.344 OA
ATOM     24  H2  UNL     1      33.309 -58.615  45.036  1.00  0.00     0.219 HD
ENDBRANCH  16  23
ENDBRANCH   1  15
BRANCH   4  25
HETATM   25  C6  UNL     1      31.420 -63.077  43.746  1.00  0.00     0.106 C 
BRANCH  25  26
HETATM   26  C7  UNL     1      31.855 -64.367  44.353  1.00  0.00     0.280 C 
BRANCH  26  27
HETATM   27  N3  UNL     1      31.479 -64.500  45.740  1.00  0.00     0.091 N 
HETATM   28  C8  UNL     1      31.685 -65.885  46.096  1.00  0.00     0.272 C 
HETATM   29  C9  UNL     1      30.945 -66.366  47.280  1.00  0.00     0.033 C 
HETATM   30  C10 UNL     1      30.416 -65.321  48.193  1.00  0.00     0.035 C 
HETATM   31  C11 UNL     1      29.923 -64.083  47.492  1.00  0.00     0.146 C 
HETATM   32  C12 UNL     1      30.116 -64.160  45.994  1.00  0.00     0.303 C 
BRANCH  31  33
HETATM   33  O3  UNL     1      28.587 -63.804  47.742  1.00  0.00    -0.394 OA
ATOM     34  H3  UNL     1      28.457 -63.015  48.255  1.00  0.00     0.210 HD
ENDBRANCH  31  33
ENDBRANCH  26  27
ENDBRANCH  25  26
ENDBRANCH   4  25
TORSDOF 6
ENDMDL
MODEL 5
REMARK VINA RESULT: -9.404765527      0.983      1.541
REMARK  6 active torsions:
REMARK  status: ('A' for Active; 'I' for Inactive)
REMARK    1  A    between atoms: C2_5  and  O2_6 
REMARK    2  A    between atoms: C3_8  and  C4_9 
REMARK    3  A    between atoms: C5_12  and  C6_13 
REMARK    4  A    between atoms: C6_13  and  C7_14 
REMARK    5  A    between atoms: C7_14  and  N3_15 
REMARK    6  A    between atoms: C11_19  and  O3_20 
ROOT
HETATM    1  C4  UNL     1      32.848 -59.276  43.327  1.00  0.00     0.097 A 
HETATM    2  N2  UNL     1      32.570 -60.544  42.923  1.00  0.00    -0.342 N 
ATOM      3  H2  UNL     1      32.895 -60.822  41.996  1.00  0.00     0.167 HD
HETATM    4  C5  UNL     1      31.915 -61.444  43.630  1.00  0.00     0.085 A 
HETATM    5  N4  UNL     1      31.474 -61.110  44.855  1.00  0.00    -0.329 N 
ATOM      6  H4  UNL     1      30.967 -61.802  45.407  1.00  0.00     0.168 HD
HETATM    7  C13 UNL     1      31.685 -59.889  45.368  1.00  0.00     0.153 A 
HETATM    8  N5  UNL     1      31.370 -59.290  46.533  1.00  0.00    -0.269 N 
ATOM      9  H5  UNL     1      30.860 -59.718  47.305  1.00  0.00     0.190 HD
HETATM   10  N6  UNL     1      31.835 -58.053  46.504  1.00  0.00    -0.240 N 
ATOM     11  H6  UNL     1      31.746 -57.361  47.248  1.00  0.00     0.208 HD
HETATM   12  N7  UNL     1      32.433 -57.872  45.348  1.00  0.00    -0.280 N 
ATOM     13  H7  UNL     1      32.880 -56.998  45.070  1.00  0.00     0.188 HD
HETATM   14  C14 UNL     1      32.387 -58.960  44.582  1.00  0.00     0.124 A 
ENDROOT
BRANCH   1  15
HETATM   15  C3  UNL     1      33.578 -58.375  42.458  1.00  0.00     0.117 A 
HETATM   16  C2  UNL     1      34.883 -57.985  42.431  1.00  0.00     0.174 A 
HETATM   17  N1  UNL     1      34.993 -57.114  41.381  1.00  0.00    -0.287 N 
HETATM   18  C1  UNL     1      33.816 -56.953  40.768  1.00  0.00     0.326 A 
ATOM     19  H1  UNL     1      35.857 -56.649  41.103  1.00  0.00     0.172 HD
HETATM   20  O1  UNL     1      33.552 -56.220  39.759  1.00  0.00    -0.247 OA
HETATM   21  N8  UNL     1      32.957 -57.731  41.437  1.00  0.00    -0.303 N 
ATOM     22  H8  UNL     1      31.967 -57.827  41.210  1.00  0.00     0.171 HD
BRANCH  16  23
HETATM   23  O2  UNL     1      35.921 -58.364  43.267  1.00  0.00    -0.344 OA
ATOM     24  H2  UNL     1      36.613 -58.974  43.040  1.00  0.00     0.219 HD
ENDBRANCH  16  23
ENDBRANCH   1  15
BRANCH   4  25
HETATM   25  C6  UNL     1      31.654 -62.830  43.095  1.00  0.00     0.106 C 
BRANCH  25  26
HETATM   26  C7  UNL     1      30.597 -63.444  43.948  1.00  0.00     0.280 C 
BRANCH  26  27
HETATM   27  N3  UNL     1      31.094 -64.491  44.808  1.00  0.00     0.091 N 
HETATM   28  C8  UNL     1      30.615 -65.740  44.262  1.00  0.00     0.272 C 
HETATM   29  C9  UNL     1      30.582 -66.883  45.197  1.00  0.00     0.033 C 
HETATM   30  C10 UNL     1      31.401 -66.749  46.428  1.00  0.00     0.035 C 
HETATM   31  C11 UNL     1      31.430 -65.356  46.999  1.00  0.00     0.146 C 
HETATM   32  C12 UNL     1      30.642 -64.377  46.158  1.00  0.00     0.303 C 
BRANCH  31  33
HETATM   33  O3  UNL     1      30.957 -65.286  48.302  1.00  0.00    -0.394 OA
ATOM     34  H3  UNL     1      30.863 -64.396  48.620  1.00  0.00     0.210 HD
ENDBRANCH  31  33
ENDBRANCH  26  27
ENDBRANCH  25  26
ENDBRANCH   4  25
TORSDOF 6
ENDMDL
