MODEL 1
REMARK VINA RESULT: -7.517132120      0.000      0.000
REMARK  6 active torsions:
REMARK  status: ('A' for Active; 'I' for Inactive)
REMARK    1  A    between atoms: C3_7  and  N3_8 
REMARK    2  A    between atoms: N3_8  and  C4_10 
REMARK    3  A    between atoms: C8_16  and  N5_17 
REMARK    4  A    between atoms: C12_23  and  N7_24 
REMARK    5  A    between atoms: N7_24  and  N8_26 
REMARK    6  A    between atoms: N9_29  and  C13_30 
ROOT
HETATM    1  C1  UNL     1      31.098 -60.883  43.799  1.00  0.00     0.165 C 
HETATM    2  N1  UNL     1      32.090 -59.962  43.326  1.00  0.00    -0.230 N 
ATOM      3  H1  UNL     1      31.868 -58.968  43.375  1.00  0.00     0.177 HD
HETATM    4  C2  UNL     1      33.242 -60.288  42.842  1.00  0.00     0.681 A 
HETATM    5  N2  UNL     1      34.067 -59.271  42.438  1.00  0.00    -0.175 N 
ATOM      6  H2  UNL     1      33.759 -58.301  42.521  1.00  0.00     0.186 HD
HETATM    7  C3  UNL     1      35.274 -59.548  41.937  1.00  0.00     0.148 A 
HETATM    8  C7  UNL     1      35.717 -60.869  41.816  1.00  0.00     0.138 A 
HETATM    9  N4  UNL     1      36.847 -61.413  41.366  1.00  0.00    -0.184 N 
ATOM     10  H4  UNL     1      37.645 -60.891  41.002  1.00  0.00     0.184 HD
HETATM   11  C8  UNL     1      36.778 -62.778  41.467  1.00  0.00     0.687 A 
HETATM   12  N9  UNL     1      35.561 -63.043  41.997  1.00  0.00    -0.160 N 
HETATM   13  C16 UNL     1      34.889 -61.888  42.221  1.00  0.00     0.170 A 
HETATM   14  N10 UNL     1      33.688 -61.548  42.716  1.00  0.00    -0.173 N 
ATOM     15  H10 UNL     1      33.070 -62.301  43.017  1.00  0.00     0.186 HD
ENDROOT
BRANCH  11  16
HETATM   16  N5  UNL     1      37.759 -63.733  41.122  1.00  0.00    -0.192 N 
HETATM   17  C9  UNL     1      38.672 -64.143  42.207  1.00  0.00     0.163 C 
HETATM   18  C10 UNL     1      40.028 -63.589  41.748  1.00  0.00     0.134 C 
HETATM   19  N6  UNL     1      40.341 -64.198  40.498  1.00  0.00    -0.416 N 
HETATM   20  C11 UNL     1      39.424 -63.977  39.430  1.00  0.00     0.162 C 
ATOM     21  H6  UNL     1      41.180 -64.764  40.374  1.00  0.00     0.153 HD
HETATM   22  C12 UNL     1      38.005 -64.347  39.866  1.00  0.00     0.233 C 
BRANCH  22  23
HETATM   23  N7  UNL     1      37.041 -64.195  38.845  1.00  0.00    -0.317 N 
ATOM     24  H7  UNL     1      36.044 -64.242  39.054  1.00  0.00     0.182 HD
BRANCH  23  25
HETATM   25  N8  UNL     1      37.483 -63.984  37.568  1.00  0.00    -0.347 N 
ATOM     26  H82 UNL     1      38.463 -63.758  37.399  1.00  0.00     0.176 HD
ATOM     27  H81 UNL     1      36.808 -64.060  36.807  1.00  0.00     0.176 HD
ENDBRANCH  23  25
ENDBRANCH  22  23
ENDBRANCH  11  16
BRANCH  12  28
HETATM   28  C13 UNL     1      35.045 -64.361  42.303  1.00  0.00     0.110 A 
HETATM   29  C14 UNL     1      34.041 -64.615  43.332  1.00  0.00     0.028 A 
HETATM   30  C15 UNL     1      35.459 -65.094  43.507  1.00  0.00     0.028 A 
ENDBRANCH  12  28
BRANCH   7  31
HETATM   31  N3  UNL     1      36.063 -58.633  41.539  1.00  0.00    -0.370 N 
ATOM     32  H3  UNL     1      36.799 -58.351  42.187  1.00  0.00     0.161 HD
BRANCH  31  33
HETATM   33  C4  UNL     1      36.025 -57.956  40.275  1.00  0.00     0.075 C 
HETATM   34  C5  UNL     1      37.382 -57.334  39.939  1.00  0.00     0.031 C 
HETATM   35  C6  UNL     1      35.024 -56.819  40.255  1.00  0.00     0.031 C 
ENDBRANCH  31  33
ENDBRANCH   7  31
TORSDOF 6
ENDMDL
MODEL 2
REMARK VINA RESULT: -7.275199079      1.747      6.105
REMARK  6 active torsions:
REMARK  status: ('A' for Active; 'I' for Inactive)
REMARK    1  A    between atoms: C3_7  and  N3_8 
REMARK    2  A    between atoms: N3_8  and  C4_10 
REMARK    3  A    between atoms: C8_16  and  N5_17 
REMARK    4  A    between atoms: C12_23  and  N7_24 
REMARK    5  A    between atoms: N7_24  and  N8_26 
REMARK    6  A    between atoms: N9_29  and  C13_30 
ROOT
HETATM    1  C1  UNL     1      33.789 -66.455  43.925  1.00  0.00     0.165 C 
HETATM    2  N1  UNL     1      35.072 -65.971  43.510  1.00  0.00    -0.230 N 
ATOM      3  H1  UNL     1      35.856 -66.623  43.553  1.00  0.00     0.177 HD
HETATM    4  C2  UNL     1      35.319 -64.777  43.086  1.00  0.00     0.681 A 
HETATM    5  N2  UNL     1      36.611 -64.489  42.729  1.00  0.00    -0.175 N 
ATOM      6  H2  UNL     1      37.334 -65.204  42.810  1.00  0.00     0.186 HD
HETATM    7  C3  UNL     1      36.923 -63.271  42.276  1.00  0.00     0.148 A 
HETATM    8  C7  UNL     1      35.949 -62.276  42.157  1.00  0.00     0.138 A 
HETATM    9  N4  UNL     1      35.986 -61.010  41.740  1.00  0.00    -0.184 N 
ATOM     10  H4  UNL     1      36.821 -60.525  41.411  1.00  0.00     0.184 HD
HETATM   11  C8  UNL     1      34.733 -60.459  41.819  1.00  0.00     0.687 A 
HETATM   12  N9  UNL     1      33.933 -61.439  42.299  1.00  0.00    -0.160 N 
HETATM   13  C16 UNL     1      34.655 -62.565  42.515  1.00  0.00     0.170 A 
HETATM   14  N10 UNL     1      34.401 -63.805  42.964  1.00  0.00    -0.173 N 
ATOM     15  H10 UNL     1      33.442 -64.024  43.231  1.00  0.00     0.186 HD
ENDROOT
BRANCH  11  16
HETATM   16  N5  UNL     1      34.326 -59.155  41.460  1.00  0.00    -0.192 N 
HETATM   17  C9  UNL     1      34.076 -58.928  40.023  1.00  0.00     0.163 C 
HETATM   18  C10 UNL     1      35.193 -57.952  39.627  1.00  0.00     0.134 C 
HETATM   19  N6  UNL     1      35.034 -56.773  40.413  1.00  0.00    -0.416 N 
HETATM   20  C11 UNL     1      35.108 -56.931  41.827  1.00  0.00     0.162 C 
ATOM     21  H6  UNL     1      34.874 -55.861  39.984  1.00  0.00     0.153 HD
HETATM   22  C12 UNL     1      34.137 -58.019  42.290  1.00  0.00     0.233 C 
BRANCH  22  23
HETATM   23  N7  UNL     1      34.122 -58.206  43.689  1.00  0.00    -0.317 N 
ATOM     24  H7  UNL     1      34.879 -58.702  44.160  1.00  0.00     0.182 HD
BRANCH  23  25
HETATM   25  N8  UNL     1      33.065 -57.703  44.396  1.00  0.00    -0.347 N 
ATOM     26  H82 UNL     1      32.910 -56.695  44.432  1.00  0.00     0.176 HD
ATOM     27  H81 UNL     1      32.451 -58.360  44.877  1.00  0.00     0.176 HD
ENDBRANCH  23  25
ENDBRANCH  22  23
ENDBRANCH  11  16
BRANCH  12  28
HETATM   28  C13 UNL     1      32.509 -61.323  42.535  1.00  0.00     0.110 A 
HETATM   29  C14 UNL     1      31.934 -60.938  43.820  1.00  0.00     0.028 A 
HETATM   30  C15 UNL     1      31.764 -62.338  43.290  1.00  0.00     0.028 A 
ENDBRANCH  12  28
BRANCH   7  31
HETATM   31  N3  UNL     1      38.113 -62.961  41.947  1.00  0.00    -0.370 N 
ATOM     32  H3  UNL     1      38.316 -61.966  41.851  1.00  0.00     0.161 HD
BRANCH  31  33
HETATM   33  C4  UNL     1      39.198 -63.866  41.698  1.00  0.00     0.075 C 
HETATM   34  C5  UNL     1      40.506 -63.338  42.290  1.00  0.00     0.031 C 
HETATM   35  C6  UNL     1      39.456 -64.069  40.219  1.00  0.00     0.031 C 
ENDBRANCH  31  33
ENDBRANCH   7  31
TORSDOF 6
ENDMDL
MODEL 3
REMARK VINA RESULT: -7.161807022      3.993      5.525
REMARK  6 active torsions:
REMARK  status: ('A' for Active; 'I' for Inactive)
REMARK    1  A    between atoms: C3_7  and  N3_8 
REMARK    2  A    between atoms: N3_8  and  C4_10 
REMARK    3  A    between atoms: C8_16  and  N5_17 
REMARK    4  A    between atoms: C12_23  and  N7_24 
REMARK    5  A    between atoms: N7_24  and  N8_26 
REMARK    6  A    between atoms: N9_29  and  C13_30 
ROOT
HETATM    1  C1  UNL     1      30.964 -58.110  47.850  1.00  0.00     0.165 C 
HETATM    2  N1  UNL     1      31.666 -57.865  46.625  1.00  0.00    -0.230 N 
ATOM      3  H1  UNL     1      32.027 -56.923  46.472  1.00  0.00     0.177 HD
HETATM    4  C2  UNL     1      31.878 -58.738  45.698  1.00  0.00     0.681 A 
HETATM    5  N2  UNL     1      32.571 -58.325  44.590  1.00  0.00    -0.175 N 
ATOM      6  H2  UNL     1      32.892 -57.359  44.519  1.00  0.00     0.186 HD
HETATM    7  C3  UNL     1      32.827 -59.188  43.602  1.00  0.00     0.148 A 
HETATM    8  C7  UNL     1      32.399 -60.516  43.678  1.00  0.00     0.138 A 
HETATM    9  N4  UNL     1      32.520 -61.560  42.858  1.00  0.00    -0.184 N 
ATOM     10  H4  UNL     1      32.993 -61.545  41.955  1.00  0.00     0.184 HD
HETATM   11  C8  UNL     1      31.913 -62.658  43.412  1.00  0.00     0.687 A 
HETATM   12  N9  UNL     1      31.419 -62.240  44.601  1.00  0.00    -0.160 N 
HETATM   13  C16 UNL     1      31.703 -60.929  44.788  1.00  0.00     0.170 A 
HETATM   14  N10 UNL     1      31.476 -60.017  45.748  1.00  0.00    -0.173 N 
ATOM     15  H10 UNL     1      30.960 -60.319  46.574  1.00  0.00     0.186 HD
ENDROOT
BRANCH  11  16
HETATM   16  N5  UNL     1      31.824 -63.967  42.889  1.00  0.00    -0.192 N 
HETATM   17  C9  UNL     1      30.486 -64.394  42.438  1.00  0.00     0.163 C 
HETATM   18  C10 UNL     1      30.119 -65.501  43.436  1.00  0.00     0.134 C 
HETATM   19  N6  UNL     1      31.100 -66.529  43.320  1.00  0.00    -0.416 N 
HETATM   20  C11 UNL     1      32.449 -66.160  43.592  1.00  0.00     0.162 C 
ATOM     21  H6  UNL     1      30.849 -67.481  43.054  1.00  0.00     0.153 HD
HETATM   22  C12 UNL     1      32.845 -64.943  42.752  1.00  0.00     0.233 C 
BRANCH  22  23
HETATM   23  N7  UNL     1      34.187 -64.542  42.936  1.00  0.00    -0.317 N 
ATOM     24  H7  UNL     1      34.501 -63.617  42.646  1.00  0.00     0.182 HD
BRANCH  23  25
HETATM   25  N8  UNL     1      35.053 -65.430  43.512  1.00  0.00    -0.347 N 
ATOM     26  H82 UNL     1      35.534 -66.120  42.935  1.00  0.00     0.176 HD
ATOM     27  H81 UNL     1      35.197 -65.377  44.520  1.00  0.00     0.176 HD
ENDBRANCH  23  25
ENDBRANCH  22  23
ENDBRANCH  11  16
BRANCH  12  28
HETATM   28  C13 UNL     1      30.705 -63.066  45.552  1.00  0.00     0.110 A 
HETATM   29  C14 UNL     1      30.812 -62.905  46.999  1.00  0.00     0.028 A 
HETATM   30  C15 UNL     1      31.379 -64.124  46.318  1.00  0.00     0.028 A 
ENDBRANCH  12  28
BRANCH   7  31
HETATM   31  N3  UNL     1      33.456 -58.839  42.552  1.00  0.00    -0.370 N 
ATOM     32  H3  UNL     1      33.528 -59.536  41.811  1.00  0.00     0.161 HD
BRANCH  31  33
HETATM   33  C4  UNL     1      34.074 -57.569  42.303  1.00  0.00     0.075 C 
HETATM   34  C5  UNL     1      33.546 -56.941  41.012  1.00  0.00     0.031 C 
HETATM   35  C6  UNL     1      35.576 -57.677  42.136  1.00  0.00     0.031 C 
ENDBRANCH  31  33
ENDBRANCH   7  31
TORSDOF 6
ENDMDL
MODEL 4
REMARK VINA RESULT: -7.133119032      1.774      5.961
REMARK  6 active torsions:
REMARK  status: ('A' for Active; 'I' for Inactive)
REMARK    1  A    between atoms: C3_7  and  N3_8 
REMARK    2  A    between atoms: N3_8  and  C4_10 
REMARK    3  A    between atoms: C8_16  and  N5_17 
REMARK    4  A    between atoms: C12_23  and  N7_24 
REMARK    5  A    between atoms: N7_24  and  N8_26 
REMARK    6  A    between atoms: N9_29  and  C13_30 
ROOT
HETATM    1  C1  UNL     1      33.814 -66.385  42.576  1.00  0.00     0.165 C 
HETATM    2  N1  UNL     1      35.164 -65.934  42.406  1.00  0.00    -0.230 N 
ATOM      3  H1  UNL     1      35.893 -66.646  42.353  1.00  0.00     0.177 HD
HETATM    4  C2  UNL     1      35.534 -64.701  42.315  1.00  0.00     0.681 A 
HETATM    5  N2  UNL     1      36.873 -64.454  42.154  1.00  0.00    -0.175 N 
ATOM      6  H2  UNL     1      37.533 -65.231  42.116  1.00  0.00     0.186 HD
HETATM    7  C3  UNL     1      37.312 -63.198  42.046  1.00  0.00     0.148 A 
HETATM    8  C7  UNL     1      36.426 -62.118  42.094  1.00  0.00     0.138 A 
HETATM    9  N4  UNL     1      36.592 -60.798  42.009  1.00  0.00    -0.184 N 
ATOM     10  H4  UNL     1      37.487 -60.327  41.885  1.00  0.00     0.184 HD
HETATM   11  C8  UNL     1      35.378 -60.170  42.114  1.00  0.00     0.687 A 
HETATM   12  N9  UNL     1      34.467 -61.160  42.265  1.00  0.00    -0.160 N 
HETATM   13  C16 UNL     1      35.084 -62.366  42.256  1.00  0.00     0.170 A 
HETATM   14  N10 UNL     1      34.702 -63.649  42.359  1.00  0.00    -0.173 N 
ATOM     15  H10 UNL     1      33.707 -63.838  42.480  1.00  0.00     0.186 HD
ENDROOT
BRANCH  11  16
HETATM   16  N5  UNL     1      35.099 -58.787  42.057  1.00  0.00    -0.192 N 
HETATM   17  C9  UNL     1      34.972 -58.098  43.356  1.00  0.00     0.163 C 
HETATM   18  C10 UNL     1      33.489 -57.702  43.395  1.00  0.00     0.134 C 
HETATM   19  N6  UNL     1      33.244 -56.843  42.284  1.00  0.00    -0.416 N 
HETATM   20  C11 UNL     1      33.491 -57.384  40.989  1.00  0.00     0.162 C 
ATOM     21  H6  UNL     1      32.908 -55.888  42.410  1.00  0.00     0.153 HD
HETATM   22  C12 UNL     1      34.906 -57.962  40.918  1.00  0.00     0.233 C 
BRANCH  22  23
HETATM   23  N7  UNL     1      35.242 -58.481  39.649  1.00  0.00    -0.317 N 
ATOM     24  H7  UNL     1      34.652 -59.179  39.196  1.00  0.00     0.182 HD
BRANCH  23  25
HETATM   25  N8  UNL     1      36.379 -58.022  39.044  1.00  0.00    -0.347 N 
ATOM     26  H82 UNL     1      37.159 -57.691  39.611  1.00  0.00     0.176 HD
ATOM     27  H81 UNL     1      36.416 -58.024  38.024  1.00  0.00     0.176 HD
ENDBRANCH  23  25
ENDBRANCH  22  23
ENDBRANCH  11  16
BRANCH  12  28
HETATM   28  C13 UNL     1      33.037 -60.974  42.398  1.00  0.00     0.110 A 
HETATM   29  C14 UNL     1      32.323 -61.103  43.665  1.00  0.00     0.028 A 
HETATM   30  C15 UNL     1      32.121 -62.110  42.563  1.00  0.00     0.028 A 
ENDBRANCH  12  28
BRANCH   7  31
HETATM   31  N3  UNL     1      38.549 -62.927  41.909  1.00  0.00    -0.370 N 
ATOM     32  H3  UNL     1      38.805 -61.940  41.925  1.00  0.00     0.161 HD
BRANCH  31  33
HETATM   33  C4  UNL     1      39.618 -63.867  41.734  1.00  0.00     0.075 C 
HETATM   34  C5  UNL     1      40.908 -63.366  42.387  1.00  0.00     0.031 C 
HETATM   35  C6  UNL     1      39.950 -64.104  40.274  1.00  0.00     0.031 C 
ENDBRANCH  31  33
ENDBRANCH   7  31
TORSDOF 6
ENDMDL
MODEL 5
REMARK VINA RESULT: -7.083956151      2.945      6.044
REMARK  6 active torsions:
REMARK  status: ('A' for Active; 'I' for Inactive)
REMARK    1  A    between atoms: C3_7  and  N3_8 
REMARK    2  A    between atoms: N3_8  and  C4_10 
REMARK    3  A    between atoms: C8_16  and  N5_17 
REMARK    4  A    between atoms: C12_23  and  N7_24 
REMARK    5  A    between atoms: N7_24  and  N8_26 
REMARK    6  A    between atoms: N9_29  and  C13_30 
ROOT
HETATM    1  C1  UNL     1      38.338 -63.602  41.285  1.00  0.00     0.165 C 
HETATM    2  N1  UNL     1      37.468 -62.464  41.255  1.00  0.00    -0.230 N 
ATOM      3  H1  UNL     1      37.820 -61.617  40.809  1.00  0.00     0.177 HD
HETATM    4  C2  UNL     1      36.274 -62.422  41.746  1.00  0.00     0.681 A 
HETATM    5  N2  UNL     1      35.584 -61.244  41.624  1.00  0.00    -0.175 N 
ATOM      6  H2  UNL     1      36.018 -60.444  41.165  1.00  0.00     0.186 HD
HETATM    7  C3  UNL     1      34.342 -61.146  42.107  1.00  0.00     0.148 A 
HETATM    8  C7  UNL     1      33.727 -62.231  42.738  1.00  0.00     0.138 A 
HETATM    9  N4  UNL     1      32.526 -62.402  43.292  1.00  0.00    -0.184 N 
ATOM     10  H4  UNL     1      31.798 -61.689  43.345  1.00  0.00     0.184 HD
HETATM   11  C8  UNL     1      32.417 -63.678  43.779  1.00  0.00     0.687 A 
HETATM   12  N9  UNL     1      33.598 -64.278  43.499  1.00  0.00    -0.160 N 
HETATM   13  C16 UNL     1      34.420 -63.411  42.860  1.00  0.00     0.170 A 
HETATM   14  N10 UNL     1      35.664 -63.450  42.356  1.00  0.00    -0.173 N 
ATOM     15  H10 UNL     1      36.183 -64.323  42.445  1.00  0.00     0.186 HD
ENDROOT
BRANCH  11  16
HETATM   16  N5  UNL     1      31.312 -64.280  44.421  1.00  0.00    -0.192 N 
HETATM   17  C9  UNL     1      31.035 -63.822  45.796  1.00  0.00     0.163 C 
HETATM   18  C10 UNL     1      31.336 -65.066  46.643  1.00  0.00     0.134 C 
HETATM   19  N6  UNL     1      30.456 -66.103  46.214  1.00  0.00    -0.416 N 
HETATM   20  C11 UNL     1      30.554 -66.502  44.850  1.00  0.00     0.162 C 
ATOM     21  H6  UNL     1      29.790 -66.538  46.852  1.00  0.00     0.153 HD
HETATM   22  C12 UNL     1      30.434 -65.283  43.932  1.00  0.00     0.233 C 
BRANCH  22  23
HETATM   23  N7  UNL     1      30.479 -65.603  42.558  1.00  0.00    -0.317 N 
ATOM     24  H7  UNL     1      30.149 -64.942  41.855  1.00  0.00     0.182 HD
BRANCH  23  25
HETATM   25  N8  UNL     1      30.977 -66.824  42.195  1.00  0.00    -0.347 N 
ATOM     26  H82 UNL     1      31.467 -66.931  41.307  1.00  0.00     0.176 HD
ATOM     27  H81 UNL     1      30.843 -67.608  42.834  1.00  0.00     0.176 HD
ENDBRANCH  23  25
ENDBRANCH  22  23
ENDBRANCH  11  16
BRANCH  12  28
HETATM   28  C13 UNL     1      33.940 -65.649  43.812  1.00  0.00     0.110 A 
HETATM   29  C14 UNL     1      35.314 -66.136  43.902  1.00  0.00     0.028 A 
HETATM   30  C15 UNL     1      34.411 -66.585  42.782  1.00  0.00     0.028 A 
ENDBRANCH  12  28
BRANCH   7  31
HETATM   31  N3  UNL     1      33.673 -60.066  42.025  1.00  0.00    -0.370 N 
ATOM     32  H3  UNL     1      32.748 -60.133  41.600  1.00  0.00     0.161 HD
BRANCH  31  33
HETATM   33  C4  UNL     1      34.084 -58.766  42.469  1.00  0.00     0.075 C 
HETATM   34  C5  UNL     1      33.302 -58.331  43.709  1.00  0.00     0.031 C 
HETATM   35  C6  UNL     1      33.848 -57.694  41.424  1.00  0.00     0.031 C 
ENDBRANCH  31  33
ENDBRANCH   7  31
TORSDOF 6
ENDMDL
