MODEL 1
REMARK VINA RESULT: -7.105061170      0.000      0.000
REMARK  7 active torsions:
REMARK  status: ('A' for Active; 'I' for Inactive)
REMARK    1  A    between atoms: C2_2  and  C3_3 
REMARK    2  A    between atoms: C3_3  and  N1_4 
REMARK    3  A    between atoms: C9_14  and  N4_15 
REMARK    4  A    between atoms: C10_20  and  N6_21 
REMARK    5  A    between atoms: N7_24  and  C13_25 
REMARK    6  A    between atoms: C13_25  and  C14_26 
REMARK    7  A    between atoms: C14_26  and  O1_27 
ROOT
HETATM    1  N1  UNL     1     -22.644  28.097   7.571  1.00  0.00    -0.316 N 
HETATM    2  C4  UNL     1     -22.458  27.453   8.745  1.00  0.00     0.137 A 
HETATM    3  N2  UNL     1     -22.758  26.370   9.466  1.00  0.00    -0.284 N 
ATOM      4  H2  UNL     1     -23.368  25.615   9.151  1.00  0.00     0.188 HD
HETATM    5  N3  UNL     1     -22.159  26.410  10.641  1.00  0.00    -0.303 N 
ATOM      6  H3  UNL     1     -22.240  25.692  11.360  1.00  0.00     0.186 HD
HETATM    7  C5  UNL     1     -21.415  27.547  10.756  1.00  0.00     0.037 A 
HETATM    8  C6  UNL     1     -20.603  27.954  11.919  1.00  0.00     0.070 C 
HETATM    9  C7  UNL     1     -21.604  28.205   9.559  1.00  0.00     0.051 A 
HETATM   10  C8  UNL     1     -21.293  29.322   8.818  1.00  0.00     0.069 A 
HETATM   11  C9  UNL     1     -20.507  30.392   9.100  1.00  0.00     0.130 A 
HETATM   12  N5  UNL     1     -20.378  31.369   8.161  1.00  0.00    -0.175 N 
ATOM     13  H5  UNL     1     -19.789  32.175   8.369  1.00  0.00     0.186 HD
HETATM   14  C10 UNL     1     -20.998  31.314   6.968  1.00  0.00     0.700 A 
HETATM   15  N9  UNL     1     -21.777  30.235   6.710  1.00  0.00    -0.174 N 
ATOM     16  H9  UNL     1     -22.256  30.175   5.811  1.00  0.00     0.186 HD
HETATM   17  C15 UNL     1     -21.938  29.242   7.602  1.00  0.00     0.140 A 
ENDROOT
BRANCH  14  18
HETATM   18  N6  UNL     1     -20.858  32.338   5.990  1.00  0.00    -0.111 N 
HETATM   19  C11 UNL     1     -21.893  32.739   5.083  1.00  0.00     0.181 C 
HETATM   20  C12 UNL     1     -21.230  33.882   4.325  1.00  0.00     0.133 C 
HETATM   21  N7  UNL     1     -19.843  33.688   4.573  1.00  0.00    -0.210 NA
HETATM   22  N8  UNL     1     -19.721  33.075   5.777  1.00  0.00    -0.031 NA
BRANCH  21  23
HETATM   23  C13 UNL     1     -19.089  33.189   3.478  1.00  0.00     0.137 C 
BRANCH  23  24
HETATM   24  C14 UNL     1     -17.730  33.871   3.419  1.00  0.00     0.180 C 
BRANCH  24  25
HETATM   25  O1  UNL     1     -16.949  33.532   4.540  1.00  0.00    -0.400 OA
ATOM     26  H1  UNL     1     -17.040  34.183   5.226  1.00  0.00     0.209 HD
ENDBRANCH  24  25
ENDBRANCH  23  24
ENDBRANCH  21  23
ENDBRANCH  14  18
BRANCH  11  27
HETATM   27  N4  UNL     1     -19.864  30.566  10.191  1.00  0.00    -0.384 N 
ATOM     28  H42 UNL     1     -19.980  31.472  10.645  1.00  0.00     0.157 HD
ATOM     29  H41 UNL     1     -19.256  29.875  10.631  1.00  0.00     0.157 HD
ENDBRANCH  11  27
BRANCH   1  30
HETATM   30  C3  UNL     1     -23.438  27.692   6.436  1.00  0.00     0.132 C 
BRANCH  30  31
HETATM   31  C2  UNL     1     -24.681  28.540   6.270  1.00  0.00     0.016 C 
HETATM   32  C1  UNL     1     -25.656  27.902   5.297  1.00  0.00     0.006 C 
ENDBRANCH  30  31
ENDBRANCH   1  30
TORSDOF 7
ENDMDL
MODEL 2
REMARK VINA RESULT: -6.870975500      2.574      5.934
REMARK  7 active torsions:
REMARK  status: ('A' for Active; 'I' for Inactive)
REMARK    1  A    between atoms: C2_2  and  C3_3 
REMARK    2  A    between atoms: C3_3  and  N1_4 
REMARK    3  A    between atoms: C9_14  and  N4_15 
REMARK    4  A    between atoms: C10_20  and  N6_21 
REMARK    5  A    between atoms: N7_24  and  C13_25 
REMARK    6  A    between atoms: C13_25  and  C14_26 
REMARK    7  A    between atoms: C14_26  and  O1_27 
ROOT
HETATM    1  N1  UNL     1     -21.965  30.749   6.993  1.00  0.00    -0.316 N 
HETATM    2  C4  UNL     1     -22.889  29.991   6.362  1.00  0.00     0.137 A 
HETATM    3  N2  UNL     1     -23.744  29.922   5.339  1.00  0.00    -0.284 N 
ATOM      4  H2  UNL     1     -23.884  30.661   4.650  1.00  0.00     0.188 HD
HETATM    5  N3  UNL     1     -24.384  28.767   5.342  1.00  0.00    -0.303 N 
ATOM      6  H3  UNL     1     -25.086  28.489   4.657  1.00  0.00     0.186 HD
HETATM    7  C5  UNL     1     -23.973  27.999   6.390  1.00  0.00     0.037 A 
HETATM    8  C6  UNL     1     -24.454  26.647   6.734  1.00  0.00     0.070 C 
HETATM    9  C7  UNL     1     -23.030  28.771   7.035  1.00  0.00     0.051 A 
HETATM   10  C8  UNL     1     -22.149  28.840   8.090  1.00  0.00     0.069 A 
HETATM   11  C9  UNL     1     -21.858  27.949   9.071  1.00  0.00     0.130 A 
HETATM   12  N5  UNL     1     -20.926  28.290  10.003  1.00  0.00    -0.175 N 
ATOM     13  H5  UNL     1     -20.705  27.623  10.743  1.00  0.00     0.186 HD
HETATM   14  C10 UNL     1     -20.284  29.472   9.987  1.00  0.00     0.700 A 
HETATM   15  N9  UNL     1     -20.592  30.345   8.996  1.00  0.00    -0.174 N 
ATOM     16  H9  UNL     1     -20.116  31.247   8.967  1.00  0.00     0.186 HD
HETATM   17  C15 UNL     1     -21.504  30.058   8.051  1.00  0.00     0.140 A 
ENDROOT
BRANCH  14  18
HETATM   18  N6  UNL     1     -19.309  29.823  10.963  1.00  0.00    -0.111 N 
HETATM   19  C11 UNL     1     -19.002  29.036  12.120  1.00  0.00     0.181 C 
HETATM   20  C12 UNL     1     -17.874  29.834  12.761  1.00  0.00     0.133 C 
HETATM   21  N7  UNL     1     -17.995  31.120  12.167  1.00  0.00    -0.210 NA
HETATM   22  N8  UNL     1     -18.537  30.956  10.934  1.00  0.00    -0.031 NA
BRANCH  21  23
HETATM   23  C13 UNL     1     -18.519  32.137  13.009  1.00  0.00     0.137 C 
BRANCH  23  24
HETATM   24  C14 UNL     1     -19.990  32.372  12.699  1.00  0.00     0.180 C 
BRANCH  24  25
HETATM   25  O1  UNL     1     -20.140  33.285  11.639  1.00  0.00    -0.400 OA
ATOM     26  H1  UNL     1     -19.315  33.712  11.440  1.00  0.00     0.209 HD
ENDBRANCH  24  25
ENDBRANCH  23  24
ENDBRANCH  21  23
ENDBRANCH  14  18
BRANCH  11  27
HETATM   27  N4  UNL     1     -22.392  26.795   9.200  1.00  0.00    -0.384 N 
ATOM     28  H42 UNL     1     -21.853  26.005   8.848  1.00  0.00     0.157 HD
ATOM     29  H41 UNL     1     -23.303  26.614   9.622  1.00  0.00     0.157 HD
ENDBRANCH  11  27
BRANCH   1  30
HETATM   30  C3  UNL     1     -21.497  32.070   6.651  1.00  0.00     0.132 C 
BRANCH  30  31
HETATM   31  C2  UNL     1     -20.400  32.043   5.609  1.00  0.00     0.016 C 
HETATM   32  C1  UNL     1     -20.934  32.409   4.237  1.00  0.00     0.006 C 
ENDBRANCH  30  31
ENDBRANCH   1  30
TORSDOF 7
ENDMDL
MODEL 3
REMARK VINA RESULT: -6.852909549      3.241      6.238
REMARK  7 active torsions:
REMARK  status: ('A' for Active; 'I' for Inactive)
REMARK    1  A    between atoms: C2_2  and  C3_3 
REMARK    2  A    between atoms: C3_3  and  N1_4 
REMARK    3  A    between atoms: C9_14  and  N4_15 
REMARK    4  A    between atoms: C10_20  and  N6_21 
REMARK    5  A    between atoms: N7_24  and  C13_25 
REMARK    6  A    between atoms: C13_25  and  C14_26 
REMARK    7  A    between atoms: C14_26  and  O1_27 
ROOT
HETATM    1  N1  UNL     1     -21.473  30.795   7.368  1.00  0.00    -0.316 N 
HETATM    2  C4  UNL     1     -22.327  29.978   6.711  1.00  0.00     0.137 A 
HETATM    3  N2  UNL     1     -23.075  29.820   5.617  1.00  0.00    -0.284 N 
ATOM      4  H2  UNL     1     -23.148  30.501   4.861  1.00  0.00     0.188 HD
HETATM    5  N3  UNL     1     -23.708  28.661   5.648  1.00  0.00    -0.303 N 
ATOM      6  H3  UNL     1     -24.337  28.323   4.920  1.00  0.00     0.186 HD
HETATM    7  C5  UNL     1     -23.401  27.983   6.790  1.00  0.00     0.037 A 
HETATM    8  C6  UNL     1     -23.909  26.657   7.190  1.00  0.00     0.070 C 
HETATM    9  C7  UNL     1     -22.530  28.814   7.461  1.00  0.00     0.051 A 
HETATM   10  C8  UNL     1     -21.759  28.976   8.590  1.00  0.00     0.069 A 
HETATM   11  C9  UNL     1     -21.565  28.168   9.663  1.00  0.00     0.130 A 
HETATM   12  N5  UNL     1     -20.732  28.593  10.653  1.00  0.00    -0.175 N 
ATOM     13  H5  UNL     1     -20.584  27.989  11.462  1.00  0.00     0.186 HD
HETATM   14  C10 UNL     1     -20.097  29.777  10.607  1.00  0.00     0.700 A 
HETATM   15  N9  UNL     1     -20.306  30.566   9.524  1.00  0.00    -0.174 N 
ATOM     16  H9  UNL     1     -19.833  31.468   9.471  1.00  0.00     0.186 HD
HETATM   17  C15 UNL     1     -21.118  30.195   8.519  1.00  0.00     0.140 A 
ENDROOT
BRANCH  14  18
HETATM   18  N6  UNL     1     -19.225  30.214  11.645  1.00  0.00    -0.111 N 
HETATM   19  C11 UNL     1     -19.300  31.497  12.278  1.00  0.00     0.181 C 
HETATM   20  C12 UNL     1     -18.197  31.402  13.325  1.00  0.00     0.133 C 
HETATM   21  N7  UNL     1     -17.395  30.319  12.869  1.00  0.00    -0.210 NA
HETATM   22  N8  UNL     1     -18.199  29.475  12.175  1.00  0.00    -0.031 NA
BRANCH  21  23
HETATM   23  C13 UNL     1     -16.142  30.679  12.308  1.00  0.00     0.137 C 
BRANCH  23  24
HETATM   24  C14 UNL     1     -15.008  30.044  13.099  1.00  0.00     0.180 C 
BRANCH  24  25
HETATM   25  O1  UNL     1     -15.511  29.233  14.134  1.00  0.00    -0.400 OA
ATOM     26  H1  UNL     1     -14.803  28.869  14.653  1.00  0.00     0.209 HD
ENDBRANCH  24  25
ENDBRANCH  23  24
ENDBRANCH  21  23
ENDBRANCH  14  18
BRANCH  11  27
HETATM   27  N4  UNL     1     -22.106  27.022   9.829  1.00  0.00    -0.384 N 
ATOM     28  H42 UNL     1     -22.700  26.917  10.651  1.00  0.00     0.157 HD
ATOM     29  H41 UNL     1     -21.987  26.222   9.209  1.00  0.00     0.157 HD
ENDBRANCH  11  27
BRANCH   1  30
HETATM   30  C3  UNL     1     -20.978  32.090   6.970  1.00  0.00     0.132 C 
BRANCH  30  31
HETATM   31  C2  UNL     1     -19.974  32.003   5.841  1.00  0.00     0.016 C 
HETATM   32  C1  UNL     1     -20.584  32.453   4.527  1.00  0.00     0.006 C 
ENDBRANCH  30  31
ENDBRANCH   1  30
TORSDOF 7
ENDMDL
MODEL 4
REMARK VINA RESULT: -6.603148680      3.574      5.820
REMARK  7 active torsions:
REMARK  status: ('A' for Active; 'I' for Inactive)
REMARK    1  A    between atoms: C2_2  and  C3_3 
REMARK    2  A    between atoms: C3_3  and  N1_4 
REMARK    3  A    between atoms: C9_14  and  N4_15 
REMARK    4  A    between atoms: C10_20  and  N6_21 
REMARK    5  A    between atoms: N7_24  and  C13_25 
REMARK    6  A    between atoms: C13_25  and  C14_26 
REMARK    7  A    between atoms: C14_26  and  O1_27 
ROOT
HETATM    1  N1  UNL     1     -19.951  30.607  11.698  1.00  0.00    -0.316 N 
HETATM    2  C4  UNL     1     -19.756  31.437  12.747  1.00  0.00     0.137 A 
HETATM    3  N2  UNL     1     -19.224  31.566  13.965  1.00  0.00    -0.284 N 
ATOM      4  H2  UNL     1     -18.718  30.829  14.457  1.00  0.00     0.188 HD
HETATM    5  N3  UNL     1     -19.441  32.777  14.444  1.00  0.00    -0.303 N 
ATOM      6  H3  UNL     1     -19.128  33.106  15.357  1.00  0.00     0.186 HD
HETATM    7  C5  UNL     1     -20.143  33.524  13.546  1.00  0.00     0.037 A 
HETATM    8  C6  UNL     1     -20.580  34.923  13.714  1.00  0.00     0.070 C 
HETATM    9  C7  UNL     1     -20.343  32.678  12.475  1.00  0.00     0.051 A 
HETATM   10  C8  UNL     1     -20.892  32.547  11.220  1.00  0.00     0.069 A 
HETATM   11  C9  UNL     1     -21.581  33.427  10.449  1.00  0.00     0.130 A 
HETATM   12  N5  UNL     1     -22.015  33.017   9.226  1.00  0.00    -0.175 N 
ATOM     13  H5  UNL     1     -22.534  33.676   8.644  1.00  0.00     0.186 HD
HETATM   14  C10 UNL     1     -21.787  31.779   8.753  1.00  0.00     0.700 A 
HETATM   15  N9  UNL     1     -21.096  30.919   9.541  1.00  0.00    -0.174 N 
ATOM     16  H9  UNL     1     -20.913  29.975   9.201  1.00  0.00     0.186 HD
HETATM   17  C15 UNL     1     -20.645  31.272  10.757  1.00  0.00     0.140 A 
ENDROOT
BRANCH  14  18
HETATM   18  N6  UNL     1     -22.242  31.358   7.472  1.00  0.00    -0.111 N 
HETATM   19  C11 UNL     1     -23.075  32.142   6.610  1.00  0.00     0.181 C 
HETATM   20  C12 UNL     1     -23.195  31.249   5.381  1.00  0.00     0.133 C 
HETATM   21  N7  UNL     1     -22.816  29.965   5.862  1.00  0.00    -0.210 NA
HETATM   22  N8  UNL     1     -21.951  30.149   6.891  1.00  0.00    -0.031 NA
BRANCH  21  23
HETATM   23  C13 UNL     1     -23.875  29.034   6.024  1.00  0.00     0.137 C 
BRANCH  23  24
HETATM   24  C14 UNL     1     -23.408  27.841   6.844  1.00  0.00     0.180 C 
BRANCH  24  25
HETATM   25  O1  UNL     1     -24.143  26.687   6.516  1.00  0.00    -0.400 OA
ATOM     26  H1  UNL     1     -24.604  26.351   7.276  1.00  0.00     0.209 HD
ENDBRANCH  24  25
ENDBRANCH  23  24
ENDBRANCH  21  23
ENDBRANCH  14  18
BRANCH  11  27
HETATM   27  N4  UNL     1     -21.863  34.630  10.778  1.00  0.00    -0.384 N 
ATOM     28  H42 UNL     1     -21.260  35.061  11.478  1.00  0.00     0.157 HD
ATOM     29  H41 UNL     1     -22.635  35.177  10.396  1.00  0.00     0.157 HD
ENDBRANCH  11  27
BRANCH   1  30
HETATM   30  C3  UNL     1     -19.519  29.239  11.539  1.00  0.00     0.132 C 
BRANCH  30  31
HETATM   31  C2  UNL     1     -20.387  28.266  12.307  1.00  0.00     0.016 C 
HETATM   32  C1  UNL     1     -21.573  27.812  11.476  1.00  0.00     0.006 C 
ENDBRANCH  30  31
ENDBRANCH   1  30
TORSDOF 7
ENDMDL
MODEL 5
REMARK VINA RESULT: -6.518509573      1.399      3.596
REMARK  7 active torsions:
REMARK  status: ('A' for Active; 'I' for Inactive)
REMARK    1  A    between atoms: C2_2  and  C3_3 
REMARK    2  A    between atoms: C3_3  and  N1_4 
REMARK    3  A    between atoms: C9_14  and  N4_15 
REMARK    4  A    between atoms: C10_20  and  N6_21 
REMARK    5  A    between atoms: N7_24  and  C13_25 
REMARK    6  A    between atoms: C13_25  and  C14_26 
REMARK    7  A    between atoms: C14_26  and  O1_27 
ROOT
HETATM    1  N1  UNL     1     -20.748  29.448   9.184  1.00  0.00    -0.316 N 
HETATM    2  C4  UNL     1     -21.555  28.371   9.053  1.00  0.00     0.137 A 
HETATM    3  N2  UNL     1     -21.930  27.206   9.586  1.00  0.00    -0.284 N 
ATOM      4  H2  UNL     1     -21.552  26.815  10.449  1.00  0.00     0.188 HD
HETATM    5  N3  UNL     1     -22.858  26.629   8.844  1.00  0.00    -0.303 N 
ATOM      6  H3  UNL     1     -23.295  25.732   9.053  1.00  0.00     0.186 HD
HETATM    7  C5  UNL     1     -23.147  27.404   7.760  1.00  0.00     0.037 A 
HETATM    8  C6  UNL     1     -24.126  27.101   6.698  1.00  0.00     0.070 C 
HETATM    9  C7  UNL     1     -22.325  28.503   7.892  1.00  0.00     0.051 A 
HETATM   10  C8  UNL     1     -21.939  29.703   7.340  1.00  0.00     0.069 A 
HETATM   11  C9  UNL     1     -22.349  30.343   6.215  1.00  0.00     0.130 A 
HETATM   12  N5  UNL     1     -21.782  31.542   5.908  1.00  0.00    -0.175 N 
ATOM     13  H5  UNL     1     -22.087  32.026   5.063  1.00  0.00     0.186 HD
HETATM   14  C10 UNL     1     -20.837  32.115   6.674  1.00  0.00     0.700 A 
HETATM   15  N9  UNL     1     -20.446  31.457   7.793  1.00  0.00    -0.174 N 
ATOM     16  H9  UNL     1     -19.730  31.875   8.387  1.00  0.00     0.186 HD
HETATM   17  C15 UNL     1     -20.972  30.271   8.143  1.00  0.00     0.140 A 
ENDROOT
BRANCH  14  18
HETATM   18  N6  UNL     1     -20.251  33.371   6.348  1.00  0.00    -0.111 N 
HETATM   19  C11 UNL     1     -20.881  34.639   6.560  1.00  0.00     0.181 C 
HETATM   20  C12 UNL     1     -19.806  35.614   6.098  1.00  0.00     0.133 C 
HETATM   21  N7  UNL     1     -18.940  34.807   5.310  1.00  0.00    -0.210 NA
HETATM   22  N8  UNL     1     -19.011  33.539   5.786  1.00  0.00    -0.031 NA
BRANCH  21  23
HETATM   23  C13 UNL     1     -19.020  35.012   3.907  1.00  0.00     0.137 C 
BRANCH  23  24
HETATM   24  C14 UNL     1     -18.574  33.761   3.165  1.00  0.00     0.180 C 
BRANCH  24  25
HETATM   25  O1  UNL     1     -17.279  33.377   3.563  1.00  0.00    -0.400 OA
ATOM     26  H1  UNL     1     -17.168  32.436   3.492  1.00  0.00     0.209 HD
ENDBRANCH  24  25
ENDBRANCH  23  24
ENDBRANCH  21  23
ENDBRANCH  14  18
BRANCH  11  27
HETATM   27  N4  UNL     1     -23.236  29.910   5.404  1.00  0.00    -0.384 N 
ATOM     28  H42 UNL     1     -23.257  30.345   4.482  1.00  0.00     0.157 HD
ATOM     29  H41 UNL     1     -23.912  29.174   5.611  1.00  0.00     0.157 HD
ENDBRANCH  11  27
BRANCH   1  30
HETATM   30  C3  UNL     1     -19.795  29.739  10.226  1.00  0.00     0.132 C 
BRANCH  30  31
HETATM   31  C2  UNL     1     -20.430  29.763  11.599  1.00  0.00     0.016 C 
HETATM   32  C1  UNL     1     -19.973  28.585  12.439  1.00  0.00     0.006 C 
ENDBRANCH  30  31
ENDBRANCH   1  30
TORSDOF 7
ENDMDL
