MODEL 1
REMARK VINA RESULT: -6.881774440      0.000      0.000
REMARK  9 active torsions:
REMARK  status: ('A' for Active; 'I' for Inactive)
REMARK    1  A    between atoms: C2_2  and  O1_3 
REMARK    2  A    between atoms: O1_3  and  C3_4 
REMARK    3  A    between atoms: C3_4  and  O2_5 
REMARK    4  A    between atoms: C3_4  and  C4_7 
REMARK    5  A    between atoms: C6_12  and  C7_13 
REMARK    6  A    between atoms: C7_13  and  C8_14 
REMARK    7  A    between atoms: C10_18  and  N4_19 
REMARK    8  A    between atoms: C11_24  and  N6_25 
REMARK    9  A    between atoms: C14_32  and  O3_33 
ROOT
HETATM    1  C4  UNL     1     -23.023  27.917   7.352  1.00  0.00     0.050 A 
HETATM    2  C5  UNL     1     -22.692  27.153   8.491  1.00  0.00     0.122 A 
HETATM    3  N1  UNL     1     -21.816  27.629   9.369  1.00  0.00    -0.303 N 
ATOM      4  H1  UNL     1     -21.592  27.058  10.184  1.00  0.00     0.186 HD
HETATM    5  N2  UNL     1     -21.222  28.796   9.245  1.00  0.00    -0.240 N 
HETATM    6  C6  UNL     1     -20.328  29.452  10.007  1.00  0.00     0.056 A 
HETATM    7  C12 UNL     1     -20.063  30.669   9.370  1.00  0.00     0.117 A 
HETATM    8  N7  UNL     1     -20.807  30.674   8.268  1.00  0.00    -0.347 N 
ATOM      9  H7  UNL     1     -20.833  31.434   7.588  1.00  0.00     0.167 HD
HETATM   10  C13 UNL     1     -21.512  29.552   8.177  1.00  0.00     0.161 A 
HETATM   11  C14 UNL     1     -22.425  29.135   7.195  1.00  0.00     0.126 A 
ENDROOT
BRANCH   6  12
HETATM   12  C7  UNL     1     -19.689  29.006  11.273  1.00  0.00     0.104 C 
BRANCH  12  13
HETATM   13  C8  UNL     1     -19.933  30.013  12.339  1.00  0.00     0.008 A 
HETATM   14  C9  UNL     1     -21.272  30.251  12.718  1.00  0.00     0.117 A 
HETATM   15  N3  UNL     1     -21.501  31.181  13.654  1.00  0.00    -0.202 N 
HETATM   16  C10 UNL     1     -20.503  31.866  14.218  1.00  0.00     0.677 A 
ATOM     17  H3  UNL     1     -22.461  31.371  13.944  1.00  0.00     0.183 HD
HETATM   18  N5  UNL     1     -19.219  31.638  13.854  1.00  0.00    -0.177 N 
HETATM   19  C11 UNL     1     -18.919  30.718  12.920  1.00  0.00     0.122 A 
ATOM     20  H5  UNL     1     -18.469  32.171  14.294  1.00  0.00     0.185 HD
BRANCH  16  21
HETATM   21  N4  UNL     1     -20.772  32.758  15.114  1.00  0.00    -0.234 N 
ATOM     22  H42 UNL     1     -20.018  33.178  15.657  1.00  0.00     0.174 HD
ATOM     23  H41 UNL     1     -21.741  33.038  15.267  1.00  0.00     0.174 HD
ENDBRANCH  16  21
BRANCH  19  24
HETATM   24  N6  UNL     1     -17.670  30.509  12.606  1.00  0.00    -0.385 N 
ATOM     25  H62 UNL     1     -17.132  29.819  13.131  1.00  0.00     0.157 HD
ATOM     26  H61 UNL     1     -17.218  31.007  11.839  1.00  0.00     0.157 HD
ENDBRANCH  19  24
ENDBRANCH  12  13
ENDBRANCH   6  12
BRANCH  11  27
HETATM   27  O3  UNL     1     -22.651  29.979   6.160  1.00  0.00    -0.351 OA
HETATM   28  C15 UNL     1     -23.582  31.051   6.117  1.00  0.00     0.210 C 
ENDBRANCH  11  27
BRANCH   1  29
HETATM   29  C3  UNL     1     -23.944  27.363   6.363  1.00  0.00     0.295 C 
BRANCH  29  30
HETATM   30  O1  UNL     1     -25.153  27.964   6.354  1.00  0.00    -0.357 OA
BRANCH  30  31
HETATM   31  C2  UNL     1     -25.953  27.882   5.277  1.00  0.00     0.167 C 
HETATM   32  C1  UNL     1     -26.396  29.093   4.562  1.00  0.00     0.033 C 
ENDBRANCH  30  31
ENDBRANCH  29  30
BRANCH  29  33
HETATM   33  O2  UNL     1     -23.421  27.509   5.047  1.00  0.00    -0.367 OA
ATOM     34  H2  UNL     1     -23.541  26.669   4.621  1.00  0.00     0.213 HD
ENDBRANCH  29  33
ENDBRANCH   1  29
TORSDOF 9
ENDMDL
MODEL 2
REMARK VINA RESULT: -6.429697431      3.685      7.706
REMARK  9 active torsions:
REMARK  status: ('A' for Active; 'I' for Inactive)
REMARK    1  A    between atoms: C2_2  and  O1_3 
REMARK    2  A    between atoms: O1_3  and  C3_4 
REMARK    3  A    between atoms: C3_4  and  O2_5 
REMARK    4  A    between atoms: C3_4  and  C4_7 
REMARK    5  A    between atoms: C6_12  and  C7_13 
REMARK    6  A    between atoms: C7_13  and  C8_14 
REMARK    7  A    between atoms: C10_18  and  N4_19 
REMARK    8  A    between atoms: C11_24  and  N6_25 
REMARK    9  A    between atoms: C14_32  and  O3_33 
ROOT
HETATM    1  C4  UNL     1     -19.907  30.336  11.659  1.00  0.00     0.050 A 
HETATM    2  C5  UNL     1     -19.647  29.534  10.528  1.00  0.00     0.122 A 
HETATM    3  N1  UNL     1     -20.144  29.884   9.347  1.00  0.00    -0.303 N 
ATOM      4  H1  UNL     1     -19.943  29.288   8.544  1.00  0.00     0.186 HD
HETATM    5  N2  UNL     1     -20.880  30.957   9.156  1.00  0.00    -0.240 N 
HETATM    6  C6  UNL     1     -21.463  31.483   8.063  1.00  0.00     0.056 A 
HETATM    7  C12 UNL     1     -22.117  32.651   8.470  1.00  0.00     0.117 A 
HETATM    8  N7  UNL     1     -21.892  32.759   9.777  1.00  0.00    -0.347 N 
ATOM      9  H7  UNL     1     -22.242  33.514  10.366  1.00  0.00     0.167 HD
HETATM   10  C13 UNL     1     -21.148  31.746  10.206  1.00  0.00     0.161 A 
HETATM   11  C14 UNL     1     -20.668  31.459  11.494  1.00  0.00     0.126 A 
ENDROOT
BRANCH   6  12
HETATM   12  C7  UNL     1     -21.470  30.954   6.674  1.00  0.00     0.104 C 
BRANCH  12  13
HETATM   13  C8  UNL     1     -22.646  30.064   6.482  1.00  0.00     0.008 A 
HETATM   14  C9  UNL     1     -22.572  28.762   7.022  1.00  0.00     0.117 A 
HETATM   15  N3  UNL     1     -23.614  27.942   6.823  1.00  0.00    -0.202 N 
HETATM   16  C10 UNL     1     -24.692  28.336   6.140  1.00  0.00     0.677 A 
ATOM     17  H3  UNL     1     -23.583  26.997   7.203  1.00  0.00     0.183 HD
HETATM   18  N5  UNL     1     -24.762  29.586   5.622  1.00  0.00    -0.177 N 
HETATM   19  C11 UNL     1     -23.750  30.457   5.785  1.00  0.00     0.122 A 
ATOM     20  H5  UNL     1     -25.592  29.869   5.102  1.00  0.00     0.185 HD
BRANCH  16  21
HETATM   21  N4  UNL     1     -25.671  27.510   5.969  1.00  0.00    -0.234 N 
ATOM     22  H42 UNL     1     -25.650  26.595   6.418  1.00  0.00     0.174 HD
ATOM     23  H41 UNL     1     -26.462  27.785   5.386  1.00  0.00     0.174 HD
ENDBRANCH  16  21
BRANCH  19  24
HETATM   24  N6  UNL     1     -23.858  31.661   5.291  1.00  0.00    -0.385 N 
ATOM     25  H62 UNL     1     -23.416  32.441   5.776  1.00  0.00     0.157 HD
ATOM     26  H61 UNL     1     -24.361  31.841   4.422  1.00  0.00     0.157 HD
ENDBRANCH  19  24
ENDBRANCH  12  13
ENDBRANCH   6  12
BRANCH  11  27
HETATM   27  O3  UNL     1     -20.990  32.325  12.483  1.00  0.00    -0.351 OA
HETATM   28  C15 UNL     1     -20.281  33.496  12.863  1.00  0.00     0.210 C 
ENDBRANCH  11  27
BRANCH   1  29
HETATM   29  C3  UNL     1     -19.405  29.915  12.964  1.00  0.00     0.295 C 
BRANCH  29  30
HETATM   30  O1  UNL     1     -18.301  30.583  13.360  1.00  0.00    -0.357 OA
BRANCH  30  31
HETATM   31  C2  UNL     1     -17.075  30.134  13.039  1.00  0.00     0.167 C 
HETATM   32  C1  UNL     1     -16.206  30.884  12.112  1.00  0.00     0.033 C 
ENDBRANCH  30  31
ENDBRANCH  29  30
BRANCH  29  33
HETATM   33  O2  UNL     1     -20.382  30.134  13.977  1.00  0.00    -0.367 OA
ATOM     34  H2  UNL     1     -20.857  29.316  14.066  1.00  0.00     0.213 HD
ENDBRANCH  29  33
ENDBRANCH   1  29
TORSDOF 9
ENDMDL
MODEL 3
REMARK VINA RESULT: -6.300074095      4.867      8.746
REMARK  9 active torsions:
REMARK  status: ('A' for Active; 'I' for Inactive)
REMARK    1  A    between atoms: C2_2  and  O1_3 
REMARK    2  A    between atoms: O1_3  and  C3_4 
REMARK    3  A    between atoms: C3_4  and  O2_5 
REMARK    4  A    between atoms: C3_4  and  C4_7 
REMARK    5  A    between atoms: C6_12  and  C7_13 
REMARK    6  A    between atoms: C7_13  and  C8_14 
REMARK    7  A    between atoms: C10_18  and  N4_19 
REMARK    8  A    between atoms: C11_24  and  N6_25 
REMARK    9  A    between atoms: C14_32  and  O3_33 
ROOT
HETATM    1  C4  UNL     1     -20.289  34.794  14.136  1.00  0.00     0.050 A 
HETATM    2  C5  UNL     1     -19.288  34.338  13.254  1.00  0.00     0.122 A 
HETATM    3  N1  UNL     1     -19.220  33.047  12.949  1.00  0.00    -0.303 N 
ATOM      4  H1  UNL     1     -18.487  32.741  12.309  1.00  0.00     0.186 HD
HETATM    5  N2  UNL     1     -20.045  32.141  13.427  1.00  0.00    -0.240 N 
HETATM    6  C6  UNL     1     -20.149  30.813  13.245  1.00  0.00     0.056 A 
HETATM    7  C12 UNL     1     -21.235  30.378  14.013  1.00  0.00     0.117 A 
HETATM    8  N7  UNL     1     -21.718  31.464  14.611  1.00  0.00    -0.347 N 
ATOM      9  H7  UNL     1     -22.518  31.472  15.243  1.00  0.00     0.167 HD
HETATM   10  C13 UNL     1     -21.011  32.536  14.268  1.00  0.00     0.161 A 
HETATM   11  C14 UNL     1     -21.164  33.878  14.649  1.00  0.00     0.126 A 
ENDROOT
BRANCH   6  12
HETATM   12  C7  UNL     1     -19.289  29.922  12.424  1.00  0.00     0.104 C 
BRANCH  12  13
HETATM   13  C8  UNL     1     -20.138  29.069  11.551  1.00  0.00     0.008 A 
HETATM   14  C9  UNL     1     -20.632  27.865  12.098  1.00  0.00     0.117 A 
HETATM   15  N3  UNL     1     -21.370  27.075  11.307  1.00  0.00    -0.202 N 
HETATM   16  C10 UNL     1     -21.637  27.406  10.041  1.00  0.00     0.677 A 
ATOM     17  H3  UNL     1     -21.737  26.199  11.680  1.00  0.00     0.183 HD
HETATM   18  N5  UNL     1     -21.163  28.562   9.517  1.00  0.00    -0.177 N 
HETATM   19  C11 UNL     1     -20.415  29.400  10.257  1.00  0.00     0.122 A 
ATOM     20  H5  UNL     1     -21.376  28.799   8.548  1.00  0.00     0.185 HD
BRANCH  16  21
HETATM   21  N4  UNL     1     -22.349  26.611   9.313  1.00  0.00    -0.234 N 
ATOM     22  H42 UNL     1     -22.643  25.707   9.684  1.00  0.00     0.174 HD
ATOM     23  H41 UNL     1     -22.616  26.898   8.371  1.00  0.00     0.174 HD
ENDBRANCH  16  21
BRANCH  19  24
HETATM   24  N6  UNL     1     -19.991  30.515   9.727  1.00  0.00    -0.385 N 
ATOM     25  H62 UNL     1     -18.991  30.713   9.715  1.00  0.00     0.157 HD
ATOM     26  H61 UNL     1     -20.632  31.190   9.311  1.00  0.00     0.157 HD
ENDBRANCH  19  24
ENDBRANCH  12  13
ENDBRANCH   6  12
BRANCH  11  27
HETATM   27  O3  UNL     1     -22.178  34.171  15.498  1.00  0.00    -0.351 OA
HETATM   28  C15 UNL     1     -23.526  34.460  15.156  1.00  0.00     0.210 C 
ENDBRANCH  11  27
BRANCH   1  29
HETATM   29  C3  UNL     1     -20.324  36.205  14.510  1.00  0.00     0.295 C 
BRANCH  29  30
HETATM   30  O1  UNL     1     -19.714  36.468  15.686  1.00  0.00    -0.357 OA
BRANCH  30  31
HETATM   31  C2  UNL     1     -18.511  37.067  15.718  1.00  0.00     0.167 C 
HETATM   32  C1  UNL     1     -17.321  36.360  16.229  1.00  0.00     0.033 C 
ENDBRANCH  30  31
ENDBRANCH  29  30
BRANCH  29  33
HETATM   33  O2  UNL     1     -19.660  37.003  13.536  1.00  0.00    -0.367 OA
ATOM     34  H2  UNL     1     -18.937  37.422  13.987  1.00  0.00     0.213 HD
ENDBRANCH  29  33
ENDBRANCH   1  29
TORSDOF 9
ENDMDL
MODEL 4
REMARK VINA RESULT: -6.296795547      1.702      2.560
REMARK  9 active torsions:
REMARK  status: ('A' for Active; 'I' for Inactive)
REMARK    1  A    between atoms: C2_2  and  O1_3 
REMARK    2  A    between atoms: O1_3  and  C3_4 
REMARK    3  A    between atoms: C3_4  and  O2_5 
REMARK    4  A    between atoms: C3_4  and  C4_7 
REMARK    5  A    between atoms: C6_12  and  C7_13 
REMARK    6  A    between atoms: C7_13  and  C8_14 
REMARK    7  A    between atoms: C10_18  and  N4_19 
REMARK    8  A    between atoms: C11_24  and  N6_25 
REMARK    9  A    between atoms: C14_32  and  O3_33 
ROOT
HETATM    1  C4  UNL     1     -24.559  28.607   6.151  1.00  0.00     0.050 A 
HETATM    2  C5  UNL     1     -23.693  27.712   6.815  1.00  0.00     0.122 A 
HETATM    3  N1  UNL     1     -22.625  28.182   7.449  1.00  0.00    -0.303 N 
ATOM      4  H1  UNL     1     -22.013  27.516   7.921  1.00  0.00     0.186 HD
HETATM    5  N2  UNL     1     -22.312  29.459   7.501  1.00  0.00    -0.240 N 
HETATM    6  C6  UNL     1     -21.300  30.129   8.081  1.00  0.00     0.056 A 
HETATM    7  C12 UNL     1     -21.496  31.486   7.804  1.00  0.00     0.117 A 
HETATM    8  N7  UNL     1     -22.607  31.553   7.076  1.00  0.00    -0.347 N 
ATOM      9  H7  UNL     1     -23.014  32.416   6.717  1.00  0.00     0.167 HD
HETATM   10  C13 UNL     1     -23.112  30.340   6.884  1.00  0.00     0.161 A 
HETATM   11  C14 UNL     1     -24.264  29.940   6.189  1.00  0.00     0.126 A 
ENDROOT
BRANCH   6  12
HETATM   12  C7  UNL     1     -20.153  29.583   8.854  1.00  0.00     0.104 C 
BRANCH  12  13
HETATM   13  C8  UNL     1     -20.390  29.777  10.308  1.00  0.00     0.008 A 
HETATM   14  C9  UNL     1     -19.934  30.980  10.889  1.00  0.00     0.117 A 
HETATM   15  N3  UNL     1     -20.114  31.147  12.206  1.00  0.00    -0.202 N 
HETATM   16  C10 UNL     1     -20.706  30.212  12.954  1.00  0.00     0.677 A 
ATOM     17  H3  UNL     1     -19.791  32.007  12.648  1.00  0.00     0.183 HD
HETATM   18  N5  UNL     1     -21.144  29.058  12.397  1.00  0.00    -0.177 N 
HETATM   19  C11 UNL     1     -20.994  28.828  11.080  1.00  0.00     0.122 A 
ATOM     20  H5  UNL     1     -21.594  28.355  12.983  1.00  0.00     0.185 HD
BRANCH  16  21
HETATM   21  N4  UNL     1     -20.854  30.414  14.222  1.00  0.00    -0.234 N 
ATOM     22  H42 UNL     1     -21.276  31.281  14.554  1.00  0.00     0.174 HD
ATOM     23  H41 UNL     1     -20.549  29.698  14.882  1.00  0.00     0.174 HD
ENDBRANCH  16  21
BRANCH  19  24
HETATM   24  N6  UNL     1     -21.446  27.714  10.571  1.00  0.00    -0.385 N 
ATOM     25  H62 UNL     1     -21.577  26.905  11.177  1.00  0.00     0.157 HD
ATOM     26  H61 UNL     1     -21.685  27.633   9.582  1.00  0.00     0.157 HD
ENDBRANCH  19  24
ENDBRANCH  12  13
ENDBRANCH   6  12
BRANCH  11  27
HETATM   27  O3  UNL     1     -25.006  30.912   5.607  1.00  0.00    -0.351 OA
HETATM   28  C15 UNL     1     -26.131  31.579   6.162  1.00  0.00     0.210 C 
ENDBRANCH  11  27
BRANCH   1  29
HETATM   29  C3  UNL     1     -25.701  28.078   5.410  1.00  0.00     0.295 C 
BRANCH  29  30
HETATM   30  O1  UNL     1     -25.846  28.620   4.182  1.00  0.00    -0.357 OA
BRANCH  30  31
HETATM   31  C2  UNL     1     -27.068  28.858   3.675  1.00  0.00     0.167 C 
HETATM   32  C1  UNL     1     -27.237  29.561   2.390  1.00  0.00     0.033 C 
ENDBRANCH  30  31
ENDBRANCH  29  30
BRANCH  29  33
HETATM   33  O2  UNL     1     -25.568  26.675   5.208  1.00  0.00    -0.367 OA
ATOM     34  H2  UNL     1     -25.916  26.499   4.342  1.00  0.00     0.213 HD
ENDBRANCH  29  33
ENDBRANCH   1  29
TORSDOF 9
ENDMDL
MODEL 5
REMARK VINA RESULT: -6.210142875      1.682      3.066
REMARK  9 active torsions:
REMARK  status: ('A' for Active; 'I' for Inactive)
REMARK    1  A    between atoms: C2_2  and  O1_3 
REMARK    2  A    between atoms: O1_3  and  C3_4 
REMARK    3  A    between atoms: C3_4  and  O2_5 
REMARK    4  A    between atoms: C3_4  and  C4_7 
REMARK    5  A    between atoms: C6_12  and  C7_13 
REMARK    6  A    between atoms: C7_13  and  C8_14 
REMARK    7  A    between atoms: C10_18  and  N4_19 
REMARK    8  A    between atoms: C11_24  and  N6_25 
REMARK    9  A    between atoms: C14_32  and  O3_33 
ROOT
HETATM    1  C4  UNL     1     -20.841  30.299   7.886  1.00  0.00     0.050 A 
HETATM    2  C5  UNL     1     -20.074  30.856   8.930  1.00  0.00     0.122 A 
HETATM    3  N1  UNL     1     -20.036  30.250  10.112  1.00  0.00    -0.303 N 
ATOM      4  H1  UNL     1     -19.475  30.672  10.852  1.00  0.00     0.186 HD
HETATM    5  N2  UNL     1     -20.683  29.137  10.380  1.00  0.00    -0.240 N 
HETATM    6  C6  UNL     1     -20.772  28.375  11.485  1.00  0.00     0.056 A 
HETATM    7  C12 UNL     1     -21.605  27.296  11.172  1.00  0.00     0.117 A 
HETATM    8  N7  UNL     1     -21.969  27.471   9.905  1.00  0.00    -0.347 N 
ATOM      9  H7  UNL     1     -22.582  26.843   9.385  1.00  0.00     0.167 HD
HETATM   10  C13 UNL     1     -21.421  28.576   9.412  1.00  0.00     0.161 A 
HETATM   11  C14 UNL     1     -21.523  29.141   8.131  1.00  0.00     0.126 A 
ENDROOT
BRANCH   6  12
HETATM   12  C7  UNL     1     -20.151  28.602  12.816  1.00  0.00     0.104 C 
BRANCH  12  13
HETATM   13  C8  UNL     1     -20.360  30.013  13.233  1.00  0.00     0.008 A 
HETATM   14  C9  UNL     1     -21.689  30.480  13.312  1.00  0.00     0.117 A 
HETATM   15  N3  UNL     1     -21.883  31.761  13.654  1.00  0.00    -0.202 N 
HETATM   16  C10 UNL     1     -20.859  32.577  13.916  1.00  0.00     0.677 A 
ATOM     17  H3  UNL     1     -22.835  32.122  13.716  1.00  0.00     0.183 HD
HETATM   18  N5  UNL     1     -19.583  32.128  13.841  1.00  0.00    -0.177 N 
HETATM   19  C11 UNL     1     -19.319  30.853  13.503  1.00  0.00     0.122 A 
ATOM     20  H5  UNL     1     -18.813  32.765  14.044  1.00  0.00     0.185 HD
BRANCH  16  21
HETATM   21  N4  UNL     1     -21.094  33.807  14.238  1.00  0.00    -0.234 N 
ATOM     22  H42 UNL     1     -21.266  34.054  15.212  1.00  0.00     0.174 HD
ATOM     23  H41 UNL     1     -21.099  34.522  13.510  1.00  0.00     0.174 HD
ENDBRANCH  16  21
BRANCH  19  24
HETATM   24  N6  UNL     1     -18.079  30.448  13.459  1.00  0.00    -0.385 N 
ATOM     25  H62 UNL     1     -17.524  30.630  12.623  1.00  0.00     0.157 HD
ATOM     26  H61 UNL     1     -17.644  29.965  14.245  1.00  0.00     0.157 HD
ENDBRANCH  19  24
ENDBRANCH  12  13
ENDBRANCH   6  12
BRANCH  11  27
HETATM   27  O3  UNL     1     -22.290  28.490   7.224  1.00  0.00    -0.351 OA
HETATM   28  C15 UNL     1     -23.609  28.826   6.820  1.00  0.00     0.210 C 
ENDBRANCH  11  27
BRANCH   1  29
HETATM   29  C3  UNL     1     -20.923  31.001   6.607  1.00  0.00     0.295 C 
BRANCH  29  30
HETATM   30  O1  UNL     1     -21.486  32.225   6.697  1.00  0.00    -0.357 OA
BRANCH  30  31
HETATM   31  C2  UNL     1     -22.813  32.382   6.556  1.00  0.00     0.167 C 
HETATM   32  C1  UNL     1     -23.459  32.262   5.235  1.00  0.00     0.033 C 
ENDBRANCH  30  31
ENDBRANCH  29  30
BRANCH  29  33
HETATM   33  O2  UNL     1     -19.625  31.203   6.057  1.00  0.00    -0.367 OA
ATOM     34  H2  UNL     1     -19.644  32.059   5.647  1.00  0.00     0.213 HD
ENDBRANCH  29  33
ENDBRANCH   1  29
TORSDOF 9
ENDMDL
