MODEL 1
REMARK VINA RESULT: -7.217616638      0.000      0.000
REMARK  9 active torsions:
REMARK  status: ('A' for Active; 'I' for Inactive)
REMARK    1  A    between atoms: O1_2  and  C2_3 
REMARK    2  A    between atoms: C3_4  and  C4_5 
REMARK    3  A    between atoms: N1_6  and  N2_8 
REMARK    4  A    between atoms: N2_8  and  C5_10 
REMARK    5  A    between atoms: C6_13  and  N4_14 
REMARK    6  A    between atoms: C7_19  and  N6_20 
REMARK    7  A    between atoms: N6_20  and  N7_22 
REMARK    8  A    between atoms: C11_30  and  O2_31 
REMARK    9  A    between atoms: O2_31  and  C12_32 
ROOT
HETATM    1  C5  UNL     1     -21.496  29.105   8.987  1.00  0.00     0.726 A 
HETATM    2  N3  UNL     1     -22.179  28.766   7.876  1.00  0.00    -0.020 N 
ATOM      3  H3  UNL     1     -22.210  29.425   7.097  1.00  0.00     0.203 HD
HETATM    4  C6  UNL     1     -22.820  27.590   7.757  1.00  0.00     0.705 A 
HETATM    5  N5  UNL     1     -22.803  26.695   8.761  1.00  0.00    -0.020 N 
ATOM      6  H5  UNL     1     -23.284  25.799   8.684  1.00  0.00     0.203 HD
HETATM    7  C7  UNL     1     -22.120  27.035   9.870  1.00  0.00     0.725 A 
HETATM    8  N8  UNL     1     -21.478  28.211   9.992  1.00  0.00    -0.018 N 
ATOM      9  H8  UNL     1     -20.974  28.425  10.852  1.00  0.00     0.203 HD
ENDROOT
BRANCH   1  10
HETATM   10  N2  UNL     1     -20.879  30.235   9.104  1.00  0.00    -0.131 N 
ATOM     11  H2  UNL     1     -21.367  31.079   8.805  1.00  0.00     0.205 HD
BRANCH  10  12
HETATM   12  N1  UNL     1     -19.642  30.367   9.592  1.00  0.00    -0.297 N 
HETATM   13  C4  UNL     1     -19.200  30.609  10.720  1.00  0.00     0.122 C 
ATOM     14  H1  UNL     1     -18.913  30.244   8.888  1.00  0.00     0.186 HD
BRANCH  13  15
HETATM   15  C3  UNL     1     -19.983  30.831  11.925  1.00  0.00     0.017 A 
HETATM   16  C2  UNL     1     -20.557  32.098  12.106  1.00  0.00     0.113 A 
HETATM   17  C11 UNL     1     -21.317  32.417  13.208  1.00  0.00     0.103 A 
HETATM   18  C10 UNL     1     -21.524  31.455  14.175  1.00  0.00     0.040 A 
HETATM   19  C9  UNL     1     -20.978  30.197  14.036  1.00  0.00     0.004 A 
HETATM   20  C8  UNL     1     -20.212  29.914  12.900  1.00  0.00     0.016 A 
BRANCH  16  21
HETATM   21  O1  UNL     1     -20.377  33.110  11.153  1.00  0.00    -0.352 OA
HETATM   22  C1  UNL     1     -21.486  33.430  10.307  1.00  0.00     0.210 C 
ENDBRANCH  16  21
BRANCH  17  23
HETATM   23  O2  UNL     1     -21.850  33.703  13.306  1.00  0.00    -0.344 OA
BRANCH  23  24
HETATM   24  C12 UNL     1     -21.698  34.623  14.314  1.00  0.00     0.121 C 
HETATM   25  C13 UNL     1     -22.504  35.888  14.034  1.00  0.00     0.040 C 
HETATM   26  C14 UNL     1     -20.205  34.979  14.401  1.00  0.00     0.040 C 
ENDBRANCH  23  24
ENDBRANCH  17  23
ENDBRANCH  13  15
ENDBRANCH  10  12
ENDBRANCH   1  10
BRANCH   4  27
HETATM   27  N4  UNL     1     -23.476  27.268   6.686  1.00  0.00    -0.234 N 
ATOM     28  H42 UNL     1     -22.982  26.720   5.983  1.00  0.00     0.174 HD
ATOM     29  H41 UNL     1     -24.446  27.547   6.540  1.00  0.00     0.174 HD
ENDBRANCH   4  27
BRANCH   7  30
HETATM   30  N6  UNL     1     -22.078  26.203  10.860  1.00  0.00    -0.138 N 
ATOM     31  H6  UNL     1     -22.881  25.597  11.026  1.00  0.00     0.205 HD
BRANCH  30  32
HETATM   32  N7  UNL     1     -20.983  26.102  11.702  1.00  0.00    -0.331 N 
ATOM     33  H72 UNL     1     -20.252  26.808  11.616  1.00  0.00     0.177 HD
ATOM     34  H71 UNL     1     -20.888  25.357  12.392  1.00  0.00     0.177 HD
ENDBRANCH  30  32
ENDBRANCH   7  30
TORSDOF 9
ENDMDL
MODEL 2
REMARK VINA RESULT: -7.100224386      1.777      3.132
REMARK  9 active torsions:
REMARK  status: ('A' for Active; 'I' for Inactive)
REMARK    1  A    between atoms: O1_2  and  C2_3 
REMARK    2  A    between atoms: C3_4  and  C4_5 
REMARK    3  A    between atoms: N1_6  and  N2_8 
REMARK    4  A    between atoms: N2_8  and  C5_10 
REMARK    5  A    between atoms: C6_13  and  N4_14 
REMARK    6  A    between atoms: C7_19  and  N6_20 
REMARK    7  A    between atoms: N6_20  and  N7_22 
REMARK    8  A    between atoms: C11_30  and  O2_31 
REMARK    9  A    between atoms: O2_31  and  C12_32 
ROOT
HETATM    1  C5  UNL     1     -21.793  28.628   8.335  1.00  0.00     0.726 A 
HETATM    2  N3  UNL     1     -21.798  29.765   7.612  1.00  0.00    -0.020 N 
ATOM      3  H3  UNL     1     -21.161  30.517   7.874  1.00  0.00     0.203 HD
HETATM    4  C6  UNL     1     -22.613  29.943   6.557  1.00  0.00     0.705 A 
HETATM    5  N5  UNL     1     -23.468  28.975   6.180  1.00  0.00    -0.020 N 
ATOM      6  H5  UNL     1     -24.091  29.096   5.383  1.00  0.00     0.203 HD
HETATM    7  C7  UNL     1     -23.462  27.839   6.903  1.00  0.00     0.725 A 
HETATM    8  N8  UNL     1     -22.648  27.659   7.959  1.00  0.00    -0.018 N 
ATOM      9  H8  UNL     1     -22.679  26.782   8.478  1.00  0.00     0.203 HD
ENDROOT
BRANCH   1  10
HETATM   10  N2  UNL     1     -21.011  28.454   9.350  1.00  0.00    -0.131 N 
ATOM     11  H2  UNL     1     -20.007  28.564   9.203  1.00  0.00     0.205 HD
BRANCH  10  12
HETATM   12  N1  UNL     1     -21.433  28.140  10.578  1.00  0.00    -0.297 N 
HETATM   13  C4  UNL     1     -21.069  28.480  11.709  1.00  0.00     0.122 C 
ATOM     14  H1  UNL     1     -22.216  27.486  10.583  1.00  0.00     0.186 HD
BRANCH  13  15
HETATM   15  C3  UNL     1     -19.987  29.398  12.029  1.00  0.00     0.017 A 
HETATM   16  C2  UNL     1     -20.261  30.772  11.974  1.00  0.00     0.113 A 
HETATM   17  C11 UNL     1     -19.313  31.729  12.258  1.00  0.00     0.103 A 
HETATM   18  C10 UNL     1     -18.043  31.323  12.611  1.00  0.00     0.040 A 
HETATM   19  C9  UNL     1     -17.733  29.980  12.678  1.00  0.00     0.004 A 
HETATM   20  C8  UNL     1     -18.726  29.042  12.382  1.00  0.00     0.016 A 
BRANCH  16  21
HETATM   21  O1  UNL     1     -21.535  31.238  11.620  1.00  0.00    -0.352 OA
HETATM   22  C1  UNL     1     -22.460  31.510  12.678  1.00  0.00     0.210 C 
ENDBRANCH  16  21
BRANCH  17  23
HETATM   23  O2  UNL     1     -19.672  33.075  12.177  1.00  0.00    -0.344 OA
BRANCH  23  24
HETATM   24  C12 UNL     1     -19.627  34.037  13.155  1.00  0.00     0.121 C 
HETATM   25  C13 UNL     1     -20.235  33.530  14.459  1.00  0.00     0.040 C 
HETATM   26  C14 UNL     1     -20.432  35.249  12.655  1.00  0.00     0.040 C 
ENDBRANCH  23  24
ENDBRANCH  17  23
ENDBRANCH  13  15
ENDBRANCH  10  12
ENDBRANCH   1  10
BRANCH   4  27
HETATM   27  N4  UNL     1     -22.614  31.038   5.864  1.00  0.00    -0.234 N 
ATOM     28  H42 UNL     1     -22.029  31.064   5.029  1.00  0.00     0.174 HD
ATOM     29  H41 UNL     1     -23.172  31.849   6.133  1.00  0.00     0.174 HD
ENDBRANCH   4  27
BRANCH   7  30
HETATM   30  N6  UNL     1     -24.268  26.883   6.575  1.00  0.00    -0.138 N 
ATOM     31  H6  UNL     1     -24.048  25.932   6.872  1.00  0.00     0.205 HD
BRANCH  30  32
HETATM   32  N7  UNL     1     -25.419  27.099   5.835  1.00  0.00    -0.331 N 
ATOM     33  H72 UNL     1     -26.279  27.303   6.345  1.00  0.00     0.177 HD
ATOM     34  H71 UNL     1     -25.432  27.061   4.816  1.00  0.00     0.177 HD
ENDBRANCH  30  32
ENDBRANCH   7  30
TORSDOF 9
ENDMDL
MODEL 3
REMARK VINA RESULT: -7.085014102      1.617      2.002
REMARK  9 active torsions:
REMARK  status: ('A' for Active; 'I' for Inactive)
REMARK    1  A    between atoms: O1_2  and  C2_3 
REMARK    2  A    between atoms: C3_4  and  C4_5 
REMARK    3  A    between atoms: N1_6  and  N2_8 
REMARK    4  A    between atoms: N2_8  and  C5_10 
REMARK    5  A    between atoms: C6_13  and  N4_14 
REMARK    6  A    between atoms: C7_19  and  N6_20 
REMARK    7  A    between atoms: N6_20  and  N7_22 
REMARK    8  A    between atoms: C11_30  and  O2_31 
REMARK    9  A    between atoms: O2_31  and  C12_32 
ROOT
HETATM    1  C5  UNL     1     -20.940  28.199  10.127  1.00  0.00     0.726 A 
HETATM    2  N3  UNL     1     -21.487  28.233   8.896  1.00  0.00    -0.020 N 
ATOM      3  H3  UNL     1     -21.175  28.948   8.239  1.00  0.00     0.203 HD
HETATM    4  C6  UNL     1     -22.429  27.358   8.503  1.00  0.00     0.705 A 
HETATM    5  N5  UNL     1     -22.868  26.401   9.341  1.00  0.00    -0.020 N 
ATOM      6  H5  UNL     1     -23.582  25.731   9.057  1.00  0.00     0.203 HD
HETATM    7  C7  UNL     1     -22.320  26.368  10.570  1.00  0.00     0.725 A 
HETATM    8  N8  UNL     1     -21.377  27.242  10.966  1.00  0.00    -0.018 N 
ATOM      9  H8  UNL     1     -20.992  27.179  11.908  1.00  0.00     0.203 HD
ENDROOT
BRANCH   1  10
HETATM   10  N2  UNL     1     -20.034  29.040  10.507  1.00  0.00    -0.131 N 
ATOM     11  H2  UNL     1     -19.971  29.930  10.014  1.00  0.00     0.205 HD
BRANCH  10  12
HETATM   12  N1  UNL     1     -19.173  28.815  11.504  1.00  0.00    -0.297 N 
HETATM   13  C4  UNL     1     -19.000  29.348  12.606  1.00  0.00     0.122 C 
ATOM     14  H1  UNL     1     -18.528  28.047  11.318  1.00  0.00     0.186 HD
BRANCH  13  15
HETATM   15  C3  UNL     1     -19.757  30.460  13.157  1.00  0.00     0.017 A 
HETATM   16  C2  UNL     1     -19.380  31.757  12.780  1.00  0.00     0.113 A 
HETATM   17  C11 UNL     1     -20.026  32.881  13.240  1.00  0.00     0.103 A 
HETATM   18  C10 UNL     1     -21.089  32.729  14.107  1.00  0.00     0.040 A 
HETATM   19  C9  UNL     1     -21.493  31.471  14.502  1.00  0.00     0.004 A 
HETATM   20  C8  UNL     1     -20.808  30.356  14.010  1.00  0.00     0.016 A 
BRANCH  16  21
HETATM   21  O1  UNL     1     -18.307  31.966  11.902  1.00  0.00    -0.352 OA
HETATM   22  C1  UNL     1     -17.034  31.421  12.269  1.00  0.00     0.210 C 
ENDBRANCH  16  21
BRANCH  17  23
HETATM   23  O2  UNL     1     -19.583  34.133  12.814  1.00  0.00    -0.344 OA
BRANCH  23  24
HETATM   24  C12 UNL     1     -20.003  35.377  13.214  1.00  0.00     0.121 C 
HETATM   25  C13 UNL     1     -20.135  36.325  12.025  1.00  0.00     0.040 C 
HETATM   26  C14 UNL     1     -18.956  35.931  14.193  1.00  0.00     0.040 C 
ENDBRANCH  23  24
ENDBRANCH  17  23
ENDBRANCH  13  15
ENDBRANCH  10  12
ENDBRANCH   1  10
BRANCH   4  27
HETATM   27  N4  UNL     1     -22.952  27.395   7.318  1.00  0.00    -0.234 N 
ATOM     28  H42 UNL     1     -22.829  28.251   6.779  1.00  0.00     0.174 HD
ATOM     29  H41 UNL     1     -23.469  26.606   6.929  1.00  0.00     0.174 HD
ENDBRANCH   4  27
BRANCH   7  30
HETATM   30  N6  UNL     1     -22.713  25.463  11.408  1.00  0.00    -0.138 N 
ATOM     31  H6  UNL     1     -23.694  25.187  11.406  1.00  0.00     0.205 HD
BRANCH  30  32
HETATM   32  N7  UNL     1     -21.852  24.856  12.307  1.00  0.00    -0.331 N 
ATOM     33  H72 UNL     1     -22.076  24.927  13.299  1.00  0.00     0.177 HD
ATOM     34  H71 UNL     1     -21.018  24.350  12.011  1.00  0.00     0.177 HD
ENDBRANCH  30  32
ENDBRANCH   7  30
TORSDOF 9
ENDMDL
MODEL 4
REMARK VINA RESULT: -7.038068724      1.947      2.574
REMARK  9 active torsions:
REMARK  status: ('A' for Active; 'I' for Inactive)
REMARK    1  A    between atoms: O1_2  and  C2_3 
REMARK    2  A    between atoms: C3_4  and  C4_5 
REMARK    3  A    between atoms: N1_6  and  N2_8 
REMARK    4  A    between atoms: N2_8  and  C5_10 
REMARK    5  A    between atoms: C6_13  and  N4_14 
REMARK    6  A    between atoms: C7_19  and  N6_20 
REMARK    7  A    between atoms: N6_20  and  N7_22 
REMARK    8  A    between atoms: C11_30  and  O2_31 
REMARK    9  A    between atoms: O2_31  and  C12_32 
ROOT
HETATM    1  C5  UNL     1     -20.499  28.023  11.483  1.00  0.00     0.726 A 
HETATM    2  N3  UNL     1     -20.906  28.349  10.240  1.00  0.00    -0.020 N 
ATOM      3  H3  UNL     1     -20.519  29.183   9.798  1.00  0.00     0.203 HD
HETATM    4  C6  UNL     1     -21.804  27.613   9.562  1.00  0.00     0.705 A 
HETATM    5  N5  UNL     1     -22.338  26.506  10.110  1.00  0.00    -0.020 N 
ATOM      6  H5  UNL     1     -23.020  25.939   9.608  1.00  0.00     0.203 HD
HETATM    7  C7  UNL     1     -21.930  26.182  11.351  1.00  0.00     0.725 A 
HETATM    8  N8  UNL     1     -21.032  26.917  12.032  1.00  0.00    -0.018 N 
ATOM      9  H8  UNL     1     -20.753  26.633  12.971  1.00  0.00     0.203 HD
ENDROOT
BRANCH   1  10
HETATM   10  N2  UNL     1     -19.635  28.729  12.137  1.00  0.00    -0.131 N 
ATOM     11  H2  UNL     1     -19.621  28.645  13.153  1.00  0.00     0.205 HD
BRANCH  10  12
HETATM   12  N1  UNL     1     -18.761  29.563  11.566  1.00  0.00    -0.297 N 
HETATM   13  C4  UNL     1     -18.640  30.792  11.571  1.00  0.00     0.122 C 
ATOM     14  H1  UNL     1     -18.047  29.086  11.014  1.00  0.00     0.186 HD
BRANCH  13  15
HETATM   15  C3  UNL     1     -19.494  31.743  12.264  1.00  0.00     0.017 A 
HETATM   16  C2  UNL     1     -20.798  31.922  11.777  1.00  0.00     0.113 A 
HETATM   17  C11 UNL     1     -21.691  32.794  12.356  1.00  0.00     0.103 A 
HETATM   18  C10 UNL     1     -21.292  33.522  13.458  1.00  0.00     0.040 A 
HETATM   19  C9  UNL     1     -20.019  33.375  13.968  1.00  0.00     0.004 A 
HETATM   20  C8  UNL     1     -19.143  32.478  13.350  1.00  0.00     0.016 A 
BRANCH  16  21
HETATM   21  O1  UNL     1     -21.253  31.207  10.661  1.00  0.00    -0.352 OA
HETATM   22  C1  UNL     1     -21.112  31.824   9.376  1.00  0.00     0.210 C 
ENDBRANCH  16  21
BRANCH  17  23
HETATM   23  O2  UNL     1     -22.968  32.910  11.806  1.00  0.00    -0.344 OA
BRANCH  23  24
HETATM   24  C12 UNL     1     -23.953  33.820  12.101  1.00  0.00     0.121 C 
HETATM   25  C13 UNL     1     -25.130  33.151  12.805  1.00  0.00     0.040 C 
HETATM   26  C14 UNL     1     -24.434  34.434  10.776  1.00  0.00     0.040 C 
ENDBRANCH  23  24
ENDBRANCH  17  23
ENDBRANCH  13  15
ENDBRANCH  10  12
ENDBRANCH   1  10
BRANCH   4  27
HETATM   27  N4  UNL     1     -22.193  27.930   8.366  1.00  0.00    -0.234 N 
ATOM     28  H42 UNL     1     -22.360  28.917   8.176  1.00  0.00     0.174 HD
ATOM     29  H41 UNL     1     -22.330  27.230   7.637  1.00  0.00     0.174 HD
ENDBRANCH   4  27
BRANCH   7  30
HETATM   30  N6  UNL     1     -22.418  25.125  11.916  1.00  0.00    -0.138 N 
ATOM     31  H6  UNL     1     -23.404  24.906  11.776  1.00  0.00     0.205 HD
BRANCH  30  32
HETATM   32  N7  UNL     1     -21.653  24.281  12.704  1.00  0.00    -0.331 N 
ATOM     33  H72 UNL     1     -21.845  23.281  12.651  1.00  0.00     0.177 HD
ATOM     34  H71 UNL     1     -20.918  24.623  13.322  1.00  0.00     0.177 HD
ENDBRANCH  30  32
ENDBRANCH   7  30
TORSDOF 9
ENDMDL
MODEL 5
REMARK VINA RESULT: -7.012931574      1.690      2.255
REMARK  9 active torsions:
REMARK  status: ('A' for Active; 'I' for Inactive)
REMARK    1  A    between atoms: O1_2  and  C2_3 
REMARK    2  A    between atoms: C3_4  and  C4_5 
REMARK    3  A    between atoms: N1_6  and  N2_8 
REMARK    4  A    between atoms: N2_8  and  C5_10 
REMARK    5  A    between atoms: C6_13  and  N4_14 
REMARK    6  A    between atoms: C7_19  and  N6_20 
REMARK    7  A    between atoms: N6_20  and  N7_22 
REMARK    8  A    between atoms: C11_30  and  O2_31 
REMARK    9  A    between atoms: O2_31  and  C12_32 
ROOT
HETATM    1  C5  UNL     1     -20.741  29.515   9.092  1.00  0.00     0.726 A 
HETATM    2  N3  UNL     1     -21.116  30.273   8.043  1.00  0.00    -0.020 N 
ATOM      3  H3  UNL     1     -20.673  31.182   7.909  1.00  0.00     0.203 HD
HETATM    4  C6  UNL     1     -22.055  29.874   7.167  1.00  0.00     0.705 A 
HETATM    5  N5  UNL     1     -22.664  28.683   7.309  1.00  0.00    -0.020 N 
ATOM      6  H5  UNL     1     -23.377  28.368   6.653  1.00  0.00     0.203 HD
HETATM    7  C7  UNL     1     -22.287  27.927   8.357  1.00  0.00     0.725 A 
HETATM    8  N8  UNL     1     -21.349  28.323   9.236  1.00  0.00    -0.018 N 
ATOM      9  H8  UNL     1     -21.096  27.717  10.015  1.00  0.00     0.203 HD
ENDROOT
BRANCH   1  10
HETATM   10  N2  UNL     1     -19.838  29.896   9.936  1.00  0.00    -0.131 N 
ATOM     11  H2  UNL     1     -19.501  30.857   9.873  1.00  0.00     0.205 HD
BRANCH  10  12
HETATM   12  N1  UNL     1     -19.319  29.112  10.885  1.00  0.00    -0.297 N 
HETATM   13  C4  UNL     1     -19.294  29.182  12.118  1.00  0.00     0.122 C 
ATOM     14  H1  UNL     1     -18.846  28.287  10.515  1.00  0.00     0.186 HD
BRANCH  13  15
HETATM   15  C3  UNL     1     -19.880  30.232  12.936  1.00  0.00     0.017 A 
HETATM   16  C2  UNL     1     -19.371  31.531  12.792  1.00  0.00     0.113 A 
HETATM   17  C11 UNL     1     -19.850  32.599  13.515  1.00  0.00     0.103 A 
HETATM   18  C10 UNL     1     -20.873  32.387  14.417  1.00  0.00     0.040 A 
HETATM   19  C9  UNL     1     -21.403  31.126  14.588  1.00  0.00     0.004 A 
HETATM   20  C8  UNL     1     -20.886  30.068  13.833  1.00  0.00     0.016 A 
BRANCH  16  21
HETATM   21  O1  UNL     1     -18.332  31.799  11.891  1.00  0.00    -0.352 OA
HETATM   22  C1  UNL     1     -17.020  31.338  12.233  1.00  0.00     0.210 C 
ENDBRANCH  16  21
BRANCH  17  23
HETATM   23  O2  UNL     1     -19.284  33.858  13.309  1.00  0.00    -0.344 OA
BRANCH  23  24
HETATM   24  C12 UNL     1     -19.768  35.089  13.676  1.00  0.00     0.121 C 
HETATM   25  C13 UNL     1     -20.035  35.964  12.454  1.00  0.00     0.040 C 
HETATM   26  C14 UNL     1     -18.707  35.762  14.562  1.00  0.00     0.040 C 
ENDBRANCH  23  24
ENDBRANCH  17  23
ENDBRANCH  13  15
ENDBRANCH  10  12
ENDBRANCH   1  10
BRANCH   4  27
HETATM   27  N4  UNL     1     -22.413  30.608   6.160  1.00  0.00    -0.234 N 
ATOM     28  H42 UNL     1     -22.139  31.590   6.176  1.00  0.00     0.174 HD
ATOM     29  H41 UNL     1     -22.947  30.230   5.377  1.00  0.00     0.174 HD
ENDBRANCH   4  27
BRANCH   7  30
HETATM   30  N6  UNL     1     -22.848  26.774   8.531  1.00  0.00    -0.138 N 
ATOM     31  H6  UNL     1     -23.408  26.382   7.775  1.00  0.00     0.205 HD
BRANCH  30  32
HETATM   32  N7  UNL     1     -22.715  26.050   9.706  1.00  0.00    -0.331 N 
ATOM     33  H72 UNL     1     -22.805  26.556  10.586  1.00  0.00     0.177 HD
ATOM     34  H71 UNL     1     -22.534  25.047   9.714  1.00  0.00     0.177 HD
ENDBRANCH  30  32
ENDBRANCH   7  30
TORSDOF 9
ENDMDL
