MODEL 1
REMARK VINA RESULT: -8.488439466      0.000      0.000
REMARK  7 active torsions:
REMARK  status: ('A' for Active; 'I' for Inactive)
REMARK    1  A    between atoms: O1_2  and  N1_3 
REMARK    2  A    between atoms: C2_5  and  N2_6 
REMARK    3  A    between atoms: C2_5  and  C3_9 
REMARK    4  A    between atoms: N4_12  and  C4_13 
REMARK    5  A    between atoms: C4_13  and  C5_14 
REMARK    6  A    between atoms: C5_14  and  C6_15 
REMARK    7  A    between atoms: C12_26  and  N7_27 
ROOT
HETATM    1  C3  UNL     1     -20.762  29.775   8.853  1.00  0.00     0.111 A 
HETATM    2  N3  UNL     1     -19.940  30.424   9.768  1.00  0.00    -0.292 N 
ATOM      3  H3  UNL     1     -19.484  31.321   9.598  1.00  0.00     0.187 HD
HETATM    4  N4  UNL     1     -19.827  29.741  10.869  1.00  0.00    -0.275 N 
HETATM    5  C11 UNL     1     -20.551  28.619  10.756  1.00  0.00     0.153 A 
HETATM    6  N6  UNL     1     -20.787  27.592  11.554  1.00  0.00    -0.174 N 
ATOM      7  H6  UNL     1     -20.346  27.602  12.474  1.00  0.00     0.186 HD
HETATM    8  C12 UNL     1     -21.553  26.549  11.253  1.00  0.00     0.678 A 
HETATM    9  N8  UNL     1     -22.121  26.562  10.039  1.00  0.00    -0.178 N 
ATOM     10  H8  UNL     1     -22.715  25.776   9.775  1.00  0.00     0.185 HD
HETATM   11  C13 UNL     1     -21.945  27.574   9.134  1.00  0.00     0.148 A 
HETATM   12  N9  UNL     1     -22.614  27.438   7.893  1.00  0.00    -0.081 NA
HETATM   13  C14 UNL     1     -21.143  28.640   9.482  1.00  0.00     0.084 A 
ENDROOT
BRANCH   4  14
HETATM   14  C4  UNL     1     -19.067  30.058  12.074  1.00  0.00     0.151 C 
BRANCH  14  15
HETATM   15  C5  UNL     1     -18.004  31.063  11.732  1.00  0.00     0.026 C 
BRANCH  15  16
HETATM   16  C6  UNL     1     -16.758  30.897  12.533  1.00  0.00    -0.010 C 
HETATM   17  C7  UNL     1     -16.700  29.570  13.272  1.00  0.00     0.032 C 
HETATM   18  C8  UNL     1     -15.386  29.560  14.033  1.00  0.00     0.232 C 
HETATM   19  N5  UNL     1     -14.323  29.555  13.047  1.00  0.00    -0.075 N 
HETATM   20  C9  UNL     1     -14.257  30.884  12.470  1.00  0.00     0.232 C 
ATOM     21  H52 UNL     1     -13.430  29.242  13.427  1.00  0.00     0.277 HD
ATOM     22  H51 UNL     1     -14.435  28.822  12.346  1.00  0.00     0.277 HD
HETATM   23  C10 UNL     1     -15.533  31.145  11.709  1.00  0.00     0.032 C 
ENDBRANCH  15  16
ENDBRANCH  14  15
ENDBRANCH   4  14
BRANCH   1  24
HETATM   24  C2  UNL     1     -21.063  30.296   7.561  1.00  0.00     0.148 C 
HETATM   25  N1  UNL     1     -20.023  30.842   6.929  1.00  0.00    -0.249 N 
ATOM     26  H1  UNL     1     -19.117  30.849   7.398  1.00  0.00     0.196 HD
BRANCH  25  27
HETATM   27  O1  UNL     1     -20.114  31.386   5.698  1.00  0.00    -0.284 OA
HETATM   28  C1  UNL     1     -19.646  32.712   5.466  1.00  0.00     0.237 C 
ENDBRANCH  25  27
BRANCH  24  29
HETATM   29  N2  UNL     1     -22.228  30.340   6.842  1.00  0.00    -0.382 N 
ATOM     30  H22 UNL     1     -22.473  30.810   5.970  1.00  0.00     0.157 HD
ATOM     31  H21 UNL     1     -22.988  29.805   7.261  1.00  0.00     0.157 HD
ENDBRANCH  24  29
ENDBRANCH   1  24
BRANCH   8  32
HETATM   32  N7  UNL     1     -21.745  25.584  12.065  1.00  0.00    -0.234 N 
ATOM     33  H72 UNL     1     -20.981  25.196  12.617  1.00  0.00     0.174 HD
ATOM     34  H71 UNL     1     -22.662  25.157  12.200  1.00  0.00     0.174 HD
ENDBRANCH   8  32
TORSDOF 7
ENDMDL
MODEL 2
REMARK VINA RESULT: -8.193103833      2.399      3.195
REMARK  7 active torsions:
REMARK  status: ('A' for Active; 'I' for Inactive)
REMARK    1  A    between atoms: O1_2  and  N1_3 
REMARK    2  A    between atoms: C2_5  and  N2_6 
REMARK    3  A    between atoms: C2_5  and  C3_9 
REMARK    4  A    between atoms: N4_12  and  C4_13 
REMARK    5  A    between atoms: C4_13  and  C5_14 
REMARK    6  A    between atoms: C5_14  and  C6_15 
REMARK    7  A    between atoms: C12_26  and  N7_27 
ROOT
HETATM    1  C3  UNL     1     -20.893  29.702   8.859  1.00  0.00     0.111 A 
HETATM    2  N3  UNL     1     -20.199  30.301   9.905  1.00  0.00    -0.292 N 
ATOM      3  H3  UNL     1     -19.704  31.190   9.833  1.00  0.00     0.187 HD
HETATM    4  N4  UNL     1     -20.260  29.581  10.987  1.00  0.00    -0.275 N 
HETATM    5  C11 UNL     1     -20.984  28.482  10.732  1.00  0.00     0.153 A 
HETATM    6  N6  UNL     1     -21.354  27.437  11.452  1.00  0.00    -0.174 N 
ATOM      7  H6  UNL     1     -21.051  27.407  12.426  1.00  0.00     0.186 HD
HETATM    8  C12 UNL     1     -22.090  26.424  11.008  1.00  0.00     0.678 A 
HETATM    9  N8  UNL     1     -22.476  26.489   9.726  1.00  0.00    -0.178 N 
ATOM     10  H8  UNL     1     -23.042  25.728   9.353  1.00  0.00     0.185 HD
HETATM   11  C13 UNL     1     -22.150  27.524   8.892  1.00  0.00     0.148 A 
HETATM   12  N9  UNL     1     -22.635  27.444   7.563  1.00  0.00    -0.081 NA
HETATM   13  C14 UNL     1     -21.384  28.558   9.388  1.00  0.00     0.084 A 
ENDROOT
BRANCH   4  14
HETATM   14  C4  UNL     1     -19.676  29.840  12.299  1.00  0.00     0.151 C 
BRANCH  14  15
HETATM   15  C5  UNL     1     -20.749  30.348  13.221  1.00  0.00     0.026 C 
BRANCH  15  16
HETATM   16  C6  UNL     1     -20.855  31.835  13.236  1.00  0.00    -0.010 C 
HETATM   17  C7  UNL     1     -21.731  32.356  14.363  1.00  0.00     0.032 C 
HETATM   18  C8  UNL     1     -21.737  33.869  14.236  1.00  0.00     0.232 C 
HETATM   19  N5  UNL     1     -20.384  34.323  14.492  1.00  0.00    -0.075 N 
HETATM   20  C9  UNL     1     -19.584  33.988  13.330  1.00  0.00     0.232 C 
ATOM     21  H52 UNL     1     -20.336  35.313  14.735  1.00  0.00     0.277 HD
ATOM     22  H51 UNL     1     -19.999  33.953  15.361  1.00  0.00     0.277 HD
HETATM   23  C10 UNL     1     -19.507  32.486  13.213  1.00  0.00     0.032 C 
ENDBRANCH  15  16
ENDBRANCH  14  15
ENDBRANCH   4  14
BRANCH   1  24
HETATM   24  C2  UNL     1     -20.993  30.271   7.557  1.00  0.00     0.148 C 
HETATM   25  N1  UNL     1     -19.856  30.787   7.090  1.00  0.00    -0.249 N 
ATOM     26  H1  UNL     1     -19.023  30.741   7.678  1.00  0.00     0.196 HD
BRANCH  25  27
HETATM   27  O1  UNL     1     -19.755  31.368   5.877  1.00  0.00    -0.284 OA
HETATM   28  C1  UNL     1     -19.572  32.777   5.772  1.00  0.00     0.237 C 
ENDBRANCH  25  27
BRANCH  24  29
HETATM   29  N2  UNL     1     -22.046  30.386   6.689  1.00  0.00    -0.382 N 
ATOM     30  H22 UNL     1     -22.587  31.193   6.378  1.00  0.00     0.157 HD
ATOM     31  H21 UNL     1     -22.340  29.498   6.282  1.00  0.00     0.157 HD
ENDBRANCH  24  29
ENDBRANCH   1  24
BRANCH   8  32
HETATM   32  N7  UNL     1     -22.418  25.439  11.750  1.00  0.00    -0.234 N 
ATOM     33  H72 UNL     1     -21.891  24.565  11.733  1.00  0.00     0.174 HD
ATOM     34  H71 UNL     1     -23.212  25.475  12.388  1.00  0.00     0.174 HD
ENDBRANCH   8  32
TORSDOF 7
ENDMDL
MODEL 3
REMARK VINA RESULT: -7.841467357      2.549      3.408
REMARK  7 active torsions:
REMARK  status: ('A' for Active; 'I' for Inactive)
REMARK    1  A    between atoms: O1_2  and  N1_3 
REMARK    2  A    between atoms: C2_5  and  N2_6 
REMARK    3  A    between atoms: C2_5  and  C3_9 
REMARK    4  A    between atoms: N4_12  and  C4_13 
REMARK    5  A    between atoms: C4_13  and  C5_14 
REMARK    6  A    between atoms: C5_14  and  C6_15 
REMARK    7  A    between atoms: C12_26  and  N7_27 
ROOT
HETATM    1  C3  UNL     1     -20.801  29.677   8.956  1.00  0.00     0.111 A 
HETATM    2  N3  UNL     1     -20.130  30.249  10.031  1.00  0.00    -0.292 N 
ATOM      3  H3  UNL     1     -19.617  31.129   9.987  1.00  0.00     0.187 HD
HETATM    4  N4  UNL     1     -20.239  29.516  11.100  1.00  0.00    -0.275 N 
HETATM    5  C11 UNL     1     -20.974  28.434  10.808  1.00  0.00     0.153 A 
HETATM    6  N6  UNL     1     -21.386  27.387  11.502  1.00  0.00    -0.174 N 
ATOM      7  H6  UNL     1     -21.115  27.339  12.483  1.00  0.00     0.186 HD
HETATM    8  C12 UNL     1     -22.126  26.394  11.021  1.00  0.00     0.678 A 
HETATM    9  N8  UNL     1     -22.470  26.483   9.728  1.00  0.00    -0.178 N 
ATOM     10  H8  UNL     1     -23.038  25.738   9.327  1.00  0.00     0.185 HD
HETATM   11  C13 UNL     1     -22.099  27.522   8.919  1.00  0.00     0.148 A 
HETATM   12  N9  UNL     1     -22.543  27.469   7.575  1.00  0.00    -0.081 NA
HETATM   13  C14 UNL     1     -21.331  28.535   9.453  1.00  0.00     0.084 A 
ENDROOT
BRANCH   4  14
HETATM   14  C4  UNL     1     -19.692  29.747  12.434  1.00  0.00     0.151 C 
BRANCH  14  15
HETATM   15  C5  UNL     1     -20.776  30.291  13.320  1.00  0.00     0.026 C 
BRANCH  15  16
HETATM   16  C6  UNL     1     -20.871  31.778  13.287  1.00  0.00    -0.010 C 
HETATM   17  C7  UNL     1     -21.806  32.337  14.348  1.00  0.00     0.032 C 
HETATM   18  C8  UNL     1     -21.792  33.845  14.178  1.00  0.00     0.232 C 
HETATM   19  N5  UNL     1     -20.452  34.299  14.497  1.00  0.00    -0.075 N 
HETATM   20  C9  UNL     1     -19.591  33.925  13.391  1.00  0.00     0.232 C 
ATOM     21  H52 UNL     1     -20.410  35.294  14.714  1.00  0.00     0.277 HD
ATOM     22  H51 UNL     1     -20.119  33.951  15.396  1.00  0.00     0.277 HD
HETATM   23  C10 UNL     1     -19.519  32.420  13.321  1.00  0.00     0.032 C 
ENDBRANCH  15  16
ENDBRANCH  14  15
ENDBRANCH   4  14
BRANCH   1  24
HETATM   24  C2  UNL     1     -20.850  30.264   7.659  1.00  0.00     0.148 C 
HETATM   25  N1  UNL     1     -22.067  30.311   7.118  1.00  0.00    -0.249 N 
ATOM     26  H1  UNL     1     -22.852  29.937   7.652  1.00  0.00     0.196 HD
BRANCH  25  27
HETATM   27  O1  UNL     1     -22.310  30.831   5.897  1.00  0.00    -0.284 OA
HETATM   28  C1  UNL     1     -23.465  31.636   5.680  1.00  0.00     0.237 C 
ENDBRANCH  25  27
BRANCH  24  29
HETATM   29  N2  UNL     1     -19.872  30.793   6.858  1.00  0.00    -0.382 N 
ATOM     30  H22 UNL     1     -19.918  31.338   5.997  1.00  0.00     0.157 HD
ATOM     31  H21 UNL     1     -18.926  30.603   7.188  1.00  0.00     0.157 HD
ENDBRANCH  24  29
ENDBRANCH   1  24
BRANCH   8  32
HETATM   32  N7  UNL     1     -22.496  25.406  11.738  1.00  0.00    -0.234 N 
ATOM     33  H72 UNL     1     -22.086  25.236  12.657  1.00  0.00     0.174 HD
ATOM     34  H71 UNL     1     -23.210  24.745  11.433  1.00  0.00     0.174 HD
ENDBRANCH   8  32
TORSDOF 7
ENDMDL
MODEL 4
REMARK VINA RESULT: -7.593868307      2.602      4.262
REMARK  7 active torsions:
REMARK  status: ('A' for Active; 'I' for Inactive)
REMARK    1  A    between atoms: O1_2  and  N1_3 
REMARK    2  A    between atoms: C2_5  and  N2_6 
REMARK    3  A    between atoms: C2_5  and  C3_9 
REMARK    4  A    between atoms: N4_12  and  C4_13 
REMARK    5  A    between atoms: C4_13  and  C5_14 
REMARK    6  A    between atoms: C5_14  and  C6_15 
REMARK    7  A    between atoms: C12_26  and  N7_27 
ROOT
HETATM    1  C3  UNL     1     -20.121  30.625  10.233  1.00  0.00     0.111 A 
HETATM    2  N3  UNL     1     -19.200  30.127  11.149  1.00  0.00    -0.292 N 
ATOM      3  H3  UNL     1     -18.707  29.241  11.046  1.00  0.00     0.187 HD
HETATM    4  N4  UNL     1     -19.050  30.938  12.156  1.00  0.00    -0.275 N 
HETATM    5  C11 UNL     1     -19.844  32.002  11.975  1.00  0.00     0.153 A 
HETATM    6  N6  UNL     1     -20.082  33.101  12.669  1.00  0.00    -0.174 N 
ATOM      7  H6  UNL     1     -19.576  33.220  13.547  1.00  0.00     0.186 HD
HETATM    8  C12 UNL     1     -20.928  34.063  12.314  1.00  0.00     0.678 A 
HETATM    9  N8  UNL     1     -21.578  33.882  11.156  1.00  0.00    -0.178 N 
ATOM     10  H8  UNL     1     -22.234  34.601  10.853  1.00  0.00     0.185 HD
HETATM   11  C13 UNL     1     -21.407  32.783  10.358  1.00  0.00     0.148 A 
HETATM   12  N9  UNL     1     -22.170  32.741   9.165  1.00  0.00    -0.081 NA
HETATM   13  C14 UNL     1     -20.521  31.805  10.760  1.00  0.00     0.084 A 
ENDROOT
BRANCH   4  14
HETATM   14  C4  UNL     1     -18.189  30.801  13.327  1.00  0.00     0.151 C 
BRANCH  14  15
HETATM   15  C5  UNL     1     -17.147  29.754  13.048  1.00  0.00     0.026 C 
BRANCH  15  16
HETATM   16  C6  UNL     1     -15.754  30.241  13.261  1.00  0.00    -0.010 C 
HETATM   17  C7  UNL     1     -14.795  29.134  13.668  1.00  0.00     0.032 C 
HETATM   18  C8  UNL     1     -13.437  29.788  13.846  1.00  0.00     0.232 C 
HETATM   19  N5  UNL     1     -13.020  30.267  12.542  1.00  0.00    -0.075 N 
HETATM   20  C9  UNL     1     -13.814  31.441  12.234  1.00  0.00     0.232 C 
ATOM     21  H52 UNL     1     -12.016  30.440  12.484  1.00  0.00     0.277 HD
ATOM     22  H51 UNL     1     -13.075  29.550  11.819  1.00  0.00     0.277 HD
HETATM   23  C10 UNL     1     -15.257  31.025  12.086  1.00  0.00     0.032 C 
ENDBRANCH  15  16
ENDBRANCH  14  15
ENDBRANCH   4  14
BRANCH   1  24
HETATM   24  C2  UNL     1     -20.481  29.945   9.035  1.00  0.00     0.148 C 
HETATM   25  N1  UNL     1     -21.087  28.772   9.225  1.00  0.00    -0.249 N 
ATOM     26  H1  UNL     1     -21.245  28.456  10.182  1.00  0.00     0.196 HD
BRANCH  25  27
HETATM   27  O1  UNL     1     -21.501  27.986   8.211  1.00  0.00    -0.284 OA
HETATM   28  C1  UNL     1     -22.717  27.251   8.326  1.00  0.00     0.237 C 
ENDBRANCH  25  27
BRANCH  24  29
HETATM   29  N2  UNL     1     -20.321  30.273   7.714  1.00  0.00    -0.382 N 
ATOM     30  H22 UNL     1     -20.849  30.890   7.097  1.00  0.00     0.157 HD
ATOM     31  H21 UNL     1     -19.525  29.812   7.272  1.00  0.00     0.157 HD
ENDBRANCH  24  29
ENDBRANCH   1  24
BRANCH   8  32
HETATM   32  N7  UNL     1     -21.118  35.104  13.026  1.00  0.00    -0.234 N 
ATOM     33  H72 UNL     1     -20.363  35.517  13.575  1.00  0.00     0.174 HD
ATOM     34  H71 UNL     1     -22.023  35.571  13.081  1.00  0.00     0.174 HD
ENDBRANCH   8  32
TORSDOF 7
ENDMDL
MODEL 5
REMARK VINA RESULT: -7.394793083      3.858      8.829
REMARK  7 active torsions:
REMARK  status: ('A' for Active; 'I' for Inactive)
REMARK    1  A    between atoms: O1_2  and  N1_3 
REMARK    2  A    between atoms: C2_5  and  N2_6 
REMARK    3  A    between atoms: C2_5  and  C3_9 
REMARK    4  A    between atoms: N4_12  and  C4_13 
REMARK    5  A    between atoms: C4_13  and  C5_14 
REMARK    6  A    between atoms: C5_14  and  C6_15 
REMARK    7  A    between atoms: C12_26  and  N7_27 
ROOT
HETATM    1  C3  UNL     1     -21.966  27.310   9.784  1.00  0.00     0.111 A 
HETATM    2  N3  UNL     1     -22.794  26.826   8.777  1.00  0.00    -0.292 N 
ATOM      3  H3  UNL     1     -23.309  25.947   8.828  1.00  0.00     0.187 HD
HETATM    4  N4  UNL     1     -22.827  27.639   7.762  1.00  0.00    -0.275 N 
HETATM    5  C11 UNL     1     -22.040  28.691   8.025  1.00  0.00     0.153 A 
HETATM    6  N6  UNL     1     -21.715  29.786   7.360  1.00  0.00    -0.174 N 
ATOM      7  H6  UNL     1     -22.125  29.912   6.435  1.00  0.00     0.186 HD
HETATM    8  C12 UNL     1     -20.897  30.735   7.802  1.00  0.00     0.678 A 
HETATM    9  N8  UNL     1     -20.372  30.545   9.022  1.00  0.00    -0.178 N 
ATOM     10  H8  UNL     1     -19.740  31.254   9.392  1.00  0.00     0.185 HD
HETATM   11  C13 UNL     1     -20.641  29.449   9.796  1.00  0.00     0.148 A 
HETATM   12  N9  UNL     1     -20.007  29.396  11.062  1.00  0.00    -0.081 NA
HETATM   13  C14 UNL     1     -21.495  28.484   9.303  1.00  0.00     0.084 A 
ENDROOT
BRANCH   4  14
HETATM   14  C4  UNL     1     -23.565  27.514   6.508  1.00  0.00     0.151 C 
BRANCH  14  15
HETATM   15  C5  UNL     1     -24.902  28.182   6.658  1.00  0.00     0.026 C 
BRANCH  15  16
HETATM   16  C6  UNL     1     -25.358  28.871   5.417  1.00  0.00    -0.010 C 
HETATM   17  C7  UNL     1     -26.420  28.091   4.660  1.00  0.00     0.032 C 
HETATM   18  C8  UNL     1     -26.769  28.918   3.436  1.00  0.00     0.232 C 
HETATM   19  N5  UNL     1     -27.384  30.142   3.911  1.00  0.00    -0.075 N 
HETATM   20  C9  UNL     1     -26.334  30.971   4.470  1.00  0.00     0.232 C 
ATOM     21  H52 UNL     1     -27.926  30.620   3.190  1.00  0.00     0.277 HD
ATOM     22  H51 UNL     1     -28.149  29.975   4.564  1.00  0.00     0.277 HD
HETATM   23  C10 UNL     1     -25.773  30.284   5.690  1.00  0.00     0.032 C 
ENDBRANCH  15  16
ENDBRANCH  14  15
ENDBRANCH   4  14
BRANCH   1  24
HETATM   24  C2  UNL     1     -21.742  26.625  11.013  1.00  0.00     0.148 C 
HETATM   25  N1  UNL     1     -22.676  25.726  11.323  1.00  0.00    -0.249 N 
ATOM     26  H1  UNL     1     -23.459  25.596  10.681  1.00  0.00     0.196 HD
BRANCH  25  27
HETATM   27  O1  UNL     1     -22.635  24.980  12.446  1.00  0.00    -0.284 OA
HETATM   28  C1  UNL     1     -23.425  23.799  12.549  1.00  0.00     0.237 C 
ENDBRANCH  25  27
BRANCH  24  29
HETATM   29  N2  UNL     1     -20.739  26.718  11.941  1.00  0.00    -0.382 N 
ATOM     30  H22 UNL     1     -19.863  26.207  12.051  1.00  0.00     0.157 HD
ATOM     31  H21 UNL     1     -20.904  27.432  12.651  1.00  0.00     0.157 HD
ENDBRANCH  24  29
ENDBRANCH   1  24
BRANCH   8  32
HETATM   32  N7  UNL     1     -20.618  31.773   7.116  1.00  0.00    -0.234 N 
ATOM     33  H72 UNL     1     -19.977  31.728   6.323  1.00  0.00     0.174 HD
ATOM     34  H71 UNL     1     -21.016  32.689   7.322  1.00  0.00     0.174 HD
ENDBRANCH   8  32
TORSDOF 7
ENDMDL
