MODEL 1
REMARK VINA RESULT: -6.266284206      0.000      0.000
REMARK  10 active torsions:
REMARK  status: ('A' for Active; 'I' for Inactive)
REMARK    1  A    between atoms: C3_4  and  S1_5 
REMARK    2  A    between atoms: S1_5  and  S2_6 
REMARK    3  A    between atoms: S2_6  and  C4_7 
REMARK    4  A    between atoms: C6_9  and  O1_10 
REMARK    5  A    between atoms: O1_10  and  C7_11 
REMARK    6  A    between atoms: C7_11  and  C8_12 
REMARK    7  A    between atoms: C9_16  and  N2_17 
REMARK    8  A    between atoms: C10_21  and  C11_22 
REMARK    9  A    between atoms: C11_22  and  O2_23 
REMARK   10  A    between atoms: C12_28  and  N4_29 
ROOT
HETATM    1  N1  UNL     1     -20.885  30.527   7.517  1.00  0.00    -0.191 NA
HETATM    2  C1  UNL     1     -21.132  29.670   8.257  1.00  0.00     0.106 C 
HETATM    3  C2  UNL     1     -21.442  28.612   9.204  1.00  0.00     0.121 A 
HETATM    4  C3  UNL     1     -20.934  28.623  10.485  1.00  0.00     0.121 A 
HETATM    5  N3  UNL     1     -21.256  27.621  11.305  1.00  0.00    -0.184 N 
ATOM      6  H3  UNL     1     -20.895  27.601  12.259  1.00  0.00     0.185 HD
HETATM    7  C12 UNL     1     -22.072  26.625  10.855  1.00  0.00     0.678 A 
HETATM    8  N5  UNL     1     -22.561  26.627   9.602  1.00  0.00    -0.177 N 
ATOM      9  H5  UNL     1     -23.170  25.864   9.305  1.00  0.00     0.185 HD
HETATM   10  C13 UNL     1     -22.269  27.610   8.731  1.00  0.00     0.155 A 
HETATM   11  N6  UNL     1     -22.773  27.637   7.400  1.00  0.00    -0.080 NA
ENDROOT
BRANCH   4  12
HETATM   12  S1  UNL     1     -19.880  29.997  10.911  1.00  0.00    -0.035 SA
BRANCH  12  13
HETATM   13  S2  UNL     1     -20.279  30.377  12.959  1.00  0.00    -0.059 SA
BRANCH  13  14
HETATM   14  C4  UNL     1     -21.222  31.863  13.055  1.00  0.00     0.197 C 
HETATM   15  C5  UNL     1     -20.778  32.904  14.030  1.00  0.00     0.078 C 
HETATM   16  C6  UNL     1     -21.947  33.849  14.236  1.00  0.00     0.157 C 
HETATM   17  C9  UNL     1     -22.850  33.979  13.078  1.00  0.00     0.243 C 
HETATM   18  C10 UNL     1     -22.582  33.176  11.873  1.00  0.00     0.179 C 
HETATM   19  O3  UNL     1     -21.347  32.543  11.818  1.00  0.00    -0.365 OA
BRANCH  16  20
HETATM   20  O1  UNL     1     -21.512  35.103  14.659  1.00  0.00    -0.379 OA
BRANCH  20  21
HETATM   21  C7  UNL     1     -20.807  35.776  13.658  1.00  0.00     0.227 C 
BRANCH  21  22
HETATM   22  C8  UNL     1     -19.921  36.853  14.220  1.00  0.00     0.209 C 
HETATM   23 CL1  UNL     1     -20.933  37.892  15.255  1.00  0.00    -0.081 Cl
HETATM   24 CL2  UNL     1     -18.538  36.192  15.106  1.00  0.00    -0.081 Cl
HETATM   25 CL3  UNL     1     -19.368  37.855  12.849  1.00  0.00    -0.081 Cl
ENDBRANCH  21  22
ENDBRANCH  20  21
ENDBRANCH  16  20
BRANCH  17  26
HETATM   26  N2  UNL     1     -24.242  33.710  13.488  1.00  0.00    -0.070 N 
ATOM     27  H23 UNL     1     -24.469  34.148  14.381  1.00  0.00     0.274 HD
ATOM     28  H22 UNL     1     -24.915  34.205  12.903  1.00  0.00     0.274 HD
ATOM     29  H21 UNL     1     -24.415  32.705  13.502  1.00  0.00     0.274 HD
ENDBRANCH  17  26
BRANCH  18  30
HETATM   30  C11 UNL     1     -22.755  33.995  10.591  1.00  0.00     0.198 C 
BRANCH  30  31
HETATM   31  O2  UNL     1     -21.986  33.468   9.560  1.00  0.00    -0.398 OA
ATOM     32  H2  UNL     1     -22.510  33.343   8.777  1.00  0.00     0.209 HD
ENDBRANCH  30  31
ENDBRANCH  18  30
ENDBRANCH  13  14
ENDBRANCH  12  13
ENDBRANCH   4  12
BRANCH   7  33
HETATM   33  N4  UNL     1     -22.399  25.645  11.630  1.00  0.00    -0.234 N 
ATOM     34  H42 UNL     1     -21.770  25.414  12.399  1.00  0.00     0.174 HD
ATOM     35  H41 UNL     1     -23.260  25.123  11.469  1.00  0.00     0.174 HD
ENDBRANCH   7  33
TORSDOF 10
ENDMDL
MODEL 2
REMARK VINA RESULT: -6.090686510      5.214      8.126
REMARK  10 active torsions:
REMARK  status: ('A' for Active; 'I' for Inactive)
REMARK    1  A    between atoms: C3_4  and  S1_5 
REMARK    2  A    between atoms: S1_5  and  S2_6 
REMARK    3  A    between atoms: S2_6  and  C4_7 
REMARK    4  A    between atoms: C6_9  and  O1_10 
REMARK    5  A    between atoms: O1_10  and  C7_11 
REMARK    6  A    between atoms: C7_11  and  C8_12 
REMARK    7  A    between atoms: C9_16  and  N2_17 
REMARK    8  A    between atoms: C10_21  and  C11_22 
REMARK    9  A    between atoms: C11_22  and  O2_23 
REMARK   10  A    between atoms: C12_28  and  N4_29 
ROOT
HETATM    1  N1  UNL     1     -22.638  34.336  12.491  1.00  0.00    -0.191 NA
HETATM    2  C1  UNL     1     -21.725  33.652  12.692  1.00  0.00     0.106 C 
HETATM    3  C2  UNL     1     -20.577  32.788  12.919  1.00  0.00     0.121 A 
HETATM    4  C3  UNL     1     -20.353  31.672  12.142  1.00  0.00     0.121 A 
HETATM    5  N3  UNL     1     -19.282  30.921  12.402  1.00  0.00    -0.184 N 
ATOM      6  H3  UNL     1     -19.090  30.088  11.845  1.00  0.00     0.185 HD
HETATM    7  C12 UNL     1     -18.448  31.277  13.421  1.00  0.00     0.678 A 
HETATM    8  N5  UNL     1     -18.679  32.369  14.172  1.00  0.00    -0.177 N 
ATOM      9  H5  UNL     1     -18.030  32.601  14.924  1.00  0.00     0.185 HD
HETATM   10  C13 UNL     1     -19.743  33.163  13.956  1.00  0.00     0.155 A 
HETATM   11  N6  UNL     1     -20.012  34.323  14.735  1.00  0.00    -0.080 NA
ENDROOT
BRANCH   4  12
HETATM   12  S1  UNL     1     -21.543  31.348  10.853  1.00  0.00    -0.035 SA
BRANCH  12  13
HETATM   13  S2  UNL     1     -20.432  30.415   9.306  1.00  0.00    -0.059 SA
BRANCH  13  14
HETATM   14  C4  UNL     1     -21.426  30.427   7.850  1.00  0.00     0.197 C 
HETATM   15  C5  UNL     1     -20.848  31.052   6.623  1.00  0.00     0.078 C 
HETATM   16  C6  UNL     1     -22.003  31.325   5.677  1.00  0.00     0.157 C 
HETATM   17  C9  UNL     1     -23.142  30.399   5.805  1.00  0.00     0.243 C 
HETATM   18  C10 UNL     1     -23.091  29.347   6.835  1.00  0.00     0.179 C 
HETATM   19  O3  UNL     1     -21.859  29.141   7.443  1.00  0.00    -0.365 OA
BRANCH  16  20
HETATM   20  O1  UNL     1     -21.568  31.384   4.355  1.00  0.00    -0.379 OA
BRANCH  20  21
HETATM   21  C7  UNL     1     -21.928  32.586   3.740  1.00  0.00     0.227 C 
BRANCH  21  22
HETATM   22  C8  UNL     1     -20.749  33.271   3.107  1.00  0.00     0.209 C 
HETATM   23 CL1  UNL     1     -21.245  34.937   2.716  1.00  0.00    -0.081 Cl
HETATM   24 CL2  UNL     1     -19.316  33.240   4.146  1.00  0.00    -0.081 Cl
HETATM   25 CL3  UNL     1     -20.421  32.443   1.560  1.00  0.00    -0.081 Cl
ENDBRANCH  21  22
ENDBRANCH  20  21
ENDBRANCH  16  20
BRANCH  17  26
HETATM   26  N2  UNL     1     -24.392  31.157   6.010  1.00  0.00    -0.070 N 
ATOM     27  H23 UNL     1     -24.217  32.153   6.146  1.00  0.00     0.274 HD
ATOM     28  H22 UNL     1     -24.946  31.218   5.155  1.00  0.00     0.274 HD
ATOM     29  H21 UNL     1     -24.924  30.754   6.781  1.00  0.00     0.274 HD
ENDBRANCH  17  26
BRANCH  18  30
HETATM   30  C11 UNL     1     -23.590  28.001   6.301  1.00  0.00     0.198 C 
BRANCH  30  31
HETATM   31  O2  UNL     1     -23.025  26.948   7.010  1.00  0.00    -0.398 OA
ATOM     32  H2  UNL     1     -23.663  26.550   7.591  1.00  0.00     0.209 HD
ENDBRANCH  30  31
ENDBRANCH  18  30
ENDBRANCH  13  14
ENDBRANCH  12  13
ENDBRANCH   4  12
BRANCH   7  33
HETATM   33  N4  UNL     1     -17.405  30.566  13.693  1.00  0.00    -0.234 N 
ATOM     34  H42 UNL     1     -17.489  29.552  13.631  1.00  0.00     0.174 HD
ATOM     35  H41 UNL     1     -16.529  31.014  13.961  1.00  0.00     0.174 HD
ENDBRANCH   7  33
TORSDOF 10
ENDMDL
MODEL 3
REMARK VINA RESULT: -6.088935593      4.262      7.933
REMARK  10 active torsions:
REMARK  status: ('A' for Active; 'I' for Inactive)
REMARK    1  A    between atoms: C3_4  and  S1_5 
REMARK    2  A    between atoms: S1_5  and  S2_6 
REMARK    3  A    between atoms: S2_6  and  C4_7 
REMARK    4  A    between atoms: C6_9  and  O1_10 
REMARK    5  A    between atoms: O1_10  and  C7_11 
REMARK    6  A    between atoms: C7_11  and  C8_12 
REMARK    7  A    between atoms: C9_16  and  N2_17 
REMARK    8  A    between atoms: C10_21  and  C11_22 
REMARK    9  A    between atoms: C11_22  and  O2_23 
REMARK   10  A    between atoms: C12_28  and  N4_29 
ROOT
HETATM    1  N1  UNL     1     -26.253  34.534  11.124  1.00  0.00    -0.191 NA
HETATM    2  C1  UNL     1     -25.996  34.540  12.255  1.00  0.00     0.106 C 
HETATM    3  C2  UNL     1     -25.648  34.548  13.666  1.00  0.00     0.121 A 
HETATM    4  C3  UNL     1     -24.544  33.872  14.138  1.00  0.00     0.121 A 
HETATM    5  N3  UNL     1     -24.280  33.918  15.445  1.00  0.00    -0.184 N 
ATOM      6  H3  UNL     1     -23.471  33.427  15.825  1.00  0.00     0.185 HD
HETATM    7  C12 UNL     1     -25.105  34.628  16.268  1.00  0.00     0.678 A 
HETATM    8  N5  UNL     1     -26.180  35.284  15.794  1.00  0.00    -0.177 N 
ATOM      9  H5  UNL     1     -26.770  35.804  16.443  1.00  0.00     0.185 HD
HETATM   10  C13 UNL     1     -26.495  35.271  14.486  1.00  0.00     0.155 A 
HETATM   11  N6  UNL     1     -27.625  35.956  13.958  1.00  0.00    -0.080 NA
ENDROOT
BRANCH   4  12
HETATM   12  S1  UNL     1     -23.575  32.990  12.928  1.00  0.00    -0.035 SA
BRANCH  12  13
HETATM   13  S2  UNL     1     -21.780  32.477  13.935  1.00  0.00    -0.059 SA
BRANCH  13  14
HETATM   14  C4  UNL     1     -20.838  31.445  12.861  1.00  0.00     0.197 C 
HETATM   15  C5  UNL     1     -21.045  31.604  11.390  1.00  0.00     0.078 C 
HETATM   16  C6  UNL     1     -20.482  30.362  10.724  1.00  0.00     0.157 C 
HETATM   17  C9  UNL     1     -19.367  29.723  11.446  1.00  0.00     0.243 C 
HETATM   18  C10 UNL     1     -18.934  30.293  12.733  1.00  0.00     0.179 C 
HETATM   19  O3  UNL     1     -19.437  31.548  13.051  1.00  0.00    -0.365 OA
BRANCH  16  20
HETATM   20  O1  UNL     1     -20.125  30.617   9.402  1.00  0.00    -0.379 OA
BRANCH  20  21
HETATM   21  C7  UNL     1     -20.960  29.956   8.499  1.00  0.00     0.227 C 
BRANCH  21  22
HETATM   22  C8  UNL     1     -21.540  30.893   7.477  1.00  0.00     0.209 C 
HETATM   23 CL1  UNL     1     -22.834  30.018   6.620  1.00  0.00    -0.081 Cl
HETATM   24 CL2  UNL     1     -22.133  32.396   8.202  1.00  0.00    -0.081 Cl
HETATM   25 CL3  UNL     1     -20.257  31.236   6.282  1.00  0.00    -0.081 Cl
ENDBRANCH  21  22
ENDBRANCH  20  21
ENDBRANCH  16  20
BRANCH  17  26
HETATM   26  N2  UNL     1     -19.662  28.295  11.673  1.00  0.00    -0.070 N 
ATOM     27  H23 UNL     1     -19.548  28.032  12.652  1.00  0.00     0.274 HD
ATOM     28  H22 UNL     1     -20.657  28.091  11.579  1.00  0.00     0.274 HD
ATOM     29  H21 UNL     1     -19.094  27.717  11.054  1.00  0.00     0.274 HD
ENDBRANCH  17  26
BRANCH  18  30
HETATM   30  C11 UNL     1     -17.407  30.350  12.847  1.00  0.00     0.198 C 
BRANCH  30  31
HETATM   31  O2  UNL     1     -16.966  29.629  13.951  1.00  0.00    -0.398 OA
ATOM     32  H2  UNL     1     -16.295  29.005  13.701  1.00  0.00     0.209 HD
ENDBRANCH  30  31
ENDBRANCH  18  30
ENDBRANCH  13  14
ENDBRANCH  12  13
ENDBRANCH   4  12
BRANCH   7  33
HETATM   33  N4  UNL     1     -24.871  34.688  17.536  1.00  0.00    -0.234 N 
ATOM     34  H42 UNL     1     -24.167  34.059  17.922  1.00  0.00     0.174 HD
ATOM     35  H41 UNL     1     -25.380  35.346  18.126  1.00  0.00     0.174 HD
ENDBRANCH   7  33
TORSDOF 10
ENDMDL
MODEL 4
REMARK VINA RESULT: -6.083901528      6.079      7.526
REMARK  10 active torsions:
REMARK  status: ('A' for Active; 'I' for Inactive)
REMARK    1  A    between atoms: C3_4  and  S1_5 
REMARK    2  A    between atoms: S1_5  and  S2_6 
REMARK    3  A    between atoms: S2_6  and  C4_7 
REMARK    4  A    between atoms: C6_9  and  O1_10 
REMARK    5  A    between atoms: O1_10  and  C7_11 
REMARK    6  A    between atoms: C7_11  and  C8_12 
REMARK    7  A    between atoms: C9_16  and  N2_17 
REMARK    8  A    between atoms: C10_21  and  C11_22 
REMARK    9  A    between atoms: C11_22  and  O2_23 
REMARK   10  A    between atoms: C12_28  and  N4_29 
ROOT
HETATM    1  N1  UNL     1     -14.754  28.511  13.804  1.00  0.00    -0.191 NA
HETATM    2  C1  UNL     1     -14.102  29.362  13.363  1.00  0.00     0.106 C 
HETATM    3  C2  UNL     1     -13.305  30.444  12.808  1.00  0.00     0.121 A 
HETATM    4  C3  UNL     1     -13.813  31.290  11.847  1.00  0.00     0.121 A 
HETATM    5  N3  UNL     1     -13.030  32.263  11.377  1.00  0.00    -0.184 N 
ATOM      6  H3  UNL     1     -13.377  32.905  10.665  1.00  0.00     0.185 HD
HETATM    7  C12 UNL     1     -11.760  32.389  11.860  1.00  0.00     0.678 A 
HETATM    8  N5  UNL     1     -11.276  31.556  12.799  1.00  0.00    -0.177 N 
ATOM      9  H5  UNL     1     -10.322  31.685  13.134  1.00  0.00     0.185 HD
HETATM   10  C13 UNL     1     -12.020  30.557  13.308  1.00  0.00     0.155 A 
HETATM   11  N6  UNL     1     -11.535  29.661  14.301  1.00  0.00    -0.080 NA
ENDROOT
BRANCH   4  12
HETATM   12  S1  UNL     1     -15.490  30.984  11.324  1.00  0.00    -0.035 SA
BRANCH  12  13
HETATM   13  S2  UNL     1     -16.686  31.477  13.004  1.00  0.00    -0.059 SA
BRANCH  13  14
HETATM   14  C4  UNL     1     -18.318  30.890  12.693  1.00  0.00     0.197 C 
HETATM   15  C5  UNL     1     -19.423  31.434  13.538  1.00  0.00     0.078 C 
HETATM   16  C6  UNL     1     -20.604  30.493  13.387  1.00  0.00     0.157 C 
HETATM   17  C9  UNL     1     -20.678  29.794  12.093  1.00  0.00     0.243 C 
HETATM   18  C10 UNL     1     -19.612  30.019  11.101  1.00  0.00     0.179 C 
HETATM   19  O3  UNL     1     -18.748  31.076  11.356  1.00  0.00    -0.365 OA
BRANCH  16  20
HETATM   20  O1  UNL     1     -21.805  31.145  13.659  1.00  0.00    -0.379 OA
BRANCH  20  21
HETATM   21  C7  UNL     1     -22.257  31.885  12.563  1.00  0.00     0.227 C 
BRANCH  21  22
HETATM   22  C8  UNL     1     -22.693  33.268  12.958  1.00  0.00     0.209 C 
HETATM   23 CL1  UNL     1     -24.471  33.320  12.847  1.00  0.00    -0.081 Cl
HETATM   24 CL2  UNL     1     -22.123  33.718  14.572  1.00  0.00    -0.081 Cl
HETATM   25 CL3  UNL     1     -22.057  34.397  11.729  1.00  0.00    -0.081 Cl
ENDBRANCH  21  22
ENDBRANCH  20  21
ENDBRANCH  16  20
BRANCH  17  26
HETATM   26  N2  UNL     1     -20.778  28.337  12.308  1.00  0.00    -0.070 N 
ATOM     27  H23 UNL     1     -21.148  28.112  13.232  1.00  0.00     0.274 HD
ATOM     28  H22 UNL     1     -21.518  27.918  11.745  1.00  0.00     0.274 HD
ATOM     29  H21 UNL     1     -19.874  27.894  12.142  1.00  0.00     0.274 HD
ENDBRANCH  17  26
BRANCH  18  30
HETATM   30  C11 UNL     1     -20.177  30.196   9.688  1.00  0.00     0.198 C 
BRANCH  30  31
HETATM   31  O2  UNL     1     -20.569  28.973   9.155  1.00  0.00    -0.398 OA
ATOM     32  H2  UNL     1     -21.462  29.015   8.833  1.00  0.00     0.209 HD
ENDBRANCH  30  31
ENDBRANCH  18  30
ENDBRANCH  13  14
ENDBRANCH  12  13
ENDBRANCH   4  12
BRANCH   7  33
HETATM   33  N4  UNL     1     -10.982  33.323  11.423  1.00  0.00    -0.234 N 
ATOM     34  H42 UNL     1     -11.368  34.263  11.334  1.00  0.00     0.174 HD
ATOM     35  H41 UNL     1     -10.015  33.116  11.175  1.00  0.00     0.174 HD
ENDBRANCH   7  33
TORSDOF 10
ENDMDL
MODEL 5
REMARK VINA RESULT: -6.037974349      2.028      2.541
REMARK  10 active torsions:
REMARK  status: ('A' for Active; 'I' for Inactive)
REMARK    1  A    between atoms: C3_4  and  S1_5 
REMARK    2  A    between atoms: S1_5  and  S2_6 
REMARK    3  A    between atoms: S2_6  and  C4_7 
REMARK    4  A    between atoms: C6_9  and  O1_10 
REMARK    5  A    between atoms: O1_10  and  C7_11 
REMARK    6  A    between atoms: C7_11  and  C8_12 
REMARK    7  A    between atoms: C9_16  and  N2_17 
REMARK    8  A    between atoms: C10_21  and  C11_22 
REMARK    9  A    between atoms: C11_22  and  O2_23 
REMARK   10  A    between atoms: C12_28  and  N4_29 
ROOT
HETATM    1  N1  UNL     1     -20.884  30.512   7.394  1.00  0.00    -0.191 NA
HETATM    2  C1  UNL     1     -21.138  29.669   8.148  1.00  0.00     0.106 C 
HETATM    3  C2  UNL     1     -21.457  28.630   9.113  1.00  0.00     0.121 A 
HETATM    4  C3  UNL     1     -20.985  28.682  10.407  1.00  0.00     0.121 A 
HETATM    5  N3  UNL     1     -21.313  27.696  11.244  1.00  0.00    -0.184 N 
ATOM      6  H3  UNL     1     -20.980  27.705  12.207  1.00  0.00     0.185 HD
HETATM    7  C12 UNL     1     -22.099  26.674  10.796  1.00  0.00     0.678 A 
HETATM    8  N5  UNL     1     -22.552  26.636   9.530  1.00  0.00    -0.177 N 
ATOM      9  H5  UNL     1     -23.139  25.855   9.236  1.00  0.00     0.185 HD
HETATM   10  C13 UNL     1     -22.253  27.601   8.643  1.00  0.00     0.155 A 
HETATM   11  N6  UNL     1     -22.718  27.586   7.298  1.00  0.00    -0.080 NA
ENDROOT
BRANCH   4  12
HETATM   12  S1  UNL     1     -19.968  30.085  10.827  1.00  0.00    -0.035 SA
BRANCH  12  13
HETATM   13  S2  UNL     1     -20.378  30.464  12.873  1.00  0.00    -0.059 SA
BRANCH  13  14
HETATM   14  C4  UNL     1     -21.545  31.783  12.951  1.00  0.00     0.197 C 
HETATM   15  C5  UNL     1     -21.699  32.496  14.255  1.00  0.00     0.078 C 
HETATM   16  C6  UNL     1     -23.012  33.254  14.195  1.00  0.00     0.157 C 
HETATM   17  C9  UNL     1     -23.421  33.680  12.845  1.00  0.00     0.243 C 
HETATM   18  C10 UNL     1     -22.578  33.309  11.696  1.00  0.00     0.179 C 
HETATM   19  O3  UNL     1     -21.318  32.805  11.995  1.00  0.00    -0.365 OA
BRANCH  16  20
HETATM   20  O1  UNL     1     -23.007  34.339  15.069  1.00  0.00    -0.379 OA
BRANCH  20  21
HETATM   21  C7  UNL     1     -24.145  34.363  15.878  1.00  0.00     0.227 C 
BRANCH  21  22
HETATM   22  C8  UNL     1     -24.841  35.694  15.833  1.00  0.00     0.209 C 
HETATM   23 CL1  UNL     1     -25.403  36.060  17.484  1.00  0.00    -0.081 Cl
HETATM   24 CL2  UNL     1     -23.801  36.976  15.194  1.00  0.00    -0.081 Cl
HETATM   25 CL3  UNL     1     -26.296  35.499  14.815  1.00  0.00    -0.081 Cl
ENDBRANCH  21  22
ENDBRANCH  20  21
ENDBRANCH  16  20
BRANCH  17  26
HETATM   26  N2  UNL     1     -24.790  33.208  12.558  1.00  0.00    -0.070 N 
ATOM     27  H23 UNL     1     -25.223  32.771  13.372  1.00  0.00     0.274 HD
ATOM     28  H22 UNL     1     -25.444  33.982  12.439  1.00  0.00     0.274 HD
ATOM     29  H21 UNL     1     -24.784  32.586  11.749  1.00  0.00     0.274 HD
ENDBRANCH  17  26
BRANCH  18  30
HETATM   30  C11 UNL     1     -22.404  34.474  10.717  1.00  0.00     0.198 C 
BRANCH  30  31
HETATM   31  O2  UNL     1     -21.296  35.243  11.055  1.00  0.00    -0.398 OA
ATOM     32  H2  UNL     1     -20.726  35.363  10.305  1.00  0.00     0.209 HD
ENDBRANCH  30  31
ENDBRANCH  18  30
ENDBRANCH  13  14
ENDBRANCH  12  13
ENDBRANCH   4  12
BRANCH   7  33
HETATM   33  N4  UNL     1     -22.431  25.708  11.586  1.00  0.00    -0.234 N 
ATOM     34  H42 UNL     1     -22.157  25.777  12.566  1.00  0.00     0.174 HD
ATOM     35  H41 UNL     1     -22.950  24.905  11.232  1.00  0.00     0.174 HD
ENDBRANCH   7  33
TORSDOF 10
ENDMDL
