MODEL 1
REMARK VINA RESULT: -8.108144638      0.000      0.000
REMARK  10 active torsions:
REMARK  status: ('A' for Active; 'I' for Inactive)
REMARK    1  A    between atoms: C2_2  and  C4_4 
REMARK    2  A    between atoms: C4_4  and  O1_5 
REMARK    3  A    between atoms: C4_4  and  C5_7 
REMARK    4  A    between atoms: C4_4  and  C15_33 
REMARK    5  A    between atoms: C5_7  and  O2_8 
REMARK    6  A    between atoms: O2_8  and  C6_9 
REMARK    7  A    between atoms: C6_9  and  C7_11 
REMARK    8  A    between atoms: C11_18  and  C12_19 
REMARK    9  A    between atoms: C12_19  and  O4_20 
REMARK   10  A    between atoms: C14_29  and  N4_30 
ROOT
HETATM    1  C7  UNL     1     -22.462  29.592   7.119  1.00  0.00     0.084 A 
HETATM    2  C8  UNL     1     -22.962  30.647   6.402  1.00  0.00     0.040 A 
HETATM    3  C9  UNL     1     -24.098  30.510   5.649  1.00  0.00     0.048 A 
HETATM    4  C10 UNL     1     -24.618  31.589   4.950  1.00  0.00     0.119 A 
HETATM    5 CL1  UNL     1     -23.761  33.118   5.013  1.00  0.00    -0.063 Cl
HETATM    6  N1  UNL     1     -25.747  31.409   4.257  1.00  0.00    -0.331 N 
ATOM      7  H1  UNL     1     -26.140  32.194   3.737  1.00  0.00     0.168 HD
HETATM    8  C11 UNL     1     -26.372  30.234   4.225  1.00  0.00     0.151 A 
HETATM    9  N2  UNL     1     -25.862  29.200   4.899  1.00  0.00    -0.327 N 
ATOM     10  H2  UNL     1     -26.349  28.304   4.865  1.00  0.00     0.169 HD
HETATM   11  C13 UNL     1     -24.730  29.294   5.623  1.00  0.00     0.121 A 
HETATM   12  N3  UNL     1     -24.251  28.257   6.319  1.00  0.00    -0.327 N 
ATOM     13  H3  UNL     1     -24.735  27.360   6.286  1.00  0.00     0.169 HD
HETATM   14  C14 UNL     1     -23.119  28.388   7.073  1.00  0.00     0.116 A 
ENDROOT
BRANCH   1  15
HETATM   15  C6  UNL     1     -21.300  29.821   7.947  1.00  0.00     0.297 C 
HETATM   16  O3  UNL     1     -20.495  30.744   7.550  1.00  0.00    -0.259 OA
BRANCH  15  17
HETATM   17  O2  UNL     1     -20.964  29.157   9.116  1.00  0.00    -0.314 OA
BRANCH  17  18
HETATM   18  C5  UNL     1     -20.322  29.884  10.160  1.00  0.00     0.225 C 
BRANCH  18  19
HETATM   19  C4  UNL     1     -20.465  29.287  11.506  1.00  0.00     0.143 C 
BRANCH  19  20
HETATM   20  C2  UNL     1     -21.339  30.123  12.415  1.00  0.00     0.022 C 
HETATM   21  C1  UNL     1     -20.657  30.275  13.782  1.00  0.00     0.013 C 
HETATM   22  C3  UNL     1     -21.530  31.533  11.900  1.00  0.00     0.013 C 
ENDBRANCH  19  20
BRANCH  19  23
HETATM   23  O1  UNL     1     -19.233  29.124  12.100  1.00  0.00    -0.379 OA
ATOM     24  H1  UNL     1     -18.634  29.770  11.746  1.00  0.00     0.211 HD
ENDBRANCH  19  23
BRANCH  19  25
HETATM   25  C15 UNL     1     -21.048  27.897  11.430  1.00  0.00     0.150 A 
HETATM   26  N5  UNL     1     -20.456  26.821  11.953  1.00  0.00    -0.270 N 
HETATM   27  N6  UNL     1     -21.206  25.778  11.730  1.00  0.00    -0.227 N 
ATOM     28  H5  UNL     1     -19.563  26.817  12.446  1.00  0.00     0.190 HD
HETATM   29  N7  UNL     1     -22.274  26.154  11.072  1.00  0.00    -0.227 N 
ATOM     30  H6  UNL     1     -20.995  24.823  12.021  1.00  0.00     0.210 HD
HETATM   31  N8  UNL     1     -22.178  27.461  10.886  1.00  0.00    -0.270 N 
ATOM     32  H7  UNL     1     -23.037  25.553  10.762  1.00  0.00     0.210 HD
ATOM     33  H8  UNL     1     -22.863  28.041  10.401  1.00  0.00     0.190 HD
ENDBRANCH  19  25
ENDBRANCH  18  19
ENDBRANCH  17  18
ENDBRANCH  15  17
ENDBRANCH   1  15
BRANCH  14  34
HETATM   34  N4  UNL     1     -22.679  27.389   7.720  1.00  0.00    -0.385 N 
ATOM     35  H42 UNL     1     -21.853  26.897   7.382  1.00  0.00     0.157 HD
ATOM     36  H41 UNL     1     -23.143  27.082   8.576  1.00  0.00     0.157 HD
ENDBRANCH  14  34
BRANCH   8  37
HETATM   37  C12 UNL     1     -27.654  30.111   3.437  1.00  0.00     0.274 C 
HETATM   38 CL2  UNL     1     -27.378  30.703   1.795  1.00  0.00    -0.062 Cl
HETATM   39 CL3  UNL     1     -28.944  31.069   4.197  1.00  0.00    -0.062 Cl
BRANCH  37  40
HETATM   40  O4  UNL     1     -28.036  28.775   3.457  1.00  0.00    -0.356 OA
ATOM     41  H4  UNL     1     -28.098  28.505   4.366  1.00  0.00     0.213 HD
ENDBRANCH  37  40
ENDBRANCH   8  37
TORSDOF 10
ENDMDL
MODEL 2
REMARK VINA RESULT: -7.798221592      1.570      2.044
REMARK  10 active torsions:
REMARK  status: ('A' for Active; 'I' for Inactive)
REMARK    1  A    between atoms: C2_2  and  C4_4 
REMARK    2  A    between atoms: C4_4  and  O1_5 
REMARK    3  A    between atoms: C4_4  and  C5_7 
REMARK    4  A    between atoms: C4_4  and  C15_33 
REMARK    5  A    between atoms: C5_7  and  O2_8 
REMARK    6  A    between atoms: O2_8  and  C6_9 
REMARK    7  A    between atoms: C6_9  and  C7_11 
REMARK    8  A    between atoms: C11_18  and  C12_19 
REMARK    9  A    between atoms: C12_19  and  O4_20 
REMARK   10  A    between atoms: C14_29  and  N4_30 
ROOT
HETATM    1  C7  UNL     1     -22.451  30.608   7.015  1.00  0.00     0.084 A 
HETATM    2  C8  UNL     1     -23.243  29.547   6.663  1.00  0.00     0.040 A 
HETATM    3  C9  UNL     1     -24.360  29.729   5.891  1.00  0.00     0.048 A 
HETATM    4  C10 UNL     1     -25.141  28.647   5.510  1.00  0.00     0.119 A 
HETATM    5 CL1  UNL     1     -24.693  27.050   6.081  1.00  0.00    -0.063 Cl
HETATM    6  N1  UNL     1     -26.202  28.877   4.730  1.00  0.00    -0.331 N 
ATOM      7  H1  UNL     1     -26.785  28.091   4.443  1.00  0.00     0.168 HD
HETATM    8  C11 UNL     1     -26.518  30.102   4.316  1.00  0.00     0.151 A 
HETATM    9  N2  UNL     1     -25.761  31.137   4.690  1.00  0.00    -0.327 N 
ATOM     10  H2  UNL     1     -26.016  32.072   4.370  1.00  0.00     0.169 HD
HETATM   11  C13 UNL     1     -24.676  30.996   5.474  1.00  0.00     0.121 A 
HETATM   12  N3  UNL     1     -23.910  32.040   5.813  1.00  0.00    -0.327 N 
ATOM     13  H3  UNL     1     -24.162  32.975   5.493  1.00  0.00     0.169 HD
HETATM   14  C14 UNL     1     -22.795  31.864   6.581  1.00  0.00     0.116 A 
ENDROOT
BRANCH   1  15
HETATM   15  C6  UNL     1     -21.251  30.340   7.773  1.00  0.00     0.297 C 
HETATM   16  O3  UNL     1     -20.160  30.834   7.300  1.00  0.00    -0.259 OA
BRANCH  15  17
HETATM   17  O2  UNL     1     -21.151  29.613   8.950  1.00  0.00    -0.314 OA
BRANCH  17  18
HETATM   18  C5  UNL     1     -20.172  29.993   9.912  1.00  0.00     0.225 C 
BRANCH  18  19
HETATM   19  C4  UNL     1     -20.389  29.436  11.266  1.00  0.00     0.143 C 
BRANCH  19  20
HETATM   20  C2  UNL     1     -21.290  30.311  12.109  1.00  0.00     0.022 C 
HETATM   21  C1  UNL     1     -20.807  30.289  13.566  1.00  0.00     0.013 C 
HETATM   22  C3  UNL     1     -21.245  31.764  11.690  1.00  0.00     0.013 C 
ENDBRANCH  19  20
BRANCH  19  23
HETATM   23  O1  UNL     1     -19.190  29.270  11.921  1.00  0.00    -0.379 OA
ATOM     24  H1  UNL     1     -18.643  28.679  11.417  1.00  0.00     0.211 HD
ENDBRANCH  19  23
BRANCH  19  25
HETATM   25  C15 UNL     1     -20.992  28.054  11.200  1.00  0.00     0.150 A 
HETATM   26  N5  UNL     1     -20.523  27.013  11.891  1.00  0.00    -0.270 N 
HETATM   27  N6  UNL     1     -21.257  25.968  11.628  1.00  0.00    -0.227 N 
ATOM     28  H5  UNL     1     -19.722  27.033  12.522  1.00  0.00     0.190 HD
HETATM   29  N7  UNL     1     -22.193  26.309  10.778  1.00  0.00    -0.227 N 
ATOM     30  H6  UNL     1     -21.123  25.036  12.019  1.00  0.00     0.210 HD
HETATM   31  N8  UNL     1     -22.031  27.595  10.513  1.00  0.00    -0.270 N 
ATOM     32  H7  UNL     1     -22.913  25.697  10.394  1.00  0.00     0.210 HD
ATOM     33  H8  UNL     1     -22.612  28.147   9.881  1.00  0.00     0.190 HD
ENDBRANCH  19  25
ENDBRANCH  18  19
ENDBRANCH  17  18
ENDBRANCH  15  17
ENDBRANCH   1  15
BRANCH  14  34
HETATM   34  N4  UNL     1     -22.087  32.869   6.895  1.00  0.00    -0.385 N 
ATOM     35  H42 UNL     1     -21.797  33.525   6.170  1.00  0.00     0.157 HD
ATOM     36  H41 UNL     1     -21.813  33.027   7.865  1.00  0.00     0.157 HD
ENDBRANCH  14  34
BRANCH   8  37
HETATM   37  C12 UNL     1     -27.719  30.283   3.419  1.00  0.00     0.274 C 
HETATM   38 CL2  UNL     1     -27.210  31.086   1.930  1.00  0.00    -0.062 Cl
HETATM   39 CL3  UNL     1     -28.953  31.274   4.229  1.00  0.00    -0.062 Cl
BRANCH  37  40
HETATM   40  O4  UNL     1     -28.261  29.026   3.180  1.00  0.00    -0.356 OA
ATOM     41  H4  UNL     1     -29.193  29.137   3.026  1.00  0.00     0.213 HD
ENDBRANCH  37  40
ENDBRANCH   8  37
TORSDOF 10
ENDMDL
MODEL 3
REMARK VINA RESULT: -7.589379993      7.324      9.699
REMARK  10 active torsions:
REMARK  status: ('A' for Active; 'I' for Inactive)
REMARK    1  A    between atoms: C2_2  and  C4_4 
REMARK    2  A    between atoms: C4_4  and  O1_5 
REMARK    3  A    between atoms: C4_4  and  C5_7 
REMARK    4  A    between atoms: C4_4  and  C15_33 
REMARK    5  A    between atoms: C5_7  and  O2_8 
REMARK    6  A    between atoms: O2_8  and  C6_9 
REMARK    7  A    between atoms: C6_9  and  C7_11 
REMARK    8  A    between atoms: C11_18  and  C12_19 
REMARK    9  A    between atoms: C12_19  and  O4_20 
REMARK   10  A    between atoms: C14_29  and  N4_30 
ROOT
HETATM    1  C7  UNL     1     -17.912  31.056  13.191  1.00  0.00     0.084 A 
HETATM    2  C8  UNL     1     -18.283  32.272  13.700  1.00  0.00     0.040 A 
HETATM    3  C9  UNL     1     -19.596  32.664  13.698  1.00  0.00     0.048 A 
HETATM    4  C10 UNL     1     -19.972  33.883  14.243  1.00  0.00     0.119 A 
HETATM    5 CL1  UNL     1     -18.722  34.929  14.892  1.00  0.00    -0.063 Cl
HETATM    6  N1  UNL     1     -21.270  34.202  14.244  1.00  0.00    -0.331 N 
ATOM      7  H1  UNL     1     -21.560  35.095  14.642  1.00  0.00     0.168 HD
HETATM    8  C11 UNL     1     -22.194  33.387  13.741  1.00  0.00     0.151 A 
HETATM    9  N2  UNL     1     -21.822  32.217  13.215  1.00  0.00    -0.327 N 
ATOM     10  H2  UNL     1     -22.540  31.603  12.829  1.00  0.00     0.169 HD
HETATM   11  C13 UNL     1     -20.537  31.817  13.173  1.00  0.00     0.121 A 
HETATM   12  N3  UNL     1     -20.186  30.627  12.672  1.00  0.00    -0.327 N 
ATOM     13  H3  UNL     1     -20.901  30.011  12.286  1.00  0.00     0.169 HD
HETATM   14  C14 UNL     1     -18.878  30.230  12.674  1.00  0.00     0.116 A 
ENDROOT
BRANCH   1  15
HETATM   15  C6  UNL     1     -16.521  30.674  13.285  1.00  0.00     0.297 C 
HETATM   16  O3  UNL     1     -16.273  29.605  13.958  1.00  0.00    -0.259 OA
BRANCH  15  17
HETATM   17  O2  UNL     1     -15.435  31.331  12.729  1.00  0.00    -0.314 OA
BRANCH  17  18
HETATM   18  C5  UNL     1     -14.372  30.560  12.178  1.00  0.00     0.225 C 
BRANCH  18  19
HETATM   19  C4  UNL     1     -13.068  30.734  12.854  1.00  0.00     0.143 C 
BRANCH  19  20
HETATM   20  C2  UNL     1     -12.497  29.422  13.346  1.00  0.00     0.022 C 
HETATM   21  C1  UNL     1     -12.505  29.405  14.882  1.00  0.00     0.013 C 
HETATM   22  C3  UNL     1     -13.331  28.232  12.925  1.00  0.00     0.013 C 
ENDBRANCH  19  20
BRANCH  19  23
HETATM   23  O1  UNL     1     -13.185  31.596  13.921  1.00  0.00    -0.379 OA
ATOM     24  H1  UNL     1     -13.196  32.489  13.595  1.00  0.00     0.211 HD
ENDBRANCH  19  23
BRANCH  19  25
HETATM   25  C15 UNL     1     -12.057  31.381  11.939  1.00  0.00     0.150 A 
HETATM   26  N5  UNL     1     -11.596  30.804  10.828  1.00  0.00    -0.270 N 
HETATM   27  N6  UNL     1     -10.747  31.612  10.256  1.00  0.00    -0.227 N 
ATOM     28  H5  UNL     1     -11.864  29.883  10.483  1.00  0.00     0.190 HD
HETATM   29  N7  UNL     1     -10.648  32.703  10.974  1.00  0.00    -0.227 N 
ATOM     30  H6  UNL     1     -10.243  31.425   9.389  1.00  0.00     0.210 HD
HETATM   31  N8  UNL     1     -11.455  32.561  12.013  1.00  0.00    -0.270 N 
ATOM     32  H7  UNL     1     -10.058  33.510  10.769  1.00  0.00     0.210 HD
ATOM     33  H8  UNL     1     -11.592  33.250  12.753  1.00  0.00     0.190 HD
ENDBRANCH  19  25
ENDBRANCH  18  19
ENDBRANCH  17  18
ENDBRANCH  15  17
ENDBRANCH   1  15
BRANCH  14  34
HETATM   34  N4  UNL     1     -18.567  29.100  12.188  1.00  0.00    -0.385 N 
ATOM     35  H42 UNL     1     -17.935  28.489  12.704  1.00  0.00     0.157 HD
ATOM     36  H41 UNL     1     -18.951  28.799  11.291  1.00  0.00     0.157 HD
ENDBRANCH  14  34
BRANCH   8  37
HETATM   37  C12 UNL     1     -23.644  33.806  13.794  1.00  0.00     0.274 C 
HETATM   38 CL2  UNL     1     -24.289  33.441  15.398  1.00  0.00    -0.062 Cl
HETATM   39 CL3  UNL     1     -24.588  32.930  12.569  1.00  0.00    -0.062 Cl
BRANCH  37  40
HETATM   40  O4  UNL     1     -23.703  35.162  13.500  1.00  0.00    -0.356 OA
ATOM     41  H4  UNL     1     -24.218  35.265  12.707  1.00  0.00     0.213 HD
ENDBRANCH  37  40
ENDBRANCH   8  37
TORSDOF 10
ENDMDL
MODEL 4
REMARK VINA RESULT: -7.209754928      5.861      8.553
REMARK  10 active torsions:
REMARK  status: ('A' for Active; 'I' for Inactive)
REMARK    1  A    between atoms: C2_2  and  C4_4 
REMARK    2  A    between atoms: C4_4  and  O1_5 
REMARK    3  A    between atoms: C4_4  and  C5_7 
REMARK    4  A    between atoms: C4_4  and  C15_33 
REMARK    5  A    between atoms: C5_7  and  O2_8 
REMARK    6  A    between atoms: O2_8  and  C6_9 
REMARK    7  A    between atoms: C6_9  and  C7_11 
REMARK    8  A    between atoms: C11_18  and  C12_19 
REMARK    9  A    between atoms: C12_19  and  O4_20 
REMARK   10  A    between atoms: C14_29  and  N4_30 
ROOT
HETATM    1  C7  UNL     1     -22.319  33.276  12.456  1.00  0.00     0.084 A 
HETATM    2  C8  UNL     1     -23.668  33.448  12.620  1.00  0.00     0.040 A 
HETATM    3  C9  UNL     1     -24.170  34.022  13.759  1.00  0.00     0.048 A 
HETATM    4  C10 UNL     1     -25.535  34.223  13.908  1.00  0.00     0.119 A 
HETATM    5 CL1  UNL     1     -26.604  33.681  12.627  1.00  0.00    -0.063 Cl
HETATM    6  N1  UNL     1     -25.968  34.816  15.024  1.00  0.00    -0.331 N 
ATOM      7  H1  UNL     1     -26.969  34.970  15.147  1.00  0.00     0.168 HD
HETATM    8  C11 UNL     1     -25.130  35.213  15.980  1.00  0.00     0.151 A 
HETATM    9  N2  UNL     1     -23.819  35.012  15.828  1.00  0.00    -0.327 N 
ATOM     10  H2  UNL     1     -23.187  35.318  16.569  1.00  0.00     0.169 HD
HETATM   11  C13 UNL     1     -23.297  34.423  14.736  1.00  0.00     0.121 A 
HETATM   12  N3  UNL     1     -21.978  34.259  14.586  1.00  0.00    -0.327 N 
ATOM     13  H3  UNL     1     -21.344  34.563  15.325  1.00  0.00     0.169 HD
HETATM   14  C14 UNL     1     -21.472  33.689  13.453  1.00  0.00     0.116 A 
ENDROOT
BRANCH   1  15
HETATM   15  C6  UNL     1     -21.850  32.727  11.203  1.00  0.00     0.297 C 
HETATM   16  O3  UNL     1     -22.200  33.363  10.140  1.00  0.00    -0.259 OA
BRANCH  15  17
HETATM   17  O2  UNL     1     -21.068  31.596  11.029  1.00  0.00    -0.314 OA
BRANCH  17  18
HETATM   18  C5  UNL     1     -21.535  30.350  11.536  1.00  0.00     0.225 C 
BRANCH  18  19
HETATM   19  C4  UNL     1     -20.493  29.308  11.671  1.00  0.00     0.143 C 
BRANCH  19  20
HETATM   20  C2  UNL     1     -19.824  29.339  13.027  1.00  0.00     0.022 C 
HETATM   21  C1  UNL     1     -18.463  30.040  12.910  1.00  0.00     0.013 C 
HETATM   22  C3  UNL     1     -20.606  30.142  14.043  1.00  0.00     0.013 C 
ENDBRANCH  19  20
BRANCH  19  23
HETATM   23  O1  UNL     1     -19.532  29.454  10.696  1.00  0.00    -0.379 OA
ATOM     24  H1  UNL     1     -19.943  29.368   9.844  1.00  0.00     0.211 HD
ENDBRANCH  19  23
BRANCH  19  25
HETATM   25  C15 UNL     1     -21.065  27.929  11.451  1.00  0.00     0.150 A 
HETATM   26  N5  UNL     1     -20.630  26.842  12.091  1.00  0.00    -0.270 N 
HETATM   27  N6  UNL     1     -21.323  25.813  11.692  1.00  0.00    -0.227 N 
ATOM     28  H5  UNL     1     -19.877  26.820  12.779  1.00  0.00     0.190 HD
HETATM   29  N7  UNL     1     -22.202  26.210  10.805  1.00  0.00    -0.227 N 
ATOM     30  H6  UNL     1     -21.202  24.854  12.017  1.00  0.00     0.210 HD
HETATM   31  N8  UNL     1     -22.043  27.515  10.655  1.00  0.00    -0.270 N 
ATOM     32  H7  UNL     1     -22.881  25.622  10.321  1.00  0.00     0.210 HD
ATOM     33  H8  UNL     1     -22.586  28.108  10.027  1.00  0.00     0.190 HD
ENDBRANCH  19  25
ENDBRANCH  18  19
ENDBRANCH  17  18
ENDBRANCH  15  17
ENDBRANCH   1  15
BRANCH  14  34
HETATM   34  N4  UNL     1     -20.217  33.538  13.335  1.00  0.00    -0.385 N 
ATOM     35  H42 UNL     1     -19.687  33.124  14.101  1.00  0.00     0.157 HD
ATOM     36  H41 UNL     1     -19.740  33.822  12.478  1.00  0.00     0.157 HD
ENDBRANCH  14  34
BRANCH   8  37
HETATM   37  C12 UNL     1     -25.691  35.895  17.205  1.00  0.00     0.274 C 
HETATM   38 CL2  UNL     1     -27.231  36.653  16.786  1.00  0.00    -0.062 Cl
HETATM   39 CL3  UNL     1     -24.565  37.139  17.791  1.00  0.00    -0.062 Cl
BRANCH  37  40
HETATM   40  O4  UNL     1     -25.831  34.933  18.198  1.00  0.00    -0.356 OA
ATOM     41  H4  UNL     1     -25.301  35.203  18.939  1.00  0.00     0.213 HD
ENDBRANCH  37  40
ENDBRANCH   8  37
TORSDOF 10
ENDMDL
MODEL 5
REMARK VINA RESULT: -7.198394838      6.817      8.890
REMARK  10 active torsions:
REMARK  status: ('A' for Active; 'I' for Inactive)
REMARK    1  A    between atoms: C2_2  and  C4_4 
REMARK    2  A    between atoms: C4_4  and  O1_5 
REMARK    3  A    between atoms: C4_4  and  C5_7 
REMARK    4  A    between atoms: C4_4  and  C15_33 
REMARK    5  A    between atoms: C5_7  and  O2_8 
REMARK    6  A    between atoms: O2_8  and  C6_9 
REMARK    7  A    between atoms: C6_9  and  C7_11 
REMARK    8  A    between atoms: C11_18  and  C12_19 
REMARK    9  A    between atoms: C12_19  and  O4_20 
REMARK   10  A    between atoms: C14_29  and  N4_30 
ROOT
HETATM    1  C7  UNL     1     -22.896  33.564  13.992  1.00  0.00     0.084 A 
HETATM    2  C8  UNL     1     -23.431  34.129  15.119  1.00  0.00     0.040 A 
HETATM    3  C9  UNL     1     -24.694  34.659  15.108  1.00  0.00     0.048 A 
HETATM    4  C10 UNL     1     -25.243  35.202  16.261  1.00  0.00     0.119 A 
HETATM    5 CL1  UNL     1     -24.267  35.237  17.717  1.00  0.00    -0.063 Cl
HETATM    6  N1  UNL     1     -26.492  35.677  16.203  1.00  0.00    -0.331 N 
ATOM      7  H1  UNL     1     -26.908  36.080  17.042  1.00  0.00     0.168 HD
HETATM    8  C11 UNL     1     -27.207  35.639  15.080  1.00  0.00     0.151 A 
HETATM    9  N2  UNL     1     -26.668  35.117  13.975  1.00  0.00    -0.327 N 
ATOM     10  H2  UNL     1     -27.224  35.097  13.121  1.00  0.00     0.169 HD
HETATM   11  C13 UNL     1     -25.418  34.617  13.945  1.00  0.00     0.121 A 
HETATM   12  N3  UNL     1     -24.905  34.068  12.838  1.00  0.00    -0.327 N 
ATOM     13  H3  UNL     1     -25.459  34.046  11.982  1.00  0.00     0.169 HD
HETATM   14  C14 UNL     1     -23.647  33.536  12.844  1.00  0.00     0.116 A 
ENDROOT
BRANCH   1  15
HETATM   15  C6  UNL     1     -21.586  32.961  14.088  1.00  0.00     0.297 C 
HETATM   16  O3  UNL     1     -20.677  33.671  14.660  1.00  0.00    -0.259 OA
BRANCH  15  17
HETATM   17  O2  UNL     1     -21.208  31.707  13.635  1.00  0.00    -0.314 OA
BRANCH  17  18
HETATM   18  C5  UNL     1     -20.051  31.592  12.811  1.00  0.00     0.225 C 
BRANCH  18  19
HETATM   19  C4  UNL     1     -19.448  30.242  12.780  1.00  0.00     0.143 C 
BRANCH  19  20
HETATM   20  C2  UNL     1     -19.746  29.510  11.490  1.00  0.00     0.022 C 
HETATM   21  C1  UNL     1     -20.900  28.522  11.718  1.00  0.00     0.013 C 
HETATM   22  C3  UNL     1     -20.219  30.438  10.392  1.00  0.00     0.013 C 
ENDBRANCH  19  20
BRANCH  19  23
HETATM   23  O1  UNL     1     -19.898  29.483  13.837  1.00  0.00    -0.379 OA
ATOM     24  H1  UNL     1     -20.843  29.405  13.778  1.00  0.00     0.211 HD
ENDBRANCH  19  23
BRANCH  19  25
HETATM   25  C15 UNL     1     -17.950  30.306  12.957  1.00  0.00     0.150 A 
HETATM   26  N5  UNL     1     -17.157  31.099  12.233  1.00  0.00    -0.270 N 
HETATM   27  N6  UNL     1     -15.925  30.933  12.625  1.00  0.00    -0.227 N 
ATOM     28  H5  UNL     1     -17.465  31.731  11.494  1.00  0.00     0.190 HD
HETATM   29  N7  UNL     1     -15.901  30.047  13.590  1.00  0.00    -0.227 N 
ATOM     30  H6  UNL     1     -15.111  31.414  12.243  1.00  0.00     0.210 HD
HETATM   31  N8  UNL     1     -17.150  29.659  13.795  1.00  0.00    -0.270 N 
ATOM     32  H7  UNL     1     -15.075  29.719  14.090  1.00  0.00     0.210 HD
ATOM     33  H8  UNL     1     -17.450  28.972  14.488  1.00  0.00     0.190 HD
ENDBRANCH  19  25
ENDBRANCH  18  19
ENDBRANCH  17  18
ENDBRANCH  15  17
ENDBRANCH   1  15
BRANCH  14  34
HETATM   34  N4  UNL     1     -23.179  33.026  11.781  1.00  0.00    -0.385 N 
ATOM     35  H42 UNL     1     -23.731  33.056  10.924  1.00  0.00     0.157 HD
ATOM     36  H41 UNL     1     -22.254  32.594  11.777  1.00  0.00     0.157 HD
ENDBRANCH  14  34
BRANCH   8  37
HETATM   37  C12 UNL     1     -28.618  36.177  15.095  1.00  0.00     0.274 C 
HETATM   38 CL2  UNL     1     -29.578  35.304  13.895  1.00  0.00    -0.062 Cl
HETATM   39 CL3  UNL     1     -28.624  37.911  14.704  1.00  0.00    -0.062 Cl
BRANCH  37  40
HETATM   40  O4  UNL     1     -29.116  36.020  16.382  1.00  0.00    -0.356 OA
ATOM     41  H4  UNL     1     -29.270  35.093  16.523  1.00  0.00     0.213 HD
ENDBRANCH  37  40
ENDBRANCH   8  37
TORSDOF 10
ENDMDL
