MODEL 1
REMARK VINA RESULT: -5.904873454      0.000      0.000
REMARK  10 active torsions:
REMARK  status: ('A' for Active; 'I' for Inactive)
REMARK    1  A    between atoms: C2_2  and  C5_5 
REMARK    2  A    between atoms: C6_8  and  C7_9 
REMARK    3  A    between atoms: C7_9  and  N2_10 
REMARK    4  A    between atoms: N5_18  and  C10_19 
REMARK    5  A    between atoms: C10_19  and  C11_20 
REMARK    6  A    between atoms: C12_23  and  C13_24 
REMARK    7  A    between atoms: C13_24  and  O1_25 
REMARK    8  A    between atoms: C13_24  and  N6_27 
REMARK    9  A    between atoms: N6_27  and  C14_29 
REMARK   10  A    between atoms: C15_32  and  N8_33 
ROOT
HETATM    1  C14 UNL     1     -24.337  29.891   5.714  1.00  0.00     0.143 A 
HETATM    2  N7  UNL     1     -25.334  29.156   5.183  1.00  0.00    -0.175 N 
ATOM      3  H7  UNL     1     -26.022  29.613   4.584  1.00  0.00     0.186 HD
HETATM    4  C15 UNL     1     -25.448  27.820   5.424  1.00  0.00     0.678 A 
HETATM    5  N9  UNL     1     -24.583  27.150   6.198  1.00  0.00    -0.177 N 
ATOM      6  H9  UNL     1     -24.693  26.149   6.360  1.00  0.00     0.185 HD
HETATM    7  C16 UNL     1     -23.574  27.829   6.751  1.00  0.00     0.156 A 
HETATM    8  N10 UNL     1     -22.631  27.134   7.587  1.00  0.00    -0.080 NA
HETATM    9  C17 UNL     1     -23.444  29.171   6.520  1.00  0.00     0.130 A 
HETATM   10  C18 UNL     1     -22.350  29.868   7.129  1.00  0.00     0.107 C 
HETATM   11  N11 UNL     1     -21.465  30.423   7.635  1.00  0.00    -0.191 NA
ENDROOT
BRANCH   1  12
HETATM   12  N6  UNL     1     -24.177  31.142   5.525  1.00  0.00    -0.343 N 
ATOM     13  H6  UNL     1     -23.341  31.597   5.892  1.00  0.00     0.164 HD
BRANCH  12  14
HETATM   14  C13 UNL     1     -25.144  31.930   4.811  1.00  0.00     0.272 C 
BRANCH  14  15
HETATM   15  C12 UNL     1     -24.667  32.629   3.631  1.00  0.00     0.085 A 
HETATM   16  C5  UNL     1     -25.403  32.773   2.465  1.00  0.00     0.045 A 
HETATM   17  N1  UNL     1     -24.641  33.490   1.621  1.00  0.00    -0.345 N 
HETATM   18  C6  UNL     1     -23.447  33.806   2.212  1.00  0.00     0.104 A 
ATOM     19  H1  UNL     1     -24.913  33.759   0.676  1.00  0.00     0.167 HD
HETATM   20  N5  UNL     1     -23.486  33.258   3.461  1.00  0.00    -0.328 N 
BRANCH  16  21
HETATM   21  C2  UNL     1     -26.772  32.265   2.189  1.00  0.00    -0.007 C 
HETATM   22  C1  UNL     1     -26.995  32.402   0.667  1.00  0.00     0.021 C 
HETATM   23  C3  UNL     1     -27.852  33.154   2.797  1.00  0.00     0.021 C 
HETATM   24  C4  UNL     1     -26.952  30.824   2.517  1.00  0.00     0.021 C 
ENDBRANCH  16  21
BRANCH  18  25
HETATM   25  C7  UNL     1     -22.449  34.612   1.522  1.00  0.00     0.228 C 
BRANCH  25  26
HETATM   26  N2  UNL     1     -21.762  33.714   0.577  1.00  0.00    -0.259 N 
HETATM   27  N3  UNL     1     -20.695  33.001   0.890  1.00  0.00    -0.291 N 
HETATM   28  C8  UNL     1     -20.305  32.285  -0.182  1.00  0.00     0.199 A 
ATOM     29  H3  UNL     1     -20.238  32.993   1.801  1.00  0.00     0.188 HD
HETATM   30  N4  UNL     1     -21.163  32.573  -1.175  1.00  0.00    -0.326 N 
HETATM   31  C9  UNL     1     -22.073  33.467  -0.701  1.00  0.00     0.197 A 
ATOM     32  H4  UNL     1     -21.136  32.189  -2.119  1.00  0.00     0.169 HD
HETATM   33 CL1  UNL     1     -23.411  34.175  -1.580  1.00  0.00    -0.043 Cl
ENDBRANCH  25  26
ENDBRANCH  18  25
BRANCH  20  34
HETATM   34  C10 UNL     1     -22.425  33.352   4.394  1.00  0.00     0.201 C 
BRANCH  34  35
HETATM   35  C11 UNL     1     -21.247  32.460   4.129  1.00  0.00     0.371 C 
HETATM   36  F1  UNL     1     -21.693  31.198   3.742  1.00  0.00    -0.213 F 
HETATM   37  F2  UNL     1     -20.505  32.295   5.265  1.00  0.00    -0.213 F 
ENDBRANCH  34  35
ENDBRANCH  20  34
ENDBRANCH  14  15
BRANCH  14  38
HETATM   38  O1  UNL     1     -25.773  32.765   5.766  1.00  0.00    -0.371 OA
ATOM     39  H1  UNL     1     -25.994  32.328   6.580  1.00  0.00     0.212 HD
ENDBRANCH  14  38
ENDBRANCH  12  14
ENDBRANCH   1  12
BRANCH   4  40
HETATM   40  N8  UNL     1     -26.415  27.122   4.906  1.00  0.00    -0.234 N 
ATOM     41  H82 UNL     1     -27.111  27.643   4.373  1.00  0.00     0.174 HD
ATOM     42  H81 UNL     1     -26.464  26.111   5.033  1.00  0.00     0.174 HD
ENDBRANCH   4  40
TORSDOF 10
ENDMDL
MODEL 2
REMARK VINA RESULT: -5.831187980      1.594      1.760
REMARK  10 active torsions:
REMARK  status: ('A' for Active; 'I' for Inactive)
REMARK    1  A    between atoms: C2_2  and  C5_5 
REMARK    2  A    between atoms: C6_8  and  C7_9 
REMARK    3  A    between atoms: C7_9  and  N2_10 
REMARK    4  A    between atoms: N5_18  and  C10_19 
REMARK    5  A    between atoms: C10_19  and  C11_20 
REMARK    6  A    between atoms: C12_23  and  C13_24 
REMARK    7  A    between atoms: C13_24  and  O1_25 
REMARK    8  A    between atoms: C13_24  and  N6_27 
REMARK    9  A    between atoms: N6_27  and  C14_29 
REMARK   10  A    between atoms: C15_32  and  N8_33 
ROOT
HETATM    1  C14 UNL     1     -23.836  29.789   5.748  1.00  0.00     0.143 A 
HETATM    2  N7  UNL     1     -24.866  29.151   5.157  1.00  0.00    -0.175 N 
ATOM      3  H7  UNL     1     -25.421  29.646   4.458  1.00  0.00     0.186 HD
HETATM    4  C15 UNL     1     -25.186  27.864   5.468  1.00  0.00     0.678 A 
HETATM    5  N9  UNL     1     -24.504  27.149   6.373  1.00  0.00    -0.177 N 
ATOM      6  H9  UNL     1     -24.766  26.186   6.585  1.00  0.00     0.185 HD
HETATM    7  C16 UNL     1     -23.473  27.731   6.990  1.00  0.00     0.156 A 
HETATM    8  N10 UNL     1     -22.723  26.986   7.968  1.00  0.00    -0.080 NA
HETATM    9  C17 UNL     1     -23.136  29.023   6.691  1.00  0.00     0.130 A 
HETATM   10  C18 UNL     1     -22.024  29.616   7.372  1.00  0.00     0.107 C 
HETATM   11  N11 UNL     1     -21.127  30.089   7.937  1.00  0.00    -0.191 NA
ENDROOT
BRANCH   1  12
HETATM   12  N6  UNL     1     -23.488  30.990   5.499  1.00  0.00    -0.343 N 
ATOM     13  H6  UNL     1     -22.545  31.295   5.744  1.00  0.00     0.164 HD
BRANCH  12  14
HETATM   14  C13 UNL     1     -24.386  31.927   4.884  1.00  0.00     0.272 C 
BRANCH  14  15
HETATM   15  C12 UNL     1     -23.844  32.737   3.808  1.00  0.00     0.085 A 
HETATM   16  C5  UNL     1     -24.604  33.264   2.775  1.00  0.00     0.045 A 
HETATM   17  N1  UNL     1     -23.757  33.963   1.999  1.00  0.00    -0.345 N 
HETATM   18  C6  UNL     1     -22.487  33.897   2.505  1.00  0.00     0.104 A 
ATOM     19  H1  UNL     1     -24.024  34.469   1.155  1.00  0.00     0.167 HD
HETATM   20  N5  UNL     1     -22.565  33.128   3.629  1.00  0.00    -0.328 N 
BRANCH  16  21
HETATM   21  C2  UNL     1     -26.067  33.119   2.562  1.00  0.00    -0.007 C 
HETATM   22  C1  UNL     1     -26.342  33.529   1.099  1.00  0.00     0.021 C 
HETATM   23  C3  UNL     1     -26.874  34.122   3.380  1.00  0.00     0.021 C 
HETATM   24  C4  UNL     1     -26.557  31.720   2.711  1.00  0.00     0.021 C 
ENDBRANCH  16  21
BRANCH  18  25
HETATM   25  C7  UNL     1     -21.380  34.602   1.869  1.00  0.00     0.228 C 
BRANCH  25  26
HETATM   26  N2  UNL     1     -20.681  33.615   1.028  1.00  0.00    -0.259 N 
HETATM   27  N3  UNL     1     -21.174  33.134  -0.099  1.00  0.00    -0.291 N 
HETATM   28  C8  UNL     1     -20.301  32.258  -0.632  1.00  0.00     0.199 A 
ATOM     29  H3  UNL     1     -22.075  33.388  -0.503  1.00  0.00     0.188 HD
HETATM   30  N4  UNL     1     -19.247  32.207   0.198  1.00  0.00    -0.326 N 
HETATM   31  C9  UNL     1     -19.483  33.054   1.236  1.00  0.00     0.197 A 
ATOM     32  H4  UNL     1     -18.413  31.633   0.072  1.00  0.00     0.169 HD
HETATM   33 CL1  UNL     1     -18.432  33.370   2.600  1.00  0.00    -0.043 Cl
ENDBRANCH  25  26
ENDBRANCH  18  25
BRANCH  20  34
HETATM   34  C10 UNL     1     -21.450  32.808   4.442  1.00  0.00     0.201 C 
BRANCH  34  35
HETATM   35  C11 UNL     1     -21.155  33.780   5.547  1.00  0.00     0.371 C 
HETATM   36  F1  UNL     1     -19.778  33.969   5.649  1.00  0.00    -0.213 F 
HETATM   37  F2  UNL     1     -21.584  33.285   6.747  1.00  0.00    -0.213 F 
ENDBRANCH  34  35
ENDBRANCH  20  34
ENDBRANCH  14  15
BRANCH  14  38
HETATM   38  O1  UNL     1     -24.973  32.676   5.934  1.00  0.00    -0.371 OA
ATOM     39  H1  UNL     1     -24.443  33.404   6.235  1.00  0.00     0.212 HD
ENDBRANCH  14  38
ENDBRANCH  12  14
ENDBRANCH   1  12
BRANCH   4  40
HETATM   40  N8  UNL     1     -26.183  27.259   4.891  1.00  0.00    -0.234 N 
ATOM     41  H82 UNL     1     -27.050  27.211   5.426  1.00  0.00     0.174 HD
ATOM     42  H81 UNL     1     -26.090  26.860   3.957  1.00  0.00     0.174 HD
ENDBRANCH   4  40
TORSDOF 10
ENDMDL
MODEL 3
REMARK VINA RESULT: -5.801693322      1.409      1.718
REMARK  10 active torsions:
REMARK  status: ('A' for Active; 'I' for Inactive)
REMARK    1  A    between atoms: C2_2  and  C5_5 
REMARK    2  A    between atoms: C6_8  and  C7_9 
REMARK    3  A    between atoms: C7_9  and  N2_10 
REMARK    4  A    between atoms: N5_18  and  C10_19 
REMARK    5  A    between atoms: C10_19  and  C11_20 
REMARK    6  A    between atoms: C12_23  and  C13_24 
REMARK    7  A    between atoms: C13_24  and  O1_25 
REMARK    8  A    between atoms: C13_24  and  N6_27 
REMARK    9  A    between atoms: N6_27  and  C14_29 
REMARK   10  A    between atoms: C15_32  and  N8_33 
ROOT
HETATM    1  C14 UNL     1     -24.113  29.742   5.569  1.00  0.00     0.143 A 
HETATM    2  N7  UNL     1     -25.109  28.982   5.069  1.00  0.00    -0.175 N 
ATOM      3  H7  UNL     1     -25.742  29.386   4.378  1.00  0.00     0.186 HD
HETATM    4  C15 UNL     1     -25.292  27.691   5.461  1.00  0.00     0.678 A 
HETATM    5  N9  UNL     1     -24.502  27.090   6.361  1.00  0.00    -0.177 N 
ATOM      6  H9  UNL     1     -24.662  26.121   6.635  1.00  0.00     0.185 HD
HETATM    7  C16 UNL     1     -23.498  27.796   6.890  1.00  0.00     0.156 A 
HETATM    8  N10 UNL     1     -22.634  27.177   7.860  1.00  0.00    -0.080 NA
HETATM    9  C17 UNL     1     -23.299  29.094   6.509  1.00  0.00     0.130 A 
HETATM   10  C18 UNL     1     -22.213  29.822   7.096  1.00  0.00     0.107 C 
HETATM   11  N11 UNL     1     -21.336  30.404   7.586  1.00  0.00    -0.191 NA
ENDROOT
BRANCH   1  12
HETATM   12  N6  UNL     1     -23.891  30.954   5.242  1.00  0.00    -0.343 N 
ATOM     13  H6  UNL     1     -22.931  31.255   5.072  1.00  0.00     0.164 HD
BRANCH  12  14
HETATM   14  C13 UNL     1     -24.956  31.909   5.106  1.00  0.00     0.272 C 
BRANCH  14  15
HETATM   15  C12 UNL     1     -25.103  32.538   3.806  1.00  0.00     0.085 A 
HETATM   16  C5  UNL     1     -26.252  32.459   3.032  1.00  0.00     0.045 A 
HETATM   17  N1  UNL     1     -26.011  33.177   1.922  1.00  0.00    -0.345 N 
HETATM   18  C6  UNL     1     -24.750  33.709   1.964  1.00  0.00     0.104 A 
ATOM     19  H1  UNL     1     -26.673  33.307   1.157  1.00  0.00     0.167 HD
HETATM   20  N5  UNL     1     -24.204  33.295   3.145  1.00  0.00    -0.328 N 
BRANCH  16  21
HETATM   21  C2  UNL     1     -27.516  31.750   3.357  1.00  0.00    -0.007 C 
HETATM   22  C1  UNL     1     -28.595  32.314   2.408  1.00  0.00     0.021 C 
HETATM   23  C3  UNL     1     -28.035  32.098   4.748  1.00  0.00     0.021 C 
HETATM   24  C4  UNL     1     -27.457  30.282   3.110  1.00  0.00     0.021 C 
ENDBRANCH  16  21
BRANCH  18  25
HETATM   25  C7  UNL     1     -24.250  34.563   0.895  1.00  0.00     0.228 C 
BRANCH  25  26
HETATM   26  N2  UNL     1     -24.060  33.697  -0.282  1.00  0.00    -0.259 N 
HETATM   27  N3  UNL     1     -25.049  33.076  -0.900  1.00  0.00    -0.291 N 
HETATM   28  C8  UNL     1     -24.556  32.366  -1.933  1.00  0.00     0.199 A 
ATOM     29  H3  UNL     1     -26.033  33.126  -0.636  1.00  0.00     0.188 HD
HETATM   30  N4  UNL     1     -23.228  32.563  -1.941  1.00  0.00    -0.326 N 
HETATM   31  C9  UNL     1     -22.917  33.394  -0.909  1.00  0.00     0.197 A 
ATOM     32  H4  UNL     1     -22.567  32.160  -2.605  1.00  0.00     0.169 HD
HETATM   33 CL1  UNL     1     -21.326  33.974  -0.466  1.00  0.00    -0.043 Cl
ENDBRANCH  25  26
ENDBRANCH  18  25
BRANCH  20  34
HETATM   34  C10 UNL     1     -22.892  33.626   3.563  1.00  0.00     0.201 C 
BRANCH  34  35
HETATM   35  C11 UNL     1     -21.792  32.807   2.953  1.00  0.00     0.371 C 
HETATM   36  F1  UNL     1     -21.365  31.842   3.863  1.00  0.00    -0.213 F 
HETATM   37  F2  UNL     1     -20.712  33.595   2.664  1.00  0.00    -0.213 F 
ENDBRANCH  34  35
ENDBRANCH  20  34
ENDBRANCH  14  15
BRANCH  14  38
HETATM   38  O1  UNL     1     -24.821  32.824   6.180  1.00  0.00    -0.371 OA
ATOM     39  H1  UNL     1     -24.410  32.456   6.954  1.00  0.00     0.212 HD
ENDBRANCH  14  38
ENDBRANCH  12  14
ENDBRANCH   1  12
BRANCH   4  40
HETATM   40  N8  UNL     1     -26.256  26.968   4.971  1.00  0.00    -0.234 N 
ATOM     41  H82 UNL     1     -26.647  26.259   5.592  1.00  0.00     0.174 HD
ATOM     42  H81 UNL     1     -26.594  27.113   4.020  1.00  0.00     0.174 HD
ENDBRANCH   4  40
TORSDOF 10
ENDMDL
MODEL 4
REMARK VINA RESULT: -5.782155002      0.913      1.130
REMARK  10 active torsions:
REMARK  status: ('A' for Active; 'I' for Inactive)
REMARK    1  A    between atoms: C2_2  and  C5_5 
REMARK    2  A    between atoms: C6_8  and  C7_9 
REMARK    3  A    between atoms: C7_9  and  N2_10 
REMARK    4  A    between atoms: N5_18  and  C10_19 
REMARK    5  A    between atoms: C10_19  and  C11_20 
REMARK    6  A    between atoms: C12_23  and  C13_24 
REMARK    7  A    between atoms: C13_24  and  O1_25 
REMARK    8  A    between atoms: C13_24  and  N6_27 
REMARK    9  A    between atoms: N6_27  and  C14_29 
REMARK   10  A    between atoms: C15_32  and  N8_33 
ROOT
HETATM    1  C14 UNL     1     -24.325  29.912   5.745  1.00  0.00     0.143 A 
HETATM    2  N7  UNL     1     -25.327  29.185   5.213  1.00  0.00    -0.175 N 
ATOM      3  H7  UNL     1     -26.018  29.649   4.623  1.00  0.00     0.186 HD
HETATM    4  C15 UNL     1     -25.442  27.847   5.441  1.00  0.00     0.678 A 
HETATM    5  N9  UNL     1     -24.574  27.167   6.202  1.00  0.00    -0.177 N 
ATOM      6  H9  UNL     1     -24.685  26.164   6.355  1.00  0.00     0.185 HD
HETATM    7  C16 UNL     1     -23.560  27.837   6.756  1.00  0.00     0.156 A 
HETATM    8  N10 UNL     1     -22.613  27.132   7.578  1.00  0.00    -0.080 NA
HETATM    9  C17 UNL     1     -23.428  29.181   6.538  1.00  0.00     0.130 A 
HETATM   10  C18 UNL     1     -22.329  29.869   7.147  1.00  0.00     0.107 C 
HETATM   11  N11 UNL     1     -21.439  30.417   7.653  1.00  0.00    -0.191 NA
ENDROOT
BRANCH   1  12
HETATM   12  N6  UNL     1     -24.164  31.165   5.569  1.00  0.00    -0.343 N 
ATOM     13  H6  UNL     1     -23.319  31.612   5.926  1.00  0.00     0.164 HD
BRANCH  12  14
HETATM   14  C13 UNL     1     -25.139  31.964   4.881  1.00  0.00     0.272 C 
BRANCH  14  15
HETATM   15  C12 UNL     1     -24.693  32.641   3.677  1.00  0.00     0.085 A 
HETATM   16  C5  UNL     1     -25.456  32.758   2.525  1.00  0.00     0.045 A 
HETATM   17  N1  UNL     1     -24.715  33.460   1.649  1.00  0.00    -0.345 N 
HETATM   18  C6  UNL     1     -23.510  33.792   2.206  1.00  0.00     0.104 A 
ATOM     19  H1  UNL     1     -25.010  33.708   0.705  1.00  0.00     0.167 HD
HETATM   20  N5  UNL     1     -23.519  33.270   3.467  1.00  0.00    -0.328 N 
BRANCH  16  21
HETATM   21  C2  UNL     1     -26.828  32.240   2.290  1.00  0.00    -0.007 C 
HETATM   22  C1  UNL     1     -27.139  32.474   0.796  1.00  0.00     0.021 C 
HETATM   23  C3  UNL     1     -27.888  33.060   3.017  1.00  0.00     0.021 C 
HETATM   24  C4  UNL     1     -26.962  30.775   2.528  1.00  0.00     0.021 C 
ENDBRANCH  16  21
BRANCH  18  25
HETATM   25  C7  UNL     1     -22.531  34.588   1.477  1.00  0.00     0.228 C 
BRANCH  25  26
HETATM   26  N2  UNL     1     -22.362  33.946   0.162  1.00  0.00    -0.259 N 
HETATM   27  N3  UNL     1     -23.142  34.189  -0.876  1.00  0.00    -0.291 N 
HETATM   28  C8  UNL     1     -22.732  33.452  -1.927  1.00  0.00     0.199 A 
ATOM     29  H3  UNL     1     -23.931  34.835  -0.881  1.00  0.00     0.188 HD
HETATM   30  N4  UNL     1     -21.671  32.742  -1.512  1.00  0.00    -0.326 N 
HETATM   31  C9  UNL     1     -21.439  33.049  -0.207  1.00  0.00     0.197 A 
ATOM     32  H4  UNL     1     -21.133  32.086  -2.077  1.00  0.00     0.169 HD
HETATM   33 CL1  UNL     1     -20.175  32.406   0.820  1.00  0.00    -0.043 Cl
ENDBRANCH  25  26
ENDBRANCH  18  25
BRANCH  20  34
HETATM   34  C10 UNL     1     -22.436  33.388   4.374  1.00  0.00     0.201 C 
BRANCH  34  35
HETATM   35  C11 UNL     1     -21.260  32.497   4.098  1.00  0.00     0.371 C 
HETATM   36  F1  UNL     1     -21.708  31.228   3.736  1.00  0.00    -0.213 F 
HETATM   37  F2  UNL     1     -20.496  32.351   5.222  1.00  0.00    -0.213 F 
ENDBRANCH  34  35
ENDBRANCH  20  34
ENDBRANCH  14  15
BRANCH  14  38
HETATM   38  O1  UNL     1     -25.716  32.823   5.849  1.00  0.00    -0.371 OA
ATOM     39  H1  UNL     1     -25.327  32.751   6.713  1.00  0.00     0.212 HD
ENDBRANCH  14  38
ENDBRANCH  12  14
ENDBRANCH   1  12
BRANCH   4  40
HETATM   40  N8  UNL     1     -26.415  27.156   4.922  1.00  0.00    -0.234 N 
ATOM     41  H82 UNL     1     -27.350  27.360   5.274  1.00  0.00     0.174 HD
ATOM     42  H81 UNL     1     -26.239  26.453   4.204  1.00  0.00     0.174 HD
ENDBRANCH   4  40
TORSDOF 10
ENDMDL
MODEL 5
REMARK VINA RESULT: -5.686090440      1.991      3.087
REMARK  10 active torsions:
REMARK  status: ('A' for Active; 'I' for Inactive)
REMARK    1  A    between atoms: C2_2  and  C5_5 
REMARK    2  A    between atoms: C6_8  and  C7_9 
REMARK    3  A    between atoms: C7_9  and  N2_10 
REMARK    4  A    between atoms: N5_18  and  C10_19 
REMARK    5  A    between atoms: C10_19  and  C11_20 
REMARK    6  A    between atoms: C12_23  and  C13_24 
REMARK    7  A    between atoms: C13_24  and  O1_25 
REMARK    8  A    between atoms: C13_24  and  N6_27 
REMARK    9  A    between atoms: N6_27  and  C14_29 
REMARK   10  A    between atoms: C15_32  and  N8_33 
ROOT
HETATM    1  C14 UNL     1     -22.621  29.793   6.363  1.00  0.00     0.143 A 
HETATM    2  N7  UNL     1     -21.667  30.287   7.178  1.00  0.00    -0.175 N 
ATOM      3  H7  UNL     1     -21.260  31.199   6.969  1.00  0.00     0.186 HD
HETATM    4  C15 UNL     1     -21.234  29.602   8.272  1.00  0.00     0.678 A 
HETATM    5  N9  UNL     1     -21.721  28.402   8.613  1.00  0.00    -0.177 N 
ATOM      6  H9  UNL     1     -21.377  27.912   9.439  1.00  0.00     0.185 HD
HETATM    7  C16 UNL     1     -22.668  27.863   7.840  1.00  0.00     0.156 A 
HETATM    8  N10 UNL     1     -23.210  26.574   8.182  1.00  0.00    -0.080 NA
HETATM    9  C17 UNL     1     -23.117  28.536   6.737  1.00  0.00     0.130 A 
HETATM   10  C18 UNL     1     -24.134  27.929   5.931  1.00  0.00     0.107 C 
HETATM   11  N11 UNL     1     -24.952  27.423   5.280  1.00  0.00    -0.191 NA
ENDROOT
BRANCH   1  12
HETATM   12  N6  UNL     1     -23.068  30.386   5.325  1.00  0.00    -0.343 N 
ATOM     13  H6  UNL     1     -23.040  29.902   4.428  1.00  0.00     0.164 HD
BRANCH  12  14
HETATM   14  C13 UNL     1     -23.608  31.715   5.386  1.00  0.00     0.272 C 
BRANCH  14  15
HETATM   15  C12 UNL     1     -23.196  32.632   4.339  1.00  0.00     0.085 A 
HETATM   16  C5  UNL     1     -24.078  33.363   3.557  1.00  0.00     0.045 A 
HETATM   17  N1  UNL     1     -23.324  34.103   2.725  1.00  0.00    -0.345 N 
HETATM   18  C6  UNL     1     -21.995  33.867   2.953  1.00  0.00     0.104 A 
ATOM     19  H1  UNL     1     -23.690  34.748   2.025  1.00  0.00     0.167 HD
HETATM   20  N5  UNL     1     -21.940  32.947   3.960  1.00  0.00    -0.328 N 
BRANCH  16  21
HETATM   21  C2  UNL     1     -25.561  33.363   3.624  1.00  0.00    -0.007 C 
HETATM   22  C1  UNL     1     -26.056  34.241   2.454  1.00  0.00     0.021 C 
HETATM   23  C3  UNL     1     -26.086  34.079   4.864  1.00  0.00     0.021 C 
HETATM   24  C4  UNL     1     -26.168  32.016   3.431  1.00  0.00     0.021 C 
ENDBRANCH  16  21
BRANCH  18  25
HETATM   25  C7  UNL     1     -20.960  34.571   2.207  1.00  0.00     0.228 C 
BRANCH  25  26
HETATM   26  N2  UNL     1     -20.423  33.614   1.224  1.00  0.00    -0.259 N 
HETATM   27  N3  UNL     1     -21.134  33.107   0.233  1.00  0.00    -0.291 N 
HETATM   28  C8  UNL     1     -20.365  32.268  -0.488  1.00  0.00     0.199 A 
ATOM     29  H3  UNL     1     -22.113  33.319   0.042  1.00  0.00     0.188 HD
HETATM   30  N4  UNL     1     -19.151  32.267   0.085  1.00  0.00    -0.326 N 
HETATM   31  C9  UNL     1     -19.186  33.107   1.155  1.00  0.00     0.197 A 
ATOM     32  H4  UNL     1     -18.342  31.730  -0.227  1.00  0.00     0.169 HD
HETATM   33 CL1  UNL     1     -17.872  33.474   2.252  1.00  0.00    -0.043 Cl
ENDBRANCH  25  26
ENDBRANCH  18  25
BRANCH  20  34
HETATM   34  C10 UNL     1     -20.732  32.426   4.484  1.00  0.00     0.201 C 
BRANCH  34  35
HETATM   35  C11 UNL     1     -20.130  33.203   5.618  1.00  0.00     0.371 C 
HETATM   36  F1  UNL     1     -20.913  34.324   5.887  1.00  0.00    -0.213 F 
HETATM   37  F2  UNL     1     -18.883  33.653   5.282  1.00  0.00    -0.213 F 
ENDBRANCH  34  35
ENDBRANCH  20  34
ENDBRANCH  14  15
BRANCH  14  38
HETATM   38  O1  UNL     1     -23.370  32.190   6.699  1.00  0.00    -0.371 OA
ATOM     39  H1  UNL     1     -23.037  31.532   7.297  1.00  0.00     0.212 HD
ENDBRANCH  14  38
ENDBRANCH  12  14
ENDBRANCH   1  12
BRANCH   4  40
HETATM   40  N8  UNL     1     -20.312  30.090   9.051  1.00  0.00    -0.234 N 
ATOM     41  H82 UNL     1     -20.411  31.073   9.304  1.00  0.00     0.174 HD
ATOM     42  H81 UNL     1     -19.541  29.512   9.383  1.00  0.00     0.174 HD
ENDBRANCH   4  40
TORSDOF 10
ENDMDL
