MODEL 1
REMARK VINA RESULT: -5.811370045      0.000      0.000
REMARK  9 active torsions:
REMARK  status: ('A' for Active; 'I' for Inactive)
REMARK    1  A    between atoms: C2_2  and  O1_3 
REMARK    2  A    between atoms: O1_3  and  C3_4 
REMARK    3  A    between atoms: C3_4  and  C4_6 
REMARK    4  A    between atoms: C5_7  and  C6_8 
REMARK    5  A    between atoms: C6_8  and  N1_9 
REMARK    6  A    between atoms: C7_10  and  N2_11 
REMARK    7  A    between atoms: C10_19  and  N4_20 
REMARK    8  A    between atoms: C13_25  and  N6_26 
REMARK    9  A    between atoms: C17_37  and  C18_38 
ROOT
HETATM    1  C4  UNL     1      39.012  -4.284  -6.089  1.00  0.00     0.077 A 
HETATM    2  C5  UNL     1      37.923  -3.907  -6.797  1.00  0.00     0.067 A 
HETATM    3  N8  UNL     1      37.016  -4.938  -6.686  1.00  0.00    -0.345 N 
ATOM      4  H8  UNL     1      36.091  -4.943  -7.116  1.00  0.00     0.167 HD
HETATM    5  C15 UNL     1      37.508  -5.931  -5.939  1.00  0.00     0.122 A 
HETATM    6  C16 UNL     1      36.833  -7.180  -5.608  1.00  0.00     0.118 C 
HETATM    7  N9  UNL     1      36.310  -8.176  -5.338  1.00  0.00    -0.190 NA
HETATM    8  C17 UNL     1      38.761  -5.557  -5.546  1.00  0.00     0.011 A 
ENDROOT
BRANCH   8   9
HETATM    9  C18 UNL     1      39.697  -6.358  -4.691  1.00  0.00     0.166 C 
HETATM   10  C19 UNL     1      40.733  -7.007  -5.476  1.00  0.00     0.063 C 
HETATM   11  N10 UNL     1      41.551  -7.537  -6.089  1.00  0.00    -0.197 NA
ENDBRANCH   8   9
BRANCH   2  12
HETATM   12  C6  UNL     1      37.600  -2.699  -7.575  1.00  0.00     0.147 C 
BRANCH  12  13
HETATM   13  N1  UNL     1      37.526  -2.759  -8.977  1.00  0.00    -0.139 N 
HETATM   14  C7  UNL     1      36.419  -2.972  -9.678  1.00  0.00     0.686 A 
HETATM   15  N3  UNL     1      36.405  -2.970 -11.043  1.00  0.00    -0.155 N 
HETATM   16  C8  UNL     1      37.493  -2.760 -11.762  1.00  0.00     0.277 A 
ATOM     17  H3  UNL     1      35.522  -3.138 -11.526  1.00  0.00     0.187 HD
HETATM   18  O3  UNL     1      37.403  -2.774 -13.017  1.00  0.00    -0.266 OA
HETATM   19  C9  UNL     1      38.667  -2.537 -11.107  1.00  0.00     0.122 A 
HETATM   20  C10 UNL     1      39.842  -2.321 -11.786  1.00  0.00     0.138 A 
HETATM   21  C14 UNL     1      38.648  -2.544  -9.737  1.00  0.00     0.163 A 
HETATM   22  N5  UNL     1      40.987  -2.112 -11.070  1.00  0.00    -0.176 N 
HETATM   23  C13 UNL     1      40.965  -2.120  -9.730  1.00  0.00     0.679 A 
ATOM     24  H5  UNL     1      41.867  -1.948 -11.560  1.00  0.00     0.186 HD
HETATM   25  N7  UNL     1      39.791  -2.336  -9.109  1.00  0.00    -0.175 N 
ATOM     26  H7  UNL     1      39.783  -2.340  -8.089  1.00  0.00     0.186 HD
BRANCH  14  27
HETATM   27  N2  UNL     1      35.303  -3.251  -9.152  1.00  0.00    -0.234 N 
ATOM     28  H22 UNL     1      35.109  -2.736  -8.293  1.00  0.00     0.174 HD
ATOM     29  H21 UNL     1      34.630  -3.894  -9.568  1.00  0.00     0.174 HD
ENDBRANCH  14  27
BRANCH  20  30
HETATM   30  N4  UNL     1      39.900  -2.306 -13.207  1.00  0.00    -0.375 N 
HETATM   31  C11 UNL     1      40.110  -3.481 -14.030  1.00  0.00     0.150 C 
HETATM   32  C12 UNL     1      39.766  -1.029 -13.910  1.00  0.00     0.150 C 
ENDBRANCH  20  30
BRANCH  23  33
HETATM   33  N6  UNL     1      42.064  -1.920  -9.056  1.00  0.00    -0.234 N 
ATOM     34  H62 UNL     1      42.852  -1.415  -9.462  1.00  0.00     0.174 HD
ATOM     35  H61 UNL     1      42.151  -2.273  -8.103  1.00  0.00     0.174 HD
ENDBRANCH  23  33
ENDBRANCH  12  13
ENDBRANCH   2  12
BRANCH   1  36
HETATM   36  C3  UNL     1      40.291  -3.616  -5.796  1.00  0.00     0.296 C 
HETATM   37  O2  UNL     1      41.188  -3.690  -6.671  1.00  0.00    -0.259 OA
BRANCH  36  38
HETATM   38  O1  UNL     1      40.528  -2.944  -4.635  1.00  0.00    -0.318 OA
BRANCH  38  39
HETATM   39  C2  UNL     1      39.647  -1.978  -4.149  1.00  0.00     0.174 C 
HETATM   40  C1  UNL     1      39.087  -2.216  -2.790  1.00  0.00     0.034 C 
ENDBRANCH  38  39
ENDBRANCH  36  38
ENDBRANCH   1  36
TORSDOF 9
ENDMDL
MODEL 2
REMARK VINA RESULT: -5.785215312      1.255      1.355
REMARK  9 active torsions:
REMARK  status: ('A' for Active; 'I' for Inactive)
REMARK    1  A    between atoms: C2_2  and  O1_3 
REMARK    2  A    between atoms: O1_3  and  C3_4 
REMARK    3  A    between atoms: C3_4  and  C4_6 
REMARK    4  A    between atoms: C5_7  and  C6_8 
REMARK    5  A    between atoms: C6_8  and  N1_9 
REMARK    6  A    between atoms: C7_10  and  N2_11 
REMARK    7  A    between atoms: C10_19  and  N4_20 
REMARK    8  A    between atoms: C13_25  and  N6_26 
REMARK    9  A    between atoms: C17_37  and  C18_38 
ROOT
HETATM    1  C4  UNL     1      37.853  -3.874  -6.732  1.00  0.00     0.077 A 
HETATM    2  C5  UNL     1      37.007  -3.658  -7.764  1.00  0.00     0.067 A 
HETATM    3  N8  UNL     1      36.200  -4.773  -7.840  1.00  0.00    -0.345 N 
ATOM      4  H8  UNL     1      35.457  -4.904  -8.525  1.00  0.00     0.167 HD
HETATM    5  C15 UNL     1      36.522  -5.662  -6.895  1.00  0.00     0.122 A 
HETATM    6  C16 UNL     1      35.887  -6.955  -6.672  1.00  0.00     0.118 C 
HETATM    7  N9  UNL     1      35.393  -7.985  -6.484  1.00  0.00    -0.190 NA
HETATM    8  C17 UNL     1      37.557  -5.133  -6.179  1.00  0.00     0.011 A 
ENDROOT
BRANCH   8   9
HETATM    9  C18 UNL     1      38.249  -5.776  -5.015  1.00  0.00     0.166 C 
HETATM   10  C19 UNL     1      39.389  -6.575  -5.431  1.00  0.00     0.063 C 
HETATM   11  N10 UNL     1      40.286  -7.223  -5.751  1.00  0.00    -0.197 NA
ENDBRANCH   8   9
BRANCH   2  12
HETATM   12  C6  UNL     1      36.837  -2.540  -8.708  1.00  0.00     0.147 C 
BRANCH  12  13
HETATM   13  N1  UNL     1      37.121  -2.716 -10.072  1.00  0.00    -0.139 N 
HETATM   14  C7  UNL     1      36.217  -2.904 -11.026  1.00  0.00     0.686 A 
HETATM   15  N3  UNL     1      36.556  -3.020 -12.344  1.00  0.00    -0.155 N 
HETATM   16  C8  UNL     1      37.808  -2.956 -12.761  1.00  0.00     0.277 A 
ATOM     17  H3  UNL     1      35.816  -3.161 -13.031  1.00  0.00     0.187 HD
HETATM   18  O3  UNL     1      38.044  -3.072 -13.991  1.00  0.00    -0.266 OA
HETATM   19  C9  UNL     1      38.789  -2.767 -11.834  1.00  0.00     0.122 A 
HETATM   20  C10 UNL     1      40.114  -2.701 -12.191  1.00  0.00     0.138 A 
HETATM   21  C14 UNL     1      38.416  -2.653 -10.521  1.00  0.00     0.163 A 
HETATM   22  N5  UNL     1      41.051  -2.519 -11.212  1.00  0.00    -0.176 N 
HETATM   23  C13 UNL     1      40.682  -2.408  -9.927  1.00  0.00     0.679 A 
ATOM     24  H5  UNL     1      42.039  -2.466 -11.461  1.00  0.00     0.186 HD
HETATM   25  N7  UNL     1      39.373  -2.480  -9.627  1.00  0.00    -0.175 N 
ATOM     26  H7  UNL     1      39.102  -2.395  -8.647  1.00  0.00     0.186 HD
BRANCH  14  27
HETATM   27  N2  UNL     1      34.981  -3.050 -10.798  1.00  0.00    -0.234 N 
ATOM     28  H22 UNL     1      34.619  -3.969 -11.051  1.00  0.00     0.174 HD
ATOM     29  H21 UNL     1      34.402  -2.336 -10.356  1.00  0.00     0.174 HD
ENDBRANCH  14  27
BRANCH  20  30
HETATM   30  N4  UNL     1      40.538  -2.814 -13.544  1.00  0.00    -0.375 N 
HETATM   31  C11 UNL     1      40.868  -4.066 -14.196  1.00  0.00     0.150 C 
HETATM   32  C12 UNL     1      40.682  -1.599 -14.347  1.00  0.00     0.150 C 
ENDBRANCH  20  30
BRANCH  23  33
HETATM   33  N6  UNL     1      41.585  -2.235  -9.001  1.00  0.00    -0.234 N 
ATOM     34  H62 UNL     1      42.576  -2.386  -9.189  1.00  0.00     0.174 HD
ATOM     35  H61 UNL     1      41.306  -1.944  -8.065  1.00  0.00     0.174 HD
ENDBRANCH  23  33
ENDBRANCH  12  13
ENDBRANCH   2  12
BRANCH   1  36
HETATM   36  C3  UNL     1      38.918  -3.055  -6.128  1.00  0.00     0.296 C 
HETATM   37  O2  UNL     1      40.076  -3.193  -6.593  1.00  0.00    -0.259 OA
BRANCH  36  38
HETATM   38  O1  UNL     1      38.694  -2.181  -5.108  1.00  0.00    -0.318 OA
BRANCH  38  39
HETATM   39  C2  UNL     1      38.339  -0.853  -5.339  1.00  0.00     0.174 C 
HETATM   40  C1  UNL     1      38.693   0.123  -4.272  1.00  0.00     0.034 C 
ENDBRANCH  38  39
ENDBRANCH  36  38
ENDBRANCH   1  36
TORSDOF 9
ENDMDL
MODEL 3
REMARK VINA RESULT: -5.741375595      2.767      8.032
REMARK  9 active torsions:
REMARK  status: ('A' for Active; 'I' for Inactive)
REMARK    1  A    between atoms: C2_2  and  O1_3 
REMARK    2  A    between atoms: O1_3  and  C3_4 
REMARK    3  A    between atoms: C3_4  and  C4_6 
REMARK    4  A    between atoms: C5_7  and  C6_8 
REMARK    5  A    between atoms: C6_8  and  N1_9 
REMARK    6  A    between atoms: C7_10  and  N2_11 
REMARK    7  A    between atoms: C10_19  and  N4_20 
REMARK    8  A    between atoms: C13_25  and  N6_26 
REMARK    9  A    between atoms: C17_37  and  C18_38 
ROOT
HETATM    1  C4  UNL     1      38.309  -1.998 -12.106  1.00  0.00     0.077 A 
HETATM    2  C5  UNL     1      39.567  -2.193 -11.648  1.00  0.00     0.067 A 
HETATM    3  N8  UNL     1      40.382  -1.380 -12.405  1.00  0.00    -0.345 N 
ATOM      4  H8  UNL     1      41.393  -1.308 -12.292  1.00  0.00     0.167 HD
HETATM    5  C15 UNL     1      39.672  -0.698 -13.309  1.00  0.00     0.122 A 
HETATM    6  C16 UNL     1      40.196   0.253 -14.281  1.00  0.00     0.118 C 
HETATM    7  N9  UNL     1      40.598   1.010 -15.059  1.00  0.00    -0.190 NA
HETATM    8  C17 UNL     1      38.365  -1.060 -13.152  1.00  0.00     0.011 A 
ENDROOT
BRANCH   8   9
HETATM    9  C18 UNL     1      37.202  -0.549 -13.950  1.00  0.00     0.166 C 
HETATM   10  C19 UNL     1      36.345   0.325 -13.168  1.00  0.00     0.063 C 
HETATM   11  N10 UNL     1      35.652   1.009 -12.554  1.00  0.00    -0.197 NA
ENDBRANCH   8   9
BRANCH   2  12
HETATM   12  C6  UNL     1      40.128  -3.042 -10.584  1.00  0.00     0.147 C 
BRANCH  12  13
HETATM   13  N1  UNL     1      40.466  -2.486  -9.338  1.00  0.00    -0.139 N 
HETATM   14  C7  UNL     1      41.654  -1.991  -9.016  1.00  0.00     0.686 A 
HETATM   15  N3  UNL     1      41.905  -1.420  -7.801  1.00  0.00    -0.155 N 
HETATM   16  C8  UNL     1      40.983  -1.322  -6.861  1.00  0.00     0.277 A 
ATOM     17  H3  UNL     1      42.839  -1.056  -7.613  1.00  0.00     0.187 HD
HETATM   18  O3  UNL     1      41.287  -0.783  -5.766  1.00  0.00    -0.266 OA
HETATM   19  C9  UNL     1      39.739  -1.813  -7.123  1.00  0.00     0.122 A 
HETATM   20  C10 UNL     1      38.730  -1.756  -6.191  1.00  0.00     0.138 A 
HETATM   21  C14 UNL     1      39.519  -2.379  -8.351  1.00  0.00     0.163 A 
HETATM   22  N5  UNL     1      37.507  -2.274  -6.513  1.00  0.00    -0.176 N 
HETATM   23  C13 UNL     1      37.296  -2.828  -7.715  1.00  0.00     0.679 A 
ATOM     24  H5  UNL     1      36.748  -2.239  -5.832  1.00  0.00     0.186 HD
HETATM   25  N7  UNL     1      38.313  -2.860  -8.595  1.00  0.00    -0.175 N 
ATOM     26  H7  UNL     1      38.142  -3.283  -9.507  1.00  0.00     0.186 HD
BRANCH  14  27
HETATM   27  N2  UNL     1      42.666  -2.057  -9.772  1.00  0.00    -0.234 N 
ATOM     28  H22 UNL     1      42.574  -1.521 -10.635  1.00  0.00     0.174 HD
ATOM     29  H21 UNL     1      43.520  -2.559  -9.528  1.00  0.00     0.174 HD
ENDBRANCH  14  27
BRANCH  20  30
HETATM   30  N4  UNL     1      38.922  -1.176  -4.907  1.00  0.00    -0.375 N 
HETATM   31  C11 UNL     1      39.347  -1.910  -3.731  1.00  0.00     0.150 C 
HETATM   32  C12 UNL     1      38.656   0.253  -4.726  1.00  0.00     0.150 C 
ENDBRANCH  20  30
BRANCH  23  33
HETATM   33  N6  UNL     1      36.123  -3.319  -8.011  1.00  0.00    -0.234 N 
ATOM     34  H62 UNL     1      35.397  -2.744  -8.439  1.00  0.00     0.174 HD
ATOM     35  H61 UNL     1      35.916  -4.298  -7.814  1.00  0.00     0.174 HD
ENDBRANCH  23  33
ENDBRANCH  12  13
ENDBRANCH   2  12
BRANCH   1  36
HETATM   36  C3  UNL     1      37.003  -2.540 -11.694  1.00  0.00     0.296 C 
HETATM   37  O2  UNL     1      36.426  -1.971 -10.735  1.00  0.00    -0.259 OA
BRANCH  36  38
HETATM   38  O1  UNL     1      36.421  -3.613 -12.298  1.00  0.00    -0.318 OA
BRANCH  38  39
HETATM   39  C2  UNL     1      35.090  -3.956 -12.066  1.00  0.00     0.174 C 
HETATM   40  C1  UNL     1      34.853  -5.187 -11.262  1.00  0.00     0.034 C 
ENDBRANCH  38  39
ENDBRANCH  36  38
ENDBRANCH   1  36
TORSDOF 9
ENDMDL
MODEL 4
REMARK VINA RESULT: -5.682199250      2.343      5.210
REMARK  9 active torsions:
REMARK  status: ('A' for Active; 'I' for Inactive)
REMARK    1  A    between atoms: C2_2  and  O1_3 
REMARK    2  A    between atoms: O1_3  and  C3_4 
REMARK    3  A    between atoms: C3_4  and  C4_6 
REMARK    4  A    between atoms: C5_7  and  C6_8 
REMARK    5  A    between atoms: C6_8  and  N1_9 
REMARK    6  A    between atoms: C7_10  and  N2_11 
REMARK    7  A    between atoms: C10_19  and  N4_20 
REMARK    8  A    between atoms: C13_25  and  N6_26 
REMARK    9  A    between atoms: C17_37  and  C18_38 
ROOT
HETATM    1  C4  UNL     1      39.475  -1.952  -6.056  1.00  0.00     0.077 A 
HETATM    2  C5  UNL     1      40.375  -2.190  -7.037  1.00  0.00     0.067 A 
HETATM    3  N8  UNL     1      41.425  -1.327  -6.813  1.00  0.00    -0.345 N 
ATOM      4  H8  UNL     1      42.263  -1.273  -7.393  1.00  0.00     0.167 HD
HETATM    5  C15 UNL     1      41.202  -0.569  -5.735  1.00  0.00     0.122 A 
HETATM    6  C16 UNL     1      42.091   0.454  -5.199  1.00  0.00     0.118 C 
HETATM    7  N9  UNL     1      42.786   1.270  -4.762  1.00  0.00    -0.190 NA
HETATM    8  C17 UNL     1      39.986  -0.932  -5.232  1.00  0.00     0.011 A 
ENDROOT
BRANCH   8   9
HETATM    9  C18 UNL     1      39.319  -0.350  -4.022  1.00  0.00     0.166 C 
HETATM   10  C19 UNL     1      38.546   0.837  -4.342  1.00  0.00     0.063 C 
HETATM   11  N10 UNL     1      37.940   1.787  -4.582  1.00  0.00    -0.197 NA
ENDBRANCH   8   9
BRANCH   2  12
HETATM   12  C6  UNL     1      40.397  -3.127  -8.173  1.00  0.00     0.147 C 
BRANCH  12  13
HETATM   13  N1  UNL     1      40.172  -2.661  -9.479  1.00  0.00    -0.139 N 
HETATM   14  C7  UNL     1      41.116  -2.303 -10.340  1.00  0.00     0.686 A 
HETATM   15  N3  UNL     1      40.833  -1.904 -11.614  1.00  0.00    -0.155 N 
HETATM   16  C8  UNL     1      39.598  -1.843 -12.079  1.00  0.00     0.277 A 
ATOM     17  H3  UNL     1      41.603  -1.643 -12.230  1.00  0.00     0.187 HD
HETATM   18  O3  UNL     1      39.414  -1.464 -13.265  1.00  0.00    -0.266 OA
HETATM   19  C9  UNL     1      38.577  -2.193 -11.248  1.00  0.00     0.122 A 
HETATM   20  C10 UNL     1      37.266  -2.145 -11.656  1.00  0.00     0.138 A 
HETATM   21  C14 UNL     1      38.894  -2.590  -9.976  1.00  0.00     0.163 A 
HETATM   22  N5  UNL     1      36.287  -2.502 -10.771  1.00  0.00    -0.176 N 
HETATM   23  C13 UNL     1      36.602  -2.889  -9.526  1.00  0.00     0.679 A 
ATOM     24  H5  UNL     1      35.309  -2.473 -11.059  1.00  0.00     0.186 HD
HETATM   25  N7  UNL     1      37.899  -2.920  -9.172  1.00  0.00    -0.175 N 
ATOM     26  H7  UNL     1      38.128  -3.217  -8.223  1.00  0.00     0.186 HD
BRANCH  14  27
HETATM   27  N2  UNL     1      42.345  -2.244 -10.043  1.00  0.00    -0.234 N 
ATOM     28  H22 UNL     1      42.597  -2.777  -9.211  1.00  0.00     0.174 HD
ATOM     29  H21 UNL     1      43.037  -1.749 -10.606  1.00  0.00     0.174 HD
ENDBRANCH  14  27
BRANCH  20  30
HETATM   30  N4  UNL     1      36.900  -1.739 -12.969  1.00  0.00    -0.375 N 
HETATM   31  C11 UNL     1      36.624  -0.368 -13.354  1.00  0.00     0.150 C 
HETATM   32  C12 UNL     1      36.760  -2.754 -14.014  1.00  0.00     0.150 C 
ENDBRANCH  20  30
BRANCH  23  33
HETATM   33  N6  UNL     1      35.659  -3.227  -8.690  1.00  0.00    -0.234 N 
ATOM     34  H62 UNL     1      34.674  -3.188  -8.953  1.00  0.00     0.174 HD
ATOM     35  H61 UNL     1      35.899  -3.537  -7.748  1.00  0.00     0.174 HD
ENDBRANCH  23  33
ENDBRANCH  12  13
ENDBRANCH   2  12
BRANCH   1  36
HETATM   36  C3  UNL     1      38.176  -2.561  -5.724  1.00  0.00     0.296 C 
HETATM   37  O2  UNL     1      37.151  -2.010  -6.195  1.00  0.00    -0.259 OA
BRANCH  36  38
HETATM   38  O1  UNL     1      38.054  -3.669  -4.941  1.00  0.00    -0.318 OA
BRANCH  38  39
HETATM   39  C2  UNL     1      38.351  -4.945  -5.418  1.00  0.00     0.174 C 
HETATM   40  C1  UNL     1      37.273  -5.635  -6.179  1.00  0.00     0.034 C 
ENDBRANCH  38  39
ENDBRANCH  36  38
ENDBRANCH   1  36
TORSDOF 9
ENDMDL
MODEL 5
REMARK VINA RESULT: -5.574118948      3.076      5.041
REMARK  9 active torsions:
REMARK  status: ('A' for Active; 'I' for Inactive)
REMARK    1  A    between atoms: C2_2  and  O1_3 
REMARK    2  A    between atoms: O1_3  and  C3_4 
REMARK    3  A    between atoms: C3_4  and  C4_6 
REMARK    4  A    between atoms: C5_7  and  C6_8 
REMARK    5  A    between atoms: C6_8  and  N1_9 
REMARK    6  A    between atoms: C7_10  and  N2_11 
REMARK    7  A    between atoms: C10_19  and  N4_20 
REMARK    8  A    between atoms: C13_25  and  N6_26 
REMARK    9  A    between atoms: C17_37  and  C18_38 
ROOT
HETATM    1  C4  UNL     1      40.361  -0.624  -6.950  1.00  0.00     0.077 A 
HETATM    2  C5  UNL     1      39.389  -1.562  -6.879  1.00  0.00     0.067 A 
HETATM    3  N8  UNL     1      38.569  -1.187  -5.837  1.00  0.00    -0.345 N 
ATOM      4  H8  UNL     1      37.741  -1.702  -5.540  1.00  0.00     0.167 HD
HETATM    5  C15 UNL     1      39.003  -0.059  -5.268  1.00  0.00     0.122 A 
HETATM    6  C16 UNL     1      38.390   0.632  -4.140  1.00  0.00     0.118 C 
HETATM    7  N9  UNL     1      37.915   1.190  -3.244  1.00  0.00    -0.190 NA
HETATM    8  C17 UNL     1      40.128   0.326  -5.939  1.00  0.00     0.011 A 
ENDROOT
BRANCH   8   9
HETATM    9  C18 UNL     1      40.960   1.539  -5.651  1.00  0.00     0.166 C 
HETATM   10  C19 UNL     1      40.329   2.760  -6.123  1.00  0.00     0.063 C 
HETATM   11  N10 UNL     1      39.844   3.732  -6.504  1.00  0.00    -0.197 NA
ENDBRANCH   8   9
BRANCH   2  12
HETATM   12  C6  UNL     1      39.108  -2.779  -7.659  1.00  0.00     0.147 C 
BRANCH  12  13
HETATM   13  N1  UNL     1      38.127  -2.764  -8.665  1.00  0.00    -0.139 N 
HETATM   14  C7  UNL     1      36.831  -2.979  -8.476  1.00  0.00     0.686 A 
HETATM   15  N3  UNL     1      35.921  -2.903  -9.490  1.00  0.00    -0.155 N 
HETATM   16  C8  UNL     1      36.266  -2.614 -10.732  1.00  0.00     0.277 A 
ATOM     17  H3  UNL     1      34.937  -3.076  -9.281  1.00  0.00     0.187 HD
HETATM   18  O3  UNL     1      35.371  -2.562 -11.614  1.00  0.00    -0.266 OA
HETATM   19  C9  UNL     1      37.582  -2.385 -10.999  1.00  0.00     0.122 A 
HETATM   20  C10 UNL     1      38.019  -2.089 -12.268  1.00  0.00     0.138 A 
HETATM   21  C14 UNL     1      38.471  -2.467  -9.960  1.00  0.00     0.163 A 
HETATM   22  N5  UNL     1      39.354  -1.878 -12.472  1.00  0.00    -0.176 N 
HETATM   23  C13 UNL     1      40.222  -1.960 -11.452  1.00  0.00     0.679 A 
ATOM     24  H5  UNL     1      39.695  -1.656 -13.408  1.00  0.00     0.186 HD
HETATM   25  N7  UNL     1      39.747  -2.253 -10.228  1.00  0.00    -0.175 N 
ATOM     26  H7  UNL     1      40.414  -2.313  -9.459  1.00  0.00     0.186 HD
BRANCH  14  27
HETATM   27  N2  UNL     1      36.337  -3.326  -7.364  1.00  0.00    -0.234 N 
ATOM     28  H22 UNL     1      36.325  -2.584  -6.666  1.00  0.00     0.174 HD
ATOM     29  H21 UNL     1      35.939  -4.249  -7.190  1.00  0.00     0.174 HD
ENDBRANCH  14  27
BRANCH  20  30
HETATM   30  N4  UNL     1      37.126  -1.994 -13.370  1.00  0.00    -0.375 N 
HETATM   31  C11 UNL     1      36.816  -3.089 -14.269  1.00  0.00     0.150 C 
HETATM   32  C12 UNL     1      36.481  -0.711 -13.654  1.00  0.00     0.150 C 
ENDBRANCH  20  30
BRANCH  23  33
HETATM   33  N6  UNL     1      41.494  -1.757 -11.659  1.00  0.00    -0.234 N 
ATOM     34  H62 UNL     1      42.149  -2.534 -11.749  1.00  0.00     0.174 HD
ATOM     35  H61 UNL     1      41.854  -0.806 -11.732  1.00  0.00     0.174 HD
ENDBRANCH  23  33
ENDBRANCH  12  13
ENDBRANCH   2  12
BRANCH   1  36
HETATM   36  C3  UNL     1      41.505  -0.440  -7.861  1.00  0.00     0.296 C 
HETATM   37  O2  UNL     1      42.619  -0.867  -7.470  1.00  0.00    -0.259 OA
BRANCH  36  38
HETATM   38  O1  UNL     1      41.396   0.166  -9.075  1.00  0.00    -0.318 OA
BRANCH  38  39
HETATM   39  C2  UNL     1      42.309   1.130  -9.502  1.00  0.00     0.174 C 
HETATM   40  C1  UNL     1      41.876   2.550  -9.388  1.00  0.00     0.034 C 
ENDBRANCH  38  39
ENDBRANCH  36  38
ENDBRANCH   1  36
TORSDOF 9
ENDMDL
