MODEL 1
REMARK VINA RESULT: -7.858350389      0.000      0.000
REMARK  9 active torsions:
REMARK  status: ('A' for Active; 'I' for Inactive)
REMARK    1  A    between atoms: N1_1  and  C1_4 
REMARK    2  A    between atoms: C2_7  and  N3_8 
REMARK    3  A    between atoms: N3_8  and  C3_10 
REMARK    4  A    between atoms: C3_10  and  C4_11 
REMARK    5  A    between atoms: C4_11  and  O1_12 
REMARK    6  A    between atoms: C6_20  and  S2_21 
REMARK    7  A    between atoms: S2_21  and  C7_22 
REMARK    8  A    between atoms: C7_22  and  C8_23 
REMARK    9  A    between atoms: N8_30  and  C11_32 
ROOT
HETATM    1  C1  UNL     1      41.803  -3.542 -15.018  1.00  0.00     0.130 A 
HETATM    2  N2  UNL     1      42.458  -3.554 -16.181  1.00  0.00    -0.176 N 
ATOM      3  H2  UNL     1      42.281  -2.839 -16.887  1.00  0.00     0.186 HD
HETATM    4  C2  UNL     1      43.366  -4.541 -16.402  1.00  0.00     0.681 A 
HETATM    5  N4  UNL     1      43.583  -5.470 -15.457  1.00  0.00    -0.175 N 
ATOM      6  H4  UNL     1      44.267  -6.204 -15.637  1.00  0.00     0.186 HD
HETATM    7  C5  UNL     1      42.915  -5.468 -14.256  1.00  0.00     0.143 A 
HETATM    8  N5  UNL     1      43.112  -6.382 -13.299  1.00  0.00    -0.310 N 
ATOM      9  H5  UNL     1      43.753  -7.175 -13.314  1.00  0.00     0.176 HD
HETATM   10  S1  UNL     1      42.064  -5.927 -12.068  1.00  0.00    -0.005 SA
HETATM   11  C6  UNL     1      41.377  -4.551 -12.803  1.00  0.00     0.076 A 
HETATM   12  C16 UNL     1      42.018  -4.508 -14.018  1.00  0.00     0.078 A 
ENDROOT
BRANCH  11  13
HETATM   13  S2  UNL     1      40.124  -3.465 -12.116  1.00  0.00    -0.113 SA
BRANCH  13  14
HETATM   14  C7  UNL     1      38.523  -3.705 -12.886  1.00  0.00     0.157 C 
BRANCH  14  15
HETATM   15  C8  UNL     1      37.510  -2.696 -12.484  1.00  0.00     0.107 A 
HETATM   16  N6  UNL     1      37.002  -2.651 -11.238  1.00  0.00    -0.341 N 
HETATM   17  C9  UNL     1      36.085  -1.722 -10.890  1.00  0.00     0.199 A 
ATOM     18  H6  UNL     1      37.316  -3.330 -10.545  1.00  0.00     0.167 HD
HETATM   19  N7  UNL     1      35.633  -0.801 -11.759  1.00  0.00    -0.188 N 
HETATM   20  C10 UNL     1      36.140  -0.844 -13.007  1.00  0.00     0.684 A 
ATOM     21  H7  UNL     1      34.940  -0.104 -11.488  1.00  0.00     0.185 HD
HETATM   22  N8  UNL     1      35.731   0.030 -13.869  1.00  0.00    -0.192 N 
HETATM   23  N9  UNL     1      37.054  -1.767 -13.360  1.00  0.00    -0.179 N 
ATOM     24  H8  UNL     1      36.107   0.008 -14.817  1.00  0.00     0.184 HD
ATOM     25  H9  UNL     1      37.413  -1.768 -14.315  1.00  0.00     0.185 HD
BRANCH  22  26
HETATM   26  C11 UNL     1      34.771   1.021 -13.528  1.00  0.00     0.053 A 
HETATM   27  C12 UNL     1      33.501   1.123 -13.956  1.00  0.00     0.084 A 
HETATM   28  C13 UNL     1      32.884   2.300 -13.344  1.00  0.00     0.174 A 
HETATM   29  O2  UNL     1      31.703   2.734 -13.494  1.00  0.00    -0.288 OA
HETATM   30  C14 UNL     1      33.935   2.886 -12.504  1.00  0.00     0.057 A 
HETATM   31  C15 UNL     1      35.035   2.127 -12.622  1.00  0.00     0.034 A 
ENDBRANCH  22  26
ENDBRANCH  14  15
ENDBRANCH  13  14
ENDBRANCH  11  13
BRANCH   1  32
HETATM   32  N1  UNL     1      40.934  -2.593 -14.814  1.00  0.00    -0.384 N 
ATOM     33  H12 UNL     1      40.079  -2.571 -15.370  1.00  0.00     0.157 HD
ATOM     34  H11 UNL     1      41.142  -1.899 -14.097  1.00  0.00     0.157 HD
ENDBRANCH   1  32
BRANCH   4  35
HETATM   35  N3  UNL     1      44.014  -4.579 -17.519  1.00  0.00    -0.224 N 
ATOM     36  H3  UNL     1      44.947  -4.990 -17.564  1.00  0.00     0.177 HD
BRANCH  35  37
HETATM   37  C3  UNL     1      43.395  -4.031 -18.699  1.00  0.00     0.164 C 
BRANCH  37  38
HETATM   38  C4  UNL     1      42.779  -5.142 -19.532  1.00  0.00     0.184 C 
BRANCH  38  39
HETATM   39  O1  UNL     1      41.408  -5.169 -19.308  1.00  0.00    -0.399 OA
ATOM     40  H1  UNL     1      40.967  -4.750 -20.039  1.00  0.00     0.209 HD
ENDBRANCH  38  39
ENDBRANCH  37  38
ENDBRANCH  35  37
ENDBRANCH   4  35
TORSDOF 9
ENDMDL
MODEL 2
REMARK VINA RESULT: -7.758457665      1.461      2.235
REMARK  9 active torsions:
REMARK  status: ('A' for Active; 'I' for Inactive)
REMARK    1  A    between atoms: N1_1  and  C1_4 
REMARK    2  A    between atoms: C2_7  and  N3_8 
REMARK    3  A    between atoms: N3_8  and  C3_10 
REMARK    4  A    between atoms: C3_10  and  C4_11 
REMARK    5  A    between atoms: C4_11  and  O1_12 
REMARK    6  A    between atoms: C6_20  and  S2_21 
REMARK    7  A    between atoms: S2_21  and  C7_22 
REMARK    8  A    between atoms: C7_22  and  C8_23 
REMARK    9  A    between atoms: N8_30  and  C11_32 
ROOT
HETATM    1  C1  UNL     1      42.392  -4.666 -14.640  1.00  0.00     0.130 A 
HETATM    2  N2  UNL     1      43.041  -5.203 -15.675  1.00  0.00    -0.176 N 
ATOM      3  H2  UNL     1      42.941  -6.194 -15.897  1.00  0.00     0.186 HD
HETATM    4  C2  UNL     1      43.838  -4.399 -16.427  1.00  0.00     0.681 A 
HETATM    5  N4  UNL     1      43.953  -3.098 -16.116  1.00  0.00    -0.175 N 
ATOM      6  H4  UNL     1      44.555  -2.506 -16.689  1.00  0.00     0.186 HD
HETATM    7  C5  UNL     1      43.290  -2.533 -15.053  1.00  0.00     0.143 A 
HETATM    8  N5  UNL     1      43.388  -1.241 -14.722  1.00  0.00    -0.310 N 
ATOM      9  H5  UNL     1      43.939  -0.517 -15.183  1.00  0.00     0.176 HD
HETATM   10  S1  UNL     1      42.399  -1.081 -13.374  1.00  0.00    -0.005 SA
HETATM   11  C6  UNL     1      41.862  -2.693 -13.249  1.00  0.00     0.076 A 
HETATM   12  C16 UNL     1      42.502  -3.305 -14.300  1.00  0.00     0.078 A 
ENDROOT
BRANCH  11  13
HETATM   13  S2  UNL     1      40.741  -3.373 -12.023  1.00  0.00    -0.113 SA
BRANCH  13  14
HETATM   14  C7  UNL     1      39.089  -3.617 -12.675  1.00  0.00     0.157 C 
BRANCH  14  15
HETATM   15  C8  UNL     1      38.431  -2.361 -13.117  1.00  0.00     0.107 A 
HETATM   16  N6  UNL     1      38.948  -1.589 -14.091  1.00  0.00    -0.341 N 
HETATM   17  C9  UNL     1      38.332  -0.451 -14.483  1.00  0.00     0.199 A 
ATOM     18  H6  UNL     1      39.820  -1.866 -14.541  1.00  0.00     0.167 HD
HETATM   19  N7  UNL     1      37.181  -0.034 -13.928  1.00  0.00    -0.188 N 
HETATM   20  C10 UNL     1      36.662  -0.805 -12.953  1.00  0.00     0.684 A 
ATOM     21  H7  UNL     1      36.723   0.826 -14.230  1.00  0.00     0.185 HD
HETATM   22  N8  UNL     1      35.552  -0.436 -12.399  1.00  0.00    -0.192 N 
HETATM   23  N9  UNL     1      37.270  -1.939 -12.558  1.00  0.00    -0.179 N 
ATOM     24  H8  UNL     1      35.149  -1.012 -11.660  1.00  0.00     0.184 HD
ATOM     25  H9  UNL     1      36.847  -2.496 -11.816  1.00  0.00     0.185 HD
BRANCH  22  26
HETATM   26  C11 UNL     1      34.881   0.752 -12.795  1.00  0.00     0.053 A 
HETATM   27  C12 UNL     1      34.054   0.925 -13.841  1.00  0.00     0.084 A 
HETATM   28  C13 UNL     1      33.595   2.315 -13.862  1.00  0.00     0.174 A 
HETATM   29  O2  UNL     1      32.809   2.868 -14.687  1.00  0.00    -0.288 OA
HETATM   30  C14 UNL     1      34.245   2.948 -12.709  1.00  0.00     0.057 A 
HETATM   31  C15 UNL     1      34.996   2.021 -12.093  1.00  0.00     0.034 A 
ENDBRANCH  22  26
ENDBRANCH  14  15
ENDBRANCH  13  14
ENDBRANCH  11  13
BRANCH   1  32
HETATM   32  N1  UNL     1      41.630  -5.443 -13.924  1.00  0.00    -0.384 N 
ATOM     33  H12 UNL     1      41.943  -6.390 -13.710  1.00  0.00     0.157 HD
ATOM     34  H11 UNL     1      40.737  -5.073 -13.600  1.00  0.00     0.157 HD
ENDBRANCH   1  32
BRANCH   4  35
HETATM   35  N3  UNL     1      44.481  -4.890 -17.434  1.00  0.00    -0.224 N 
ATOM     36  H3  UNL     1      45.096  -5.696 -17.315  1.00  0.00     0.177 HD
BRANCH  35  37
HETATM   37  C3  UNL     1      44.312  -4.280 -18.728  1.00  0.00     0.164 C 
BRANCH  37  38
HETATM   38  C4  UNL     1      42.919  -4.564 -19.265  1.00  0.00     0.184 C 
BRANCH  38  39
HETATM   39  O1  UNL     1      42.849  -5.896 -19.657  1.00  0.00    -0.399 OA
ATOM     40  H1  UNL     1      42.661  -5.934 -20.588  1.00  0.00     0.209 HD
ENDBRANCH  38  39
ENDBRANCH  37  38
ENDBRANCH  35  37
ENDBRANCH   4  35
TORSDOF 9
ENDMDL
MODEL 3
REMARK VINA RESULT: -7.493540683      4.689      8.262
REMARK  9 active torsions:
REMARK  status: ('A' for Active; 'I' for Inactive)
REMARK    1  A    between atoms: N1_1  and  C1_4 
REMARK    2  A    between atoms: C2_7  and  N3_8 
REMARK    3  A    between atoms: N3_8  and  C3_10 
REMARK    4  A    between atoms: C3_10  and  C4_11 
REMARK    5  A    between atoms: C4_11  and  O1_12 
REMARK    6  A    between atoms: C6_20  and  S2_21 
REMARK    7  A    between atoms: S2_21  and  C7_22 
REMARK    8  A    between atoms: C7_22  and  C8_23 
REMARK    9  A    between atoms: N8_30  and  C11_32 
ROOT
HETATM    1  C1  UNL     1      40.191  -1.621  -7.245  1.00  0.00     0.130 A 
HETATM    2  N2  UNL     1      40.388  -1.175  -6.003  1.00  0.00    -0.176 N 
ATOM      3  H2  UNL     1      41.304  -0.835  -5.709  1.00  0.00     0.186 HD
HETATM    4  C2  UNL     1      39.338  -1.182  -5.139  1.00  0.00     0.681 A 
HETATM    5  N4  UNL     1      38.142  -1.633  -5.549  1.00  0.00    -0.175 N 
ATOM      6  H4  UNL     1      37.363  -1.633  -4.890  1.00  0.00     0.186 HD
HETATM    7  C5  UNL     1      37.927  -2.095  -6.826  1.00  0.00     0.143 A 
HETATM    8  N5  UNL     1      36.746  -2.549  -7.259  1.00  0.00    -0.310 N 
ATOM      9  H5  UNL     1      35.872  -2.617  -6.737  1.00  0.00     0.176 HD
HETATM   10  S1  UNL     1      37.028  -2.982  -8.857  1.00  0.00    -0.005 SA
HETATM   11  C6  UNL     1      38.678  -2.569  -8.954  1.00  0.00     0.076 A 
HETATM   12  C16 UNL     1      38.945  -2.096  -7.691  1.00  0.00     0.078 A 
ENDROOT
BRANCH  11  13
HETATM   13  S2  UNL     1      39.758  -2.736 -10.378  1.00  0.00    -0.113 SA
BRANCH  13  14
HETATM   14  C7  UNL     1      38.849  -3.110 -11.877  1.00  0.00     0.157 C 
BRANCH  14  15
HETATM   15  C8  UNL     1      38.210  -1.923 -12.499  1.00  0.00     0.107 A 
HETATM   16  N6  UNL     1      38.782  -1.256 -13.519  1.00  0.00    -0.341 N 
HETATM   17  C9  UNL     1      38.183  -0.180 -14.076  1.00  0.00     0.199 A 
ATOM     18  H6  UNL     1      39.684  -1.569 -13.880  1.00  0.00     0.167 HD
HETATM   19  N7  UNL     1      36.995   0.279 -13.644  1.00  0.00    -0.188 N 
HETATM   20  C10 UNL     1      36.421  -0.386 -12.623  1.00  0.00     0.684 A 
ATOM     21  H7  UNL     1      36.550   1.093 -14.070  1.00  0.00     0.185 HD
HETATM   22  N8  UNL     1      35.275   0.026 -12.185  1.00  0.00    -0.192 N 
HETATM   23  N9  UNL     1      37.013  -1.458 -12.065  1.00  0.00    -0.179 N 
ATOM     24  H8  UNL     1      34.830  -0.469 -11.412  1.00  0.00     0.184 HD
ATOM     25  H9  UNL     1      36.547  -1.935 -11.293  1.00  0.00     0.185 HD
BRANCH  22  26
HETATM   26  C11 UNL     1      34.621   1.152 -12.754  1.00  0.00     0.053 A 
HETATM   27  C12 UNL     1      33.804   1.181 -13.822  1.00  0.00     0.084 A 
HETATM   28  C13 UNL     1      33.361   2.558 -14.048  1.00  0.00     0.174 A 
HETATM   29  O2  UNL     1      32.589   2.995 -14.951  1.00  0.00    -0.288 OA
HETATM   30  C14 UNL     1      34.010   3.343 -12.991  1.00  0.00     0.057 A 
HETATM   31  C15 UNL     1      34.745   2.507 -12.241  1.00  0.00     0.034 A 
ENDBRANCH  22  26
ENDBRANCH  14  15
ENDBRANCH  13  14
ENDBRANCH  11  13
BRANCH   1  32
HETATM   32  N1  UNL     1      41.202  -1.610  -8.067  1.00  0.00    -0.384 N 
ATOM     33  H12 UNL     1      41.785  -2.443  -8.152  1.00  0.00     0.157 HD
ATOM     34  H11 UNL     1      41.375  -0.760  -8.602  1.00  0.00     0.157 HD
ENDBRANCH   1  32
BRANCH   4  35
HETATM   35  N3  UNL     1      39.498  -0.758  -3.929  1.00  0.00    -0.224 N 
ATOM     36  H3  UNL     1      39.515  -1.413  -3.146  1.00  0.00     0.177 HD
BRANCH  35  37
HETATM   37  C3  UNL     1      39.653   0.657  -3.706  1.00  0.00     0.164 C 
BRANCH  37  38
HETATM   38  C4  UNL     1      38.347   1.255  -3.209  1.00  0.00     0.184 C 
BRANCH  38  39
HETATM   39  O1  UNL     1      37.688   1.852  -4.278  1.00  0.00    -0.399 OA
ATOM     40  H1  UNL     1      38.331   2.232  -4.865  1.00  0.00     0.209 HD
ENDBRANCH  38  39
ENDBRANCH  37  38
ENDBRANCH  35  37
ENDBRANCH   4  35
TORSDOF 9
ENDMDL
MODEL 4
REMARK VINA RESULT: -7.477308752      6.048      8.194
REMARK  9 active torsions:
REMARK  status: ('A' for Active; 'I' for Inactive)
REMARK    1  A    between atoms: N1_1  and  C1_4 
REMARK    2  A    between atoms: C2_7  and  N3_8 
REMARK    3  A    between atoms: N3_8  and  C3_10 
REMARK    4  A    between atoms: C3_10  and  C4_11 
REMARK    5  A    between atoms: C4_11  and  O1_12 
REMARK    6  A    between atoms: C6_20  and  S2_21 
REMARK    7  A    between atoms: S2_21  and  C7_22 
REMARK    8  A    between atoms: C7_22  and  C8_23 
REMARK    9  A    between atoms: N8_30  and  C11_32 
ROOT
HETATM    1  C1  UNL     1      34.836  -5.799  -9.436  1.00  0.00     0.130 A 
HETATM    2  N2  UNL     1      34.897  -6.597  -8.367  1.00  0.00    -0.176 N 
ATOM      3  H2  UNL     1      34.443  -7.511  -8.371  1.00  0.00     0.186 HD
HETATM    4  C2  UNL     1      35.577  -6.163  -7.273  1.00  0.00     0.681 A 
HETATM    5  N4  UNL     1      36.166  -4.956  -7.291  1.00  0.00    -0.175 N 
ATOM      6  H4  UNL     1      36.674  -4.644  -6.463  1.00  0.00     0.186 HD
HETATM    7  C5  UNL     1      36.111  -4.126  -8.385  1.00  0.00     0.143 A 
HETATM    8  N5  UNL     1      36.689  -2.921  -8.428  1.00  0.00    -0.310 N 
ATOM      9  H5  UNL     1      37.229  -2.459  -7.697  1.00  0.00     0.176 HD
HETATM   10  S1  UNL     1      36.322  -2.339  -9.960  1.00  0.00    -0.005 SA
HETATM   11  C6  UNL     1      35.421  -3.666 -10.537  1.00  0.00     0.076 A 
HETATM   12  C16 UNL     1      35.447  -4.533  -9.471  1.00  0.00     0.078 A 
ENDROOT
BRANCH  11  13
HETATM   13  S2  UNL     1      34.646  -3.835 -12.146  1.00  0.00    -0.113 SA
BRANCH  13  14
HETATM   14  C7  UNL     1      35.654  -3.151 -13.461  1.00  0.00     0.157 C 
BRANCH  14  15
HETATM   15  C8  UNL     1      35.804  -1.675 -13.391  1.00  0.00     0.107 A 
HETATM   16  N6  UNL     1      36.958  -1.058 -13.707  1.00  0.00    -0.341 N 
HETATM   17  C9  UNL     1      37.074   0.287 -13.641  1.00  0.00     0.199 A 
ATOM     18  H6  UNL     1      37.760  -1.616 -14.001  1.00  0.00     0.167 HD
HETATM   19  N7  UNL     1      36.052   1.075 -13.261  1.00  0.00    -0.188 N 
HETATM   20  C10 UNL     1      34.896   0.460 -12.945  1.00  0.00     0.684 A 
ATOM     21  H7  UNL     1      36.148   2.089 -13.215  1.00  0.00     0.185 HD
HETATM   22  N8  UNL     1      33.890   1.188 -12.579  1.00  0.00    -0.192 N 
HETATM   23  N9  UNL     1      34.775  -0.879 -13.007  1.00  0.00    -0.179 N 
ATOM     24  H8  UNL     1      33.009   0.734 -12.336  1.00  0.00     0.184 HD
ATOM     25  H9  UNL     1      33.883  -1.308 -12.759  1.00  0.00     0.185 HD
BRANCH  22  26
HETATM   26  C11 UNL     1      33.982   2.604 -12.506  1.00  0.00     0.053 A 
HETATM   27  C12 UNL     1      34.249   3.361 -11.428  1.00  0.00     0.084 A 
HETATM   28  C13 UNL     1      34.243   4.771 -11.821  1.00  0.00     0.174 A 
HETATM   29  O2  UNL     1      34.451   5.788 -11.094  1.00  0.00    -0.288 OA
HETATM   30  C14 UNL     1      33.941   4.764 -13.256  1.00  0.00     0.057 A 
HETATM   31  C15 UNL     1      33.790   3.488 -13.645  1.00  0.00     0.034 A 
ENDBRANCH  22  26
ENDBRANCH  14  15
ENDBRANCH  13  14
ENDBRANCH  11  13
BRANCH   1  32
HETATM   32  N1  UNL     1      34.182  -6.222 -10.479  1.00  0.00    -0.384 N 
ATOM     33  H12 UNL     1      34.700  -6.594 -11.276  1.00  0.00     0.157 HD
ATOM     34  H11 UNL     1      33.164  -6.165 -10.463  1.00  0.00     0.157 HD
ENDBRANCH   1  32
BRANCH   4  35
HETATM   35  N3  UNL     1      35.651  -6.912  -6.224  1.00  0.00    -0.224 N 
ATOM     36  H3  UNL     1      34.863  -7.497  -5.945  1.00  0.00     0.177 HD
BRANCH  35  37
HETATM   37  C3  UNL     1      36.869  -6.906  -5.453  1.00  0.00     0.164 C 
BRANCH  37  38
HETATM   38  C4  UNL     1      37.225  -8.320  -5.024  1.00  0.00     0.184 C 
BRANCH  38  39
HETATM   39  O1  UNL     1      36.067  -9.089  -4.998  1.00  0.00    -0.399 OA
ATOM     40  H1  UNL     1      35.741  -9.127  -4.106  1.00  0.00     0.209 HD
ENDBRANCH  38  39
ENDBRANCH  37  38
ENDBRANCH  35  37
ENDBRANCH   4  35
TORSDOF 9
ENDMDL
MODEL 5
REMARK VINA RESULT: -7.388825524      2.883      4.174
REMARK  9 active torsions:
REMARK  status: ('A' for Active; 'I' for Inactive)
REMARK    1  A    between atoms: N1_1  and  C1_4 
REMARK    2  A    between atoms: C2_7  and  N3_8 
REMARK    3  A    between atoms: N3_8  and  C3_10 
REMARK    4  A    between atoms: C3_10  and  C4_11 
REMARK    5  A    between atoms: C4_11  and  O1_12 
REMARK    6  A    between atoms: C6_20  and  S2_21 
REMARK    7  A    between atoms: S2_21  and  C7_22 
REMARK    8  A    between atoms: C7_22  and  C8_23 
REMARK    9  A    between atoms: N8_30  and  C11_32 
ROOT
HETATM    1  C1  UNL     1      41.321  -3.931 -11.512  1.00  0.00     0.130 A 
HETATM    2  N2  UNL     1      41.997  -4.497 -10.510  1.00  0.00    -0.176 N 
ATOM      3  H2  UNL     1      41.829  -4.217  -9.543  1.00  0.00     0.186 HD
HETATM    4  C2  UNL     1      42.914  -5.456 -10.807  1.00  0.00     0.681 A 
HETATM    5  N4  UNL     1      43.116  -5.809 -12.087  1.00  0.00    -0.175 N 
ATOM      6  H4  UNL     1      43.807  -6.530 -12.295  1.00  0.00     0.186 HD
HETATM    7  C5  UNL     1      42.426  -5.234 -13.127  1.00  0.00     0.143 A 
HETATM    8  N5  UNL     1      42.609  -5.567 -14.410  1.00  0.00    -0.310 N 
ATOM      9  H5  UNL     1      43.253  -6.261 -14.790  1.00  0.00     0.176 HD
HETATM   10  S1  UNL     1      41.540  -4.583 -15.252  1.00  0.00    -0.005 SA
HETATM   11  C6  UNL     1      40.859  -3.746 -13.933  1.00  0.00     0.076 A 
HETATM   12  C16 UNL     1      41.521  -4.289 -12.858  1.00  0.00     0.078 A 
ENDROOT
BRANCH  11  13
HETATM   13  S2  UNL     1      39.597  -2.471 -13.991  1.00  0.00    -0.113 SA
BRANCH  13  14
HETATM   14  C7  UNL     1      37.965  -3.115 -13.623  1.00  0.00     0.157 C 
BRANCH  14  15
HETATM   15  C8  UNL     1      37.035  -2.100 -13.065  1.00  0.00     0.107 A 
HETATM   16  N6  UNL     1      36.704  -2.076 -11.761  1.00  0.00    -0.341 N 
HETATM   17  C9  UNL     1      35.859  -1.142 -11.271  1.00  0.00     0.199 A 
ATOM     18  H6  UNL     1      37.097  -2.775 -11.130  1.00  0.00     0.167 HD
HETATM   19  N7  UNL     1      35.309  -0.195 -12.052  1.00  0.00    -0.188 N 
HETATM   20  C10 UNL     1      35.639  -0.218 -13.358  1.00  0.00     0.684 A 
ATOM     21  H7  UNL     1      34.672   0.506 -11.674  1.00  0.00     0.185 HD
HETATM   22  N8  UNL     1      35.132   0.681 -14.138  1.00  0.00    -0.192 N 
HETATM   23  N9  UNL     1      36.479  -1.146 -13.852  1.00  0.00    -0.179 N 
ATOM     24  H8  UNL     1      35.374   0.674 -15.129  1.00  0.00     0.184 HD
ATOM     25  H9  UNL     1      36.705  -1.131 -14.846  1.00  0.00     0.185 HD
BRANCH  22  26
HETATM   26  C11 UNL     1      34.245   1.678 -13.649  1.00  0.00     0.053 A 
HETATM   27  C12 UNL     1      34.547   2.772 -12.928  1.00  0.00     0.084 A 
HETATM   28  C13 UNL     1      33.317   3.513 -12.647  1.00  0.00     0.174 A 
HETATM   29  O2  UNL     1      33.183   4.593 -11.998  1.00  0.00    -0.288 OA
HETATM   30  C14 UNL     1      32.249   2.733 -13.282  1.00  0.00     0.057 A 
HETATM   31  C15 UNL     1      32.807   1.660 -13.866  1.00  0.00     0.034 A 
ENDBRANCH  22  26
ENDBRANCH  14  15
ENDBRANCH  13  14
ENDBRANCH  11  13
BRANCH   1  32
HETATM   32  N1  UNL     1      40.444  -3.013 -11.219  1.00  0.00    -0.384 N 
ATOM     33  H12 UNL     1      39.497  -3.291 -10.962  1.00  0.00     0.157 HD
ATOM     34  H11 UNL     1      40.740  -2.038 -11.259  1.00  0.00     0.157 HD
ENDBRANCH   1  32
BRANCH   4  35
HETATM   35  N3  UNL     1      43.584  -6.020  -9.859  1.00  0.00    -0.224 N 
ATOM     36  H3  UNL     1      43.855  -5.492  -9.028  1.00  0.00     0.177 HD
BRANCH  35  37
HETATM   37  C3  UNL     1      43.944  -7.409  -9.995  1.00  0.00     0.164 C 
BRANCH  37  38
HETATM   38  C4  UNL     1      42.791  -8.294  -9.551  1.00  0.00     0.184 C 
BRANCH  38  39
HETATM   39  O1  UNL     1      42.027  -8.633 -10.661  1.00  0.00    -0.399 OA
ATOM     40  H1  UNL     1      42.006  -7.894 -11.258  1.00  0.00     0.209 HD
ENDBRANCH  38  39
ENDBRANCH  37  38
ENDBRANCH  35  37
ENDBRANCH   4  35
TORSDOF 9
ENDMDL
