MODEL 1
REMARK VINA RESULT: -10.360733977      0.000      0.000
REMARK  7 active torsions:
REMARK  status: ('A' for Active; 'I' for Inactive)
REMARK    1  A    between atoms: C3_3  and  C5_5 
REMARK    2  A    between atoms: C3_3  and  O1_12 
REMARK    3  A    between atoms: C5_5  and  C6_6 
REMARK    4  A    between atoms: O1_12  and  C12_13 
REMARK    5  A    between atoms: C12_13  and  C13_15 
REMARK    6  A    between atoms: C15_17  and  O3_18 
REMARK    7  A    between atoms: C19_22  and  C20_23 
ROOT
HETATM    1  C1  UNL     1     -26.371  33.542 -30.919  1.00  0.00     0.015 C 
HETATM    2  C2  UNL     1     -26.448  34.342 -31.822  1.00  0.00    -0.079 C 
HETATM    3  C3  UNL     1     -26.559  35.314 -32.950  1.00  0.00     0.129 C 
HETATM    4  C4  UNL     1     -25.932  34.692 -34.140  1.00  0.00     0.061 C 
ENDROOT
BRANCH   3   5
HETATM    5  C5  UNL     1     -27.963  35.767 -33.063  1.00  0.00     0.056 C 
BRANCH   5   6
HETATM    6  C6  UNL     1     -28.619  35.575 -34.380  1.00  0.00    -0.011 C 
HETATM    7  C7  UNL     1     -29.728  36.508 -34.727  1.00  0.00     0.005 C 
HETATM    8  C8  UNL     1     -30.856  35.796 -35.480  1.00  0.00     0.000 C 
HETATM    9  C9  UNL     1     -30.277  34.901 -36.568  1.00  0.00     0.000 C 
HETATM   10  C10 UNL     1     -29.350  33.866 -35.962  1.00  0.00     0.000 C 
HETATM   11  C11 UNL     1     -29.181  34.146 -34.464  1.00  0.00     0.005 C 
ENDBRANCH   5   6
ENDBRANCH   3   5
BRANCH   3  12
HETATM   12  O1  UNL     1     -25.685  36.382 -32.534  1.00  0.00    -0.293 OA
BRANCH  12  13
HETATM   13  C12 UNL     1     -24.692  36.923 -33.296  1.00  0.00     0.295 C 
HETATM   14  O2  UNL     1     -24.983  37.617 -34.281  1.00  0.00    -0.259 OA
BRANCH  13  15
HETATM   15  C13 UNL     1     -23.284  36.658 -32.914  1.00  0.00     0.043 A 
HETATM   16  C14 UNL     1     -22.246  37.397 -33.438  1.00  0.00     0.055 A 
HETATM   17  C15 UNL     1     -20.928  37.156 -33.088  1.00  0.00     0.075 A 
HETATM   18  C17 UNL     1     -20.653  36.148 -32.187  1.00  0.00    -0.014 A 
HETATM   19  C18 UNL     1     -19.233  35.869 -31.794  1.00  0.00     0.052 C 
HETATM   20  C19 UNL     1     -21.666  35.374 -31.631  1.00  0.00     0.057 A 
HETATM   21  C21 UNL     1     -22.956  35.664 -32.021  1.00  0.00     0.034 A 
BRANCH  17  22
HETATM   22  O3  UNL     1     -19.884  37.923 -33.635  1.00  0.00    -0.355 OA
HETATM   23  C16 UNL     1     -20.201  38.842 -34.663  1.00  0.00     0.210 C 
ENDBRANCH  17  22
BRANCH  20  24
HETATM   24  C20 UNL     1     -21.368  34.286 -30.658  1.00  0.00     0.418 C 
HETATM   25  F1  UNL     1     -20.598  33.283 -31.220  1.00  0.00    -0.166 F 
HETATM   26  F2  UNL     1     -22.586  33.684 -30.340  1.00  0.00    -0.166 F 
HETATM   27  F3  UNL     1     -20.858  34.768 -29.486  1.00  0.00    -0.166 F 
ENDBRANCH  20  24
ENDBRANCH  13  15
ENDBRANCH  12  13
ENDBRANCH   3  12
TORSDOF 7
ENDMDL
MODEL 2
REMARK VINA RESULT: -10.323698238      2.776      3.743
REMARK  7 active torsions:
REMARK  status: ('A' for Active; 'I' for Inactive)
REMARK    1  A    between atoms: C3_3  and  C5_5 
REMARK    2  A    between atoms: C3_3  and  O1_12 
REMARK    3  A    between atoms: C5_5  and  C6_6 
REMARK    4  A    between atoms: O1_12  and  C12_13 
REMARK    5  A    between atoms: C12_13  and  C13_15 
REMARK    6  A    between atoms: C15_17  and  O3_18 
REMARK    7  A    between atoms: C19_22  and  C20_23 
ROOT
HETATM    1  C1  UNL     1     -27.930  36.224 -29.535  1.00  0.00     0.015 C 
HETATM    2  C2  UNL     1     -27.164  35.789 -30.363  1.00  0.00    -0.079 C 
HETATM    3  C3  UNL     1     -26.240  35.243 -31.400  1.00  0.00     0.129 C 
HETATM    4  C4  UNL     1     -26.319  33.765 -31.336  1.00  0.00     0.061 C 
ENDROOT
BRANCH   3   5
HETATM    5  C5  UNL     1     -26.524  35.897 -32.697  1.00  0.00     0.056 C 
BRANCH   5   6
HETATM    6  C6  UNL     1     -27.923  35.822 -33.186  1.00  0.00    -0.011 C 
HETATM    7  C7  UNL     1     -28.216  34.813 -34.243  1.00  0.00     0.005 C 
HETATM    8  C8  UNL     1     -29.221  35.344 -35.271  1.00  0.00     0.000 C 
HETATM    9  C9  UNL     1     -30.381  36.032 -34.564  1.00  0.00     0.000 C 
HETATM   10  C10 UNL     1     -29.876  37.185 -33.719  1.00  0.00     0.000 C 
HETATM   11  C11 UNL     1     -28.343  37.195 -33.735  1.00  0.00     0.005 C 
ENDBRANCH   5   6
ENDBRANCH   3   5
BRANCH   3  12
HETATM   12  O1  UNL     1     -24.942  35.608 -30.890  1.00  0.00    -0.293 OA
BRANCH  12  13
HETATM   13  C12 UNL     1     -23.758  35.079 -31.311  1.00  0.00     0.295 C 
HETATM   14  O2  UNL     1     -23.460  33.916 -31.003  1.00  0.00    -0.259 OA
BRANCH  13  15
HETATM   15  C13 UNL     1     -22.859  35.925 -32.133  1.00  0.00     0.043 A 
HETATM   16  C14 UNL     1     -21.499  35.956 -31.912  1.00  0.00     0.055 A 
HETATM   17  C15 UNL     1     -20.653  36.743 -32.674  1.00  0.00     0.075 A 
HETATM   18  C17 UNL     1     -21.192  37.515 -33.683  1.00  0.00    -0.014 A 
HETATM   19  C18 UNL     1     -20.293  38.375 -34.521  1.00  0.00     0.052 C 
HETATM   20  C19 UNL     1     -22.557  37.517 -33.945  1.00  0.00     0.057 A 
HETATM   21  C21 UNL     1     -23.346  36.713 -33.151  1.00  0.00     0.034 A 
BRANCH  17  22
HETATM   22  O3  UNL     1     -19.269  36.759 -32.431  1.00  0.00    -0.355 OA
HETATM   23  C16 UNL     1     -18.766  35.943 -31.390  1.00  0.00     0.210 C 
ENDBRANCH  17  22
BRANCH  20  24
HETATM   24  C20 UNL     1     -23.138  38.351 -35.036  1.00  0.00     0.418 C 
HETATM   25  F1  UNL     1     -22.601  39.626 -35.057  1.00  0.00    -0.166 F 
HETATM   26  F2  UNL     1     -24.490  38.523 -34.737  1.00  0.00    -0.166 F 
HETATM   27  F3  UNL     1     -23.087  37.722 -36.248  1.00  0.00    -0.166 F 
ENDBRANCH  20  24
ENDBRANCH  13  15
ENDBRANCH  12  13
ENDBRANCH   3  12
TORSDOF 7
ENDMDL
MODEL 3
REMARK VINA RESULT: -10.264431358      1.534      3.303
REMARK  7 active torsions:
REMARK  status: ('A' for Active; 'I' for Inactive)
REMARK    1  A    between atoms: C3_3  and  C5_5 
REMARK    2  A    between atoms: C3_3  and  O1_12 
REMARK    3  A    between atoms: C5_5  and  C6_6 
REMARK    4  A    between atoms: O1_12  and  C12_13 
REMARK    5  A    between atoms: C12_13  and  C13_15 
REMARK    6  A    between atoms: C15_17  and  O3_18 
REMARK    7  A    between atoms: C19_22  and  C20_23 
ROOT
HETATM    1  C1  UNL     1     -27.489  32.749 -35.207  1.00  0.00     0.015 C 
HETATM    2  C2  UNL     1     -27.196  33.673 -34.485  1.00  0.00    -0.079 C 
HETATM    3  C3  UNL     1     -26.855  34.808 -33.577  1.00  0.00     0.129 C 
HETATM    4  C4  UNL     1     -27.889  35.853 -33.761  1.00  0.00     0.061 C 
ENDROOT
BRANCH   3   5
HETATM    5  C5  UNL     1     -26.632  34.286 -32.210  1.00  0.00     0.056 C 
BRANCH   5   6
HETATM    6  C6  UNL     1     -27.117  35.130 -31.090  1.00  0.00    -0.011 C 
HETATM    7  C7  UNL     1     -26.085  35.822 -30.268  1.00  0.00     0.005 C 
HETATM    8  C8  UNL     1     -26.463  35.848 -28.784  1.00  0.00     0.000 C 
HETATM    9  C9  UNL     1     -27.925  36.246 -28.622  1.00  0.00     0.000 C 
HETATM   10  C10 UNL     1     -28.822  35.264 -29.350  1.00  0.00     0.000 C 
HETATM   11  C11 UNL     1     -27.960  34.269 -30.135  1.00  0.00     0.005 C 
ENDBRANCH   5   6
ENDBRANCH   3   5
BRANCH   3  12
HETATM   12  O1  UNL     1     -25.641  35.323 -34.158  1.00  0.00    -0.293 OA
BRANCH  12  13
HETATM   13  C12 UNL     1     -25.025  36.482 -33.787  1.00  0.00     0.295 C 
HETATM   14  O2  UNL     1     -25.627  37.560 -33.898  1.00  0.00    -0.259 OA
BRANCH  13  15
HETATM   15  C13 UNL     1     -23.643  36.409 -33.256  1.00  0.00     0.043 A 
HETATM   16  C14 UNL     1     -22.685  37.332 -33.613  1.00  0.00     0.055 A 
HETATM   17  C15 UNL     1     -21.392  37.271 -33.123  1.00  0.00     0.075 A 
HETATM   18  C17 UNL     1     -21.059  36.255 -32.250  1.00  0.00    -0.014 A 
HETATM   19  C18 UNL     1     -19.664  36.170 -31.707  1.00  0.00     0.052 C 
HETATM   20  C19 UNL     1     -21.990  35.299 -31.860  1.00  0.00     0.057 A 
HETATM   21  C21 UNL     1     -23.260  35.415 -32.383  1.00  0.00     0.034 A 
BRANCH  17  22
HETATM   22  O3  UNL     1     -20.431  38.225 -33.501  1.00  0.00    -0.355 OA
HETATM   23  C16 UNL     1     -20.680  38.998 -34.659  1.00  0.00     0.210 C 
ENDBRANCH  17  22
BRANCH  20  24
HETATM   24  C20 UNL     1     -21.629  34.203 -30.917  1.00  0.00     0.418 C 
HETATM   25  F1  UNL     1     -20.813  33.257 -31.509  1.00  0.00    -0.166 F 
HETATM   26  F2  UNL     1     -22.812  33.530 -30.608  1.00  0.00    -0.166 F 
HETATM   27  F3  UNL     1     -21.137  34.681 -29.735  1.00  0.00    -0.166 F 
ENDBRANCH  20  24
ENDBRANCH  13  15
ENDBRANCH  12  13
ENDBRANCH   3  12
TORSDOF 7
ENDMDL
MODEL 4
REMARK VINA RESULT: -10.242136800      1.167      1.316
REMARK  7 active torsions:
REMARK  status: ('A' for Active; 'I' for Inactive)
REMARK    1  A    between atoms: C3_3  and  C5_5 
REMARK    2  A    between atoms: C3_3  and  O1_12 
REMARK    3  A    between atoms: C5_5  and  C6_6 
REMARK    4  A    between atoms: O1_12  and  C12_13 
REMARK    5  A    between atoms: C12_13  and  C13_15 
REMARK    6  A    between atoms: C15_17  and  O3_18 
REMARK    7  A    between atoms: C19_22  and  C20_23 
ROOT
HETATM    1  C1  UNL     1     -26.588  36.290 -29.033  1.00  0.00     0.015 C 
HETATM    2  C2  UNL     1     -26.793  35.920 -30.166  1.00  0.00    -0.079 C 
HETATM    3  C3  UNL     1     -27.064  35.445 -31.554  1.00  0.00     0.129 C 
HETATM    4  C4  UNL     1     -26.567  34.052 -31.656  1.00  0.00     0.061 C 
ENDROOT
BRANCH   3   5
HETATM    5  C5  UNL     1     -28.483  35.700 -31.886  1.00  0.00     0.056 C 
BRANCH   5   6
HETATM    6  C6  UNL     1     -28.828  35.762 -33.328  1.00  0.00    -0.011 C 
HETATM    7  C7  UNL     1     -29.997  36.603 -33.709  1.00  0.00     0.005 C 
HETATM    8  C8  UNL     1     -30.814  35.964 -34.837  1.00  0.00     0.000 C 
HETATM    9  C9  UNL     1     -29.886  35.451 -35.930  1.00  0.00     0.000 C 
HETATM   10  C10 UNL     1     -28.923  34.423 -35.367  1.00  0.00     0.000 C 
HETATM   11  C11 UNL     1     -29.099  34.340 -33.846  1.00  0.00     0.005 C 
ENDBRANCH   5   6
ENDBRANCH   3   5
BRANCH   3  12
HETATM   12  O1  UNL     1     -26.175  36.258 -32.346  1.00  0.00    -0.293 OA
BRANCH  12  13
HETATM   13  C12 UNL     1     -25.231  35.779 -33.204  1.00  0.00     0.295 C 
HETATM   14  O2  UNL     1     -25.582  35.240 -34.265  1.00  0.00    -0.259 OA
BRANCH  13  15
HETATM   15  C13 UNL     1     -23.802  35.922 -32.836  1.00  0.00     0.043 A 
HETATM   16  C14 UNL     1     -23.025  36.938 -33.346  1.00  0.00     0.055 A 
HETATM   17  C15 UNL     1     -21.690  37.078 -33.008  1.00  0.00     0.075 A 
HETATM   18  C17 UNL     1     -21.127  36.171 -32.133  1.00  0.00    -0.014 A 
HETATM   19  C18 UNL     1     -19.683  36.304 -31.752  1.00  0.00     0.052 C 
HETATM   20  C19 UNL     1     -21.870  35.128 -31.591  1.00  0.00     0.057 A 
HETATM   21  C21 UNL     1     -23.193  35.044 -31.967  1.00  0.00     0.034 A 
BRANCH  17  22
HETATM   22  O3  UNL     1     -20.916  38.123 -33.540  1.00  0.00    -0.355 OA
HETATM   23  C16 UNL     1     -21.512  38.967 -34.507  1.00  0.00     0.210 C 
ENDBRANCH  17  22
BRANCH  20  24
HETATM   24  C20 UNL     1     -21.261  34.150 -30.645  1.00  0.00     0.418 C 
HETATM   25  F1  UNL     1     -20.386  33.289 -31.282  1.00  0.00    -0.166 F 
HETATM   26  F2  UNL     1     -22.299  33.343 -30.175  1.00  0.00    -0.166 F 
HETATM   27  F3  UNL     1     -20.720  34.761 -29.549  1.00  0.00    -0.166 F 
ENDBRANCH  20  24
ENDBRANCH  13  15
ENDBRANCH  12  13
ENDBRANCH   3  12
TORSDOF 7
ENDMDL
MODEL 5
REMARK VINA RESULT: -10.168794110      1.417      2.018
REMARK  7 active torsions:
REMARK  status: ('A' for Active; 'I' for Inactive)
REMARK    1  A    between atoms: C3_3  and  C5_5 
REMARK    2  A    between atoms: C3_3  and  O1_12 
REMARK    3  A    between atoms: C5_5  and  C6_6 
REMARK    4  A    between atoms: O1_12  and  C12_13 
REMARK    5  A    between atoms: C12_13  and  C13_15 
REMARK    6  A    between atoms: C15_17  and  O3_18 
REMARK    7  A    between atoms: C19_22  and  C20_23 
ROOT
HETATM    1  C1  UNL     1     -24.685  34.478 -34.943  1.00  0.00     0.015 C 
HETATM    2  C2  UNL     1     -25.258  35.337 -34.315  1.00  0.00    -0.079 C 
HETATM    3  C3  UNL     1     -25.986  36.398 -33.559  1.00  0.00     0.129 C 
HETATM    4  C4  UNL     1     -25.894  37.651 -34.346  1.00  0.00     0.061 C 
ENDROOT
BRANCH   3   5
HETATM    5  C5  UNL     1     -27.333  35.902 -33.200  1.00  0.00     0.056 C 
BRANCH   5   6
HETATM    6  C6  UNL     1     -28.339  35.864 -34.291  1.00  0.00    -0.011 C 
HETATM    7  C7  UNL     1     -29.565  36.691 -34.109  1.00  0.00     0.005 C 
HETATM    8  C8  UNL     1     -30.813  35.983 -34.647  1.00  0.00     0.000 C 
HETATM    9  C9  UNL     1     -30.525  35.381 -36.015  1.00  0.00     0.000 C 
HETATM   10  C10 UNL     1     -29.386  34.384 -35.924  1.00  0.00     0.000 C 
HETATM   11  C11 UNL     1     -28.795  34.412 -34.510  1.00  0.00     0.005 C 
ENDBRANCH   5   6
ENDBRANCH   3   5
BRANCH   3  12
HETATM   12  O1  UNL     1     -25.156  36.582 -32.395  1.00  0.00    -0.293 OA
BRANCH  12  13
HETATM   13  C12 UNL     1     -24.135  35.759 -32.023  1.00  0.00     0.295 C 
HETATM   14  O2  UNL     1     -24.385  34.687 -31.453  1.00  0.00    -0.259 OA
BRANCH  13  15
HETATM   15  C13 UNL     1     -22.744  36.180 -32.320  1.00  0.00     0.043 A 
HETATM   16  C14 UNL     1     -22.472  37.167 -33.242  1.00  0.00     0.055 A 
HETATM   17  C15 UNL     1     -21.177  37.565 -33.525  1.00  0.00     0.075 A 
HETATM   18  C17 UNL     1     -20.133  36.954 -32.861  1.00  0.00    -0.014 A 
HETATM   19  C18 UNL     1     -18.722  37.369 -33.153  1.00  0.00     0.052 C 
HETATM   20  C19 UNL     1     -20.356  35.953 -31.923  1.00  0.00     0.057 A 
HETATM   21  C21 UNL     1     -21.668  35.602 -31.686  1.00  0.00     0.034 A 
BRANCH  17  22
HETATM   22  O3  UNL     1     -20.923  38.575 -34.469  1.00  0.00    -0.355 OA
HETATM   23  C16 UNL     1     -22.007  39.055 -35.240  1.00  0.00     0.210 C 
ENDBRANCH  17  22
BRANCH  20  24
HETATM   24  C20 UNL     1     -19.228  35.293 -31.206  1.00  0.00     0.418 C 
HETATM   25  F1  UNL     1     -18.705  34.233 -31.925  1.00  0.00    -0.166 F 
HETATM   26  F2  UNL     1     -19.761  34.728 -30.047  1.00  0.00    -0.166 F 
HETATM   27  F3  UNL     1     -18.282  36.191 -30.798  1.00  0.00    -0.166 F 
ENDBRANCH  20  24
ENDBRANCH  13  15
ENDBRANCH  12  13
ENDBRANCH   3  12
TORSDOF 7
ENDMDL
