MODEL 1
REMARK VINA RESULT: -10.779764392      0.000      0.000
REMARK  8 active torsions:
REMARK  status: ('A' for Active; 'I' for Inactive)
REMARK    1  A    between atoms: C4_4  and  C5_5 
REMARK    2  A    between atoms: C9_12  and  O1_13 
REMARK    3  A    between atoms: O1_13  and  C10_14 
REMARK    4  A    between atoms: C10_14  and  C11_15 
REMARK    5  A    between atoms: C11_15  and  O3_17 
REMARK    6  A    between atoms: O3_17  and  C12_18 
REMARK    7  A    between atoms: C12_18  and  C13_19 
REMARK    8  A    between atoms: C13_19  and  C14_20 
ROOT
HETATM    1  C10 UNL     1     -22.672  35.851 -34.699  1.00  0.00     0.286 C 
ENDROOT
BRANCH   1   2
HETATM    2  O1  UNL     1     -21.308  35.759 -35.092  1.00  0.00    -0.340 OA
BRANCH   2   3
HETATM    3  C9  UNL     1     -20.466  35.673 -33.952  1.00  0.00     0.081 A 
HETATM    4  C2  UNL     1     -19.867  36.737 -33.401  1.00  0.00    -0.027 A 
HETATM    5  C1  UNL     1     -19.988  38.122 -33.888  1.00  0.00     0.051 C 
HETATM    6  C3  UNL     1     -19.062  36.558 -32.248  1.00  0.00     0.025 A 
HETATM    7  C4  UNL     1     -18.906  35.333 -31.719  1.00  0.00     0.049 A 
HETATM    8  C6  UNL     1     -19.532  34.282 -32.321  1.00  0.00     0.025 A 
HETATM    9  C7  UNL     1     -20.310  34.374 -33.424  1.00  0.00    -0.027 A 
HETATM   10  C8  UNL     1     -20.979  33.263 -34.144  1.00  0.00     0.051 C 
BRANCH   7  11
HETATM   11  C5  UNL     1     -18.109  35.069 -30.483  1.00  0.00     0.417 C 
HETATM   12  F1  UNL     1     -17.286  33.995 -30.626  1.00  0.00    -0.166 F 
HETATM   13  F2  UNL     1     -19.054  34.765 -29.493  1.00  0.00    -0.166 F 
HETATM   14  F3  UNL     1     -17.441  36.193 -30.076  1.00  0.00    -0.166 F 
ENDBRANCH   7  11
ENDBRANCH   2   3
ENDBRANCH   1   2
BRANCH   1  15
HETATM   15  C11 UNL     1     -23.299  37.102 -35.085  1.00  0.00     0.283 C 
HETATM   16  O2  UNL     1     -23.036  37.789 -36.094  1.00  0.00    -0.263 OA
BRANCH  15  17
HETATM   17  O3  UNL     1     -24.296  37.552 -34.245  1.00  0.00    -0.320 OA
BRANCH  17  18
HETATM   18  C12 UNL     1     -25.115  36.685 -33.446  1.00  0.00     0.179 C 
BRANCH  18  19
HETATM   19  C13 UNL     1     -26.503  37.060 -33.923  1.00  0.00     0.031 C 
BRANCH  19  20
HETATM   20  C14 UNL     1     -27.644  36.362 -33.241  1.00  0.00    -0.013 C 
HETATM   21  C15 UNL     1     -27.753  34.972 -33.721  1.00  0.00     0.005 C 
HETATM   22  C16 UNL     1     -28.923  34.204 -33.200  1.00  0.00     0.000 C 
HETATM   23  C17 UNL     1     -29.712  34.828 -32.111  1.00  0.00     0.000 C 
HETATM   24  C18 UNL     1     -30.948  35.544 -32.534  1.00  0.00     0.000 C 
HETATM   25  C19 UNL     1     -31.001  35.904 -33.982  1.00  0.00     0.000 C 
HETATM   26  C20 UNL     1     -29.794  36.603 -34.508  1.00  0.00     0.000 C 
HETATM   27  C21 UNL     1     -28.904  37.186 -33.472  1.00  0.00     0.005 C 
ENDBRANCH  19  20
ENDBRANCH  18  19
ENDBRANCH  17  18
ENDBRANCH  15  17
ENDBRANCH   1  15
TORSDOF 8
ENDMDL
MODEL 2
REMARK VINA RESULT: -10.712689874      0.146      1.635
REMARK  8 active torsions:
REMARK  status: ('A' for Active; 'I' for Inactive)
REMARK    1  A    between atoms: C4_4  and  C5_5 
REMARK    2  A    between atoms: C9_12  and  O1_13 
REMARK    3  A    between atoms: O1_13  and  C10_14 
REMARK    4  A    between atoms: C10_14  and  C11_15 
REMARK    5  A    between atoms: C11_15  and  O3_17 
REMARK    6  A    between atoms: O3_17  and  C12_18 
REMARK    7  A    between atoms: C12_18  and  C13_19 
REMARK    8  A    between atoms: C13_19  and  C14_20 
ROOT
HETATM    1  C10 UNL     1     -22.552  35.853 -34.847  1.00  0.00     0.286 C 
ENDROOT
BRANCH   1   2
HETATM    2  O1  UNL     1     -21.159  36.009 -35.089  1.00  0.00    -0.340 OA
BRANCH   2   3
HETATM    3  C9  UNL     1     -20.412  35.691 -33.924  1.00  0.00     0.081 A 
HETATM    4  C2  UNL     1     -20.276  34.443 -33.457  1.00  0.00    -0.027 A 
HETATM    5  C1  UNL     1     -20.873  33.243 -34.069  1.00  0.00     0.051 C 
HETATM    6  C3  UNL     1     -19.490  34.218 -32.300  1.00  0.00     0.025 A 
HETATM    7  C4  UNL     1     -18.890  35.249 -31.682  1.00  0.00     0.049 A 
HETATM    8  C6  UNL     1     -19.064  36.501 -32.193  1.00  0.00     0.025 A 
HETATM    9  C7  UNL     1     -19.802  36.794 -33.289  1.00  0.00    -0.027 A 
HETATM   10  C8  UNL     1     -20.061  38.137 -33.862  1.00  0.00     0.051 C 
BRANCH   7  11
HETATM   11  C5  UNL     1     -18.013  35.088 -30.483  1.00  0.00     0.417 C 
HETATM   12  F1  UNL     1     -17.135  34.060 -30.628  1.00  0.00    -0.166 F 
HETATM   13  F2  UNL     1     -18.883  34.774 -29.430  1.00  0.00    -0.166 F 
HETATM   14  F3  UNL     1     -17.394  36.266 -30.162  1.00  0.00    -0.166 F 
ENDBRANCH   7  11
ENDBRANCH   2   3
ENDBRANCH   1   2
BRANCH   1  15
HETATM   15  C11 UNL     1     -23.315  37.067 -35.069  1.00  0.00     0.283 C 
HETATM   16  O2  UNL     1     -23.279  37.797 -36.082  1.00  0.00    -0.263 OA
BRANCH  15  17
HETATM   17  O3  UNL     1     -24.172  37.426 -34.050  1.00  0.00    -0.320 OA
BRANCH  17  18
HETATM   18  C12 UNL     1     -25.050  36.504 -33.387  1.00  0.00     0.179 C 
BRANCH  18  19
HETATM   19  C13 UNL     1     -26.404  36.970 -33.880  1.00  0.00     0.031 C 
BRANCH  19  20
HETATM   20  C14 UNL     1     -27.597  36.324 -33.238  1.00  0.00    -0.013 C 
HETATM   21  C15 UNL     1     -27.735  34.931 -33.701  1.00  0.00     0.005 C 
HETATM   22  C16 UNL     1     -28.952  34.212 -33.219  1.00  0.00     0.000 C 
HETATM   23  C17 UNL     1     -29.764  34.882 -32.176  1.00  0.00     0.000 C 
HETATM   24  C18 UNL     1     -30.955  35.633 -32.663  1.00  0.00     0.000 C 
HETATM   25  C19 UNL     1     -30.933  35.969 -34.117  1.00  0.00     0.000 C 
HETATM   26  C20 UNL     1     -29.681  36.618 -34.601  1.00  0.00     0.000 C 
HETATM   27  C21 UNL     1     -28.816  37.187 -33.537  1.00  0.00     0.005 C 
ENDBRANCH  19  20
ENDBRANCH  18  19
ENDBRANCH  17  18
ENDBRANCH  15  17
ENDBRANCH   1  15
TORSDOF 8
ENDMDL
MODEL 3
REMARK VINA RESULT: -10.545861604      0.956      2.347
REMARK  8 active torsions:
REMARK  status: ('A' for Active; 'I' for Inactive)
REMARK    1  A    between atoms: C4_4  and  C5_5 
REMARK    2  A    between atoms: C9_12  and  O1_13 
REMARK    3  A    between atoms: O1_13  and  C10_14 
REMARK    4  A    between atoms: C10_14  and  C11_15 
REMARK    5  A    between atoms: C11_15  and  O3_17 
REMARK    6  A    between atoms: O3_17  and  C12_18 
REMARK    7  A    between atoms: C12_18  and  C13_19 
REMARK    8  A    between atoms: C13_19  and  C14_20 
ROOT
HETATM    1  C10 UNL     1     -22.478  36.043 -34.870  1.00  0.00     0.286 C 
ENDROOT
BRANCH   1   2
HETATM    2  O1  UNL     1     -21.079  36.036 -35.122  1.00  0.00    -0.340 OA
BRANCH   2   3
HETATM    3  C9  UNL     1     -20.361  35.703 -33.943  1.00  0.00     0.081 A 
HETATM    4  C2  UNL     1     -20.258  34.452 -33.476  1.00  0.00    -0.027 A 
HETATM    5  C1  UNL     1     -20.863  33.264 -34.102  1.00  0.00     0.051 C 
HETATM    6  C3  UNL     1     -19.500  34.211 -32.303  1.00  0.00     0.025 A 
HETATM    7  C4  UNL     1     -18.895  35.231 -31.670  1.00  0.00     0.049 A 
HETATM    8  C6  UNL     1     -19.036  36.486 -32.182  1.00  0.00     0.025 A 
HETATM    9  C7  UNL     1     -19.746  36.794 -33.293  1.00  0.00    -0.027 A 
HETATM   10  C8  UNL     1     -19.969  38.142 -33.869  1.00  0.00     0.051 C 
BRANCH   7  11
HETATM   11  C5  UNL     1     -18.046  35.053 -30.454  1.00  0.00     0.417 C 
HETATM   12  F1  UNL     1     -17.175  34.016 -30.587  1.00  0.00    -0.166 F 
HETATM   13  F2  UNL     1     -18.942  34.739 -29.422  1.00  0.00    -0.166 F 
HETATM   14  F3  UNL     1     -17.423  36.222 -30.111  1.00  0.00    -0.166 F 
ENDBRANCH   7  11
ENDBRANCH   2   3
ENDBRANCH   1   2
BRANCH   1  15
HETATM   15  C11 UNL     1     -23.225  35.159 -35.746  1.00  0.00     0.283 C 
HETATM   16  O2  UNL     1     -22.873  34.752 -36.874  1.00  0.00    -0.263 OA
BRANCH  15  17
HETATM   17  O3  UNL     1     -24.440  34.724 -35.259  1.00  0.00    -0.320 OA
BRANCH  17  18
HETATM   18  C12 UNL     1     -25.121  35.341 -34.157  1.00  0.00     0.179 C 
BRANCH  18  19
HETATM   19  C13 UNL     1     -26.360  34.476 -34.047  1.00  0.00     0.031 C 
BRANCH  19  20
HETATM   20  C14 UNL     1     -27.675  35.190 -34.169  1.00  0.00    -0.013 C 
HETATM   21  C15 UNL     1     -27.623  36.482 -33.460  1.00  0.00     0.005 C 
HETATM   22  C16 UNL     1     -28.909  37.240 -33.413  1.00  0.00     0.000 C 
HETATM   23  C17 UNL     1     -30.023  36.734 -34.249  1.00  0.00     0.000 C 
HETATM   24  C18 UNL     1     -31.024  35.882 -33.549  1.00  0.00     0.000 C 
HETATM   25  C19 UNL     1     -30.562  35.306 -32.252  1.00  0.00     0.000 C 
HETATM   26  C20 UNL     1     -29.241  34.618 -32.296  1.00  0.00     0.000 C 
HETATM   27  C21 UNL     1     -28.765  34.258 -33.656  1.00  0.00     0.005 C 
ENDBRANCH  19  20
ENDBRANCH  18  19
ENDBRANCH  17  18
ENDBRANCH  15  17
ENDBRANCH   1  15
TORSDOF 8
ENDMDL
MODEL 4
REMARK VINA RESULT: -10.524224473      3.072      4.675
REMARK  8 active torsions:
REMARK  status: ('A' for Active; 'I' for Inactive)
REMARK    1  A    between atoms: C4_4  and  C5_5 
REMARK    2  A    between atoms: C9_12  and  O1_13 
REMARK    3  A    between atoms: O1_13  and  C10_14 
REMARK    4  A    between atoms: C10_14  and  C11_15 
REMARK    5  A    between atoms: C11_15  and  O3_17 
REMARK    6  A    between atoms: O3_17  and  C12_18 
REMARK    7  A    between atoms: C12_18  and  C13_19 
REMARK    8  A    between atoms: C13_19  and  C14_20 
ROOT
HETATM    1  C10 UNL     1     -25.815  35.987 -30.844  1.00  0.00     0.286 C 
ENDROOT
BRANCH   1   2
HETATM    2  O1  UNL     1     -25.055  35.133 -31.690  1.00  0.00    -0.340 OA
BRANCH   2   3
HETATM    3  C9  UNL     1     -24.000  35.855 -32.309  1.00  0.00     0.081 A 
HETATM    4  C2  UNL     1     -24.199  36.754 -33.282  1.00  0.00    -0.027 A 
HETATM    5  C1  UNL     1     -25.512  37.115 -33.843  1.00  0.00     0.051 C 
HETATM    6  C3  UNL     1     -23.087  37.445 -33.824  1.00  0.00     0.025 A 
HETATM    7  C4  UNL     1     -21.849  37.197 -33.363  1.00  0.00     0.049 A 
HETATM    8  C6  UNL     1     -21.700  36.268 -32.376  1.00  0.00     0.025 A 
HETATM    9  C7  UNL     1     -22.711  35.567 -31.813  1.00  0.00    -0.027 A 
HETATM   10  C8  UNL     1     -22.603  34.518 -30.770  1.00  0.00     0.051 C 
BRANCH   7  11
HETATM   11  C5  UNL     1     -20.633  37.912 -33.853  1.00  0.00     0.417 C 
HETATM   12  F1  UNL     1     -20.888  39.218 -34.133  1.00  0.00    -0.166 F 
HETATM   13  F2  UNL     1     -20.284  37.270 -35.049  1.00  0.00    -0.166 F 
HETATM   14  F3  UNL     1     -19.584  37.756 -32.987  1.00  0.00    -0.166 F 
ENDBRANCH   7  11
ENDBRANCH   2   3
ENDBRANCH   1   2
BRANCH   1  15
HETATM   15  C11 UNL     1     -26.364  35.309 -29.684  1.00  0.00     0.283 C 
HETATM   16  O2  UNL     1     -26.203  35.629 -28.487  1.00  0.00    -0.263 OA
BRANCH  15  17
HETATM   17  O3  UNL     1     -27.151  34.210 -29.953  1.00  0.00    -0.320 OA
BRANCH  17  18
HETATM   18  C12 UNL     1     -28.550  34.137 -29.637  1.00  0.00     0.179 C 
BRANCH  18  19
HETATM   19  C13 UNL     1     -29.146  33.797 -30.988  1.00  0.00     0.031 C 
BRANCH  19  20
HETATM   20  C14 UNL     1     -29.280  34.938 -31.954  1.00  0.00    -0.013 C 
HETATM   21  C15 UNL     1     -30.698  35.158 -32.291  1.00  0.00     0.005 C 
HETATM   22  C16 UNL     1     -30.957  36.197 -33.332  1.00  0.00     0.000 C 
HETATM   23  C17 UNL     1     -29.807  37.033 -33.753  1.00  0.00     0.000 C 
HETATM   24  C18 UNL     1     -29.115  36.604 -35.000  1.00  0.00     0.000 C 
HETATM   25  C19 UNL     1     -29.378  35.193 -35.411  1.00  0.00     0.000 C 
HETATM   26  C20 UNL     1     -29.190  34.173 -34.340  1.00  0.00     0.000 C 
HETATM   27  C21 UNL     1     -28.408  34.633 -33.165  1.00  0.00     0.005 C 
ENDBRANCH  19  20
ENDBRANCH  18  19
ENDBRANCH  17  18
ENDBRANCH  15  17
ENDBRANCH   1  15
TORSDOF 8
ENDMDL
MODEL 5
REMARK VINA RESULT: -10.511666174      3.559      5.058
REMARK  8 active torsions:
REMARK  status: ('A' for Active; 'I' for Inactive)
REMARK    1  A    between atoms: C4_4  and  C5_5 
REMARK    2  A    between atoms: C9_12  and  O1_13 
REMARK    3  A    between atoms: O1_13  and  C10_14 
REMARK    4  A    between atoms: C10_14  and  C11_15 
REMARK    5  A    between atoms: C11_15  and  O3_17 
REMARK    6  A    between atoms: O3_17  and  C12_18 
REMARK    7  A    between atoms: C12_18  and  C13_19 
REMARK    8  A    between atoms: C13_19  and  C14_20 
ROOT
HETATM    1  C10 UNL     1     -20.079  33.679 -32.067  1.00  0.00     0.286 C 
ENDROOT
BRANCH   1   2
HETATM    2  O1  UNL     1     -19.388  34.367 -33.102  1.00  0.00    -0.340 OA
BRANCH   2   3
HETATM    3  C9  UNL     1     -20.278  35.209 -33.821  1.00  0.00     0.081 A 
HETATM    4  C2  UNL     1     -21.291  34.742 -34.563  1.00  0.00    -0.027 A 
HETATM    5  C1  UNL     1     -21.621  33.317 -34.741  1.00  0.00     0.051 C 
HETATM    6  C3  UNL     1     -22.143  35.659 -35.226  1.00  0.00     0.025 A 
HETATM    7  C4  UNL     1     -21.932  36.981 -35.109  1.00  0.00     0.049 A 
HETATM    8  C6  UNL     1     -20.884  37.405 -34.347  1.00  0.00     0.025 A 
HETATM    9  C7  UNL     1     -20.027  36.591 -33.689  1.00  0.00    -0.027 A 
HETATM   10  C8  UNL     1     -18.848  36.994 -32.884  1.00  0.00     0.051 C 
BRANCH   7  11
HETATM   11  C5  UNL     1     -22.810  38.011 -35.743  1.00  0.00     0.417 C 
HETATM   12  F1  UNL     1     -23.516  37.504 -36.790  1.00  0.00    -0.166 F 
HETATM   13  F2  UNL     1     -21.934  38.987 -36.239  1.00  0.00    -0.166 F 
HETATM   14  F3  UNL     1     -23.611  38.617 -34.813  1.00  0.00    -0.166 F 
ENDBRANCH   7  11
ENDBRANCH   2   3
ENDBRANCH   1   2
BRANCH   1  15
HETATM   15  C11 UNL     1     -20.140  34.424 -30.822  1.00  0.00     0.283 C 
HETATM   16  O2  UNL     1     -19.174  34.762 -30.106  1.00  0.00    -0.263 OA
BRANCH  15  17
HETATM   17  O3  UNL     1     -21.403  34.799 -30.414  1.00  0.00    -0.320 OA
BRANCH  17  18
HETATM   18  C12 UNL     1     -22.611  34.330 -31.032  1.00  0.00     0.179 C 
BRANCH  18  19
HETATM   19  C13 UNL     1     -23.171  35.614 -31.608  1.00  0.00     0.031 C 
BRANCH  19  20
HETATM   20  C14 UNL     1     -24.667  35.737 -31.612  1.00  0.00    -0.013 C 
HETATM   21  C15 UNL     1     -25.288  34.426 -31.345  1.00  0.00     0.005 C 
HETATM   22  C16 UNL     1     -26.778  34.392 -31.434  1.00  0.00     0.000 C 
HETATM   23  C17 UNL     1     -27.478  35.693 -31.562  1.00  0.00     0.000 C 
HETATM   24  C18 UNL     1     -27.857  36.092 -32.946  1.00  0.00     0.000 C 
HETATM   25  C19 UNL     1     -27.126  35.372 -34.030  1.00  0.00     0.000 C 
HETATM   26  C20 UNL     1     -25.643  35.348 -33.889  1.00  0.00     0.000 C 
HETATM   27  C21 UNL     1     -25.084  36.348 -32.944  1.00  0.00     0.005 C 
ENDBRANCH  19  20
ENDBRANCH  18  19
ENDBRANCH  17  18
ENDBRANCH  15  17
ENDBRANCH   1  15
TORSDOF 8
ENDMDL
