MODEL 1
REMARK VINA RESULT: -8.033518572      0.000      0.000
REMARK  8 active torsions:
REMARK  status: ('A' for Active; 'I' for Inactive)
REMARK    1  A    between atoms: C4_4  and  S1_6 
REMARK    2  A    between atoms: S1_6  and  C5_7 
REMARK    3  A    between atoms: C5_7  and  C6_9 
REMARK    4  A    between atoms: C5_7  and  C7_11 
REMARK    5  A    between atoms: C7_11  and  O2_13 
REMARK    6  A    between atoms: O2_13  and  C8_14 
REMARK    7  A    between atoms: C8_14  and  C9_15 
REMARK    8  A    between atoms: C9_15  and  C10_16 
ROOT
HETATM    1  C7  UNL     1     -23.694  35.029 -34.505  1.00  0.00     0.294 C 
HETATM    2  O1  UNL     1     -24.122  34.387 -35.469  1.00  0.00    -0.262 OA
ENDROOT
BRANCH   1   3
HETATM    3  C5  UNL     1     -22.229  35.198 -34.221  1.00  0.00     0.190 C 
HETATM    4 CL2  UNL     1     -21.514  33.614 -33.869  1.00  0.00    -0.094 Cl
BRANCH   3   5
HETATM    5  S1  UNL     1     -21.940  36.348 -32.863  1.00  0.00    -0.080 SA
BRANCH   5   6
HETATM    6  C4  UNL     1     -20.639  35.810 -31.783  1.00  0.00     0.074 C 
HETATM    7  C2  UNL     1     -19.414  36.237 -31.981  1.00  0.00    -0.059 C 
HETATM    8  C1  UNL     1     -19.085  37.178 -33.107  1.00  0.00     0.045 C 
HETATM    9  C3  UNL     1     -18.317  35.801 -31.094  1.00  0.00     0.045 C 
HETATM   10 CL1  UNL     1     -21.006  34.725 -30.482  1.00  0.00    -0.076 Cl
ENDBRANCH   5   6
ENDBRANCH   3   5
BRANCH   3  11
HETATM   11  C6  UNL     1     -21.564  35.808 -35.463  1.00  0.00     0.162 C 
HETATM   12 CL3  UNL     1     -20.443  34.603 -36.141  1.00  0.00    -0.127 Cl
ENDBRANCH   3  11
ENDBRANCH   1   3
BRANCH   1  13
HETATM   13  O2  UNL     1     -24.559  35.622 -33.641  1.00  0.00    -0.319 OA
BRANCH  13  14
HETATM   14  C8  UNL     1     -25.778  35.124 -33.155  1.00  0.00     0.179 C 
BRANCH  14  15
HETATM   15  C9  UNL     1     -26.878  36.065 -33.474  1.00  0.00     0.031 C 
BRANCH  15  16
HETATM   16  C10 UNL     1     -28.106  35.411 -34.038  1.00  0.00    -0.013 C 
HETATM   17  C11 UNL     1     -27.755  34.265 -34.949  1.00  0.00     0.005 C 
HETATM   18  C12 UNL     1     -29.007  33.616 -35.496  1.00  0.00     0.000 C 
HETATM   19  C13 UNL     1     -29.802  34.681 -36.218  1.00  0.00     0.000 C 
HETATM   20  C14 UNL     1     -30.275  35.674 -35.176  1.00  0.00     0.000 C 
HETATM   21  C15 UNL     1     -29.032  36.402 -34.670  1.00  0.00     0.005 C 
ENDBRANCH  15  16
ENDBRANCH  14  15
ENDBRANCH  13  14
ENDBRANCH   1  13
TORSDOF 8
ENDMDL
MODEL 2
REMARK VINA RESULT: -8.015075650      1.784      2.113
REMARK  8 active torsions:
REMARK  status: ('A' for Active; 'I' for Inactive)
REMARK    1  A    between atoms: C4_4  and  S1_6 
REMARK    2  A    between atoms: S1_6  and  C5_7 
REMARK    3  A    between atoms: C5_7  and  C6_9 
REMARK    4  A    between atoms: C5_7  and  C7_11 
REMARK    5  A    between atoms: C7_11  and  O2_13 
REMARK    6  A    between atoms: O2_13  and  C8_14 
REMARK    7  A    between atoms: C8_14  and  C9_15 
REMARK    8  A    between atoms: C9_15  and  C10_16 
ROOT
HETATM    1  C7  UNL     1     -23.471  35.194 -34.561  1.00  0.00     0.294 C 
HETATM    2  O1  UNL     1     -23.891  34.409 -35.416  1.00  0.00    -0.262 OA
ENDROOT
BRANCH   1   3
HETATM    3  C5  UNL     1     -22.440  36.246 -34.853  1.00  0.00     0.190 C 
HETATM    4 CL2  UNL     1     -21.001  35.478 -35.548  1.00  0.00    -0.094 Cl
BRANCH   3   5
HETATM    5  S1  UNL     1     -22.014  37.192 -33.378  1.00  0.00    -0.080 SA
BRANCH   5   6
HETATM    6  C4  UNL     1     -20.314  36.989 -32.911  1.00  0.00     0.074 C 
HETATM    7  C2  UNL     1     -19.997  36.117 -31.983  1.00  0.00    -0.059 C 
HETATM    8  C1  UNL     1     -21.045  35.281 -31.301  1.00  0.00     0.045 C 
HETATM    9  C3  UNL     1     -18.588  35.933 -31.579  1.00  0.00     0.045 C 
HETATM   10 CL1  UNL     1     -19.097  37.947 -33.688  1.00  0.00    -0.076 Cl
ENDBRANCH   5   6
ENDBRANCH   3   5
BRANCH   3  11
HETATM   11  C6  UNL     1     -23.038  37.243 -35.856  1.00  0.00     0.162 C 
HETATM   12 CL3  UNL     1     -23.905  38.498 -34.940  1.00  0.00    -0.127 Cl
ENDBRANCH   3  11
ENDBRANCH   1   3
BRANCH   1  13
HETATM   13  O2  UNL     1     -23.942  35.133 -33.287  1.00  0.00    -0.319 OA
BRANCH  13  14
HETATM   14  C8  UNL     1     -25.275  35.042 -32.859  1.00  0.00     0.179 C 
BRANCH  14  15
HETATM   15  C9  UNL     1     -26.042  36.225 -33.318  1.00  0.00     0.031 C 
BRANCH  15  16
HETATM   16  C10 UNL     1     -27.511  35.978 -33.496  1.00  0.00    -0.013 C 
HETATM   17  C11 UNL     1     -27.770  34.833 -34.439  1.00  0.00     0.005 C 
HETATM   18  C12 UNL     1     -29.256  34.598 -34.595  1.00  0.00     0.000 C 
HETATM   19  C13 UNL     1     -29.880  35.884 -35.091  1.00  0.00     0.000 C 
HETATM   20  C14 UNL     1     -29.740  36.908 -33.984  1.00  0.00     0.000 C 
HETATM   21  C15 UNL     1     -28.251  37.225 -33.867  1.00  0.00     0.005 C 
ENDBRANCH  15  16
ENDBRANCH  14  15
ENDBRANCH  13  14
ENDBRANCH   1  13
TORSDOF 8
ENDMDL
MODEL 3
REMARK VINA RESULT: -8.008572109      1.258      1.425
REMARK  8 active torsions:
REMARK  status: ('A' for Active; 'I' for Inactive)
REMARK    1  A    between atoms: C4_4  and  S1_6 
REMARK    2  A    between atoms: S1_6  and  C5_7 
REMARK    3  A    between atoms: C5_7  and  C6_9 
REMARK    4  A    between atoms: C5_7  and  C7_11 
REMARK    5  A    between atoms: C7_11  and  O2_13 
REMARK    6  A    between atoms: O2_13  and  C8_14 
REMARK    7  A    between atoms: C8_14  and  C9_15 
REMARK    8  A    between atoms: C9_15  and  C10_16 
ROOT
HETATM    1  C7  UNL     1     -23.596  35.104 -34.380  1.00  0.00     0.294 C 
HETATM    2  O1  UNL     1     -24.072  34.624 -35.413  1.00  0.00    -0.262 OA
ENDROOT
BRANCH   1   3
HETATM    3  C5  UNL     1     -22.118  35.241 -34.148  1.00  0.00     0.190 C 
HETATM    4 CL2  UNL     1     -21.434  33.648 -33.778  1.00  0.00    -0.094 Cl
BRANCH   3   5
HETATM    5  S1  UNL     1     -21.755  36.417 -32.830  1.00  0.00    -0.080 SA
BRANCH   5   6
HETATM    6  C4  UNL     1     -20.499  35.829 -31.724  1.00  0.00     0.074 C 
HETATM    7  C2  UNL     1     -19.247  36.169 -31.925  1.00  0.00    -0.059 C 
HETATM    8  C1  UNL     1     -18.851  37.051 -33.078  1.00  0.00     0.045 C 
HETATM    9  C3  UNL     1     -18.186  35.691 -31.017  1.00  0.00     0.045 C 
HETATM   10 CL1  UNL     1     -20.943  34.812 -30.392  1.00  0.00    -0.076 Cl
ENDBRANCH   5   6
ENDBRANCH   3   5
BRANCH   3  11
HETATM   11  C6  UNL     1     -21.479  35.802 -35.426  1.00  0.00     0.162 C 
HETATM   12 CL3  UNL     1     -20.394  34.559 -36.094  1.00  0.00    -0.127 Cl
ENDBRANCH   3  11
ENDBRANCH   1   3
BRANCH   1  13
HETATM   13  O2  UNL     1     -24.416  35.540 -33.388  1.00  0.00    -0.319 OA
BRANCH  13  14
HETATM   14  C8  UNL     1     -25.698  36.098 -33.504  1.00  0.00     0.179 C 
BRANCH  14  15
HETATM   15  C9  UNL     1     -26.710  35.181 -32.927  1.00  0.00     0.031 C 
BRANCH  15  16
HETATM   16  C10 UNL     1     -28.076  35.782 -32.778  1.00  0.00    -0.013 C 
HETATM   17  C11 UNL     1     -29.139  34.722 -32.664  1.00  0.00     0.005 C 
HETATM   18  C12 UNL     1     -30.505  35.352 -32.505  1.00  0.00     0.000 C 
HETATM   19  C13 UNL     1     -30.741  36.253 -33.696  1.00  0.00     0.000 C 
HETATM   20  C14 UNL     1     -29.748  37.394 -33.600  1.00  0.00     0.000 C 
HETATM   21  C15 UNL     1     -28.366  36.792 -33.843  1.00  0.00     0.005 C 
ENDBRANCH  15  16
ENDBRANCH  14  15
ENDBRANCH  13  14
ENDBRANCH   1  13
TORSDOF 8
ENDMDL
MODEL 4
REMARK VINA RESULT: -7.970810993      2.135      2.734
REMARK  8 active torsions:
REMARK  status: ('A' for Active; 'I' for Inactive)
REMARK    1  A    between atoms: C4_4  and  S1_6 
REMARK    2  A    between atoms: S1_6  and  C5_7 
REMARK    3  A    between atoms: C5_7  and  C6_9 
REMARK    4  A    between atoms: C5_7  and  C7_11 
REMARK    5  A    between atoms: C7_11  and  O2_13 
REMARK    6  A    between atoms: O2_13  and  C8_14 
REMARK    7  A    between atoms: C8_14  and  C9_15 
REMARK    8  A    between atoms: C9_15  and  C10_16 
ROOT
HETATM    1  C7  UNL     1     -23.298  36.935 -34.922  1.00  0.00     0.294 C 
HETATM    2  O1  UNL     1     -23.468  36.349 -35.996  1.00  0.00    -0.262 OA
ENDROOT
BRANCH   1   3
HETATM    3  C5  UNL     1     -21.942  37.146 -34.312  1.00  0.00     0.190 C 
HETATM    4 CL2  UNL     1     -20.707  36.447 -35.375  1.00  0.00    -0.094 Cl
BRANCH   3   5
HETATM    5  S1  UNL     1     -21.838  36.441 -32.656  1.00  0.00    -0.080 SA
BRANCH   5   6
HETATM    6  C4  UNL     1     -20.162  36.177 -32.136  1.00  0.00     0.074 C 
HETATM    7  C2  UNL     1     -19.897  35.247 -31.250  1.00  0.00    -0.059 C 
HETATM    8  C1  UNL     1     -20.987  34.394 -30.660  1.00  0.00     0.045 C 
HETATM    9  C3  UNL     1     -18.510  35.010 -30.803  1.00  0.00     0.045 C 
HETATM   10 CL1  UNL     1     -18.897  37.153 -32.809  1.00  0.00    -0.076 Cl
ENDBRANCH   5   6
ENDBRANCH   3   5
BRANCH   3  11
HETATM   11  C6  UNL     1     -21.711  38.656 -34.163  1.00  0.00     0.162 C 
HETATM   12 CL3  UNL     1     -21.470  39.344 -35.787  1.00  0.00    -0.127 Cl
ENDBRANCH   3  11
ENDBRANCH   1   3
BRANCH   1  13
HETATM   13  O2  UNL     1     -24.364  37.423 -34.235  1.00  0.00    -0.319 OA
BRANCH  13  14
HETATM   14  C8  UNL     1     -25.469  36.719 -33.732  1.00  0.00     0.179 C 
BRANCH  14  15
HETATM   15  C9  UNL     1     -26.722  37.452 -34.033  1.00  0.00     0.031 C 
BRANCH  15  16
HETATM   16  C10 UNL     1     -27.960  36.606 -33.981  1.00  0.00    -0.013 C 
HETATM   17  C11 UNL     1     -29.173  37.420 -33.616  1.00  0.00     0.005 C 
HETATM   18  C12 UNL     1     -30.409  36.548 -33.580  1.00  0.00     0.000 C 
HETATM   19  C13 UNL     1     -30.162  35.436 -32.584  1.00  0.00     0.000 C 
HETATM   20  C14 UNL     1     -29.060  34.564 -33.149  1.00  0.00     0.000 C 
HETATM   21  C15 UNL     1     -27.781  35.398 -33.116  1.00  0.00     0.005 C 
ENDBRANCH  15  16
ENDBRANCH  14  15
ENDBRANCH  13  14
ENDBRANCH   1  13
TORSDOF 8
ENDMDL
MODEL 5
REMARK VINA RESULT: -7.968116008      2.779      3.698
REMARK  8 active torsions:
REMARK  status: ('A' for Active; 'I' for Inactive)
REMARK    1  A    between atoms: C4_4  and  S1_6 
REMARK    2  A    between atoms: S1_6  and  C5_7 
REMARK    3  A    between atoms: C5_7  and  C6_9 
REMARK    4  A    between atoms: C5_7  and  C7_11 
REMARK    5  A    between atoms: C7_11  and  O2_13 
REMARK    6  A    between atoms: O2_13  and  C8_14 
REMARK    7  A    between atoms: C8_14  and  C9_15 
REMARK    8  A    between atoms: C9_15  and  C10_16 
ROOT
HETATM    1  C7  UNL     1     -23.286  35.205 -34.591  1.00  0.00     0.294 C 
HETATM    2  O1  UNL     1     -23.671  34.427 -35.470  1.00  0.00    -0.262 OA
ENDROOT
BRANCH   1   3
HETATM    3  C5  UNL     1     -22.301  36.308 -34.850  1.00  0.00     0.190 C 
HETATM    4 CL2  UNL     1     -20.846  35.628 -35.601  1.00  0.00    -0.094 Cl
BRANCH   3   5
HETATM    5  S1  UNL     1     -21.885  37.201 -33.340  1.00  0.00    -0.080 SA
BRANCH   5   6
HETATM    6  C4  UNL     1     -20.200  36.950 -32.846  1.00  0.00     0.074 C 
HETATM    7  C2  UNL     1     -19.923  36.079 -31.904  1.00  0.00    -0.059 C 
HETATM    8  C1  UNL     1     -21.007  35.283 -31.230  1.00  0.00     0.045 C 
HETATM    9  C3  UNL     1     -18.527  35.855 -31.478  1.00  0.00     0.045 C 
HETATM   10 CL1  UNL     1     -18.942  37.861 -33.615  1.00  0.00    -0.076 Cl
ENDBRANCH   5   6
ENDBRANCH   3   5
BRANCH   3  11
HETATM   11  C6  UNL     1     -22.953  37.325 -35.797  1.00  0.00     0.162 C 
HETATM   12 CL3  UNL     1     -24.230  38.179 -34.898  1.00  0.00    -0.127 Cl
ENDBRANCH   3  11
ENDBRANCH   1   3
BRANCH   1  13
HETATM   13  O2  UNL     1     -23.756  35.086 -33.321  1.00  0.00    -0.319 OA
BRANCH  13  14
HETATM   14  C8  UNL     1     -25.087  35.129 -32.880  1.00  0.00     0.179 C 
BRANCH  14  15
HETATM   15  C9  UNL     1     -25.174  35.839 -31.582  1.00  0.00     0.031 C 
BRANCH  15  16
HETATM   16  C10 UNL     1     -26.093  35.195 -30.586  1.00  0.00    -0.013 C 
HETATM   17  C11 UNL     1     -27.319  34.624 -31.250  1.00  0.00     0.005 C 
HETATM   18  C12 UNL     1     -28.224  33.973 -30.228  1.00  0.00     0.000 C 
HETATM   19  C13 UNL     1     -28.583  35.017 -29.195  1.00  0.00     0.000 C 
HETATM   20  C14 UNL     1     -27.311  35.370 -28.452  1.00  0.00     0.000 C 
HETATM   21  C15 UNL     1     -26.415  36.107 -29.444  1.00  0.00     0.005 C 
ENDBRANCH  15  16
ENDBRANCH  14  15
ENDBRANCH  13  14
ENDBRANCH   1  13
TORSDOF 8
ENDMDL
