MODEL 1
REMARK VINA RESULT: -9.138587383      0.000      0.000
REMARK  9 active torsions:
REMARK  status: ('A' for Active; 'I' for Inactive)
REMARK    1  A    between atoms: O1_2  and  C2_3 
REMARK    2  A    between atoms: C6_7  and  C7_8 
REMARK    3  A    between atoms: C7_8  and  C8_9 
REMARK    4  A    between atoms: C7_8  and  C11_16 
REMARK    5  A    between atoms: C8_9  and  C9_10 
REMARK    6  A    between atoms: C9_10  and  C10_12 
REMARK    7  A    between atoms: C11_16  and  C12_17 
REMARK    8  A    between atoms: C12_17  and  C13_18 
REMARK    9  A    between atoms: C19_24  and  O3_25 
ROOT
HETATM    1  C7  UNL     1     -26.307  35.165 -31.589  1.00  0.00     0.005 C 
ENDROOT
BRANCH   1   2
HETATM    2  C6  UNL     1     -25.003  35.697 -32.204  1.00  0.00     0.018 A 
HETATM    3  C4  UNL     1     -25.057  36.639 -33.160  1.00  0.00    -0.045 A 
HETATM    4  C3  UNL     1     -23.874  37.241 -33.644  1.00  0.00     0.044 A 
HETATM    5  C5  UNL     1     -26.280  37.079 -33.847  1.00  0.00     0.049 C 
HETATM    6  C2  UNL     1     -22.661  36.855 -33.131  1.00  0.00     0.071 A 
HETATM    7  C21 UNL     1     -22.596  35.899 -32.160  1.00  0.00     0.074 A 
HETATM    8  C19 UNL     1     -23.801  35.301 -31.678  1.00  0.00     0.082 A 
BRANCH   6   9
HETATM    9  O1  UNL     1     -21.487  37.453 -33.619  1.00  0.00    -0.356 OA
HETATM   10  C1  UNL     1     -21.548  38.724 -34.210  1.00  0.00     0.210 C 
ENDBRANCH   6   9
BRANCH   8  11
HETATM   11  O3  UNL     1     -23.616  34.370 -30.699  1.00  0.00    -0.355 OA
HETATM   12  C20 UNL     1     -22.362  33.963 -30.261  1.00  0.00     0.210 C 
ENDBRANCH   8  11
ENDBRANCH   1   2
BRANCH   1  13
HETATM   13  C8  UNL     1     -26.608  35.695 -30.553  1.00  0.00    -0.061 C 
BRANCH  13  14
HETATM   14  C9  UNL     1     -27.122  36.166 -29.310  1.00  0.00     0.301 C 
HETATM   15  O2  UNL     1     -26.400  37.028 -28.677  1.00  0.00    -0.274 OA
BRANCH  14  16
HETATM   16  C10 UNL     1     -28.379  35.827 -28.591  1.00  0.00     0.463 C 
HETATM   17  F1  UNL     1     -28.835  36.853 -27.785  1.00  0.00    -0.163 F 
HETATM   18  F2  UNL     1     -28.062  34.713 -27.798  1.00  0.00    -0.163 F 
HETATM   19  F3  UNL     1     -29.394  35.447 -29.426  1.00  0.00    -0.163 F 
ENDBRANCH  14  16
ENDBRANCH  13  14
ENDBRANCH   1  13
BRANCH   1  20
HETATM   20  C11 UNL     1     -26.999  34.157 -32.406  1.00  0.00     0.049 C 
BRANCH  20  21
HETATM   21  C12 UNL     1     -28.382  33.842 -31.974  1.00  0.00     0.010 C 
BRANCH  21  22
HETATM   22  C13 UNL     1     -29.363  34.295 -33.086  1.00  0.00    -0.014 C 
HETATM   23  C14 UNL     1     -28.644  34.162 -34.376  1.00  0.00     0.004 C 
HETATM   24  C15 UNL     1     -29.145  34.965 -35.521  1.00  0.00     0.000 C 
HETATM   25  C16 UNL     1     -30.353  35.828 -35.196  1.00  0.00     0.000 C 
HETATM   26  C17 UNL     1     -29.962  36.592 -33.946  1.00  0.00     0.000 C 
HETATM   27  C18 UNL     1     -29.832  35.694 -32.765  1.00  0.00     0.004 C 
ENDBRANCH  21  22
ENDBRANCH  20  21
ENDBRANCH   1  20
TORSDOF 9
ENDMDL
MODEL 2
REMARK VINA RESULT: -9.075204162      4.108      5.799
REMARK  9 active torsions:
REMARK  status: ('A' for Active; 'I' for Inactive)
REMARK    1  A    between atoms: O1_2  and  C2_3 
REMARK    2  A    between atoms: C6_7  and  C7_8 
REMARK    3  A    between atoms: C7_8  and  C8_9 
REMARK    4  A    between atoms: C7_8  and  C11_16 
REMARK    5  A    between atoms: C8_9  and  C9_10 
REMARK    6  A    between atoms: C9_10  and  C10_12 
REMARK    7  A    between atoms: C11_16  and  C12_17 
REMARK    8  A    between atoms: C12_17  and  C13_18 
REMARK    9  A    between atoms: C19_24  and  O3_25 
ROOT
HETATM    1  C7  UNL     1     -23.824  35.591 -32.787  1.00  0.00     0.005 C 
ENDROOT
BRANCH   1   2
HETATM    2  C6  UNL     1     -22.380  35.782 -32.297  1.00  0.00     0.018 A 
HETATM    3  C4  UNL     1     -21.843  34.888 -31.451  1.00  0.00    -0.045 A 
HETATM    4  C3  UNL     1     -20.479  34.964 -31.093  1.00  0.00     0.044 A 
HETATM    5  C5  UNL     1     -22.586  33.824 -30.761  1.00  0.00     0.049 C 
HETATM    6  C2  UNL     1     -19.699  35.965 -31.616  1.00  0.00     0.071 A 
HETATM    7  C21 UNL     1     -20.235  36.879 -32.476  1.00  0.00     0.074 A 
HETATM    8  C19 UNL     1     -21.616  36.787 -32.832  1.00  0.00     0.082 A 
BRANCH   6   9
HETATM    9  O1  UNL     1     -18.344  36.041 -31.253  1.00  0.00    -0.356 OA
HETATM   10  C1  UNL     1     -17.734  34.953 -30.612  1.00  0.00     0.210 C 
ENDBRANCH   6   9
BRANCH   8  11
HETATM   11  O3  UNL     1     -22.037  37.743 -33.707  1.00  0.00    -0.355 OA
HETATM   12  C20 UNL     1     -21.188  38.682 -34.279  1.00  0.00     0.210 C 
ENDBRANCH   8  11
ENDBRANCH   1   2
BRANCH   1  13
HETATM   13  C8  UNL     1     -23.905  35.164 -33.907  1.00  0.00    -0.061 C 
BRANCH  13  14
HETATM   14  C9  UNL     1     -23.827  34.787 -35.280  1.00  0.00     0.301 C 
HETATM   15  O2  UNL     1     -24.692  33.923 -35.690  1.00  0.00    -0.274 OA
BRANCH  14  16
HETATM   16  C10 UNL     1     -22.893  35.224 -36.352  1.00  0.00     0.463 C 
HETATM   17  F1  UNL     1     -23.351  36.325 -37.051  1.00  0.00    -0.163 F 
HETATM   18  F2  UNL     1     -22.787  34.127 -37.220  1.00  0.00    -0.163 F 
HETATM   19  F3  UNL     1     -21.632  35.495 -35.894  1.00  0.00    -0.163 F 
ENDBRANCH  14  16
ENDBRANCH  13  14
ENDBRANCH   1  13
BRANCH   1  20
HETATM   20  C11 UNL     1     -24.854  35.892 -31.780  1.00  0.00     0.049 C 
BRANCH  20  21
HETATM   21  C12 UNL     1     -26.192  36.212 -32.331  1.00  0.00     0.010 C 
BRANCH  21  22
HETATM   22  C13 UNL     1     -27.151  35.035 -32.016  1.00  0.00    -0.014 C 
HETATM   23  C14 UNL     1     -28.533  35.543 -32.199  1.00  0.00     0.004 C 
HETATM   24  C15 UNL     1     -29.624  34.808 -31.510  1.00  0.00     0.000 C 
HETATM   25  C16 UNL     1     -29.156  33.612 -30.698  1.00  0.00     0.000 C 
HETATM   26  C17 UNL     1     -28.037  34.148 -29.825  1.00  0.00     0.000 C 
HETATM   27  C18 UNL     1     -26.842  34.529 -30.627  1.00  0.00     0.004 C 
ENDBRANCH  21  22
ENDBRANCH  20  21
ENDBRANCH   1  20
TORSDOF 9
ENDMDL
MODEL 3
REMARK VINA RESULT: -9.060158286      4.305      6.063
REMARK  9 active torsions:
REMARK  status: ('A' for Active; 'I' for Inactive)
REMARK    1  A    between atoms: O1_2  and  C2_3 
REMARK    2  A    between atoms: C6_7  and  C7_8 
REMARK    3  A    between atoms: C7_8  and  C8_9 
REMARK    4  A    between atoms: C7_8  and  C11_16 
REMARK    5  A    between atoms: C8_9  and  C9_10 
REMARK    6  A    between atoms: C9_10  and  C10_12 
REMARK    7  A    between atoms: C11_16  and  C12_17 
REMARK    8  A    between atoms: C12_17  and  C13_18 
REMARK    9  A    between atoms: C19_24  and  O3_25 
ROOT
HETATM    1  C7  UNL     1     -23.897  35.777 -32.990  1.00  0.00     0.005 C 
ENDROOT
BRANCH   1   2
HETATM    2  C6  UNL     1     -22.466  35.917 -32.446  1.00  0.00     0.018 A 
HETATM    3  C4  UNL     1     -22.012  35.033 -31.542  1.00  0.00    -0.045 A 
HETATM    4  C3  UNL     1     -20.661  35.057 -31.129  1.00  0.00     0.044 A 
HETATM    5  C5  UNL     1     -22.837  34.038 -30.843  1.00  0.00     0.049 C 
HETATM    6  C2  UNL     1     -19.810  35.995 -31.657  1.00  0.00     0.071 A 
HETATM    7  C21 UNL     1     -20.262  36.896 -32.576  1.00  0.00     0.074 A 
HETATM    8  C19 UNL     1     -21.630  36.859 -32.987  1.00  0.00     0.082 A 
BRANCH   6   9
HETATM    9  O1  UNL     1     -18.469  36.018 -31.239  1.00  0.00    -0.356 OA
HETATM   10  C1  UNL     1     -17.905  34.877 -30.650  1.00  0.00     0.210 C 
ENDBRANCH   6   9
BRANCH   8  11
HETATM   11  O3  UNL     1     -21.965  37.797 -33.918  1.00  0.00    -0.355 OA
HETATM   12  C20 UNL     1     -21.116  38.826 -34.303  1.00  0.00     0.210 C 
ENDBRANCH   8  11
ENDBRANCH   1   2
BRANCH   1  13
HETATM   13  C8  UNL     1     -23.960  35.228 -34.057  1.00  0.00    -0.061 C 
BRANCH  13  14
HETATM   14  C9  UNL     1     -23.848  34.687 -35.371  1.00  0.00     0.301 C 
HETATM   15  O2  UNL     1     -24.755  33.840 -35.725  1.00  0.00    -0.274 OA
BRANCH  14  16
HETATM   16  C10 UNL     1     -22.839  34.930 -36.435  1.00  0.00     0.463 C 
HETATM   17  F1  UNL     1     -21.560  35.101 -35.938  1.00  0.00    -0.163 F 
HETATM   18  F2  UNL     1     -23.254  36.108 -37.077  1.00  0.00    -0.163 F 
HETATM   19  F3  UNL     1     -22.806  33.947 -37.386  1.00  0.00    -0.163 F 
ENDBRANCH  14  16
ENDBRANCH  13  14
ENDBRANCH   1  13
BRANCH   1  20
HETATM   20  C11 UNL     1     -24.944  36.270 -32.083  1.00  0.00     0.049 C 
BRANCH  20  21
HETATM   21  C12 UNL     1     -26.279  35.655 -32.275  1.00  0.00     0.010 C 
BRANCH  21  22
HETATM   22  C13 UNL     1     -26.761  35.085 -30.917  1.00  0.00    -0.014 C 
HETATM   23  C14 UNL     1     -28.232  35.275 -30.866  1.00  0.00     0.004 C 
HETATM   24  C15 UNL     1     -28.872  35.277 -29.525  1.00  0.00     0.000 C 
HETATM   25  C16 UNL     1     -27.903  35.079 -28.371  1.00  0.00     0.000 C 
HETATM   26  C17 UNL     1     -26.805  36.097 -28.604  1.00  0.00     0.000 C 
HETATM   27  C18 UNL     1     -25.996  35.775 -29.813  1.00  0.00     0.004 C 
ENDBRANCH  21  22
ENDBRANCH  20  21
ENDBRANCH   1  20
TORSDOF 9
ENDMDL
MODEL 4
REMARK VINA RESULT: -9.051663420      4.209      7.598
REMARK  9 active torsions:
REMARK  status: ('A' for Active; 'I' for Inactive)
REMARK    1  A    between atoms: O1_2  and  C2_3 
REMARK    2  A    between atoms: C6_7  and  C7_8 
REMARK    3  A    between atoms: C7_8  and  C8_9 
REMARK    4  A    between atoms: C7_8  and  C11_16 
REMARK    5  A    between atoms: C8_9  and  C9_10 
REMARK    6  A    between atoms: C9_10  and  C10_12 
REMARK    7  A    between atoms: C11_16  and  C12_17 
REMARK    8  A    between atoms: C12_17  and  C13_18 
REMARK    9  A    between atoms: C19_24  and  O3_25 
ROOT
HETATM    1  C7  UNL     1     -24.199  35.566 -33.418  1.00  0.00     0.005 C 
ENDROOT
BRANCH   1   2
HETATM    2  C6  UNL     1     -25.649  36.078 -33.426  1.00  0.00     0.018 A 
HETATM    3  C4  UNL     1     -25.947  37.212 -34.080  1.00  0.00    -0.045 A 
HETATM    4  C3  UNL     1     -27.289  37.632 -34.218  1.00  0.00     0.044 A 
HETATM    5  C5  UNL     1     -24.963  38.155 -34.631  1.00  0.00     0.049 C 
HETATM    6  C2  UNL     1     -28.293  36.870 -33.676  1.00  0.00     0.071 A 
HETATM    7  C21 UNL     1     -28.000  35.715 -33.011  1.00  0.00     0.074 A 
HETATM    8  C19 UNL     1     -26.639  35.302 -32.881  1.00  0.00     0.082 A 
BRANCH   6   9
HETATM    9  O1  UNL     1     -29.626  37.293 -33.811  1.00  0.00    -0.356 OA
HETATM   10  C1  UNL     1     -30.671  36.389 -33.569  1.00  0.00     0.210 C 
ENDBRANCH   6   9
BRANCH   8  11
HETATM   11  O3  UNL     1     -26.467  34.128 -32.210  1.00  0.00    -0.355 OA
HETATM   12  C20 UNL     1     -26.851  33.943 -30.887  1.00  0.00     0.210 C 
ENDBRANCH   8  11
ENDBRANCH   1   2
BRANCH   1  13
HETATM   13  C8  UNL     1     -23.837  35.111 -34.470  1.00  0.00    -0.061 C 
BRANCH  13  14
HETATM   14  C9  UNL     1     -23.286  34.758 -35.736  1.00  0.00     0.301 C 
HETATM   15  O2  UNL     1     -23.140  35.714 -36.589  1.00  0.00    -0.274 OA
BRANCH  14  16
HETATM   16  C10 UNL     1     -22.841  33.440 -36.264  1.00  0.00     0.463 C 
HETATM   17  F1  UNL     1     -23.893  32.608 -36.596  1.00  0.00    -0.163 F 
HETATM   18  F2  UNL     1     -22.093  32.861 -35.228  1.00  0.00    -0.163 F 
HETATM   19  F3  UNL     1     -22.011  33.543 -37.347  1.00  0.00    -0.163 F 
ENDBRANCH  14  16
ENDBRANCH  13  14
ENDBRANCH   1  13
BRANCH   1  20
HETATM   20  C11 UNL     1     -23.483  35.786 -32.152  1.00  0.00     0.049 C 
BRANCH  20  21
HETATM   21  C12 UNL     1     -22.557  34.698 -31.760  1.00  0.00     0.010 C 
BRANCH  21  22
HETATM   22  C13 UNL     1     -21.225  35.331 -31.280  1.00  0.00    -0.014 C 
HETATM   23  C14 UNL     1     -20.788  36.272 -32.340  1.00  0.00     0.004 C 
HETATM   24  C15 UNL     1     -19.348  36.633 -32.378  1.00  0.00     0.000 C 
HETATM   25  C16 UNL     1     -18.510  35.970 -31.298  1.00  0.00     0.000 C 
HETATM   26  C17 UNL     1     -18.846  34.495 -31.394  1.00  0.00     0.000 C 
HETATM   27  C18 UNL     1     -20.250  34.217 -30.982  1.00  0.00     0.004 C 
ENDBRANCH  21  22
ENDBRANCH  20  21
ENDBRANCH   1  20
TORSDOF 9
ENDMDL
MODEL 5
REMARK VINA RESULT: -9.003299881      3.952      7.517
REMARK  9 active torsions:
REMARK  status: ('A' for Active; 'I' for Inactive)
REMARK    1  A    between atoms: O1_2  and  C2_3 
REMARK    2  A    between atoms: C6_7  and  C7_8 
REMARK    3  A    between atoms: C7_8  and  C8_9 
REMARK    4  A    between atoms: C7_8  and  C11_16 
REMARK    5  A    between atoms: C8_9  and  C9_10 
REMARK    6  A    between atoms: C9_10  and  C10_12 
REMARK    7  A    between atoms: C11_16  and  C12_17 
REMARK    8  A    between atoms: C12_17  and  C13_18 
REMARK    9  A    between atoms: C19_24  and  O3_25 
ROOT
HETATM    1  C7  UNL     1     -23.134  35.608 -32.842  1.00  0.00     0.005 C 
ENDROOT
BRANCH   1   2
HETATM    2  C6  UNL     1     -24.608  35.305 -33.152  1.00  0.00     0.018 A 
HETATM    3  C4  UNL     1     -24.938  34.747 -34.328  1.00  0.00    -0.045 A 
HETATM    4  C3  UNL     1     -26.264  34.334 -34.583  1.00  0.00     0.044 A 
HETATM    5  C5  UNL     1     -24.027  34.580 -35.470  1.00  0.00     0.049 C 
HETATM    6  C2  UNL     1     -27.223  34.510 -33.616  1.00  0.00     0.071 A 
HETATM    7  C21 UNL     1     -26.898  35.076 -32.418  1.00  0.00     0.074 A 
HETATM    8  C19 UNL     1     -25.552  35.486 -32.174  1.00  0.00     0.082 A 
BRANCH   6   9
HETATM    9  O1  UNL     1     -28.542  34.103 -33.875  1.00  0.00    -0.356 OA
HETATM   10  C1  UNL     1     -28.829  33.373 -35.039  1.00  0.00     0.210 C 
ENDBRANCH   6   9
BRANCH   8  11
HETATM   11  O3  UNL     1     -25.342  36.026 -30.940  1.00  0.00    -0.355 OA
HETATM   12  C20 UNL     1     -26.212  35.849 -29.872  1.00  0.00     0.210 C 
ENDBRANCH   8  11
ENDBRANCH   1   2
BRANCH   1  13
HETATM   13  C8  UNL     1     -22.772  36.693 -33.210  1.00  0.00    -0.061 C 
BRANCH  13  14
HETATM   14  C9  UNL     1     -22.371  37.901 -33.853  1.00  0.00     0.301 C 
HETATM   15  O2  UNL     1     -21.382  38.536 -33.322  1.00  0.00    -0.274 OA
BRANCH  14  16
HETATM   16  C10 UNL     1     -22.912  38.581 -35.060  1.00  0.00     0.463 C 
HETATM   17  F1  UNL     1     -24.255  38.888 -34.951  1.00  0.00    -0.163 F 
HETATM   18  F2  UNL     1     -22.723  37.671 -36.112  1.00  0.00    -0.163 F 
HETATM   19  F3  UNL     1     -22.231  39.720 -35.391  1.00  0.00    -0.163 F 
ENDBRANCH  14  16
ENDBRANCH  13  14
ENDBRANCH   1  13
BRANCH   1  20
HETATM   20  C11 UNL     1     -22.441  34.553 -32.086  1.00  0.00     0.049 C 
BRANCH  20  21
HETATM   21  C12 UNL     1     -21.425  33.796 -32.855  1.00  0.00     0.010 C 
BRANCH  21  22
HETATM   22  C13 UNL     1     -20.023  34.129 -32.283  1.00  0.00    -0.014 C 
HETATM   23  C14 UNL     1     -20.162  34.187 -30.807  1.00  0.00     0.004 C 
HETATM   24  C15 UNL     1     -19.131  34.949 -30.056  1.00  0.00     0.000 C 
HETATM   25  C16 UNL     1     -18.056  35.573 -30.930  1.00  0.00     0.000 C 
HETATM   26  C17 UNL     1     -18.815  36.328 -32.003  1.00  0.00     0.000 C 
HETATM   27  C18 UNL     1     -19.539  35.408 -32.924  1.00  0.00     0.004 C 
ENDBRANCH  21  22
ENDBRANCH  20  21
ENDBRANCH   1  20
TORSDOF 9
ENDMDL
