MODEL 1
REMARK VINA RESULT: -7.340559219      0.000      0.000
REMARK  6 active torsions:
REMARK  status: ('A' for Active; 'I' for Inactive)
REMARK    1  A    between atoms: N1_2  and  C2_3 
REMARK    2  A    between atoms: N1_2  and  S1_7 
REMARK    3  A    between atoms: C2_3  and  C3_4 
REMARK    4  A    between atoms: S1_7  and  N2_10 
REMARK    5  A    between atoms: N2_10  and  C6_12 
REMARK    6  A    between atoms: C14_20  and  C15_21 
ROOT
HETATM    1  C6  UNL     1      18.106 -13.735  23.100  1.00  0.00     0.102 C 
HETATM    2  C7  UNL     1      18.064 -13.726  24.592  1.00  0.00     0.010 C 
HETATM    3  C8  UNL     1      17.781 -15.066  25.209  1.00  0.00     0.007 C 
HETATM    4  C9  UNL     1      18.384 -16.219  24.490  1.00  0.00     0.005 C 
HETATM    5  C10 UNL     1      19.792 -16.000  24.027  1.00  0.00    -0.013 C 
HETATM    6  C11 UNL     1      19.768 -15.551  22.592  1.00  0.00     0.011 C 
HETATM    7  C12 UNL     1      19.458 -14.079  22.528  1.00  0.00     0.011 C 
HETATM    8  C13 UNL     1      20.589 -13.359  23.209  1.00  0.00     0.025 C 
HETATM    9  C14 UNL     1      20.535 -13.669  24.665  1.00  0.00     0.040 C 
HETATM   10  C16 UNL     1      20.582 -15.143  24.942  1.00  0.00     0.023 C 
HETATM   11  C17 UNL     1      19.268 -13.061  25.222  1.00  0.00     0.025 C 
ENDROOT
BRANCH   1  12
HETATM   12  N2  UNL     1      17.781 -12.401  22.630  1.00  0.00    -0.297 N 
ATOM     13  H2  UNL     1      18.236 -11.538  22.929  1.00  0.00     0.174 HD
BRANCH  12  14
HETATM   14  S1  UNL     1      16.482 -12.515  21.467  1.00  0.00     0.320 S 
HETATM   15  O1  UNL     1      16.288 -13.975  21.161  1.00  0.00    -0.182 OA
HETATM   16  O2  UNL     1      15.195 -12.011  22.129  1.00  0.00    -0.182 OA
BRANCH  14  17
HETATM   17  N1  UNL     1      16.885 -11.559  20.135  1.00  0.00    -0.278 N 
HETATM   18  C1  UNL     1      16.351 -11.904  18.882  1.00  0.00     0.170 C 
BRANCH  17  19
HETATM   19  C2  UNL     1      18.175 -10.996  20.202  1.00  0.00     0.081 C 
BRANCH  19  20
HETATM   20  C3  UNL     1      19.305 -11.860  19.715  1.00  0.00     0.025 A 
HETATM   21  C4  UNL     1      20.258 -11.386  18.677  1.00  0.00     0.010 A 
HETATM   22  C5  UNL     1      20.720 -11.379  20.108  1.00  0.00     0.010 A 
ENDBRANCH  19  20
ENDBRANCH  17  19
ENDBRANCH  14  17
ENDBRANCH  12  14
ENDBRANCH   1  12
BRANCH   9  23
HETATM   23  C15 UNL     1      21.695 -13.051  25.342  1.00  0.00     0.239 C 
HETATM   24  N3  UNL     1      22.793 -12.527  24.612  1.00  0.00    -0.061 NA
HETATM   25  O3  UNL     1      21.714 -12.985  26.589  1.00  0.00    -0.276 OA
ENDBRANCH   9  23
TORSDOF 6
ENDMDL
MODEL 2
REMARK VINA RESULT: -7.293691871      2.631      3.632
REMARK  6 active torsions:
REMARK  status: ('A' for Active; 'I' for Inactive)
REMARK    1  A    between atoms: N1_2  and  C2_3 
REMARK    2  A    between atoms: N1_2  and  S1_7 
REMARK    3  A    between atoms: C2_3  and  C3_4 
REMARK    4  A    between atoms: S1_7  and  N2_10 
REMARK    5  A    between atoms: N2_10  and  C6_12 
REMARK    6  A    between atoms: C14_20  and  C15_21 
ROOT
HETATM    1  C6  UNL     1      18.256 -12.928  21.611  1.00  0.00     0.102 C 
HETATM    2  C7  UNL     1      18.167 -13.216  23.073  1.00  0.00     0.010 C 
HETATM    3  C8  UNL     1      17.868 -14.650  23.403  1.00  0.00     0.007 C 
HETATM    4  C9  UNL     1      18.495 -15.641  22.488  1.00  0.00     0.005 C 
HETATM    5  C10 UNL     1      19.917 -15.339  22.122  1.00  0.00    -0.013 C 
HETATM    6  C11 UNL     1      19.937 -14.614  20.805  1.00  0.00     0.011 C 
HETATM    7  C12 UNL     1      19.626 -13.157  21.024  1.00  0.00     0.011 C 
HETATM    8  C13 UNL     1      20.734 -12.592  21.870  1.00  0.00     0.025 C 
HETATM    9  C14 UNL     1      20.634 -13.185  23.233  1.00  0.00     0.040 C 
HETATM   10  C16 UNL     1      20.676 -14.685  23.213  1.00  0.00     0.023 C 
HETATM   11  C17 UNL     1      19.350 -12.694  23.860  1.00  0.00     0.025 C 
ENDROOT
BRANCH   1  12
HETATM   12  N2  UNL     1      17.943 -11.526  21.405  1.00  0.00    -0.297 N 
ATOM     13  H2  UNL     1      18.479 -10.738  21.770  1.00  0.00     0.174 HD
BRANCH  12  14
HETATM   14  S1  UNL     1      16.498 -11.409  20.430  1.00  0.00     0.320 S 
HETATM   15  O1  UNL     1      16.617 -10.153  19.611  1.00  0.00    -0.182 OA
HETATM   16  O2  UNL     1      16.476 -12.591  19.455  1.00  0.00    -0.182 OA
BRANCH  14  17
HETATM   17  N1  UNL     1      15.163 -11.459  21.462  1.00  0.00    -0.278 N 
HETATM   18  C1  UNL     1      14.514 -12.691  21.653  1.00  0.00     0.170 C 
BRANCH  17  19
HETATM   19  C2  UNL     1      14.404 -10.272  21.476  1.00  0.00     0.081 C 
BRANCH  19  20
HETATM   20  C3  UNL     1      12.910 -10.438  21.517  1.00  0.00     0.025 A 
HETATM   21  C4  UNL     1      12.117 -10.065  22.718  1.00  0.00     0.010 A 
HETATM   22  C5  UNL     1      12.101  -9.121  21.546  1.00  0.00     0.010 A 
ENDBRANCH  19  20
ENDBRANCH  17  19
ENDBRANCH  14  17
ENDBRANCH  12  14
ENDBRANCH   1  12
BRANCH   9  23
HETATM   23  C15 UNL     1      21.771 -12.718  24.055  1.00  0.00     0.239 C 
HETATM   24  N3  UNL     1      23.103 -13.124  23.785  1.00  0.00    -0.061 NA
HETATM   25  O3  UNL     1      21.559 -11.946  25.013  1.00  0.00    -0.276 OA
ENDBRANCH   9  23
TORSDOF 6
ENDMDL
MODEL 3
REMARK VINA RESULT: -7.012221957      4.029      5.758
REMARK  6 active torsions:
REMARK  status: ('A' for Active; 'I' for Inactive)
REMARK    1  A    between atoms: N1_2  and  C2_3 
REMARK    2  A    between atoms: N1_2  and  S1_7 
REMARK    3  A    between atoms: C2_3  and  C3_4 
REMARK    4  A    between atoms: S1_7  and  N2_10 
REMARK    5  A    between atoms: N2_10  and  C6_12 
REMARK    6  A    between atoms: C14_20  and  C15_21 
ROOT
HETATM    1  C6  UNL     1      15.830 -11.571  20.755  1.00  0.00     0.102 C 
HETATM    2  C7  UNL     1      16.738 -11.709  21.932  1.00  0.00     0.010 C 
HETATM    3  C8  UNL     1      16.583 -13.001  22.683  1.00  0.00     0.007 C 
HETATM    4  C9  UNL     1      16.290 -14.182  21.829  1.00  0.00     0.005 C 
HETATM    5  C10 UNL     1      17.093 -14.255  20.565  1.00  0.00    -0.013 C 
HETATM    6  C11 UNL     1      16.286 -13.665  19.442  1.00  0.00     0.011 C 
HETATM    7  C12 UNL     1      16.383 -12.163  19.483  1.00  0.00     0.011 C 
HETATM    8  C13 UNL     1      17.824 -11.806  19.242  1.00  0.00     0.025 C 
HETATM    9  C14 UNL     1      18.620 -12.246  20.422  1.00  0.00     0.040 C 
HETATM   10  C16 UNL     1      18.462 -13.710  20.711  1.00  0.00     0.023 C 
HETATM   11  C17 UNL     1      18.187 -11.418  21.610  1.00  0.00     0.025 C 
ENDROOT
BRANCH   1  12
HETATM   12  N2  UNL     1      15.627 -10.156  20.503  1.00  0.00    -0.297 N 
ATOM     13  H2  UNL     1      16.363  -9.451  20.447  1.00  0.00     0.174 HD
BRANCH  12  14
HETATM   14  S1  UNL     1      13.916  -9.858  20.311  1.00  0.00     0.320 S 
HETATM   15  O1  UNL     1      13.758  -8.414  19.923  1.00  0.00    -0.182 OA
HETATM   16  O2  UNL     1      13.406 -10.705  19.141  1.00  0.00    -0.182 OA
BRANCH  14  17
HETATM   17  N1  UNL     1      13.144 -10.295  21.748  1.00  0.00    -0.278 N 
HETATM   18  C1  UNL     1      12.227 -11.359  21.715  1.00  0.00     0.170 C 
BRANCH  17  19
HETATM   19  C2  UNL     1      12.915  -9.217  22.627  1.00  0.00     0.081 C 
BRANCH  19  20
HETATM   20  C3  UNL     1      11.532  -9.113  23.207  1.00  0.00     0.025 A 
HETATM   21  C4  UNL     1      11.216  -9.632  24.565  1.00  0.00     0.010 A 
HETATM   22  C5  UNL     1      11.390  -8.146  24.405  1.00  0.00     0.010 A 
ENDBRANCH  19  20
ENDBRANCH  17  19
ENDBRANCH  14  17
ENDBRANCH  12  14
ENDBRANCH   1  12
BRANCH   9  23
HETATM   23  C15 UNL     1      20.055 -11.994  20.166  1.00  0.00     0.239 C 
HETATM   24  N3  UNL     1      20.510 -11.450  18.938  1.00  0.00    -0.061 NA
HETATM   25  O3  UNL     1      20.893 -12.266  21.052  1.00  0.00    -0.276 OA
ENDBRANCH   9  23
TORSDOF 6
ENDMDL
MODEL 4
REMARK VINA RESULT: -6.861780374      2.466      6.539
REMARK  6 active torsions:
REMARK  status: ('A' for Active; 'I' for Inactive)
REMARK    1  A    between atoms: N1_2  and  C2_3 
REMARK    2  A    between atoms: N1_2  and  S1_7 
REMARK    3  A    between atoms: C2_3  and  C3_4 
REMARK    4  A    between atoms: S1_7  and  N2_10 
REMARK    5  A    between atoms: N2_10  and  C6_12 
REMARK    6  A    between atoms: C14_20  and  C15_21 
ROOT
HETATM    1  C6  UNL     1      17.154 -13.064  21.353  1.00  0.00     0.102 C 
HETATM    2  C7  UNL     1      17.055 -11.576  21.405  1.00  0.00     0.010 C 
HETATM    3  C8  UNL     1      17.550 -10.880  20.170  1.00  0.00     0.007 C 
HETATM    4  C9  UNL     1      17.268 -11.598  18.899  1.00  0.00     0.005 C 
HETATM    5  C10 UNL     1      15.893 -12.190  18.808  1.00  0.00    -0.013 C 
HETATM    6  C11 UNL     1      15.957 -13.635  19.217  1.00  0.00     0.011 C 
HETATM    7  C12 UNL     1      15.961 -13.735  20.720  1.00  0.00     0.011 C 
HETATM    8  C13 UNL     1      14.648 -13.184  21.203  1.00  0.00     0.025 C 
HETATM    9  C14 UNL     1      14.630 -11.717  20.945  1.00  0.00     0.040 C 
HETATM   10  C16 UNL     1      14.862 -11.383  19.501  1.00  0.00     0.023 C 
HETATM   11  C17 UNL     1      15.686 -11.080  21.818  1.00  0.00     0.025 C 
ENDROOT
BRANCH   1  12
HETATM   12  N2  UNL     1      17.239 -13.561  22.714  1.00  0.00    -0.297 N 
ATOM     13  H2  UNL     1      16.570 -13.368  23.459  1.00  0.00     0.174 HD
BRANCH  12  14
HETATM   14  S1  UNL     1      18.675 -14.545  22.865  1.00  0.00     0.320 S 
HETATM   15  O1  UNL     1      18.434 -15.804  22.079  1.00  0.00    -0.182 OA
HETATM   16  O2  UNL     1      19.840 -13.806  22.200  1.00  0.00    -0.182 OA
BRANCH  14  17
HETATM   17  N1  UNL     1      18.976 -14.783  24.510  1.00  0.00    -0.278 N 
HETATM   18  C1  UNL     1      17.877 -14.899  25.378  1.00  0.00     0.170 C 
BRANCH  17  19
HETATM   19  C2  UNL     1      20.156 -14.166  24.972  1.00  0.00     0.081 C 
BRANCH  19  20
HETATM   20  C3  UNL     1      20.038 -12.723  25.377  1.00  0.00     0.025 A 
HETATM   21  C4  UNL     1      20.790 -12.175  26.537  1.00  0.00     0.010 A 
HETATM   22  C5  UNL     1      21.309 -11.871  25.159  1.00  0.00     0.010 A 
ENDBRANCH  19  20
ENDBRANCH  17  19
ENDBRANCH  14  17
ENDBRANCH  12  14
ENDBRANCH   1  12
BRANCH   9  23
HETATM   23  C15 UNL     1      13.309 -11.169  21.323  1.00  0.00     0.239 C 
HETATM   24  N3  UNL     1      13.183 -10.070  22.209  1.00  0.00    -0.061 NA
HETATM   25  O3  UNL     1      12.274 -11.684  20.851  1.00  0.00    -0.276 OA
ENDBRANCH   9  23
TORSDOF 6
ENDMDL
MODEL 5
REMARK VINA RESULT: -6.753209131      2.426      3.508
REMARK  6 active torsions:
REMARK  status: ('A' for Active; 'I' for Inactive)
REMARK    1  A    between atoms: N1_2  and  C2_3 
REMARK    2  A    between atoms: N1_2  and  S1_7 
REMARK    3  A    between atoms: C2_3  and  C3_4 
REMARK    4  A    between atoms: S1_7  and  N2_10 
REMARK    5  A    between atoms: N2_10  and  C6_12 
REMARK    6  A    between atoms: C14_20  and  C15_21 
ROOT
HETATM    1  C6  UNL     1      18.216 -12.732  21.554  1.00  0.00     0.102 C 
HETATM    2  C7  UNL     1      18.120 -13.082  23.001  1.00  0.00     0.010 C 
HETATM    3  C8  UNL     1      17.788 -14.522  23.267  1.00  0.00     0.007 C 
HETATM    4  C9  UNL     1      18.394 -15.485  22.310  1.00  0.00     0.005 C 
HETATM    5  C10 UNL     1      19.823 -15.199  21.957  1.00  0.00    -0.013 C 
HETATM    6  C11 UNL     1      19.860 -14.418  20.673  1.00  0.00     0.011 C 
HETATM    7  C12 UNL     1      19.581 -12.965  20.957  1.00  0.00     0.011 C 
HETATM    8  C13 UNL     1      20.700 -12.462  21.827  1.00  0.00     0.025 C 
HETATM    9  C14 UNL     1      20.586 -13.112  23.162  1.00  0.00     0.040 C 
HETATM   10  C16 UNL     1      20.595 -14.611  23.076  1.00  0.00     0.023 C 
HETATM   11  C17 UNL     1      19.313 -12.622  23.811  1.00  0.00     0.025 C 
ENDROOT
BRANCH   1  12
HETATM   12  N2  UNL     1      17.935 -11.315  21.410  1.00  0.00    -0.297 N 
ATOM     13  H2  UNL     1      18.317 -10.572  21.995  1.00  0.00     0.174 HD
BRANCH  12  14
HETATM   14  S1  UNL     1      16.834 -11.093  20.071  1.00  0.00     0.320 S 
HETATM   15  O1  UNL     1      16.305  -9.688  20.161  1.00  0.00    -0.182 OA
HETATM   16  O2  UNL     1      17.631 -11.199  18.767  1.00  0.00    -0.182 OA
BRANCH  14  17
HETATM   17  N1  UNL     1      15.657 -12.301  20.155  1.00  0.00    -0.278 N 
HETATM   18  C1  UNL     1      15.892 -13.508  19.475  1.00  0.00     0.170 C 
BRANCH  17  19
HETATM   19  C2  UNL     1      14.339 -11.812  20.252  1.00  0.00     0.081 C 
BRANCH  19  20
HETATM   20  C3  UNL     1      13.762 -11.723  21.637  1.00  0.00     0.025 A 
HETATM   21  C4  UNL     1      12.853 -10.615  22.034  1.00  0.00     0.010 A 
HETATM   22  C5  UNL     1      12.237 -11.953  21.733  1.00  0.00     0.010 A 
ENDBRANCH  19  20
ENDBRANCH  17  19
ENDBRANCH  14  17
ENDBRANCH  12  14
ENDBRANCH   1  12
BRANCH   9  23
HETATM   23  C15 UNL     1      21.733 -12.708  24.004  1.00  0.00     0.239 C 
HETATM   24  N3  UNL     1      21.555 -11.982  25.209  1.00  0.00    -0.061 NA
HETATM   25  O3  UNL     1      22.891 -13.012  23.650  1.00  0.00    -0.276 OA
ENDBRANCH   9  23
TORSDOF 6
ENDMDL
