MODEL 1
REMARK VINA RESULT: -7.566839041      0.000      0.000
REMARK  8 active torsions:
REMARK  status: ('A' for Active; 'I' for Inactive)
REMARK    1  A    between atoms: N1_2  and  C3_4 
REMARK    2  A    between atoms: C3_4  and  C4_5 
REMARK       I    between atoms: C4_5  and  N2_7 
REMARK    3  A    between atoms: C5_9  and  N3_10 
REMARK    4  A    between atoms: C5_9  and  O2_18 
REMARK    5  A    between atoms: N3_10  and  C6_12 
REMARK    6  A    between atoms: C6_12  and  C7_13 
REMARK    7  A    between atoms: C7_13  and  N4_14 
REMARK    8  A    between atoms: O2_18  and  C11_19 
ROOT
HETATM    1  C4  UNL     1      14.307  -9.798  20.753  1.00  0.00     0.253 C 
HETATM    2  O1  UNL     1      14.537  -8.595  20.508  1.00  0.00    -0.271 OA
HETATM    3  N2  UNL     1      15.314 -10.764  20.740  1.00  0.00    -0.291 N 
ATOM      4  H2  UNL     1      15.574 -11.171  21.638  1.00  0.00     0.172 HD
HETATM    5  C5  UNL     1      15.927 -11.177  19.738  1.00  0.00     0.222 C 
ENDROOT
BRANCH   5   6
HETATM    6  N3  UNL     1      15.713 -10.734  18.392  1.00  0.00    -0.354 N 
ATOM      7  H3  UNL     1      15.197  -9.875  18.198  1.00  0.00     0.163 HD
BRANCH   6   8
HETATM    8  C6  UNL     1      16.250 -11.540  17.316  1.00  0.00     0.151 C 
BRANCH   8   9
HETATM    9  C7  UNL     1      16.791 -10.785  16.160  1.00  0.00     0.255 C 
BRANCH   9  10
HETATM   10  N4  UNL     1      16.060 -10.810  14.942  1.00  0.00    -0.077 N 
HETATM   11  C8  UNL     1      14.897 -11.713  15.069  1.00  0.00     0.271 C 
HETATM   12  C9  UNL     1      15.532  -9.474  14.693  1.00  0.00     0.271 C 
HETATM   13  C10 UNL     1      16.780 -11.205  13.772  1.00  0.00     0.271 C 
ENDBRANCH   9  10
ENDBRANCH   8   9
ENDBRANCH   6   8
ENDBRANCH   5   6
BRANCH   5  14
HETATM   14  O2  UNL     1      16.908 -12.164  19.981  1.00  0.00    -0.316 OA
BRANCH  14  15
HETATM   15  C11 UNL     1      17.882 -12.015  20.998  1.00  0.00     0.141 C 
HETATM   16  C12 UNL     1      18.905 -11.028  20.526  1.00  0.00     0.034 C 
HETATM   17  C13 UNL     1      20.051 -11.833  19.971  1.00  0.00     0.009 C 
HETATM   18  C14 UNL     1      19.815 -13.246  20.397  1.00  0.00     0.005 A 
HETATM   19  C15 UNL     1      19.811 -13.547  21.881  1.00  0.00    -0.033 A 
HETATM   20  C18 UNL     1      18.564 -13.346  21.155  1.00  0.00    -0.006 A 
HETATM   21  C16 UNL     1      20.368 -12.517  22.835  1.00  0.00     0.016 C 
HETATM   22  C17 UNL     1      20.167 -14.991  22.193  1.00  0.00     0.016 C 
HETATM   23  C19 UNL     1      17.626 -14.535  21.001  1.00  0.00     0.019 C 
ENDBRANCH  14  15
ENDBRANCH   5  14
BRANCH   1  24
HETATM   24  C3  UNL     1      12.908 -10.194  21.070  1.00  0.00     0.373 C 
BRANCH  24  25
HETATM   25  N1  UNL     1      12.629 -10.308  22.474  1.00  0.00     0.088 N 
HETATM   26  C1  UNL     1      11.598 -11.329  22.628  1.00  0.00     0.310 C 
HETATM   27  C2  UNL     1      12.062  -9.082  22.985  1.00  0.00     0.310 C 
ENDBRANCH  24  25
ENDBRANCH   1  24
TORSDOF 8
ENDMDL
MODEL 2
REMARK VINA RESULT: -7.235182531      1.051      1.966
REMARK  8 active torsions:
REMARK  status: ('A' for Active; 'I' for Inactive)
REMARK    1  A    between atoms: N1_2  and  C3_4 
REMARK    2  A    between atoms: C3_4  and  C4_5 
REMARK       I    between atoms: C4_5  and  N2_7 
REMARK    3  A    between atoms: C5_9  and  N3_10 
REMARK    4  A    between atoms: C5_9  and  O2_18 
REMARK    5  A    between atoms: N3_10  and  C6_12 
REMARK    6  A    between atoms: C6_12  and  C7_13 
REMARK    7  A    between atoms: C7_13  and  N4_14 
REMARK    8  A    between atoms: O2_18  and  C11_19 
ROOT
HETATM    1  C4  UNL     1      14.275  -9.305  20.703  1.00  0.00     0.253 C 
HETATM    2  O1  UNL     1      13.760  -8.495  19.903  1.00  0.00    -0.271 OA
HETATM    3  N2  UNL     1      15.558  -9.820  20.514  1.00  0.00    -0.291 N 
ATOM      4  H2  UNL     1      16.277  -9.517  21.170  1.00  0.00     0.172 HD
HETATM    5  C5  UNL     1      15.911 -10.614  19.621  1.00  0.00     0.222 C 
ENDROOT
BRANCH   5   6
HETATM    6  N3  UNL     1      15.056 -11.155  18.606  1.00  0.00    -0.354 N 
ATOM      7  H3  UNL     1      14.051 -11.241  18.757  1.00  0.00     0.163 HD
BRANCH   6   8
HETATM    8  C6  UNL     1      15.662 -11.575  17.359  1.00  0.00     0.151 C 
BRANCH   8   9
HETATM    9  C7  UNL     1      15.014 -11.059  16.129  1.00  0.00     0.255 C 
BRANCH   9  10
HETATM   10  N4  UNL     1      15.846 -10.552  15.096  1.00  0.00    -0.077 N 
HETATM   11  C8  UNL     1      15.238  -9.342  14.505  1.00  0.00     0.271 C 
HETATM   12  C9  UNL     1      17.116 -10.141  15.685  1.00  0.00     0.271 C 
HETATM   13  C10 UNL     1      16.149 -11.446  14.022  1.00  0.00     0.271 C 
ENDBRANCH   9  10
ENDBRANCH   8   9
ENDBRANCH   6   8
ENDBRANCH   5   6
BRANCH   5  14
HETATM   14  O2  UNL     1      17.272 -10.992  19.639  1.00  0.00    -0.316 OA
BRANCH  14  15
HETATM   15  C11 UNL     1      17.682 -12.293  20.020  1.00  0.00     0.141 C 
HETATM   16  C12 UNL     1      16.615 -12.885  20.888  1.00  0.00     0.034 C 
HETATM   17  C13 UNL     1      17.052 -12.663  22.313  1.00  0.00     0.009 C 
HETATM   18  C14 UNL     1      18.480 -12.226  22.249  1.00  0.00     0.005 A 
HETATM   19  C15 UNL     1      19.492 -13.196  21.678  1.00  0.00    -0.033 A 
HETATM   20  C18 UNL     1      18.923 -12.138  20.854  1.00  0.00    -0.006 A 
HETATM   21  C16 UNL     1      19.104 -14.646  21.518  1.00  0.00     0.016 C 
HETATM   22  C17 UNL     1      20.902 -12.947  22.188  1.00  0.00     0.016 C 
HETATM   23  C19 UNL     1      19.847 -11.028  20.375  1.00  0.00     0.019 C 
ENDBRANCH  14  15
ENDBRANCH   5  14
BRANCH   1  24
HETATM   24  C3  UNL     1      13.480  -9.719  21.890  1.00  0.00     0.373 C 
BRANCH  24  25
HETATM   25  N1  UNL     1      12.515 -10.749  21.628  1.00  0.00     0.088 N 
HETATM   26  C1  UNL     1      11.511 -10.679  22.684  1.00  0.00     0.310 C 
HETATM   27  C2  UNL     1      13.120 -12.056  21.732  1.00  0.00     0.310 C 
ENDBRANCH  24  25
ENDBRANCH   1  24
TORSDOF 8
ENDMDL
MODEL 3
REMARK VINA RESULT: -6.767201587      3.034      4.752
REMARK  8 active torsions:
REMARK  status: ('A' for Active; 'I' for Inactive)
REMARK    1  A    between atoms: N1_2  and  C3_4 
REMARK    2  A    between atoms: C3_4  and  C4_5 
REMARK       I    between atoms: C4_5  and  N2_7 
REMARK    3  A    between atoms: C5_9  and  N3_10 
REMARK    4  A    between atoms: C5_9  and  O2_18 
REMARK    5  A    between atoms: N3_10  and  C6_12 
REMARK    6  A    between atoms: C6_12  and  C7_13 
REMARK    7  A    between atoms: C7_13  and  N4_14 
REMARK    8  A    between atoms: O2_18  and  C11_19 
ROOT
HETATM    1  C4  UNL     1      15.846 -10.438  20.397  1.00  0.00     0.253 C 
HETATM    2  O1  UNL     1      16.255 -10.373  19.218  1.00  0.00    -0.271 OA
HETATM    3  N2  UNL     1      16.542 -11.135  21.385  1.00  0.00    -0.291 N 
ATOM      4  H2  UNL     1      16.979 -10.579  22.119  1.00  0.00     0.172 HD
HETATM    5  C5  UNL     1      16.681 -12.370  21.459  1.00  0.00     0.222 C 
ENDROOT
BRANCH   5   6
HETATM    6  N3  UNL     1      16.147 -13.323  20.531  1.00  0.00    -0.354 N 
ATOM      7  H3  UNL     1      15.997 -13.075  19.552  1.00  0.00     0.163 HD
BRANCH   6   8
HETATM    8  C6  UNL     1      15.828 -14.647  21.022  1.00  0.00     0.151 C 
BRANCH   8   9
HETATM    9  C7  UNL     1      16.767 -15.721  20.619  1.00  0.00     0.255 C 
BRANCH   9  10
HETATM   10  N4  UNL     1      16.910 -16.843  21.480  1.00  0.00    -0.077 N 
HETATM   11  C8  UNL     1      16.759 -16.422  22.888  1.00  0.00     0.271 C 
HETATM   12  C9  UNL     1      15.828 -17.780  21.201  1.00  0.00     0.271 C 
HETATM   13  C10 UNL     1      18.136 -17.572  21.381  1.00  0.00     0.271 C 
ENDBRANCH   9  10
ENDBRANCH   8   9
ENDBRANCH   6   8
ENDBRANCH   5   6
BRANCH   5  14
HETATM   14  O2  UNL     1      17.432 -12.839  22.560  1.00  0.00    -0.316 OA
BRANCH  14  15
HETATM   15  C11 UNL     1      18.815 -12.569  22.691  1.00  0.00     0.141 C 
HETATM   16  C12 UNL     1      19.492 -12.955  21.413  1.00  0.00     0.034 C 
HETATM   17  C13 UNL     1      20.055 -14.337  21.628  1.00  0.00     0.009 C 
HETATM   18  C14 UNL     1      19.962 -14.602  23.096  1.00  0.00     0.005 A 
HETATM   19  C15 UNL     1      20.753 -13.709  24.029  1.00  0.00    -0.033 A 
HETATM   20  C18 UNL     1      19.339 -13.464  23.780  1.00  0.00    -0.006 A 
HETATM   21  C16 UNL     1      21.841 -12.835  23.453  1.00  0.00     0.016 C 
HETATM   22  C17 UNL     1      21.083 -14.381  25.352  1.00  0.00     0.016 C 
HETATM   23  C19 UNL     1      18.365 -13.657  24.933  1.00  0.00     0.019 C 
ENDBRANCH  14  15
ENDBRANCH   5  14
BRANCH   1  24
HETATM   24  C3  UNL     1      14.577  -9.742  20.738  1.00  0.00     0.373 C 
BRANCH  24  25
HETATM   25  N1  UNL     1      13.742 -10.452  21.665  1.00  0.00     0.088 N 
HETATM   26  C1  UNL     1      12.965 -11.417  20.895  1.00  0.00     0.310 C 
HETATM   27  C2  UNL     1      12.785  -9.562  22.279  1.00  0.00     0.310 C 
ENDBRANCH  24  25
ENDBRANCH   1  24
TORSDOF 8
ENDMDL
MODEL 4
REMARK VINA RESULT: -6.668647122      3.044      4.305
REMARK  8 active torsions:
REMARK  status: ('A' for Active; 'I' for Inactive)
REMARK    1  A    between atoms: N1_2  and  C3_4 
REMARK    2  A    between atoms: C3_4  and  C4_5 
REMARK       I    between atoms: C4_5  and  N2_7 
REMARK    3  A    between atoms: C5_9  and  N3_10 
REMARK    4  A    between atoms: C5_9  and  O2_18 
REMARK    5  A    between atoms: N3_10  and  C6_12 
REMARK    6  A    between atoms: C6_12  and  C7_13 
REMARK    7  A    between atoms: C7_13  and  N4_14 
REMARK    8  A    between atoms: O2_18  and  C11_19 
ROOT
HETATM    1  C4  UNL     1      15.810 -10.453  20.410  1.00  0.00     0.253 C 
HETATM    2  O1  UNL     1      16.204 -10.410  19.225  1.00  0.00    -0.271 OA
HETATM    3  N2  UNL     1      16.510 -11.144  21.400  1.00  0.00    -0.291 N 
ATOM      4  H2  UNL     1      16.964 -10.583  22.120  1.00  0.00     0.172 HD
HETATM    5  C5  UNL     1      16.634 -12.380  21.490  1.00  0.00     0.222 C 
ENDROOT
BRANCH   5   6
HETATM    6  N3  UNL     1      16.076 -13.339  20.582  1.00  0.00    -0.354 N 
ATOM      7  H3  UNL     1      15.830 -13.077  19.627  1.00  0.00     0.163 HD
BRANCH   6   8
HETATM    8  C6  UNL     1      15.871 -14.690  21.061  1.00  0.00     0.151 C 
BRANCH   8   9
HETATM    9  C7  UNL     1      16.750 -15.721  20.459  1.00  0.00     0.255 C 
BRANCH   9  10
HETATM   10  N4  UNL     1      16.140 -16.853  19.855  1.00  0.00    -0.077 N 
HETATM   11  C8  UNL     1      17.084 -17.989  19.840  1.00  0.00     0.271 C 
HETATM   12  C9  UNL     1      15.004 -17.257  20.676  1.00  0.00     0.271 C 
HETATM   13  C10 UNL     1      15.657 -16.682  18.520  1.00  0.00     0.271 C 
ENDBRANCH   9  10
ENDBRANCH   8   9
ENDBRANCH   6   8
ENDBRANCH   5   6
BRANCH   5  14
HETATM   14  O2  UNL     1      17.393 -12.843  22.587  1.00  0.00    -0.316 OA
BRANCH  14  15
HETATM   15  C11 UNL     1      18.779 -12.576  22.704  1.00  0.00     0.141 C 
HETATM   16  C12 UNL     1      19.442 -12.969  21.420  1.00  0.00     0.034 C 
HETATM   17  C13 UNL     1      20.003 -14.351  21.635  1.00  0.00     0.009 C 
HETATM   18  C14 UNL     1      19.924 -14.611  23.105  1.00  0.00     0.005 A 
HETATM   19  C15 UNL     1      20.727 -13.717  24.026  1.00  0.00    -0.033 A 
HETATM   20  C18 UNL     1      19.311 -13.469  23.790  1.00  0.00    -0.006 A 
HETATM   21  C16 UNL     1      21.812 -12.847  23.436  1.00  0.00     0.016 C 
HETATM   22  C17 UNL     1      21.068 -14.385  25.348  1.00  0.00     0.016 C 
HETATM   23  C19 UNL     1      18.348 -13.655  24.954  1.00  0.00     0.019 C 
ENDBRANCH  14  15
ENDBRANCH   5  14
BRANCH   1  24
HETATM   24  C3  UNL     1      14.554  -9.735  20.758  1.00  0.00     0.373 C 
BRANCH  24  25
HETATM   25  N1  UNL     1      13.710 -10.434  21.686  1.00  0.00     0.088 N 
HETATM   26  C1  UNL     1      12.924 -11.393  20.917  1.00  0.00     0.310 C 
HETATM   27  C2  UNL     1      12.762  -9.532  22.296  1.00  0.00     0.310 C 
ENDBRANCH  24  25
ENDBRANCH   1  24
TORSDOF 8
ENDMDL
MODEL 5
REMARK VINA RESULT: -6.539993778      1.230      1.674
REMARK  8 active torsions:
REMARK  status: ('A' for Active; 'I' for Inactive)
REMARK    1  A    between atoms: N1_2  and  C3_4 
REMARK    2  A    between atoms: C3_4  and  C4_5 
REMARK       I    between atoms: C4_5  and  N2_7 
REMARK    3  A    between atoms: C5_9  and  N3_10 
REMARK    4  A    between atoms: C5_9  and  O2_18 
REMARK    5  A    between atoms: N3_10  and  C6_12 
REMARK    6  A    between atoms: C6_12  and  C7_13 
REMARK    7  A    between atoms: C7_13  and  N4_14 
REMARK    8  A    between atoms: O2_18  and  C11_19 
ROOT
HETATM    1  C4  UNL     1      14.881 -10.268  20.728  1.00  0.00     0.253 C 
HETATM    2  O1  UNL     1      15.254  -9.103  20.475  1.00  0.00    -0.271 OA
HETATM    3  N2  UNL     1      15.777 -11.267  21.109  1.00  0.00    -0.291 N 
ATOM      4  H2  UNL     1      15.717 -11.597  22.072  1.00  0.00     0.172 HD
HETATM    5  C5  UNL     1      16.643 -11.796  20.387  1.00  0.00     0.222 C 
ENDROOT
BRANCH   5   6
HETATM    6  N3  UNL     1      16.887 -11.475  19.012  1.00  0.00    -0.354 N 
ATOM      7  H3  UNL     1      17.643 -10.842  18.747  1.00  0.00     0.163 HD
BRANCH   6   8
HETATM    8  C6  UNL     1      16.030 -12.074  18.010  1.00  0.00     0.151 C 
BRANCH   8   9
HETATM    9  C7  UNL     1      15.389 -11.126  17.069  1.00  0.00     0.255 C 
BRANCH   9  10
HETATM   10  N4  UNL     1      15.799 -11.152  15.709  1.00  0.00    -0.077 N 
HETATM   11  C8  UNL     1      14.929 -10.271  14.901  1.00  0.00     0.271 C 
HETATM   12  C9  UNL     1      17.149 -10.607  15.622  1.00  0.00     0.271 C 
HETATM   13  C10 UNL     1      15.818 -12.432  15.072  1.00  0.00     0.271 C 
ENDBRANCH   9  10
ENDBRANCH   8   9
ENDBRANCH   6   8
ENDBRANCH   5   6
BRANCH   5  14
HETATM   14  O2  UNL     1      17.433 -12.792  21.005  1.00  0.00    -0.316 OA
BRANCH  14  15
HETATM   15  C11 UNL     1      18.720 -12.510  21.523  1.00  0.00     0.141 C 
HETATM   16  C12 UNL     1      19.739 -13.051  20.568  1.00  0.00     0.034 C 
HETATM   17  C13 UNL     1      20.154 -14.397  21.104  1.00  0.00     0.009 C 
HETATM   18  C14 UNL     1      19.607 -14.482  22.492  1.00  0.00     0.005 A 
HETATM   19  C15 UNL     1      20.111 -13.484  23.514  1.00  0.00    -0.033 A 
HETATM   20  C18 UNL     1      18.851 -13.267  22.815  1.00  0.00    -0.006 A 
HETATM   21  C16 UNL     1      21.357 -12.688  23.203  1.00  0.00     0.016 C 
HETATM   22  C17 UNL     1      19.995 -13.990  24.942  1.00  0.00     0.016 C 
HETATM   23  C19 UNL     1      17.565 -13.317  23.628  1.00  0.00     0.019 C 
ENDBRANCH  14  15
ENDBRANCH   5  14
BRANCH   1  24
HETATM   24  C3  UNL     1      13.430 -10.579  20.618  1.00  0.00     0.373 C 
BRANCH  24  25
HETATM   25  N1  UNL     1      12.777 -10.812  21.875  1.00  0.00     0.088 N 
HETATM   26  C1  UNL     1      11.956 -12.008  21.720  1.00  0.00     0.310 C 
HETATM   27  C2  UNL     1      11.866  -9.735  22.186  1.00  0.00     0.310 C 
ENDBRANCH  24  25
ENDBRANCH   1  24
TORSDOF 8
ENDMDL
