MODEL 1
REMARK VINA RESULT: -6.424660519      0.000      0.000
REMARK  10 active torsions:
REMARK  status: ('A' for Active; 'I' for Inactive)
REMARK    1  A    between atoms: S1_2  and  C2_3 
REMARK    2  A    between atoms: N3_9  and  S2_11 
REMARK    3  A    between atoms: S2_11  and  N4_14 
REMARK       I    between atoms: N4_14  and  C4_16 
REMARK    4  A    between atoms: C4_16  and  C5_18 
REMARK    5  A    between atoms: C5_18  and  C6_19 
REMARK    6  A    between atoms: C5_18  and  C7_24 
REMARK    7  A    between atoms: C6_19  and  N5_20 
REMARK    8  A    between atoms: C7_24  and  O4_25 
REMARK    9  A    between atoms: C7_24  and  O5_27 
REMARK   10  A    between atoms: O5_27  and  C8_28 
ROOT
HETATM    1  N4  UNL     1       8.084  12.015  -4.563  1.00  0.00    -0.237 N 
ATOM      2  H4  UNL     1       7.967  12.807  -3.931  1.00  0.00     0.183 HD
HETATM    3  C4  UNL     1       9.346  11.416  -4.754  1.00  0.00     0.242 C 
HETATM    4  O3  UNL     1       9.438  10.447  -5.548  1.00  0.00    -0.272 OA
ENDROOT
BRANCH   1   5
HETATM    5  S2  UNL     1       6.728  11.355  -5.442  1.00  0.00     0.327 S 
HETATM    6  O1  UNL     1       6.336  10.073  -4.765  1.00  0.00    -0.182 OA
HETATM    7  O2  UNL     1       5.570  12.337  -5.315  1.00  0.00    -0.182 OA
BRANCH   5   8
HETATM    8  N3  UNL     1       7.193  11.141  -7.070  1.00  0.00    -0.245 N 
HETATM    9  C3  UNL     1       6.334  10.712  -7.969  1.00  0.00     0.176 A 
HETATM   10  N2  UNL     1       5.049  10.393  -7.786  1.00  0.00    -0.278 N 
HETATM   11  S3  UNL     1       6.529  10.421  -9.643  1.00  0.00    -0.026 SA
HETATM   12  N1  UNL     1       4.371  10.000  -8.781  1.00  0.00    -0.286 N 
ATOM     13  H2  UNL     1       4.623  10.465  -6.862  1.00  0.00     0.189 HD
HETATM   14  C2  UNL     1       4.915   9.904  -9.975  1.00  0.00     0.129 A 
ATOM     15  H1  UNL     1       3.389   9.753  -8.655  1.00  0.00     0.188 HD
ATOM     16  H3  UNL     1       8.153  11.348  -7.350  1.00  0.00     0.182 HD
BRANCH  14  17
HETATM   17  S1  UNL     1       4.174   9.376 -11.534  1.00  0.00    -0.108 SA
HETATM   18  C1  UNL     1       5.313   8.107 -12.212  1.00  0.00     0.097 C 
ENDBRANCH  14  17
ENDBRANCH   5   8
ENDBRANCH   1   5
BRANCH   3  19
HETATM   19  C5  UNL     1      10.610  11.851  -4.071  1.00  0.00     0.159 C 
BRANCH  19  20
HETATM   20  C6  UNL     1      11.756  11.396  -4.909  1.00  0.00     0.248 C 
BRANCH  20  21
HETATM   21  N5  UNL     1      12.365  10.184  -4.449  1.00  0.00    -0.078 N 
ATOM     22  H53 UNL     1      11.654   9.485  -4.234  1.00  0.00     0.274 HD
ATOM     23  H52 UNL     1      12.847   9.710  -5.214  1.00  0.00     0.274 HD
ATOM     24  H51 UNL     1      12.992  10.313  -3.656  1.00  0.00     0.274 HD
ENDBRANCH  20  21
ENDBRANCH  19  20
BRANCH  19  25
HETATM   25  C7  UNL     1      10.668  11.329  -2.680  1.00  0.00     0.282 C 
BRANCH  25  26
HETATM   26  O4  UNL     1      10.060  10.056  -2.643  1.00  0.00    -0.370 OA
ATOM     27  H4  UNL     1       9.226  10.126  -2.192  1.00  0.00     0.212 HD
ENDBRANCH  25  26
BRANCH  25  28
HETATM   28  O5  UNL     1       9.936  12.148  -1.803  1.00  0.00    -0.274 OA
BRANCH  28  29
HETATM   29  C8  UNL     1       8.903  11.605  -1.004  1.00  0.00     0.375 C 
HETATM   30  N6  UNL     1       7.584  11.445  -1.506  1.00  0.00    -0.032 NA
HETATM   31  O6  UNL     1       9.193  11.267   0.178  1.00  0.00    -0.242 OA
ENDBRANCH  28  29
ENDBRANCH  25  28
ENDBRANCH  19  25
ENDBRANCH   3  19
TORSDOF 10
ENDMDL
MODEL 2
REMARK VINA RESULT: -6.178845050      4.128      5.879
REMARK  10 active torsions:
REMARK  status: ('A' for Active; 'I' for Inactive)
REMARK    1  A    between atoms: S1_2  and  C2_3 
REMARK    2  A    between atoms: N3_9  and  S2_11 
REMARK    3  A    between atoms: S2_11  and  N4_14 
REMARK       I    between atoms: N4_14  and  C4_16 
REMARK    4  A    between atoms: C4_16  and  C5_18 
REMARK    5  A    between atoms: C5_18  and  C6_19 
REMARK    6  A    between atoms: C5_18  and  C7_24 
REMARK    7  A    between atoms: C6_19  and  N5_20 
REMARK    8  A    between atoms: C7_24  and  O4_25 
REMARK    9  A    between atoms: C7_24  and  O5_27 
REMARK   10  A    between atoms: O5_27  and  C8_28 
ROOT
HETATM    1  N4  UNL     1      12.229  11.921  -1.852  1.00  0.00    -0.237 N 
ATOM      2  H4  UNL     1      12.997  11.267  -2.006  1.00  0.00     0.183 HD
HETATM    3  C4  UNL     1      11.746  12.183  -0.554  1.00  0.00     0.242 C 
HETATM    4  O3  UNL     1      10.793  12.991  -0.419  1.00  0.00    -0.272 OA
ENDROOT
BRANCH   1   5
HETATM    5  S2  UNL     1      11.470  12.750  -3.187  1.00  0.00     0.327 S 
HETATM    6  O1  UNL     1      11.931  14.179  -3.146  1.00  0.00    -0.182 OA
HETATM    7  O2  UNL     1      11.980  12.119  -4.476  1.00  0.00    -0.182 OA
BRANCH   5   8
HETATM    8  N3  UNL     1       9.779  12.585  -3.034  1.00  0.00    -0.245 N 
HETATM    9  C3  UNL     1       9.165  11.491  -3.434  1.00  0.00     0.176 A 
HETATM   10  N2  UNL     1       9.711  10.403  -3.987  1.00  0.00    -0.278 N 
HETATM   11  S3  UNL     1       7.509  11.066  -3.391  1.00  0.00    -0.026 SA
HETATM   12  N1  UNL     1       8.956   9.438  -4.306  1.00  0.00    -0.286 N 
ATOM     13  H2  UNL     1      10.717  10.352  -4.148  1.00  0.00     0.189 HD
HETATM   14  C2  UNL     1       7.658   9.499  -4.100  1.00  0.00     0.129 A 
ATOM     15  H1  UNL     1       9.359   8.602  -4.728  1.00  0.00     0.188 HD
ATOM     16  H3  UNL     1       9.234  13.346  -2.626  1.00  0.00     0.182 HD
BRANCH  14  17
HETATM   17  S1  UNL     1       6.381   8.275  -4.462  1.00  0.00    -0.108 SA
HETATM   18  C1  UNL     1       5.564   8.859  -5.997  1.00  0.00     0.097 C 
ENDBRANCH  14  17
ENDBRANCH   5   8
ENDBRANCH   1   5
BRANCH   3  19
HETATM   19  C5  UNL     1      12.290  11.566   0.701  1.00  0.00     0.159 C 
BRANCH  19  20
HETATM   20  C6  UNL     1      13.636  11.008   0.385  1.00  0.00     0.248 C 
BRANCH  20  21
HETATM   21  N5  UNL     1      14.485  10.858   1.529  1.00  0.00    -0.078 N 
ATOM     22  H53 UNL     1      13.997  11.146   2.377  1.00  0.00     0.274 HD
ATOM     23  H52 UNL     1      14.631   9.871   1.741  1.00  0.00     0.274 HD
ATOM     24  H51 UNL     1      15.378  11.344   1.446  1.00  0.00     0.274 HD
ENDBRANCH  20  21
ENDBRANCH  19  20
BRANCH  19  25
HETATM   25  C7  UNL     1      11.353  10.543   1.238  1.00  0.00     0.282 C 
BRANCH  25  26
HETATM   26  O4  UNL     1      10.433  11.174   2.102  1.00  0.00    -0.370 OA
ATOM     27  H4  UNL     1      10.821  11.245   2.967  1.00  0.00     0.212 HD
ENDBRANCH  25  26
BRANCH  25  28
HETATM   28  O5  UNL     1      12.037   9.588   2.010  1.00  0.00    -0.274 OA
BRANCH  28  29
HETATM   29  C8  UNL     1      11.880   9.550   3.415  1.00  0.00     0.375 C 
HETATM   30  N6  UNL     1      12.560  10.466   4.261  1.00  0.00    -0.032 NA
HETATM   31  O6  UNL     1      11.112   8.671   3.895  1.00  0.00    -0.242 OA
ENDBRANCH  28  29
ENDBRANCH  25  28
ENDBRANCH  19  25
ENDBRANCH   3  19
TORSDOF 10
ENDMDL
MODEL 3
REMARK VINA RESULT: -6.177730845      4.235      6.005
REMARK  10 active torsions:
REMARK  status: ('A' for Active; 'I' for Inactive)
REMARK    1  A    between atoms: S1_2  and  C2_3 
REMARK    2  A    between atoms: N3_9  and  S2_11 
REMARK    3  A    between atoms: S2_11  and  N4_14 
REMARK       I    between atoms: N4_14  and  C4_16 
REMARK    4  A    between atoms: C4_16  and  C5_18 
REMARK    5  A    between atoms: C5_18  and  C6_19 
REMARK    6  A    between atoms: C5_18  and  C7_24 
REMARK    7  A    between atoms: C6_19  and  N5_20 
REMARK    8  A    between atoms: C7_24  and  O4_25 
REMARK    9  A    between atoms: C7_24  and  O5_27 
REMARK   10  A    between atoms: O5_27  and  C8_28 
ROOT
HETATM    1  N4  UNL     1      12.728  10.649  -2.252  1.00  0.00    -0.237 N 
ATOM      2  H4  UNL     1      12.924   9.664  -2.074  1.00  0.00     0.183 HD
HETATM    3  C4  UNL     1      12.092  11.451  -1.282  1.00  0.00     0.242 C 
HETATM    4  O3  UNL     1      11.867  12.657  -1.554  1.00  0.00    -0.272 OA
ENDROOT
BRANCH   1   5
HETATM    5  S2  UNL     1      13.170  11.397  -3.765  1.00  0.00     0.327 S 
HETATM    6  O1  UNL     1      14.336  12.304  -3.493  1.00  0.00    -0.182 OA
HETATM    7  O2  UNL     1      13.632  10.295  -4.710  1.00  0.00    -0.182 OA
BRANCH   5   8
HETATM    8  N3  UNL     1      11.807  12.220  -4.379  1.00  0.00    -0.245 N 
HETATM    9  C3  UNL     1      10.693  11.575  -4.655  1.00  0.00     0.176 A 
HETATM   10  N2  UNL     1      10.449  10.268  -4.516  1.00  0.00    -0.278 N 
HETATM   11  S3  UNL     1       9.200  12.145  -5.262  1.00  0.00    -0.026 SA
HETATM   12  N1  UNL     1       9.305   9.825  -4.831  1.00  0.00    -0.286 N 
ATOM     13  H2  UNL     1      11.170   9.640  -4.162  1.00  0.00     0.189 HD
HETATM   14  C2  UNL     1       8.371  10.631  -5.288  1.00  0.00     0.129 A 
ATOM     15  H1  UNL     1       9.106   8.830  -4.730  1.00  0.00     0.188 HD
ATOM     16  H3  UNL     1      11.856  13.227  -4.535  1.00  0.00     0.182 HD
BRANCH  14  17
HETATM   17  S1  UNL     1       6.682  10.253  -5.802  1.00  0.00    -0.108 SA
HETATM   18  C1  UNL     1       6.158   8.837  -4.760  1.00  0.00     0.097 C 
ENDBRANCH  14  17
ENDBRANCH   5   8
ENDBRANCH   1   5
BRANCH   3  19
HETATM   19  C5  UNL     1      11.655  10.971   0.071  1.00  0.00     0.159 C 
BRANCH  19  20
HETATM   20  C6  UNL     1      10.385  11.673   0.412  1.00  0.00     0.248 C 
BRANCH  20  21
HETATM   21  N5  UNL     1       9.477  10.884   1.190  1.00  0.00    -0.078 N 
ATOM     22  H53 UNL     1       8.916  11.479   1.799  1.00  0.00     0.274 HD
ATOM     23  H52 UNL     1       8.739  10.499   0.599  1.00  0.00     0.274 HD
ATOM     24  H51 UNL     1       9.930  10.145   1.727  1.00  0.00     0.274 HD
ENDBRANCH  20  21
ENDBRANCH  19  20
BRANCH  19  25
HETATM   25  C7  UNL     1      12.725  11.189   1.081  1.00  0.00     0.282 C 
BRANCH  25  26
HETATM   26  O4  UNL     1      13.935  11.474   0.414  1.00  0.00    -0.370 OA
ATOM     27  H4  UNL     1      14.661  11.217   0.969  1.00  0.00     0.212 HD
ENDBRANCH  25  26
BRANCH  25  28
HETATM   28  O5  UNL     1      12.950  10.025   1.836  1.00  0.00    -0.274 OA
BRANCH  28  29
HETATM   29  C8  UNL     1      12.240   9.796   3.038  1.00  0.00     0.375 C 
HETATM   30  N6  UNL     1      12.633  10.406   4.259  1.00  0.00    -0.032 NA
HETATM   31  O6  UNL     1      11.239   9.028   2.990  1.00  0.00    -0.242 OA
ENDBRANCH  28  29
ENDBRANCH  25  28
ENDBRANCH  19  25
ENDBRANCH   3  19
TORSDOF 10
ENDMDL
MODEL 4
REMARK VINA RESULT: -6.141158052      3.485      4.956
REMARK  10 active torsions:
REMARK  status: ('A' for Active; 'I' for Inactive)
REMARK    1  A    between atoms: S1_2  and  C2_3 
REMARK    2  A    between atoms: N3_9  and  S2_11 
REMARK    3  A    between atoms: S2_11  and  N4_14 
REMARK       I    between atoms: N4_14  and  C4_16 
REMARK    4  A    between atoms: C4_16  and  C5_18 
REMARK    5  A    between atoms: C5_18  and  C6_19 
REMARK    6  A    between atoms: C5_18  and  C7_24 
REMARK    7  A    between atoms: C6_19  and  N5_20 
REMARK    8  A    between atoms: C7_24  and  O4_25 
REMARK    9  A    between atoms: C7_24  and  O5_27 
REMARK   10  A    between atoms: O5_27  and  C8_28 
ROOT
HETATM    1  N4  UNL     1      11.607  11.307  -2.329  1.00  0.00    -0.237 N 
ATOM      2  H4  UNL     1      12.605  11.107  -2.401  1.00  0.00     0.183 HD
HETATM    3  C4  UNL     1      11.016  11.624  -1.090  1.00  0.00     0.242 C 
HETATM    4  O3  UNL     1       9.781  11.854  -1.054  1.00  0.00    -0.272 OA
ENDROOT
BRANCH   1   5
HETATM    5  S2  UNL     1      10.576  11.266  -3.737  1.00  0.00     0.327 S 
HETATM    6  O1  UNL     1      10.086  12.666  -3.974  1.00  0.00    -0.182 OA
HETATM    7  O2  UNL     1      11.432  10.851  -4.927  1.00  0.00    -0.182 OA
BRANCH   5   8
HETATM    8  N3  UNL     1       9.316  10.152  -3.451  1.00  0.00    -0.245 N 
HETATM    9  C3  UNL     1       8.340   9.995  -4.320  1.00  0.00     0.176 A 
HETATM   10  N2  UNL     1       8.174  10.627  -5.487  1.00  0.00    -0.278 N 
HETATM   11  S3  UNL     1       6.979   8.960  -4.288  1.00  0.00    -0.026 SA
HETATM   12  N1  UNL     1       7.167  10.338  -6.198  1.00  0.00    -0.286 N 
ATOM     13  H2  UNL     1       8.846  11.329  -5.797  1.00  0.00     0.189 HD
HETATM   14  C2  UNL     1       6.297   9.433  -5.802  1.00  0.00     0.129 A 
ATOM     15  H1  UNL     1       7.028  10.813  -7.090  1.00  0.00     0.188 HD
ATOM     16  H3  UNL     1       9.318   9.600  -2.593  1.00  0.00     0.182 HD
BRANCH  14  17
HETATM   17  S1  UNL     1       4.798   8.849  -6.622  1.00  0.00    -0.108 SA
HETATM   18  C1  UNL     1       3.407   9.489  -5.611  1.00  0.00     0.097 C 
ENDBRANCH  14  17
ENDBRANCH   5   8
ENDBRANCH   1   5
BRANCH   3  19
HETATM   19  C5  UNL     1      11.757  11.712   0.213  1.00  0.00     0.159 C 
BRANCH  19  20
HETATM   20  C6  UNL     1      13.216  11.664  -0.092  1.00  0.00     0.248 C 
BRANCH  20  21
HETATM   21  N5  UNL     1      13.795  12.948  -0.353  1.00  0.00    -0.078 N 
ATOM     22  H53 UNL     1      14.813  12.886  -0.364  1.00  0.00     0.274 HD
ATOM     23  H52 UNL     1      13.629  13.227  -1.320  1.00  0.00     0.274 HD
ATOM     24  H51 UNL     1      13.486  13.677   0.290  1.00  0.00     0.274 HD
ENDBRANCH  20  21
ENDBRANCH  19  20
BRANCH  19  25
HETATM   25  C7  UNL     1      11.325  10.633   1.142  1.00  0.00     0.282 C 
BRANCH  25  26
HETATM   26  O4  UNL     1      10.292  11.126   1.967  1.00  0.00    -0.370 OA
ATOM     27  H4  UNL     1      10.299  10.648   2.788  1.00  0.00     0.212 HD
ENDBRANCH  25  26
BRANCH  25  28
HETATM   28  O5  UNL     1      12.374  10.256   1.998  1.00  0.00    -0.274 OA
BRANCH  28  29
HETATM   29  C8  UNL     1      12.108   9.824   3.318  1.00  0.00     0.375 C 
HETATM   30  N6  UNL     1      11.344   8.654   3.575  1.00  0.00    -0.032 NA
HETATM   31  O6  UNL     1      12.574  10.515   4.266  1.00  0.00    -0.242 OA
ENDBRANCH  28  29
ENDBRANCH  25  28
ENDBRANCH  19  25
ENDBRANCH   3  19
TORSDOF 10
ENDMDL
MODEL 5
REMARK VINA RESULT: -6.100313061      3.519      5.019
REMARK  10 active torsions:
REMARK  status: ('A' for Active; 'I' for Inactive)
REMARK    1  A    between atoms: S1_2  and  C2_3 
REMARK    2  A    between atoms: N3_9  and  S2_11 
REMARK    3  A    between atoms: S2_11  and  N4_14 
REMARK       I    between atoms: N4_14  and  C4_16 
REMARK    4  A    between atoms: C4_16  and  C5_18 
REMARK    5  A    between atoms: C5_18  and  C6_19 
REMARK    6  A    between atoms: C5_18  and  C7_24 
REMARK    7  A    between atoms: C6_19  and  N5_20 
REMARK    8  A    between atoms: C7_24  and  O4_25 
REMARK    9  A    between atoms: C7_24  and  O5_27 
REMARK   10  A    between atoms: O5_27  and  C8_28 
ROOT
HETATM    1  N4  UNL     1       9.892  10.626  -1.126  1.00  0.00    -0.237 N 
ATOM      2  H4  UNL     1      10.123   9.672  -0.849  1.00  0.00     0.183 HD
HETATM    3  C4  UNL     1      10.567  11.730  -0.566  1.00  0.00     0.242 C 
HETATM    4  O3  UNL     1      10.241  12.885  -0.937  1.00  0.00    -0.272 OA
ENDROOT
BRANCH   1   5
HETATM    5  S2  UNL     1       8.650  10.946  -2.309  1.00  0.00     0.327 S 
HETATM    6  O1  UNL     1       8.279   9.632  -2.935  1.00  0.00    -0.182 OA
HETATM    7  O2  UNL     1       7.432  11.485  -1.570  1.00  0.00    -0.182 OA
BRANCH   5   8
HETATM    8  N3  UNL     1       9.254  12.079  -3.433  1.00  0.00    -0.245 N 
HETATM    9  C3  UNL     1       8.498  12.534  -4.410  1.00  0.00     0.176 A 
HETATM   10  N2  UNL     1       7.227  12.216  -4.677  1.00  0.00    -0.278 N 
HETATM   11  S3  UNL     1       8.843  13.661  -5.650  1.00  0.00    -0.026 SA
HETATM   12  N1  UNL     1       6.657  12.764  -5.666  1.00  0.00    -0.286 N 
ATOM     13  H2  UNL     1       6.727  11.545  -4.094  1.00  0.00     0.189 HD
HETATM   14  C2  UNL     1       7.298  13.630  -6.421  1.00  0.00     0.129 A 
ATOM     15  H1  UNL     1       5.688  12.530  -5.881  1.00  0.00     0.188 HD
ATOM     16  H3  UNL     1      10.216  12.409  -3.347  1.00  0.00     0.182 HD
BRANCH  14  17
HETATM   17  S1  UNL     1       6.719  14.537  -7.871  1.00  0.00    -0.108 SA
HETATM   18  C1  UNL     1       6.323  13.256  -9.123  1.00  0.00     0.097 C 
ENDBRANCH  14  17
ENDBRANCH   5   8
ENDBRANCH   1   5
BRANCH   3  19
HETATM   19  C5  UNL     1      11.665  11.633   0.454  1.00  0.00     0.159 C 
BRANCH  19  20
HETATM   20  C6  UNL     1      12.965  11.742  -0.269  1.00  0.00     0.248 C 
BRANCH  20  21
HETATM   21  N5  UNL     1      13.400  13.090  -0.480  1.00  0.00    -0.078 N 
ATOM     22  H53 UNL     1      13.685  13.227  -1.450  1.00  0.00     0.274 HD
ATOM     23  H52 UNL     1      12.608  13.733  -0.441  1.00  0.00     0.274 HD
ATOM     24  H51 UNL     1      14.137  13.389   0.157  1.00  0.00     0.274 HD
ENDBRANCH  20  21
ENDBRANCH  19  20
BRANCH  19  25
HETATM   25  C7  UNL     1      11.546  10.379   1.244  1.00  0.00     0.282 C 
BRANCH  25  26
HETATM   26  O4  UNL     1      10.283  10.353   1.873  1.00  0.00    -0.370 OA
ATOM     27  H4  UNL     1      10.238   9.593   2.442  1.00  0.00     0.212 HD
ENDBRANCH  25  26
BRANCH  25  28
HETATM   28  O5  UNL     1      12.505  10.337   2.270  1.00  0.00    -0.274 OA
BRANCH  28  29
HETATM   29  C8  UNL     1      12.155   9.892   3.566  1.00  0.00     0.375 C 
HETATM   30  N6  UNL     1      11.473   8.664   3.769  1.00  0.00    -0.032 NA
HETATM   31  O6  UNL     1      12.471  10.628   4.542  1.00  0.00    -0.242 OA
ENDBRANCH  28  29
ENDBRANCH  25  28
ENDBRANCH  19  25
ENDBRANCH   3  19
TORSDOF 10
ENDMDL
