MODEL 1
REMARK VINA RESULT: -7.056908579      0.000      0.000
REMARK  9 active torsions:
REMARK  status: ('A' for Active; 'I' for Inactive)
REMARK    1  A    between atoms: C2_2  and  C3_3 
REMARK       I    between atoms: C3_3  and  N1_5 
REMARK    2  A    between atoms: N1_5  and  N2_7 
REMARK       I    between atoms: N2_7  and  C5_9 
REMARK    3  A    between atoms: C5_9  and  C6_11 
REMARK    4  A    between atoms: C7_15  and  N4_16 
REMARK    5  A    between atoms: C8_22  and  C9_23 
REMARK    6  A    between atoms: C9_23  and  C10_25 
REMARK    7  A    between atoms: C10_25  and  C11_27 
REMARK    8  A    between atoms: C11_27  and  O5_29 
REMARK    9  A    between atoms: C11_27  and  C13_31 
ROOT
HETATM    1  C6  UNL     1      10.796  11.292  -3.404  1.00  0.00     0.347 C 
HETATM    2  N3  UNL     1      11.683  10.159  -3.579  1.00  0.00    -0.007 N 
ATOM      3  H31 UNL     1      11.311   9.525  -4.286  1.00  0.00     0.283 HD
ATOM      4  H32 UNL     1      11.645   9.551  -2.760  1.00  0.00     0.283 HD
HETATM    5  C7  UNL     1      13.030  10.498  -3.880  1.00  0.00     0.481 C 
HETATM    6  N5  UNL     1      13.814  11.011  -2.830  1.00  0.00    -0.354 N 
ATOM      7  H5  UNL     1      14.788  10.739  -2.700  1.00  0.00     0.158 HD
HETATM    8  C8  UNL     1      13.150  11.954  -1.943  1.00  0.00     0.223 C 
HETATM    9  S1  UNL     1      11.860  12.747  -2.926  1.00  0.00    -0.093 SA
ENDROOT
BRANCH   8  10
HETATM   10  C9  UNL     1      14.102  12.844  -1.294  1.00  0.00     0.230 C 
HETATM   11  O3  UNL     1      13.613  13.655  -0.429  1.00  0.00    -0.286 OA
BRANCH  10  12
HETATM   12  C10 UNL     1      15.525  12.927  -1.506  1.00  0.00     0.239 C 
HETATM   13  O4  UNL     1      16.051  13.622  -2.431  1.00  0.00    -0.285 OA
BRANCH  12  14
HETATM   14  C11 UNL     1      16.501  12.191  -0.640  1.00  0.00     0.181 C 
HETATM   15  C12 UNL     1      17.436  13.171  -0.026  1.00  0.00     0.063 C 
BRANCH  14  16
HETATM   16  O5  UNL     1      15.791  11.539   0.406  1.00  0.00    -0.374 OA
ATOM     17  H5  UNL     1      15.780  10.604   0.236  1.00  0.00     0.211 HD
ENDBRANCH  14  16
BRANCH  14  18
HETATM   18  C13 UNL     1      17.157  11.138  -1.471  1.00  0.00     0.164 C 
HETATM   19  C14 UNL     1      18.624  11.218  -1.772  1.00  0.00     0.095 C 
HETATM   20  O6  UNL     1      16.476  10.230  -1.885  1.00  0.00    -0.295 OA
ENDBRANCH  14  18
ENDBRANCH  12  14
ENDBRANCH  10  12
ENDBRANCH   8  10
BRANCH   5  21
HETATM   21  N4  UNL     1      13.679   9.314  -4.415  1.00  0.00    -0.033 N 
ATOM     22  H43 UNL     1      13.016   8.630  -4.778  1.00  0.00     0.278 HD
ATOM     23  H42 UNL     1      14.177   9.497  -5.286  1.00  0.00     0.278 HD
ATOM     24  H41 UNL     1      14.282   8.932  -3.687  1.00  0.00     0.278 HD
ENDBRANCH   5  21
BRANCH   1  25
HETATM   25  C5  UNL     1       9.994  10.976  -2.194  1.00  0.00     0.279 C 
HETATM   26  N2  UNL     1       8.625  11.204  -2.117  1.00  0.00    -0.261 N 
HETATM   27  C4  UNL     1       7.895  10.918  -0.910  1.00  0.00     0.181 C 
HETATM   28  O2  UNL     1      10.561  10.464  -1.157  1.00  0.00    -0.268 OA
BRANCH  26  29
HETATM   29  N1  UNL     1       7.918  11.717  -3.213  1.00  0.00    -0.266 N 
HETATM   30  C3  UNL     1       7.283  10.753  -4.054  1.00  0.00     0.235 C 
HETATM   31  O1  UNL     1       7.347   9.514  -3.830  1.00  0.00    -0.272 OA
ATOM     32  H1  UNL     1       7.860  12.718  -3.398  1.00  0.00     0.190 HD
BRANCH  30  33
HETATM   33  C2  UNL     1       6.522  11.220  -5.228  1.00  0.00     0.100 C 
HETATM   34  C1  UNL     1       5.513  10.135  -5.641  1.00  0.00     0.014 C 
ENDBRANCH  30  33
ENDBRANCH  26  29
ENDBRANCH   1  25
TORSDOF 9
ENDMDL
MODEL 2
REMARK VINA RESULT: -7.003440289      2.673      7.969
REMARK  9 active torsions:
REMARK  status: ('A' for Active; 'I' for Inactive)
REMARK    1  A    between atoms: C2_2  and  C3_3 
REMARK       I    between atoms: C3_3  and  N1_5 
REMARK    2  A    between atoms: N1_5  and  N2_7 
REMARK       I    between atoms: N2_7  and  C5_9 
REMARK    3  A    between atoms: C5_9  and  C6_11 
REMARK    4  A    between atoms: C7_15  and  N4_16 
REMARK    5  A    between atoms: C8_22  and  C9_23 
REMARK    6  A    between atoms: C9_23  and  C10_25 
REMARK    7  A    between atoms: C10_25  and  C11_27 
REMARK    8  A    between atoms: C11_27  and  O5_29 
REMARK    9  A    between atoms: C11_27  and  C13_31 
ROOT
HETATM    1  C6  UNL     1      11.414  12.982  -0.305  1.00  0.00     0.347 C 
HETATM    2  N3  UNL     1      10.886  11.860   0.447  1.00  0.00    -0.007 N 
ATOM      3  H31 UNL     1      10.932  12.051   1.448  1.00  0.00     0.283 HD
ATOM      4  H32 UNL     1      11.523  11.065   0.389  1.00  0.00     0.283 HD
HETATM    5  C7  UNL     1       9.570  11.464   0.080  1.00  0.00     0.481 C 
HETATM    6  N5  UNL     1       9.420  10.780  -1.140  1.00  0.00    -0.354 N 
ATOM      7  H5  UNL     1       8.790   9.985  -1.240  1.00  0.00     0.158 HD
HETATM    8  C8  UNL     1      10.220  11.276  -2.250  1.00  0.00     0.223 C 
HETATM    9  S1  UNL     1      10.494  13.031  -1.926  1.00  0.00    -0.093 SA
ENDROOT
BRANCH   8  10
HETATM   10  C9  UNL     1       9.622  10.946  -3.534  1.00  0.00     0.230 C 
HETATM   11  O3  UNL     1      10.420  10.476  -4.422  1.00  0.00    -0.286 OA
BRANCH  10  12
HETATM   12  C10 UNL     1       8.243  11.083  -3.933  1.00  0.00     0.239 C 
HETATM   13  O4  UNL     1       7.267  10.760  -3.185  1.00  0.00    -0.285 OA
BRANCH  12  14
HETATM   14  C11 UNL     1       7.854  11.624  -5.275  1.00  0.00     0.181 C 
HETATM   15  C12 UNL     1       8.310  13.035  -5.377  1.00  0.00     0.063 C 
BRANCH  14  16
HETATM   16  O5  UNL     1       8.513  10.869  -6.285  1.00  0.00    -0.374 OA
ATOM     17  H5  UNL     1       7.994  10.099  -6.485  1.00  0.00     0.211 HD
ENDBRANCH  14  16
BRANCH  14  18
HETATM   18  C13 UNL     1       6.384  11.428  -5.447  1.00  0.00     0.164 C 
HETATM   19  C14 UNL     1       5.834  10.070  -5.765  1.00  0.00     0.095 C 
HETATM   20  O6  UNL     1       5.661  12.388  -5.320  1.00  0.00    -0.295 OA
ENDBRANCH  14  18
ENDBRANCH  12  14
ENDBRANCH  10  12
ENDBRANCH   8  10
BRANCH   5  21
HETATM   21  N4  UNL     1       9.039  10.638   1.150  1.00  0.00    -0.033 N 
ATOM     22  H43 UNL     1       9.180   9.641   0.987  1.00  0.00     0.278 HD
ATOM     23  H42 UNL     1       9.578  10.714   2.012  1.00  0.00     0.278 HD
ATOM     24  H41 UNL     1       8.056  10.882   1.275  1.00  0.00     0.278 HD
ENDBRANCH   5  21
BRANCH   1  25
HETATM   25  C5  UNL     1      12.805  12.596  -0.652  1.00  0.00     0.279 C 
HETATM   26  N2  UNL     1      13.817  13.529  -0.850  1.00  0.00    -0.261 N 
HETATM   27  C4  UNL     1      15.144  13.112  -1.224  1.00  0.00     0.181 C 
HETATM   28  O2  UNL     1      13.122  11.354  -0.779  1.00  0.00    -0.268 OA
BRANCH  26  29
HETATM   29  N1  UNL     1      13.575  14.899  -0.689  1.00  0.00    -0.266 N 
HETATM   30  C3  UNL     1      13.329  15.636  -1.887  1.00  0.00     0.235 C 
HETATM   31  O1  UNL     1      13.324  15.093  -3.025  1.00  0.00    -0.272 OA
ATOM     32  H1  UNL     1      13.574  15.344   0.229  1.00  0.00     0.190 HD
BRANCH  30  33
HETATM   33  C2  UNL     1      13.067  17.085  -1.795  1.00  0.00     0.100 C 
HETATM   34  C1  UNL     1      14.407  17.840  -1.753  1.00  0.00     0.014 C 
ENDBRANCH  30  33
ENDBRANCH  26  29
ENDBRANCH   1  25
TORSDOF 9
ENDMDL
MODEL 3
REMARK VINA RESULT: -6.959607465      2.684      4.202
REMARK  9 active torsions:
REMARK  status: ('A' for Active; 'I' for Inactive)
REMARK    1  A    between atoms: C2_2  and  C3_3 
REMARK       I    between atoms: C3_3  and  N1_5 
REMARK    2  A    between atoms: N1_5  and  N2_7 
REMARK       I    between atoms: N2_7  and  C5_9 
REMARK    3  A    between atoms: C5_9  and  C6_11 
REMARK    4  A    between atoms: C7_15  and  N4_16 
REMARK    5  A    between atoms: C8_22  and  C9_23 
REMARK    6  A    between atoms: C9_23  and  C10_25 
REMARK    7  A    between atoms: C10_25  and  C11_27 
REMARK    8  A    between atoms: C11_27  and  O5_29 
REMARK    9  A    between atoms: C11_27  and  C13_31 
ROOT
HETATM    1  C6  UNL     1       9.636  11.172  -5.232  1.00  0.00     0.347 C 
HETATM    2  N3  UNL     1      10.740  10.271  -4.963  1.00  0.00    -0.007 N 
ATOM      3  H31 UNL     1      11.204  10.011  -5.834  1.00  0.00     0.283 HD
ATOM      4  H32 UNL     1      10.389   9.359  -4.671  1.00  0.00     0.283 HD
HETATM    5  C7  UNL     1      11.690  10.758  -4.024  1.00  0.00     0.481 C 
HETATM    6  N5  UNL     1      11.308  10.771  -2.670  1.00  0.00    -0.354 N 
ATOM      7  H5  UNL     1      11.950  10.504  -1.924  1.00  0.00     0.158 HD
HETATM    8  C8  UNL     1       9.940  11.188  -2.399  1.00  0.00     0.223 C 
HETATM    9  S1  UNL     1       9.475  12.292  -3.750  1.00  0.00    -0.093 SA
ENDROOT
BRANCH   8  10
HETATM   10  C9  UNL     1       9.798  11.724  -1.054  1.00  0.00     0.230 C 
HETATM   11  O3  UNL     1       8.595  11.885  -0.638  1.00  0.00    -0.286 OA
BRANCH  10  12
HETATM   12  C10 UNL     1      10.841  12.097  -0.132  1.00  0.00     0.239 C 
HETATM   13  O4  UNL     1      11.169  13.303   0.096  1.00  0.00    -0.285 OA
BRANCH  12  14
HETATM   14  C11 UNL     1      11.626  11.077   0.635  1.00  0.00     0.181 C 
HETATM   15  C12 UNL     1      11.256  11.163   2.072  1.00  0.00     0.063 C 
BRANCH  14  16
HETATM   16  O5  UNL     1      11.282   9.779   0.164  1.00  0.00    -0.374 OA
ATOM     17  H5  UNL     1      12.008   9.189   0.326  1.00  0.00     0.211 HD
ENDBRANCH  14  16
BRANCH  14  18
HETATM   18  C13 UNL     1      13.076  11.295   0.349  1.00  0.00     0.164 C 
HETATM   19  C14 UNL     1      14.110  10.931   1.371  1.00  0.00     0.095 C 
HETATM   20  O6  UNL     1      13.382  11.767  -0.720  1.00  0.00    -0.295 OA
ENDBRANCH  14  18
ENDBRANCH  12  14
ENDBRANCH  10  12
ENDBRANCH   8  10
BRANCH   5  21
HETATM   21  N4  UNL     1      12.900   9.967  -4.163  1.00  0.00    -0.033 N 
ATOM     22  H43 UNL     1      12.893   9.375  -4.994  1.00  0.00     0.278 HD
ATOM     23  H42 UNL     1      13.715  10.530  -4.403  1.00  0.00     0.278 HD
ATOM     24  H41 UNL     1      13.026   9.435  -3.302  1.00  0.00     0.278 HD
ENDBRANCH   5  21
BRANCH   1  25
HETATM   25  C5  UNL     1       8.423  10.315  -5.213  1.00  0.00     0.279 C 
HETATM   26  N2  UNL     1       7.340  10.525  -6.059  1.00  0.00    -0.261 N 
HETATM   27  C4  UNL     1       6.167   9.694  -5.979  1.00  0.00     0.181 C 
HETATM   28  O2  UNL     1       8.340   9.326  -4.392  1.00  0.00    -0.268 OA
BRANCH  26  29
HETATM   29  N1  UNL     1       7.361  11.550  -7.014  1.00  0.00    -0.266 N 
HETATM   30  C3  UNL     1       6.567  12.699  -6.717  1.00  0.00     0.235 C 
HETATM   31  O1  UNL     1       5.889  12.795  -5.658  1.00  0.00    -0.272 OA
ATOM     32  H1  UNL     1       7.910  11.480  -7.871  1.00  0.00     0.190 HD
BRANCH  30  33
HETATM   33  C2  UNL     1       6.540  13.818  -7.678  1.00  0.00     0.100 C 
HETATM   34  C1  UNL     1       7.675  14.801  -7.343  1.00  0.00     0.014 C 
ENDBRANCH  30  33
ENDBRANCH  26  29
ENDBRANCH   1  25
TORSDOF 9
ENDMDL
MODEL 4
REMARK VINA RESULT: -6.908639601      2.783      4.030
REMARK  9 active torsions:
REMARK  status: ('A' for Active; 'I' for Inactive)
REMARK    1  A    between atoms: C2_2  and  C3_3 
REMARK       I    between atoms: C3_3  and  N1_5 
REMARK    2  A    between atoms: N1_5  and  N2_7 
REMARK       I    between atoms: N2_7  and  C5_9 
REMARK    3  A    between atoms: C5_9  and  C6_11 
REMARK    4  A    between atoms: C7_15  and  N4_16 
REMARK    5  A    between atoms: C8_22  and  C9_23 
REMARK    6  A    between atoms: C9_23  and  C10_25 
REMARK    7  A    between atoms: C10_25  and  C11_27 
REMARK    8  A    between atoms: C11_27  and  O5_29 
REMARK    9  A    between atoms: C11_27  and  C13_31 
ROOT
HETATM    1  C6  UNL     1       9.042  10.204  -4.325  1.00  0.00     0.347 C 
HETATM    2  N3  UNL     1       8.252  10.526  -3.153  1.00  0.00    -0.007 N 
ATOM      3  H31 UNL     1       7.574   9.786  -2.969  1.00  0.00     0.283 HD
ATOM      4  H32 UNL     1       7.619  11.300  -3.355  1.00  0.00     0.283 HD
HETATM    5  C7  UNL     1       9.009  10.802  -1.982  1.00  0.00     0.481 C 
HETATM    6  N5  UNL     1       9.682  12.037  -1.927  1.00  0.00    -0.354 N 
ATOM      7  H5  UNL     1       9.719  12.595  -1.074  1.00  0.00     0.158 HD
HETATM    8  C8  UNL     1      10.321  12.468  -3.161  1.00  0.00     0.223 C 
HETATM    9  S1  UNL     1      10.726  10.962  -4.070  1.00  0.00    -0.093 SA
ENDROOT
BRANCH   8  10
HETATM   10  C9  UNL     1      11.425  13.381  -2.905  1.00  0.00     0.230 C 
HETATM   11  O3  UNL     1      11.239  14.601  -3.255  1.00  0.00    -0.286 OA
BRANCH  10  12
HETATM   12  C10 UNL     1      12.703  13.082  -2.308  1.00  0.00     0.239 C 
HETATM   13  O4  UNL     1      13.698  12.652  -2.972  1.00  0.00    -0.285 OA
BRANCH  12  14
HETATM   14  C11 UNL     1      12.955  13.257  -0.842  1.00  0.00     0.181 C 
HETATM   15  C12 UNL     1      14.134  14.145  -0.658  1.00  0.00     0.063 C 
BRANCH  14  16
HETATM   16  O5  UNL     1      11.826  13.890  -0.251  1.00  0.00    -0.374 OA
ATOM     17  H5  UNL     1      12.094  14.730   0.105  1.00  0.00     0.211 HD
ENDBRANCH  14  16
BRANCH  14  18
HETATM   18  C13 UNL     1      13.091  11.903  -0.228  1.00  0.00     0.164 C 
HETATM   19  C14 UNL     1      14.438  11.397   0.195  1.00  0.00     0.095 C 
HETATM   20  O6  UNL     1      12.093  11.238  -0.084  1.00  0.00    -0.295 OA
ENDBRANCH  14  18
ENDBRANCH  12  14
ENDBRANCH  10  12
ENDBRANCH   8  10
BRANCH   5  21
HETATM   21  N4  UNL     1       8.118  10.702  -0.840  1.00  0.00    -0.033 N 
ATOM     22  H43 UNL     1       7.324  11.340  -0.901  1.00  0.00     0.278 HD
ATOM     23  H42 UNL     1       7.590   9.830  -0.826  1.00  0.00     0.278 HD
ATOM     24  H41 UNL     1       8.673  10.842   0.004  1.00  0.00     0.278 HD
ENDBRANCH   5  21
BRANCH   1  25
HETATM   25  C5  UNL     1       8.425  10.977  -5.433  1.00  0.00     0.279 C 
HETATM   26  N2  UNL     1       7.264  10.569  -6.081  1.00  0.00    -0.261 N 
HETATM   27  C4  UNL     1       6.723  11.329  -7.177  1.00  0.00     0.181 C 
HETATM   28  O2  UNL     1       8.961  12.078  -5.833  1.00  0.00    -0.268 OA
BRANCH  26  29
HETATM   29  N1  UNL     1       6.589   9.408  -5.683  1.00  0.00    -0.266 N 
HETATM   30  C3  UNL     1       5.187   9.549  -5.448  1.00  0.00     0.235 C 
HETATM   31  O1  UNL     1       4.586  10.647  -5.591  1.00  0.00    -0.272 OA
ATOM     32  H1  UNL     1       7.069   8.515  -5.568  1.00  0.00     0.190 HD
BRANCH  30  33
HETATM   33  C2  UNL     1       4.411   8.367  -5.025  1.00  0.00     0.100 C 
HETATM   34  C1  UNL     1       5.373   7.299  -4.478  1.00  0.00     0.014 C 
ENDBRANCH  30  33
ENDBRANCH  26  29
ENDBRANCH   1  25
TORSDOF 9
ENDMDL
MODEL 5
REMARK VINA RESULT: -6.908022886      2.196      3.169
REMARK  9 active torsions:
REMARK  status: ('A' for Active; 'I' for Inactive)
REMARK    1  A    between atoms: C2_2  and  C3_3 
REMARK       I    between atoms: C3_3  and  N1_5 
REMARK    2  A    between atoms: N1_5  and  N2_7 
REMARK       I    between atoms: N2_7  and  C5_9 
REMARK    3  A    between atoms: C5_9  and  C6_11 
REMARK    4  A    between atoms: C7_15  and  N4_16 
REMARK    5  A    between atoms: C8_22  and  C9_23 
REMARK    6  A    between atoms: C9_23  and  C10_25 
REMARK    7  A    between atoms: C10_25  and  C11_27 
REMARK    8  A    between atoms: C11_27  and  O5_29 
REMARK    9  A    between atoms: C11_27  and  C13_31 
ROOT
HETATM    1  C6  UNL     1       8.923  11.759  -3.130  1.00  0.00     0.347 C 
HETATM    2  N3  UNL     1       9.144  12.538  -1.927  1.00  0.00    -0.007 N 
ATOM      3  H31 UNL     1       8.259  12.705  -1.446  1.00  0.00     0.283 HD
ATOM      4  H32 UNL     1       9.397  13.496  -2.168  1.00  0.00     0.283 HD
HETATM    5  C7  UNL     1      10.097  11.987  -1.028  1.00  0.00     0.481 C 
HETATM    6  N5  UNL     1      11.453  12.078  -1.393  1.00  0.00    -0.354 N 
ATOM      7  H5  UNL     1      12.182  12.302  -0.716  1.00  0.00     0.158 HD
HETATM    8  C8  UNL     1      11.751  11.832  -2.796  1.00  0.00     0.223 C 
HETATM    9  S1  UNL     1      10.455  10.731  -3.400  1.00  0.00    -0.093 SA
ENDROOT
BRANCH   8  10
HETATM   10  C9  UNL     1      13.120  11.377  -2.984  1.00  0.00     0.230 C 
HETATM   11  O3  UNL     1      13.258  10.184  -3.436  1.00  0.00    -0.286 OA
BRANCH  10  12
HETATM   12  C10 UNL     1      14.340  12.099  -2.722  1.00  0.00     0.239 C 
HETATM   13  O4  UNL     1      14.907  12.842  -3.583  1.00  0.00    -0.285 OA
BRANCH  12  14
HETATM   14  C11 UNL     1      15.039  12.024  -1.399  1.00  0.00     0.181 C 
HETATM   15  C12 UNL     1      15.169  13.398  -0.844  1.00  0.00     0.063 C 
BRANCH  14  16
HETATM   16  O5  UNL     1      14.248  11.255  -0.501  1.00  0.00    -0.374 OA
ATOM     17  H5  UNL     1      14.301  11.641   0.366  1.00  0.00     0.211 HD
ENDBRANCH  14  16
BRANCH  14  18
HETATM   18  C13 UNL     1      16.333  11.306  -1.597  1.00  0.00     0.164 C 
HETATM   19  C14 UNL     1      17.624  11.945  -1.179  1.00  0.00     0.095 C 
HETATM   20  O6  UNL     1      16.305  10.206  -2.097  1.00  0.00    -0.295 OA
ENDBRANCH  14  18
ENDBRANCH  12  14
ENDBRANCH  10  12
ENDBRANCH   8  10
BRANCH   5  21
HETATM   21  N4  UNL     1       9.915  12.628   0.262  1.00  0.00    -0.033 N 
ATOM     22  H43 UNL     1      10.136  13.624   0.245  1.00  0.00     0.278 HD
ATOM     23  H42 UNL     1       8.934  12.710   0.528  1.00  0.00     0.278 HD
ATOM     24  H41 UNL     1      10.468  12.114   0.948  1.00  0.00     0.278 HD
ENDBRANCH   5  21
BRANCH   1  25
HETATM   25  C5  UNL     1       8.911  12.749  -4.237  1.00  0.00     0.279 C 
HETATM   26  N2  UNL     1       8.338  12.485  -5.476  1.00  0.00    -0.261 N 
HETATM   27  C4  UNL     1       8.385  13.460  -6.534  1.00  0.00     0.181 C 
HETATM   28  O2  UNL     1       9.443  13.910  -4.074  1.00  0.00    -0.268 OA
BRANCH  26  29
HETATM   29  N1  UNL     1       7.699  11.265  -5.729  1.00  0.00    -0.266 N 
HETATM   30  C3  UNL     1       6.272  11.279  -5.656  1.00  0.00     0.235 C 
HETATM   31  O1  UNL     1       5.620  12.324  -5.386  1.00  0.00    -0.272 OA
ATOM     32  H1  UNL     1       8.220  10.416  -5.951  1.00  0.00     0.190 HD
BRANCH  30  33
HETATM   33  C2  UNL     1       5.531  10.029  -5.910  1.00  0.00     0.100 C 
HETATM   34  C1  UNL     1       5.907   8.992  -4.837  1.00  0.00     0.014 C 
ENDBRANCH  30  33
ENDBRANCH  26  29
ENDBRANCH   1  25
TORSDOF 9
ENDMDL
