MODEL 1
REMARK VINA RESULT: -7.628436891      0.000      0.000
REMARK  8 active torsions:
REMARK  status: ('A' for Active; 'I' for Inactive)
REMARK    1  A    between atoms: O1_2  and  C2_3 
REMARK    2  A    between atoms: C5_6  and  N1_7 
REMARK    3  A    between atoms: N1_7  and  S1_9 
REMARK    4  A    between atoms: S1_9  and  C6_12 
REMARK    5  A    between atoms: C7_16  and  N3_17 
REMARK    6  A    between atoms: C8_24  and  N5_25 
REMARK    7  A    between atoms: N5_25  and  O4_26 
REMARK    8  A    between atoms: O4_26  and  S2_27 
ROOT
HETATM    1  C6  UNL     1      11.027  10.545  -1.175  1.00  0.00     0.380 C 
HETATM    2  N2  UNL     1       9.790  10.252  -1.919  1.00  0.00     0.001 N 
ATOM      3  H21 UNL     1       9.670   9.259  -2.122  1.00  0.00     0.283 HD
ATOM      4  H22 UNL     1       9.816  10.581  -2.884  1.00  0.00     0.283 HD
HETATM    5  C7  UNL     1       8.700  10.808  -1.164  1.00  0.00     0.581 C 
HETATM    6  N4  UNL     1       9.281  11.511  -0.034  1.00  0.00     0.002 N 
ATOM      7  H41 UNL     1       8.659  11.655   0.761  1.00  0.00     0.283 HD
ATOM      8  H42 UNL     1       9.466  12.503  -0.181  1.00  0.00     0.283 HD
HETATM    9  C8  UNL     1      10.448  10.689   0.224  1.00  0.00     0.358 C 
ENDROOT
BRANCH   1  10
HETATM   10  S1  UNL     1      11.603  12.106  -1.756  1.00  0.00     0.264 S 
HETATM   11  O2  UNL     1      10.464  12.810  -2.471  1.00  0.00    -0.203 OA
HETATM   12  O3  UNL     1      12.705  11.797  -2.770  1.00  0.00    -0.203 OA
BRANCH  10  13
HETATM   13  N1  UNL     1      12.284  13.097  -0.562  1.00  0.00    -0.283 N 
ATOM     14  H1  UNL     1      12.106  12.849   0.411  1.00  0.00     0.178 HD
BRANCH  13  15
HETATM   15  C5  UNL     1      13.068  14.226  -0.806  1.00  0.00     0.042 A 
HETATM   16  C4  UNL     1      14.421  14.236  -0.700  1.00  0.00     0.033 A 
HETATM   17  C3  UNL     1      15.166  15.391  -0.987  1.00  0.00     0.039 A 
HETATM   18  C2  UNL     1      14.525  16.529  -1.381  1.00  0.00     0.068 A 
HETATM   19  C11 UNL     1      13.157  16.561  -1.501  1.00  0.00     0.039 A 
HETATM   20  C10 UNL     1      12.446  15.417  -1.213  1.00  0.00     0.033 A 
BRANCH  18  21
HETATM   21  O1  UNL     1      15.300  17.669  -1.662  1.00  0.00    -0.356 OA
HETATM   22  C1  UNL     1      14.722  18.786  -2.334  1.00  0.00     0.210 C 
ENDBRANCH  18  21
ENDBRANCH  13  15
ENDBRANCH  10  13
ENDBRANCH   1  10
BRANCH   9  23
HETATM   23  N5  UNL     1      11.386  11.317   1.124  1.00  0.00    -0.045 NA
BRANCH  23  24
HETATM   24  O4  UNL     1      11.031  11.042   2.375  1.00  0.00    -0.158 OA
BRANCH  24  25
HETATM   25  S2  UNL     1      12.140  10.058   3.166  1.00  0.00     0.278 S 
HETATM   26  C9  UNL     1      13.626   9.856   2.214  1.00  0.00     0.195 C 
HETATM   27  O5  UNL     1      11.477   8.732   3.405  1.00  0.00    -0.198 OA
HETATM   28  O6  UNL     1      12.532  10.618   4.500  1.00  0.00    -0.198 OA
ENDBRANCH  24  25
ENDBRANCH  23  24
ENDBRANCH   9  23
BRANCH   5  29
HETATM   29  N3  UNL     1       7.827  11.651  -1.953  1.00  0.00    -0.026 N 
ATOM     30  H33 UNL     1       8.269  12.550  -2.145  1.00  0.00     0.278 HD
ATOM     31  H32 UNL     1       7.744  11.297  -2.905  1.00  0.00     0.278 HD
ATOM     32  H31 UNL     1       6.907  11.783  -1.535  1.00  0.00     0.278 HD
ENDBRANCH   5  29
TORSDOF 8
ENDMDL
MODEL 2
REMARK VINA RESULT: -7.218713321      1.722      2.544
REMARK  8 active torsions:
REMARK  status: ('A' for Active; 'I' for Inactive)
REMARK    1  A    between atoms: O1_2  and  C2_3 
REMARK    2  A    between atoms: C5_6  and  N1_7 
REMARK    3  A    between atoms: N1_7  and  S1_9 
REMARK    4  A    between atoms: S1_9  and  C6_12 
REMARK    5  A    between atoms: C7_16  and  N3_17 
REMARK    6  A    between atoms: C8_24  and  N5_25 
REMARK    7  A    between atoms: N5_25  and  O4_26 
REMARK    8  A    between atoms: O4_26  and  S2_27 
ROOT
HETATM    1  C6  UNL     1      11.046  10.646  -1.247  1.00  0.00     0.380 C 
HETATM    2  N2  UNL     1       9.844  10.262  -2.006  1.00  0.00     0.001 N 
ATOM      3  H21 UNL     1       9.842   9.279  -2.282  1.00  0.00     0.283 HD
ATOM      4  H22 UNL     1       9.818  10.661  -2.944  1.00  0.00     0.283 HD
HETATM    5  C7  UNL     1       8.705  10.625  -1.208  1.00  0.00     0.581 C 
HETATM    6  N4  UNL     1       9.212  11.308  -0.031  1.00  0.00     0.002 N 
ATOM      7  H41 UNL     1       8.588  11.317   0.775  1.00  0.00     0.283 HD
ATOM      8  H42 UNL     1       9.274  12.323  -0.104  1.00  0.00     0.283 HD
HETATM    9  C8  UNL     1      10.472  10.616   0.161  1.00  0.00     0.358 C 
ENDROOT
BRANCH   1  10
HETATM   10  S1  UNL     1      11.423  12.304  -1.713  1.00  0.00     0.264 S 
HETATM   11  O2  UNL     1      10.125  13.033  -2.011  1.00  0.00    -0.203 OA
HETATM   12  O3  UNL     1      12.239  12.204  -3.001  1.00  0.00    -0.203 OA
BRANCH  10  13
HETATM   13  N1  UNL     1      12.362  13.157  -0.590  1.00  0.00    -0.283 N 
ATOM     14  H1  UNL     1      11.870  13.651   0.155  1.00  0.00     0.178 HD
BRANCH  13  15
HETATM   15  C5  UNL     1      13.756  13.237  -0.603  1.00  0.00     0.042 A 
HETATM   16  C4  UNL     1      14.438  14.399  -0.760  1.00  0.00     0.033 A 
HETATM   17  C3  UNL     1      15.842  14.430  -0.733  1.00  0.00     0.039 A 
HETATM   18  C2  UNL     1      16.540  13.273  -0.546  1.00  0.00     0.068 A 
HETATM   19  C11 UNL     1      15.888  12.075  -0.382  1.00  0.00     0.039 A 
HETATM   20  C10 UNL     1      14.511  12.069  -0.412  1.00  0.00     0.033 A 
BRANCH  18  21
HETATM   21  O1  UNL     1      17.945  13.338  -0.524  1.00  0.00    -0.356 OA
HETATM   22  C1  UNL     1      18.719  12.149  -0.374  1.00  0.00     0.210 C 
ENDBRANCH  18  21
ENDBRANCH  13  15
ENDBRANCH  10  13
ENDBRANCH   1  10
BRANCH   9  23
HETATM   23  N5  UNL     1      11.339  11.285   1.101  1.00  0.00    -0.045 NA
BRANCH  23  24
HETATM   24  O4  UNL     1      10.959  10.970   2.336  1.00  0.00    -0.158 OA
BRANCH  24  25
HETATM   25  S2  UNL     1      12.097  10.041   3.151  1.00  0.00     0.278 S 
HETATM   26  C9  UNL     1      13.591   9.864   2.207  1.00  0.00     0.195 C 
HETATM   27  O5  UNL     1      11.476   8.699   3.419  1.00  0.00    -0.198 OA
HETATM   28  O6  UNL     1      12.467  10.643   4.472  1.00  0.00    -0.198 OA
ENDBRANCH  24  25
ENDBRANCH  23  24
ENDBRANCH   9  23
BRANCH   5  29
HETATM   29  N3  UNL     1       7.727  11.412  -1.928  1.00  0.00    -0.026 N 
ATOM     30  H33 UNL     1       7.327  12.132  -1.326  1.00  0.00     0.278 HD
ATOM     31  H32 UNL     1       8.180  12.006  -2.623  1.00  0.00     0.278 HD
ATOM     32  H31 UNL     1       6.992  10.851  -2.357  1.00  0.00     0.278 HD
ENDBRANCH   5  29
TORSDOF 8
ENDMDL
MODEL 3
REMARK VINA RESULT: -7.107111565      3.446      6.047
REMARK  8 active torsions:
REMARK  status: ('A' for Active; 'I' for Inactive)
REMARK    1  A    between atoms: O1_2  and  C2_3 
REMARK    2  A    between atoms: C5_6  and  N1_7 
REMARK    3  A    between atoms: N1_7  and  S1_9 
REMARK    4  A    between atoms: S1_9  and  C6_12 
REMARK    5  A    between atoms: C7_16  and  N3_17 
REMARK    6  A    between atoms: C8_24  and  N5_25 
REMARK    7  A    between atoms: N5_25  and  O4_26 
REMARK    8  A    between atoms: O4_26  and  S2_27 
ROOT
HETATM    1  C6  UNL     1      12.555  12.490  -3.750  1.00  0.00     0.380 C 
HETATM    2  N2  UNL     1      11.478  12.218  -4.716  1.00  0.00     0.001 N 
ATOM      3  H21 UNL     1      11.597  12.714  -5.599  1.00  0.00     0.283 HD
ATOM      4  H22 UNL     1      10.586  12.636  -4.450  1.00  0.00     0.283 HD
HETATM    5  C7  UNL     1      11.404  10.791  -4.877  1.00  0.00     0.581 C 
HETATM    6  N4  UNL     1      12.356  10.209  -3.948  1.00  0.00     0.002 N 
ATOM      7  H41 UNL     1      12.673   9.267  -4.174  1.00  0.00     0.283 HD
ATOM      8  H42 UNL     1      11.981   9.957  -3.034  1.00  0.00     0.283 HD
HETATM    9  C8  UNL     1      13.386  11.230  -3.941  1.00  0.00     0.358 C 
ENDROOT
BRANCH   1  10
HETATM   10  S1  UNL     1      11.809  12.487  -2.152  1.00  0.00     0.264 S 
HETATM   11  O2  UNL     1      10.686  11.465  -2.142  1.00  0.00    -0.203 OA
HETATM   12  O3  UNL     1      11.209  13.880  -1.966  1.00  0.00    -0.203 OA
BRANCH  10  13
HETATM   13  N1  UNL     1      12.885  12.229  -0.870  1.00  0.00    -0.283 N 
ATOM     14  H1  UNL     1      13.817  12.635  -0.950  1.00  0.00     0.178 HD
BRANCH  13  15
HETATM   15  C5  UNL     1      12.598  11.503   0.287  1.00  0.00     0.042 A 
HETATM   16  C4  UNL     1      11.338  11.300   0.751  1.00  0.00     0.033 A 
HETATM   17  C3  UNL     1      11.100  10.534   1.904  1.00  0.00     0.039 A 
HETATM   18  C2  UNL     1      12.150   9.980   2.576  1.00  0.00     0.068 A 
HETATM   19  C11 UNL     1      13.441  10.161   2.140  1.00  0.00     0.039 A 
HETATM   20  C10 UNL     1      13.651  10.916   1.007  1.00  0.00     0.033 A 
BRANCH  18  21
HETATM   21  O1  UNL     1      11.879   9.218   3.728  1.00  0.00    -0.356 OA
HETATM   22  C1  UNL     1      10.861   8.219   3.707  1.00  0.00     0.210 C 
ENDBRANCH  18  21
ENDBRANCH  13  15
ENDBRANCH  10  13
ENDBRANCH   1  10
BRANCH   9  23
HETATM   23  N5  UNL     1      14.339  11.056  -2.870  1.00  0.00    -0.045 NA
BRANCH  23  24
HETATM   24  O4  UNL     1      15.258  12.012  -2.954  1.00  0.00    -0.158 OA
BRANCH  24  25
HETATM   25  S2  UNL     1      16.369  11.960  -1.695  1.00  0.00     0.278 S 
HETATM   26  C9  UNL     1      18.001  12.395  -2.248  1.00  0.00     0.195 C 
HETATM   27  O5  UNL     1      16.352  10.567  -1.135  1.00  0.00    -0.198 OA
HETATM   28  O6  UNL     1      16.003  12.901  -0.587  1.00  0.00    -0.198 OA
ENDBRANCH  24  25
ENDBRANCH  23  24
ENDBRANCH   9  23
BRANCH   5  29
HETATM   29  N3  UNL     1      10.068  10.262  -4.706  1.00  0.00    -0.026 N 
ATOM     30  H33 UNL     1       9.371  10.999  -4.807  1.00  0.00     0.278 HD
ATOM     31  H32 UNL     1       9.808   9.673  -5.497  1.00  0.00     0.278 HD
ATOM     32  H31 UNL     1       9.940   9.762  -3.827  1.00  0.00     0.278 HD
ENDBRANCH   5  29
TORSDOF 8
ENDMDL
MODEL 4
REMARK VINA RESULT: -6.942997924      3.893      7.849
REMARK  8 active torsions:
REMARK  status: ('A' for Active; 'I' for Inactive)
REMARK    1  A    between atoms: O1_2  and  C2_3 
REMARK    2  A    between atoms: C5_6  and  N1_7 
REMARK    3  A    between atoms: N1_7  and  S1_9 
REMARK    4  A    between atoms: S1_9  and  C6_12 
REMARK    5  A    between atoms: C7_16  and  N3_17 
REMARK    6  A    between atoms: C8_24  and  N5_25 
REMARK    7  A    between atoms: N5_25  and  O4_26 
REMARK    8  A    between atoms: O4_26  and  S2_27 
ROOT
HETATM    1  C6  UNL     1      11.336  10.632  -1.636  1.00  0.00     0.380 C 
HETATM    2  N2  UNL     1      11.117  10.143  -0.264  1.00  0.00     0.001 N 
ATOM      3  H21 UNL     1      11.764   9.401   0.004  1.00  0.00     0.283 HD
ATOM      4  H22 UNL     1      10.255   9.608  -0.163  1.00  0.00     0.283 HD
HETATM    5  C7  UNL     1      11.177  11.285   0.607  1.00  0.00     0.581 C 
HETATM    6  N4  UNL     1      11.330  12.456  -0.238  1.00  0.00     0.002 N 
ATOM      7  H41 UNL     1      11.728  13.278   0.216  1.00  0.00     0.283 HD
ATOM      8  H42 UNL     1      10.463  12.919  -0.510  1.00  0.00     0.283 HD
HETATM    9  C8  UNL     1      12.112  11.903  -1.327  1.00  0.00     0.358 C 
ENDROOT
BRANCH   1  10
HETATM   10  S1  UNL     1       9.746  11.035  -2.284  1.00  0.00     0.264 S 
HETATM   11  O2  UNL     1       9.665  12.540  -2.471  1.00  0.00    -0.203 OA
HETATM   12  O3  UNL     1       8.738  10.617  -1.214  1.00  0.00    -0.203 OA
BRANCH  10  13
HETATM   13  N1  UNL     1       9.335  10.217  -3.708  1.00  0.00    -0.283 N 
ATOM     14  H1  UNL     1      10.063   9.660  -4.156  1.00  0.00     0.178 HD
BRANCH  13  15
HETATM   15  C5  UNL     1       8.079  10.243  -4.317  1.00  0.00     0.042 A 
HETATM   16  C4  UNL     1       7.591  11.321  -4.981  1.00  0.00     0.033 A 
HETATM   17  C3  UNL     1       6.334  11.286  -5.605  1.00  0.00     0.039 A 
HETATM   18  C2  UNL     1       5.582  10.149  -5.546  1.00  0.00     0.068 A 
HETATM   19  C11 UNL     1       6.039   9.035  -4.885  1.00  0.00     0.039 A 
HETATM   20  C10 UNL     1       7.276   9.093  -4.280  1.00  0.00     0.033 A 
BRANCH  18  21
HETATM   21  O1  UNL     1       4.326  10.145  -6.182  1.00  0.00    -0.356 OA
HETATM   22  C1  UNL     1       3.257   9.360  -5.659  1.00  0.00     0.210 C 
ENDBRANCH  18  21
ENDBRANCH  13  15
ENDBRANCH  10  13
ENDBRANCH   1  10
BRANCH   9  23
HETATM   23  N5  UNL     1      12.172  12.779  -2.473  1.00  0.00    -0.045 NA
BRANCH  23  24
HETATM   24  O4  UNL     1      13.186  12.404  -3.247  1.00  0.00    -0.158 OA
BRANCH  24  25
HETATM   25  S2  UNL     1      12.717  12.100  -4.832  1.00  0.00     0.278 S 
HETATM   26  C9  UNL     1      11.483  13.254  -5.380  1.00  0.00     0.195 C 
HETATM   27  O5  UNL     1      12.190  10.694  -4.884  1.00  0.00    -0.198 OA
HETATM   28  O6  UNL     1      13.872  12.188  -5.783  1.00  0.00    -0.198 OA
ENDBRANCH  24  25
ENDBRANCH  23  24
ENDBRANCH   9  23
BRANCH   5  29
HETATM   29  N3  UNL     1      10.040  11.388   1.497  1.00  0.00    -0.026 N 
ATOM     30  H33 UNL     1       9.848  12.363   1.726  1.00  0.00     0.278 HD
ATOM     31  H32 UNL     1       9.176  11.155   1.009  1.00  0.00     0.278 HD
ATOM     32  H31 UNL     1      10.139  10.830   2.345  1.00  0.00     0.278 HD
ENDBRANCH   5  29
TORSDOF 8
ENDMDL
MODEL 5
REMARK VINA RESULT: -6.917420167      4.192      7.326
REMARK  8 active torsions:
REMARK  status: ('A' for Active; 'I' for Inactive)
REMARK    1  A    between atoms: O1_2  and  C2_3 
REMARK    2  A    between atoms: C5_6  and  N1_7 
REMARK    3  A    between atoms: N1_7  and  S1_9 
REMARK    4  A    between atoms: S1_9  and  C6_12 
REMARK    5  A    between atoms: C7_16  and  N3_17 
REMARK    6  A    between atoms: C8_24  and  N5_25 
REMARK    7  A    between atoms: N5_25  and  O4_26 
REMARK    8  A    between atoms: O4_26  and  S2_27 
ROOT
HETATM    1  C6  UNL     1      11.255  10.489  -1.657  1.00  0.00     0.380 C 
HETATM    2  N2  UNL     1      10.480  10.807  -0.446  1.00  0.00     0.001 N 
ATOM      3  H21 UNL     1      10.487  10.053   0.243  1.00  0.00     0.283 HD
ATOM      4  H22 UNL     1       9.474  10.827  -0.608  1.00  0.00     0.283 HD
HETATM    5  C7  UNL     1      10.993  12.046   0.072  1.00  0.00     0.581 C 
HETATM    6  N4  UNL     1      11.993  12.518  -0.869  1.00  0.00     0.002 N 
ATOM      7  H41 UNL     1      12.678  13.173  -0.492  1.00  0.00     0.283 HD
ATOM      8  H42 UNL     1      11.654  13.153  -1.591  1.00  0.00     0.283 HD
HETATM    9  C8  UNL     1      12.530  11.258  -1.346  1.00  0.00     0.358 C 
ENDROOT
BRANCH   1  10
HETATM   10  S1  UNL     1      10.407  11.242  -3.007  1.00  0.00     0.264 S 
HETATM   11  O2  UNL     1      11.300  12.316  -3.603  1.00  0.00    -0.203 OA
HETATM   12  O3  UNL     1       9.170  11.909  -2.406  1.00  0.00    -0.203 OA
BRANCH  10  13
HETATM   13  N1  UNL     1       9.869  10.161  -4.194  1.00  0.00    -0.283 N 
ATOM     14  H1  UNL     1      10.547   9.498  -4.568  1.00  0.00     0.178 HD
BRANCH  13  15
HETATM   15  C5  UNL     1       8.569  10.107  -4.702  1.00  0.00     0.042 A 
HETATM   16  C4  UNL     1       7.605   9.291  -4.207  1.00  0.00     0.033 A 
HETATM   17  C3  UNL     1       6.303   9.297  -4.733  1.00  0.00     0.039 A 
HETATM   18  C2  UNL     1       5.995  10.138  -5.762  1.00  0.00     0.068 A 
HETATM   19  C11 UNL     1       6.941  10.981  -6.292  1.00  0.00     0.039 A 
HETATM   20  C10 UNL     1       8.212  10.957  -5.761  1.00  0.00     0.033 A 
BRANCH  18  21
HETATM   21  O1  UNL     1       4.681  10.121  -6.268  1.00  0.00    -0.356 OA
HETATM   22  C1  UNL     1       3.701   9.256  -5.698  1.00  0.00     0.210 C 
ENDBRANCH  18  21
ENDBRANCH  13  15
ENDBRANCH  10  13
ENDBRANCH   1  10
BRANCH   9  23
HETATM   23  N5  UNL     1      13.357  11.411  -2.520  1.00  0.00    -0.045 NA
BRANCH  23  24
HETATM   24  O4  UNL     1      14.350  12.249  -2.240  1.00  0.00    -0.158 OA
BRANCH  24  25
HETATM   25  S2  UNL     1      15.775  11.458  -1.834  1.00  0.00     0.278 S 
HETATM   26  C9  UNL     1      15.998  11.379  -0.074  1.00  0.00     0.195 C 
HETATM   27  O5  UNL     1      16.907  12.207  -2.480  1.00  0.00    -0.198 OA
HETATM   28  O6  UNL     1      15.803  10.054  -2.356  1.00  0.00    -0.198 OA
ENDBRANCH  24  25
ENDBRANCH  23  24
ENDBRANCH   9  23
BRANCH   5  29
HETATM   29  N3  UNL     1       9.963  13.031   0.326  1.00  0.00    -0.026 N 
ATOM     30  H33 UNL     1       9.775  13.583  -0.511  1.00  0.00     0.278 HD
ATOM     31  H32 UNL     1       9.054  12.584   0.441  1.00  0.00     0.278 HD
ATOM     32  H31 UNL     1      10.170  13.637   1.120  1.00  0.00     0.278 HD
ENDBRANCH   5  29
TORSDOF 8
ENDMDL
