MODEL 1
REMARK VINA RESULT: -7.601588108      0.000      0.000
REMARK  10 active torsions:
REMARK  status: ('A' for Active; 'I' for Inactive)
REMARK    1  A    between atoms: C2_2  and  O1_3 
REMARK    2  A    between atoms: O1_3  and  C3_4 
REMARK    3  A    between atoms: C3_4  and  C4_6 
REMARK    4  A    between atoms: C4_6  and  O3_7 
REMARK    5  A    between atoms: O3_7  and  N1_8 
REMARK    6  A    between atoms: C5_10  and  C6_12 
REMARK    7  A    between atoms: C6_12  and  C7_13 
REMARK    8  A    between atoms: C7_13  and  N3_14 
REMARK    9  A    between atoms: C10_23  and  N5_24 
REMARK   10  A    between atoms: C11_29  and  C12_30 
ROOT
HETATM    1  C4  UNL     1      13.229  11.872  -1.600  1.00  0.00     0.258 C 
HETATM    2  C8  UNL     1      14.132  10.924  -2.357  1.00  0.00     0.155 C 
HETATM    3  S1  UNL     1      13.454  10.609  -3.977  1.00  0.00    -0.104 SA
HETATM    4  C9  UNL     1      11.688  10.830  -3.895  1.00  0.00     0.115 A 
HETATM    5  N4  UNL     1      10.967  10.620  -4.997  1.00  0.00    -0.184 N 
ATOM      6  H4  UNL     1      11.435  10.331  -5.856  1.00  0.00     0.185 HD
HETATM    7  C10 UNL     1       9.636  10.783  -4.994  1.00  0.00     0.677 A 
HETATM    8  N6  UNL     1       9.026  11.160  -3.872  1.00  0.00    -0.185 N 
ATOM      9  H6  UNL     1       8.013  11.281  -3.874  1.00  0.00     0.184 HD
HETATM   10  C11 UNL     1       9.724  11.390  -2.710  1.00  0.00     0.143 A 
HETATM   11  C13 UNL     1      11.086  11.219  -2.725  1.00  0.00     0.098 A 
HETATM   12  N8  UNL     1      11.878  11.413  -1.540  1.00  0.00    -0.344 N 
ATOM     13  H8  UNL     1      11.462  11.216  -0.629  1.00  0.00     0.163 HD
ENDROOT
BRANCH   1  14
HETATM   14  C3  UNL     1      13.244  13.219  -2.224  1.00  0.00     0.318 C 
HETATM   15  O2  UNL     1      14.216  13.615  -2.908  1.00  0.00    -0.259 OA
BRANCH  14  16
HETATM   16  O1  UNL     1      12.178  14.113  -2.083  1.00  0.00    -0.318 OA
BRANCH  16  17
HETATM   17  C2  UNL     1      12.090  14.967  -0.953  1.00  0.00     0.174 C 
HETATM   18  C1  UNL     1      12.683  16.306  -1.362  1.00  0.00     0.034 C 
ENDBRANCH  16  17
ENDBRANCH  14  16
ENDBRANCH   1  14
BRANCH   1  19
HETATM   19  O3  UNL     1      13.753  12.003  -0.304  1.00  0.00    -0.234 OA
BRANCH  19  20
HETATM   20  N1  UNL     1      13.123  11.383   0.748  1.00  0.00    -0.254 N 
HETATM   21  C5  UNL     1      13.745  10.585   1.551  1.00  0.00     0.115 C 
HETATM   22  N2  UNL     1      15.129  10.317   1.374  1.00  0.00    -0.086 NA
ATOM     23  H1  UNL     1      12.129  11.558   0.899  1.00  0.00     0.195 HD
BRANCH  21  24
HETATM   24  C6  UNL     1      13.060   9.916   2.687  1.00  0.00     0.102 C 
BRANCH  24  25
HETATM   25  C7  UNL     1      11.576   9.896   2.408  1.00  0.00     0.236 C 
BRANCH  25  26
HETATM   26  N3  UNL     1      10.918   8.736   2.914  1.00  0.00    -0.079 N 
ATOM     27  H33 UNL     1      11.124   7.922   2.336  1.00  0.00     0.274 HD
ATOM     28  H32 UNL     1      11.343   8.433   3.790  1.00  0.00     0.274 HD
ATOM     29  H31 UNL     1       9.911   8.854   3.023  1.00  0.00     0.274 HD
ENDBRANCH  25  26
ENDBRANCH  24  25
ENDBRANCH  21  24
ENDBRANCH  19  20
ENDBRANCH   1  19
BRANCH  10  30
HETATM   30  C12 UNL     1       8.994  11.829  -1.568  1.00  0.00     0.284 C 
HETATM   31  N7  UNL     1       7.626  11.420  -1.399  1.00  0.00    -0.056 NA
HETATM   32  O4  UNL     1       9.438  12.553  -0.678  1.00  0.00    -0.269 OA
ENDBRANCH  10  30
BRANCH   7  33
HETATM   33  N5  UNL     1       8.988  10.562  -6.097  1.00  0.00    -0.234 N 
ATOM     34  H52 UNL     1       9.438  10.604  -7.012  1.00  0.00     0.174 HD
ATOM     35  H51 UNL     1       7.995  10.340  -6.036  1.00  0.00     0.174 HD
ENDBRANCH   7  33
TORSDOF 10
ENDMDL
MODEL 2
REMARK VINA RESULT: -7.424740929      2.481      5.338
REMARK  10 active torsions:
REMARK  status: ('A' for Active; 'I' for Inactive)
REMARK    1  A    between atoms: C2_2  and  O1_3 
REMARK    2  A    between atoms: O1_3  and  C3_4 
REMARK    3  A    between atoms: C3_4  and  C4_6 
REMARK    4  A    between atoms: C4_6  and  O3_7 
REMARK    5  A    between atoms: O3_7  and  N1_8 
REMARK    6  A    between atoms: C5_10  and  C6_12 
REMARK    7  A    between atoms: C6_12  and  C7_13 
REMARK    8  A    between atoms: C7_13  and  N3_14 
REMARK    9  A    between atoms: C10_23  and  N5_24 
REMARK   10  A    between atoms: C11_29  and  C12_30 
ROOT
HETATM    1  C4  UNL     1      14.535  12.460  -0.955  1.00  0.00     0.258 C 
HETATM    2  C8  UNL     1      15.688  12.121  -0.036  1.00  0.00     0.155 C 
HETATM    3  S1  UNL     1      15.239  10.751   1.014  1.00  0.00    -0.104 SA
HETATM    4  C9  UNL     1      13.468  10.750   1.204  1.00  0.00     0.115 A 
HETATM    5  N4  UNL     1      12.910   9.817   1.976  1.00  0.00    -0.184 N 
ATOM      6  H4  UNL     1      13.503   9.133   2.446  1.00  0.00     0.185 HD
HETATM    7  C10 UNL     1      11.580   9.764   2.145  1.00  0.00     0.677 A 
HETATM    8  N6  UNL     1      10.807  10.658   1.531  1.00  0.00    -0.185 N 
ATOM      9  H6  UNL     1       9.797  10.613   1.664  1.00  0.00     0.184 HD
HETATM   10  C11 UNL     1      11.333  11.638   0.724  1.00  0.00     0.143 A 
HETATM   11  C13 UNL     1      12.695  11.683   0.560  1.00  0.00     0.098 A 
HETATM   12  N8  UNL     1      13.319  12.699  -0.246  1.00  0.00    -0.344 N 
ATOM     13  H8  UNL     1      12.879  13.617  -0.312  1.00  0.00     0.163 HD
ENDROOT
BRANCH   1  14
HETATM   14  C3  UNL     1      14.306  11.366  -1.932  1.00  0.00     0.318 C 
HETATM   15  O2  UNL     1      15.223  10.580  -2.264  1.00  0.00    -0.259 OA
BRANCH  14  16
HETATM   16  O1  UNL     1      13.060  11.156  -2.531  1.00  0.00    -0.318 OA
BRANCH  16  17
HETATM   17  C2  UNL     1      12.930  10.308  -3.662  1.00  0.00     0.174 C 
HETATM   18  C1  UNL     1      12.990  11.199  -4.892  1.00  0.00     0.034 C 
ENDBRANCH  16  17
ENDBRANCH  14  16
ENDBRANCH   1  14
BRANCH   1  19
HETATM   19  O3  UNL     1      14.902  13.604  -1.683  1.00  0.00    -0.234 OA
BRANCH  19  20
HETATM   20  N1  UNL     1      14.249  13.902  -2.854  1.00  0.00    -0.254 N 
HETATM   21  C5  UNL     1      13.298  14.774  -2.911  1.00  0.00     0.115 C 
HETATM   22  N2  UNL     1      12.888  15.472  -1.743  1.00  0.00    -0.086 NA
ATOM     23  H1  UNL     1      14.524  13.416  -3.708  1.00  0.00     0.195 HD
BRANCH  21  24
HETATM   24  C6  UNL     1      12.594  15.093  -4.179  1.00  0.00     0.102 C 
BRANCH  24  25
HETATM   25  C7  UNL     1      11.189  14.547  -4.099  1.00  0.00     0.236 C 
BRANCH  25  26
HETATM   26  N3  UNL     1      11.019  13.562  -3.081  1.00  0.00    -0.079 N 
ATOM     27  H33 UNL     1      10.030  13.365  -2.929  1.00  0.00     0.274 HD
ATOM     28  H32 UNL     1      11.325  12.646  -3.410  1.00  0.00     0.274 HD
ATOM     29  H31 UNL     1      11.477  13.801  -2.202  1.00  0.00     0.274 HD
ENDBRANCH  25  26
ENDBRANCH  24  25
ENDBRANCH  21  24
ENDBRANCH  19  20
ENDBRANCH   1  19
BRANCH  10  30
HETATM   30  C12 UNL     1      10.428  12.527   0.076  1.00  0.00     0.284 C 
HETATM   31  N7  UNL     1       9.285  11.996  -0.616  1.00  0.00    -0.056 NA
HETATM   32  O4  UNL     1      10.535  13.752   0.048  1.00  0.00    -0.269 OA
ENDBRANCH  10  30
BRANCH   7  33
HETATM   33  N5  UNL     1      11.096   8.834   2.910  1.00  0.00    -0.234 N 
ATOM     34  H52 UNL     1      10.376   9.020   3.608  1.00  0.00     0.174 HD
ATOM     35  H51 UNL     1      11.455   7.885   2.801  1.00  0.00     0.174 HD
ENDBRANCH   7  33
TORSDOF 10
ENDMDL
MODEL 3
REMARK VINA RESULT: -7.423961218      1.653      1.820
REMARK  10 active torsions:
REMARK  status: ('A' for Active; 'I' for Inactive)
REMARK    1  A    between atoms: C2_2  and  O1_3 
REMARK    2  A    between atoms: O1_3  and  C3_4 
REMARK    3  A    between atoms: C3_4  and  C4_6 
REMARK    4  A    between atoms: C4_6  and  O3_7 
REMARK    5  A    between atoms: O3_7  and  N1_8 
REMARK    6  A    between atoms: C5_10  and  C6_12 
REMARK    7  A    between atoms: C6_12  and  C7_13 
REMARK    8  A    between atoms: C7_13  and  N3_14 
REMARK    9  A    between atoms: C10_23  and  N5_24 
REMARK   10  A    between atoms: C11_29  and  C12_30 
ROOT
HETATM    1  C4  UNL     1      12.884  12.504  -1.374  1.00  0.00     0.258 C 
HETATM    2  C8  UNL     1      13.770  12.681  -2.587  1.00  0.00     0.155 C 
HETATM    3  S1  UNL     1      12.840  13.439  -3.907  1.00  0.00    -0.104 SA
HETATM    4  C9  UNL     1      11.121  13.031  -3.685  1.00  0.00     0.115 A 
HETATM    5  N4  UNL     1      10.238  13.477  -4.579  1.00  0.00    -0.184 N 
ATOM      6  H4  UNL     1      10.563  14.032  -5.372  1.00  0.00     0.185 HD
HETATM    7  C10 UNL     1       8.930  13.209  -4.453  1.00  0.00     0.677 A 
HETATM    8  N6  UNL     1       8.508  12.485  -3.418  1.00  0.00    -0.185 N 
ATOM      9  H6  UNL     1       7.512  12.283  -3.328  1.00  0.00     0.184 HD
HETATM   10  C11 UNL     1       9.377  12.003  -2.469  1.00  0.00     0.143 A 
HETATM   11  C13 UNL     1      10.713  12.283  -2.608  1.00  0.00     0.098 A 
HETATM   12  N8  UNL     1      11.684  11.787  -1.670  1.00  0.00    -0.344 N 
ATOM     13  H8  UNL     1      11.511  10.897  -1.203  1.00  0.00     0.163 HD
ENDROOT
BRANCH   1  14
HETATM   14  C3  UNL     1      12.518  13.822  -0.797  1.00  0.00     0.318 C 
HETATM   15  O2  UNL     1      11.537  13.954  -0.031  1.00  0.00    -0.259 OA
BRANCH  14  16
HETATM   16  O1  UNL     1      13.249  14.981  -1.077  1.00  0.00    -0.318 OA
BRANCH  16  17
HETATM   17  C2  UNL     1      12.593  16.220  -1.294  1.00  0.00     0.174 C 
HETATM   18  C1  UNL     1      13.604  17.146  -1.952  1.00  0.00     0.034 C 
ENDBRANCH  16  17
ENDBRANCH  14  16
ENDBRANCH   1  14
BRANCH   1  19
HETATM   19  O3  UNL     1      13.632  11.813  -0.407  1.00  0.00    -0.234 OA
BRANCH  19  20
HETATM   20  N1  UNL     1      13.004  11.317   0.710  1.00  0.00    -0.254 N 
HETATM   21  C5  UNL     1      13.620  10.590   1.582  1.00  0.00     0.115 C 
HETATM   22  N2  UNL     1      14.994  10.271   1.414  1.00  0.00    -0.086 NA
ATOM     23  H1  UNL     1      12.018  11.532   0.855  1.00  0.00     0.195 HD
BRANCH  21  24
HETATM   24  C6  UNL     1      12.937  10.055   2.788  1.00  0.00     0.102 C 
BRANCH  24  25
HETATM   25  C7  UNL     1      11.464   9.920   2.485  1.00  0.00     0.236 C 
BRANCH  25  26
HETATM   26  N3  UNL     1      10.898   8.696   2.950  1.00  0.00    -0.079 N 
ATOM     27  H33 UNL     1      10.741   8.730   3.957  1.00  0.00     0.274 HD
ATOM     28  H32 UNL     1       9.934   8.599   2.632  1.00  0.00     0.274 HD
ATOM     29  H31 UNL     1      11.446   7.872   2.699  1.00  0.00     0.274 HD
ENDBRANCH  25  26
ENDBRANCH  24  25
ENDBRANCH  21  24
ENDBRANCH  19  20
ENDBRANCH   1  19
BRANCH  10  30
HETATM   30  C12 UNL     1       8.832  11.272  -1.374  1.00  0.00     0.284 C 
HETATM   31  N7  UNL     1       9.301  11.538  -0.040  1.00  0.00    -0.056 NA
HETATM   32  O4  UNL     1       7.968  10.401  -1.462  1.00  0.00    -0.269 OA
ENDBRANCH  10  30
BRANCH   7  33
HETATM   33  N5  UNL     1       8.120  13.670  -5.356  1.00  0.00    -0.234 N 
ATOM     34  H52 UNL     1       8.045  13.256  -6.286  1.00  0.00     0.174 HD
ATOM     35  H51 UNL     1       7.541  14.475  -5.119  1.00  0.00     0.174 HD
ENDBRANCH   7  33
TORSDOF 10
ENDMDL
MODEL 4
REMARK VINA RESULT: -7.357465111      2.099      5.906
REMARK  10 active torsions:
REMARK  status: ('A' for Active; 'I' for Inactive)
REMARK    1  A    between atoms: C2_2  and  O1_3 
REMARK    2  A    between atoms: O1_3  and  C3_4 
REMARK    3  A    between atoms: C3_4  and  C4_6 
REMARK    4  A    between atoms: C4_6  and  O3_7 
REMARK    5  A    between atoms: O3_7  and  N1_8 
REMARK    6  A    between atoms: C5_10  and  C6_12 
REMARK    7  A    between atoms: C6_12  and  C7_13 
REMARK    8  A    between atoms: C7_13  and  N3_14 
REMARK    9  A    between atoms: C10_23  and  N5_24 
REMARK   10  A    between atoms: C11_29  and  C12_30 
ROOT
HETATM    1  C4  UNL     1      11.055  12.496  -1.313  1.00  0.00     0.258 C 
HETATM    2  C8  UNL     1      11.640  13.771  -1.880  1.00  0.00     0.155 C 
HETATM    3  S1  UNL     1      13.420  13.658  -1.905  1.00  0.00    -0.104 SA
HETATM    4  C9  UNL     1      13.926  12.533  -0.620  1.00  0.00     0.115 A 
HETATM    5  N4  UNL     1      15.229  12.315  -0.439  1.00  0.00    -0.184 N 
ATOM      6  H4  UNL     1      15.906  12.798  -1.030  1.00  0.00     0.185 HD
HETATM    7  C10 UNL     1      15.664  11.469   0.507  1.00  0.00     0.677 A 
HETATM    8  N6  UNL     1      14.780  10.838   1.277  1.00  0.00    -0.185 N 
ATOM      9  H6  UNL     1      15.116  10.197   1.995  1.00  0.00     0.184 HD
HETATM   10  C11 UNL     1      13.427  11.028   1.130  1.00  0.00     0.143 A 
HETATM   11  C13 UNL     1      12.993  11.897   0.160  1.00  0.00     0.098 A 
HETATM   12  N8  UNL     1      11.593  12.167  -0.032  1.00  0.00    -0.344 N 
ATOM     13  H8  UNL     1      10.966  12.123   0.772  1.00  0.00     0.163 HD
ENDROOT
BRANCH   1  14
HETATM   14  C3  UNL     1      11.294  11.356  -2.234  1.00  0.00     0.318 C 
HETATM   15  O2  UNL     1      11.334  10.175  -1.821  1.00  0.00    -0.259 OA
BRANCH  14  16
HETATM   16  O1  UNL     1      11.487  11.542  -3.607  1.00  0.00    -0.318 OA
BRANCH  16  17
HETATM   17  C2  UNL     1      12.475  10.804  -4.309  1.00  0.00     0.174 C 
HETATM   18  C1  UNL     1      13.170  11.778  -5.247  1.00  0.00     0.034 C 
ENDBRANCH  16  17
ENDBRANCH  14  16
ENDBRANCH   1  14
BRANCH   1  19
HETATM   19  O3  UNL     1       9.666  12.679  -1.222  1.00  0.00    -0.234 OA
BRANCH  19  20
HETATM   20  N1  UNL     1       8.867  12.356  -2.292  1.00  0.00    -0.254 N 
HETATM   21  C5  UNL     1       8.049  11.357  -2.266  1.00  0.00     0.115 C 
HETATM   22  N2  UNL     1       7.941  10.543  -1.106  1.00  0.00    -0.086 NA
ATOM     23  H1  UNL     1       8.924  12.925  -3.137  1.00  0.00     0.195 HD
BRANCH  21  24
HETATM   24  C6  UNL     1       7.187  11.011  -3.426  1.00  0.00     0.102 C 
BRANCH  24  25
HETATM   25  C7  UNL     1       7.601   9.655  -3.943  1.00  0.00     0.236 C 
BRANCH  25  26
HETATM   26  N3  UNL     1       9.014   9.496  -4.058  1.00  0.00    -0.079 N 
ATOM     27  H33 UNL     1       9.309   8.597  -3.678  1.00  0.00     0.274 HD
ATOM     28  H32 UNL     1       9.283   9.364  -5.033  1.00  0.00     0.274 HD
ATOM     29  H31 UNL     1       9.545  10.258  -3.637  1.00  0.00     0.274 HD
ENDBRANCH  25  26
ENDBRANCH  24  25
ENDBRANCH  21  24
ENDBRANCH  19  20
ENDBRANCH   1  19
BRANCH  10  30
HETATM   30  C12 UNL     1      12.551  10.281   1.971  1.00  0.00     0.284 C 
HETATM   31  N7  UNL     1      12.987   9.900   3.288  1.00  0.00    -0.056 NA
HETATM   32  O4  UNL     1      11.417   9.916   1.668  1.00  0.00    -0.269 OA
ENDBRANCH  10  30
BRANCH   7  33
HETATM   33  N5  UNL     1      16.945  11.299   0.635  1.00  0.00    -0.234 N 
ATOM     34  H52 UNL     1      17.518  11.895   1.231  1.00  0.00     0.174 HD
ATOM     35  H51 UNL     1      17.384  10.538   0.116  1.00  0.00     0.174 HD
ENDBRANCH   7  33
TORSDOF 10
ENDMDL
MODEL 5
REMARK VINA RESULT: -7.112026913      2.728      5.565
REMARK  10 active torsions:
REMARK  status: ('A' for Active; 'I' for Inactive)
REMARK    1  A    between atoms: C2_2  and  O1_3 
REMARK    2  A    between atoms: O1_3  and  C3_4 
REMARK    3  A    between atoms: C3_4  and  C4_6 
REMARK    4  A    between atoms: C4_6  and  O3_7 
REMARK    5  A    between atoms: O3_7  and  N1_8 
REMARK    6  A    between atoms: C5_10  and  C6_12 
REMARK    7  A    between atoms: C6_12  and  C7_13 
REMARK    8  A    between atoms: C7_13  and  N3_14 
REMARK    9  A    between atoms: C10_23  and  N5_24 
REMARK   10  A    between atoms: C11_29  and  C12_30 
ROOT
HETATM    1  C4  UNL     1      14.289  12.474  -1.026  1.00  0.00     0.258 C 
HETATM    2  C8  UNL     1      15.471  12.188  -0.127  1.00  0.00     0.155 C 
HETATM    3  S1  UNL     1      15.089  10.822   0.955  1.00  0.00    -0.104 SA
HETATM    4  C9  UNL     1      13.323  10.768   1.184  1.00  0.00     0.115 A 
HETATM    5  N4  UNL     1      12.811   9.831   1.983  1.00  0.00    -0.184 N 
ATOM      6  H4  UNL     1      13.436   9.174   2.451  1.00  0.00     0.185 HD
HETATM    7  C10 UNL     1      11.488   9.739   2.181  1.00  0.00     0.677 A 
HETATM    8  N6  UNL     1      10.674  10.597   1.569  1.00  0.00    -0.185 N 
ATOM      9  H6  UNL     1       9.668  10.523   1.725  1.00  0.00     0.184 HD
HETATM   10  C11 UNL     1      11.151  11.580   0.735  1.00  0.00     0.143 A 
HETATM   11  C13 UNL     1      12.507  11.665   0.541  1.00  0.00     0.098 A 
HETATM   12  N8  UNL     1      13.081  12.687  -0.295  1.00  0.00    -0.344 N 
ATOM     13  H8  UNL     1      12.611  13.589  -0.366  1.00  0.00     0.163 HD
ENDROOT
BRANCH   1  14
HETATM   14  C3  UNL     1      14.075  11.356  -1.980  1.00  0.00     0.318 C 
HETATM   15  O2  UNL     1      15.035  10.722  -2.474  1.00  0.00    -0.259 OA
BRANCH  14  16
HETATM   16  O1  UNL     1      12.796  10.954  -2.375  1.00  0.00    -0.318 OA
BRANCH  16  17
HETATM   17  C2  UNL     1      12.296  11.278  -3.663  1.00  0.00     0.174 C 
HETATM   18  C1  UNL     1      11.356  12.461  -3.488  1.00  0.00     0.034 C 
ENDBRANCH  16  17
ENDBRANCH  14  16
ENDBRANCH   1  14
BRANCH   1  19
HETATM   19  O3  UNL     1      14.604  13.616  -1.780  1.00  0.00    -0.234 OA
BRANCH  19  20
HETATM   20  N1  UNL     1      13.712  14.659  -1.835  1.00  0.00    -0.254 N 
HETATM   21  C5  UNL     1      14.040  15.865  -1.508  1.00  0.00     0.115 C 
HETATM   22  N2  UNL     1      15.360  16.162  -1.073  1.00  0.00    -0.086 NA
ATOM     23  H1  UNL     1      12.758  14.475  -2.145  1.00  0.00     0.195 HD
BRANCH  21  24
HETATM   24  C6  UNL     1      13.072  16.991  -1.569  1.00  0.00     0.102 C 
BRANCH  24  25
HETATM   25  C7  UNL     1      13.780  18.204  -2.123  1.00  0.00     0.236 C 
BRANCH  25  26
HETATM   26  N3  UNL     1      14.286  18.014  -3.443  1.00  0.00    -0.079 N 
ATOM     27  H33 UNL     1      15.294  17.857  -3.425  1.00  0.00     0.274 HD
ATOM     28  H32 UNL     1      13.983  17.117  -3.821  1.00  0.00     0.274 HD
ATOM     29  H31 UNL     1      14.051  18.773  -4.082  1.00  0.00     0.274 HD
ENDBRANCH  25  26
ENDBRANCH  24  25
ENDBRANCH  21  24
ENDBRANCH  19  20
ENDBRANCH   1  19
BRANCH  10  30
HETATM   30  C12 UNL     1      10.205  12.429   0.092  1.00  0.00     0.284 C 
HETATM   31  N7  UNL     1       9.110  11.847  -0.638  1.00  0.00    -0.056 NA
HETATM   32  O4  UNL     1      10.235  13.658   0.099  1.00  0.00    -0.269 OA
ENDBRANCH  10  30
BRANCH   7  33
HETATM   33  N5  UNL     1      11.050   8.807   2.971  1.00  0.00    -0.234 N 
ATOM     34  H52 UNL     1      11.673   8.143   3.431  1.00  0.00     0.174 HD
ATOM     35  H51 UNL     1      10.044   8.744   3.130  1.00  0.00     0.174 HD
ENDBRANCH   7  33
TORSDOF 10
ENDMDL
