MODEL 1
REMARK VINA RESULT: -7.466011176      0.000      0.000
REMARK  4 active torsions:
REMARK  status: ('A' for Active; 'I' for Inactive)
REMARK    1  A    between atoms: C6_6  and  N1_7 
REMARK    2  A    between atoms: C9_10  and  C10_11 
REMARK       I    between atoms: C10_11  and  N2_13 
REMARK    3  A    between atoms: N2_13  and  C11_15 
REMARK    4  A    between atoms: C13_17  and  N3_18 
ROOT
HETATM    1  C10 UNL     1      31.000  -4.495  -9.412  1.00  0.00     0.223 C 
HETATM    2  O1  UNL     1      32.101  -4.376  -8.787  1.00  0.00    -0.273 OA
HETATM    3  N2  UNL     1      31.044  -4.497 -10.809  1.00  0.00    -0.356 N 
ATOM      4  H2  UNL     1      30.134  -4.570 -11.262  1.00  0.00     0.162 HD
ENDROOT
BRANCH   1   5
HETATM    5  C9  UNL     1      29.776  -4.628  -8.611  1.00  0.00     0.107 C 
HETATM    6  C8  UNL     1      28.933  -5.721  -9.253  1.00  0.00     0.046 C 
HETATM    7  C7  UNL     1      29.508  -6.985  -8.559  1.00  0.00     0.273 C 
HETATM    8  N1  UNL     1      29.694  -6.553  -7.184  1.00  0.00     0.093 N 
HETATM    9  C19 UNL     1      29.954  -5.138  -7.221  1.00  0.00     0.287 C 
BRANCH   8  10
HETATM   10  C6  UNL     1      28.590  -6.834  -6.337  1.00  0.00     0.223 C 
HETATM   11  C5  UNL     1      28.379  -5.817  -5.280  1.00  0.00     0.036 C 
HETATM   12  C4  UNL     1      28.371  -6.315  -3.864  1.00  0.00     0.002 C 
HETATM   13  C3  UNL     1      27.040  -6.939  -3.446  1.00  0.00     0.004 C 
HETATM   14  C2  UNL     1      27.198  -8.417  -3.740  1.00  0.00    -0.019 C 
HETATM   15  C1  UNL     1      26.206  -9.301  -3.065  1.00  0.00     0.010 C 
HETATM   16  C21 UNL     1      27.177  -8.513  -5.264  1.00  0.00     0.006 C 
HETATM   17  C20 UNL     1      28.593  -8.245  -5.785  1.00  0.00     0.036 C 
ENDBRANCH   8  10
ENDBRANCH   1   5
BRANCH   3  18
HETATM   18  C11 UNL     1      32.147  -4.414 -11.705  1.00  0.00     0.088 A 
HETATM   19  C12 UNL     1      31.738  -4.490 -13.192  1.00  0.00     0.061 A 
HETATM   20  C13 UNL     1      32.504  -5.790 -13.337  1.00  0.00     0.227 A 
HETATM   21  C18 UNL     1      32.907  -5.683 -11.895  1.00  0.00     0.061 A 
BRANCH  20  22
HETATM   22  N3  UNL     1      31.712  -6.904 -13.700  1.00  0.00     0.096 N 
HETATM   23  C14 UNL     1      32.234  -8.134 -13.211  1.00  0.00     0.300 C 
HETATM   24  C15 UNL     1      31.641  -9.322 -14.000  1.00  0.00     0.262 C 
HETATM   25  N4  UNL     1      30.278  -9.020 -14.367  1.00  0.00    -0.072 N 
HETATM   26  C16 UNL     1      30.280  -7.950 -15.351  1.00  0.00     0.262 C 
ATOM     27  H42 UNL     1      29.770  -9.844 -14.690  1.00  0.00     0.277 HD
ATOM     28  H41 UNL     1      29.697  -8.802 -13.558  1.00  0.00     0.277 HD
HETATM   29  C17 UNL     1      31.420  -6.957 -15.107  1.00  0.00     0.300 C 
ENDBRANCH  20  22
ENDBRANCH   3  18
TORSDOF 4
ENDMDL
MODEL 2
REMARK VINA RESULT: -7.425853152      2.480      4.035
REMARK  4 active torsions:
REMARK  status: ('A' for Active; 'I' for Inactive)
REMARK    1  A    between atoms: C6_6  and  N1_7 
REMARK    2  A    between atoms: C9_10  and  C10_11 
REMARK       I    between atoms: C10_11  and  N2_13 
REMARK    3  A    between atoms: N2_13  and  C11_15 
REMARK    4  A    between atoms: C13_17  and  N3_18 
ROOT
HETATM    1  C10 UNL     1      31.785 -10.427  -9.350  1.00  0.00     0.223 C 
HETATM    2  O1  UNL     1      32.854 -11.110  -9.270  1.00  0.00    -0.273 OA
HETATM    3  N2  UNL     1      31.519  -9.776 -10.558  1.00  0.00    -0.356 N 
ATOM      4  H2  UNL     1      30.663  -9.222 -10.562  1.00  0.00     0.162 HD
ENDROOT
BRANCH   1   5
HETATM    5  C9  UNL     1      30.915 -10.386  -8.166  1.00  0.00     0.107 C 
HETATM    6  C8  UNL     1      31.810 -10.158  -6.957  1.00  0.00     0.046 C 
HETATM    7  C7  UNL     1      31.891  -8.608  -6.934  1.00  0.00     0.273 C 
HETATM    8  N1  UNL     1      30.534  -8.200  -7.256  1.00  0.00     0.093 N 
HETATM    9  C19 UNL     1      29.972  -9.233  -8.086  1.00  0.00     0.287 C 
BRANCH   8  10
HETATM   10  C6  UNL     1      29.715  -7.975  -6.118  1.00  0.00     0.223 C 
HETATM   11  C5  UNL     1      30.412  -8.207  -4.831  1.00  0.00     0.036 C 
HETATM   12  C4  UNL     1      29.784  -9.203  -3.900  1.00  0.00     0.002 C 
HETATM   13  C3  UNL     1      28.615  -8.634  -3.097  1.00  0.00     0.004 C 
HETATM   14  C2  UNL     1      27.387  -8.953  -3.925  1.00  0.00    -0.019 C 
HETATM   15  C1  UNL     1      26.093  -8.861  -3.191  1.00  0.00     0.010 C 
HETATM   16  C21 UNL     1      27.481  -8.023  -5.132  1.00  0.00     0.006 C 
HETATM   17  C20 UNL     1      28.378  -8.684  -6.184  1.00  0.00     0.036 C 
ENDBRANCH   8  10
ENDBRANCH   1   5
BRANCH   3  18
HETATM   18  C11 UNL     1      32.244  -9.757 -11.782  1.00  0.00     0.088 A 
HETATM   19  C12 UNL     1      33.388  -8.720 -11.804  1.00  0.00     0.061 A 
HETATM   20  C13 UNL     1      32.685  -7.967 -12.916  1.00  0.00     0.227 A 
HETATM   21  C18 UNL     1      31.596  -8.999 -12.892  1.00  0.00     0.061 A 
BRANCH  20  22
HETATM   22  N3  UNL     1      32.318  -6.640 -12.589  1.00  0.00     0.096 N 
HETATM   23  C14 UNL     1      32.150  -5.816 -13.738  1.00  0.00     0.300 C 
HETATM   24  C15 UNL     1      32.225  -4.325 -13.346  1.00  0.00     0.262 C 
HETATM   25  N4  UNL     1      31.650  -4.146 -12.033  1.00  0.00    -0.072 N 
HETATM   26  C16 UNL     1      32.512  -4.780 -11.050  1.00  0.00     0.262 C 
ATOM     27  H42 UNL     1      31.470  -3.165 -11.818  1.00  0.00     0.277 HD
ATOM     28  H41 UNL     1      30.688  -4.481 -11.981  1.00  0.00     0.277 HD
HETATM   29  C17 UNL     1      33.181  -6.039 -11.609  1.00  0.00     0.300 C 
ENDBRANCH  20  22
ENDBRANCH   3  18
TORSDOF 4
ENDMDL
MODEL 3
REMARK VINA RESULT: -7.372656124      2.791      4.791
REMARK  4 active torsions:
REMARK  status: ('A' for Active; 'I' for Inactive)
REMARK    1  A    between atoms: C6_6  and  N1_7 
REMARK    2  A    between atoms: C9_10  and  C10_11 
REMARK       I    between atoms: C10_11  and  N2_13 
REMARK    3  A    between atoms: N2_13  and  C11_15 
REMARK    4  A    between atoms: C13_17  and  N3_18 
ROOT
HETATM    1  C10 UNL     1      30.679  -7.752  -8.911  1.00  0.00     0.223 C 
HETATM    2  O1  UNL     1      31.334  -8.233  -7.933  1.00  0.00    -0.273 OA
HETATM    3  N2  UNL     1      31.224  -7.893 -10.190  1.00  0.00    -0.356 N 
ATOM      4  H2  UNL     1      30.673  -7.469 -10.936  1.00  0.00     0.162 HD
ENDROOT
BRANCH   1   5
HETATM    5  C9  UNL     1      29.399  -7.095  -8.613  1.00  0.00     0.107 C 
HETATM    6  C8  UNL     1      29.542  -6.424  -7.255  1.00  0.00     0.046 C 
HETATM    7  C7  UNL     1      30.136  -5.050  -7.663  1.00  0.00     0.273 C 
HETATM    8  N1  UNL     1      29.393  -4.711  -8.865  1.00  0.00     0.093 N 
HETATM    9  C19 UNL     1      29.028  -5.952  -9.496  1.00  0.00     0.287 C 
BRANCH   8  10
HETATM   10  C6  UNL     1      28.241  -3.916  -8.625  1.00  0.00     0.223 C 
HETATM   11  C5  UNL     1      27.051  -4.350  -9.396  1.00  0.00     0.036 C 
HETATM   12  C4  UNL     1      26.410  -3.317 -10.276  1.00  0.00     0.002 C 
HETATM   13  C3  UNL     1      25.496  -2.354  -9.518  1.00  0.00     0.004 C 
HETATM   14  C2  UNL     1      26.386  -1.184  -9.153  1.00  0.00    -0.019 C 
HETATM   15  C1  UNL     1      25.662   0.059  -8.762  1.00  0.00     0.010 C 
HETATM   16  C21 UNL     1      27.314  -1.726  -8.069  1.00  0.00     0.006 C 
HETATM   17  C20 UNL     1      28.495  -2.428  -8.749  1.00  0.00     0.036 C 
ENDBRANCH   8  10
ENDBRANCH   1   5
BRANCH   3  18
HETATM   18  C11 UNL     1      32.421  -8.528 -10.625  1.00  0.00     0.088 A 
HETATM   19  C12 UNL     1      33.159  -7.754 -11.740  1.00  0.00     0.061 A 
HETATM   20  C13 UNL     1      32.923  -8.906 -12.697  1.00  0.00     0.227 A 
HETATM   21  C18 UNL     1      32.230  -9.648 -11.592  1.00  0.00     0.061 A 
BRANCH  20  22
HETATM   22  N3  UNL     1      32.148  -8.579 -13.834  1.00  0.00     0.096 N 
HETATM   23  C14 UNL     1      31.654  -9.728 -14.513  1.00  0.00     0.300 C 
HETATM   24  C15 UNL     1      31.240  -9.365 -15.956  1.00  0.00     0.262 C 
HETATM   25  N4  UNL     1      30.707  -8.023 -15.977  1.00  0.00    -0.072 N 
HETATM   26  C16 UNL     1      31.781  -7.083 -15.704  1.00  0.00     0.262 C 
ATOM     27  H42 UNL     1      30.218  -7.813 -16.847  1.00  0.00     0.277 HD
ATOM     28  H41 UNL     1      29.918  -7.908 -15.340  1.00  0.00     0.277 HD
HETATM   29  C17 UNL     1      32.806  -7.661 -14.723  1.00  0.00     0.300 C 
ENDBRANCH  20  22
ENDBRANCH   3  18
TORSDOF 4
ENDMDL
MODEL 4
REMARK VINA RESULT: -7.323638525      2.969      9.505
REMARK  4 active torsions:
REMARK  status: ('A' for Active; 'I' for Inactive)
REMARK    1  A    between atoms: C6_6  and  N1_7 
REMARK    2  A    between atoms: C9_10  and  C10_11 
REMARK       I    between atoms: C10_11  and  N2_13 
REMARK    3  A    between atoms: N2_13  and  C11_15 
REMARK    4  A    between atoms: C13_17  and  N3_18 
ROOT
HETATM    1  C10 UNL     1      32.445 -10.047  -8.528  1.00  0.00     0.223 C 
HETATM    2  O1  UNL     1      33.693 -10.284  -8.601  1.00  0.00    -0.273 OA
HETATM    3  N2  UNL     1      31.915  -9.742  -7.271  1.00  0.00    -0.356 N 
ATOM      4  H2  UNL     1      30.908  -9.585  -7.262  1.00  0.00     0.162 HD
ENDROOT
BRANCH   1   5
HETATM    5  C9  UNL     1      31.668 -10.108  -9.773  1.00  0.00     0.107 C 
HETATM    6  C8  UNL     1      30.746  -8.897  -9.789  1.00  0.00     0.046 C 
HETATM    7  C7  UNL     1      31.669  -7.829 -10.433  1.00  0.00     0.273 C 
HETATM    8  N1  UNL     1      32.354  -8.569 -11.479  1.00  0.00     0.093 N 
HETATM    9  C19 UNL     1      32.442  -9.936 -11.037  1.00  0.00     0.287 C 
BRANCH   8  10
HETATM   10  C6  UNL     1      31.719  -8.496 -12.747  1.00  0.00     0.223 C 
HETATM   11  C5  UNL     1      31.558  -9.814 -13.406  1.00  0.00     0.036 C 
HETATM   12  C4  UNL     1      32.154  -9.955 -14.777  1.00  0.00     0.002 C 
HETATM   13  C3  UNL     1      31.284  -9.361 -15.883  1.00  0.00     0.004 C 
HETATM   14  C2  UNL     1      31.782  -7.939 -16.044  1.00  0.00    -0.019 C 
HETATM   15  C1  UNL     1      31.378  -7.272 -17.314  1.00  0.00     0.010 C 
HETATM   16  C21 UNL     1      31.307  -7.216 -14.787  1.00  0.00     0.006 C 
HETATM   17  C20 UNL     1      32.329  -7.462 -13.671  1.00  0.00     0.036 C 
ENDBRANCH   8  10
ENDBRANCH   1   5
BRANCH   3  18
HETATM   18  C11 UNL     1      32.547  -9.614  -6.002  1.00  0.00     0.088 A 
HETATM   19  C12 UNL     1      31.723 -10.214  -4.841  1.00  0.00     0.061 A 
HETATM   20  C13 UNL     1      31.582  -8.835  -4.228  1.00  0.00     0.227 A 
HETATM   21  C18 UNL     1      32.403  -8.278  -5.353  1.00  0.00     0.061 A 
BRANCH  20  22
HETATM   22  N3  UNL     1      30.249  -8.372  -4.116  1.00  0.00     0.096 N 
HETATM   23  C14 UNL     1      30.171  -7.009  -3.715  1.00  0.00     0.300 C 
HETATM   24  C15 UNL     1      28.767  -6.692  -3.157  1.00  0.00     0.262 C 
HETATM   25  N4  UNL     1      27.781  -7.463  -3.877  1.00  0.00    -0.072 N 
HETATM   26  C16 UNL     1      27.948  -8.869  -3.545  1.00  0.00     0.262 C 
ATOM     27  H42 UNL     1      26.830  -7.135  -3.707  1.00  0.00     0.277 HD
ATOM     28  H41 UNL     1      27.813  -7.294  -4.882  1.00  0.00     0.277 HD
HETATM   29  C17 UNL     1      29.419  -9.226  -3.311  1.00  0.00     0.300 C 
ENDBRANCH  20  22
ENDBRANCH   3  18
TORSDOF 4
ENDMDL
MODEL 5
REMARK VINA RESULT: -7.302435364      2.046      2.589
REMARK  4 active torsions:
REMARK  status: ('A' for Active; 'I' for Inactive)
REMARK    1  A    between atoms: C6_6  and  N1_7 
REMARK    2  A    between atoms: C9_10  and  C10_11 
REMARK       I    between atoms: C10_11  and  N2_13 
REMARK    3  A    between atoms: N2_13  and  C11_15 
REMARK    4  A    between atoms: C13_17  and  N3_18 
ROOT
HETATM    1  C10 UNL     1      31.543  -7.650  -8.662  1.00  0.00     0.223 C 
HETATM    2  O1  UNL     1      32.628  -7.293  -8.102  1.00  0.00    -0.273 OA
HETATM    3  N2  UNL     1      31.636  -8.448  -9.806  1.00  0.00    -0.356 N 
ATOM      4  H2  UNL     1      30.741  -8.685 -10.232  1.00  0.00     0.162 HD
ENDROOT
BRANCH   1   5
HETATM    5  C9  UNL     1      30.284  -7.197  -8.055  1.00  0.00     0.107 C 
HETATM    6  C8  UNL     1      29.251  -8.289  -8.293  1.00  0.00     0.046 C 
HETATM    7  C7  UNL     1      29.499  -9.206  -7.065  1.00  0.00     0.273 C 
HETATM    8  N1  UNL     1      29.712  -8.260  -5.983  1.00  0.00     0.093 N 
HETATM    9  C19 UNL     1      30.281  -7.074  -6.569  1.00  0.00     0.287 C 
BRANCH   8  10
HETATM   10  C6  UNL     1      28.535  -7.940  -5.256  1.00  0.00     0.223 C 
HETATM   11  C5  UNL     1      28.381  -6.491  -4.985  1.00  0.00     0.036 C 
HETATM   12  C4  UNL     1      28.233  -6.091  -3.545  1.00  0.00     0.002 C 
HETATM   13  C3  UNL     1      26.817  -6.284  -3.003  1.00  0.00     0.004 C 
HETATM   14  C2  UNL     1      26.822  -7.672  -2.397  1.00  0.00    -0.019 C 
HETATM   15  C1  UNL     1      25.697  -7.952  -1.459  1.00  0.00     0.010 C 
HETATM   16  C21 UNL     1      26.879  -8.618  -3.593  1.00  0.00     0.006 C 
HETATM   17  C20 UNL     1      28.345  -8.781  -4.011  1.00  0.00     0.036 C 
ENDBRANCH   8  10
ENDBRANCH   1   5
BRANCH   3  18
HETATM   18  C11 UNL     1      32.772  -8.984 -10.476  1.00  0.00     0.088 A 
HETATM   19  C12 UNL     1      33.308  -8.074 -11.603  1.00  0.00     0.061 A 
HETATM   20  C13 UNL     1      32.964  -9.138 -12.627  1.00  0.00     0.227 A 
HETATM   21  C18 UNL     1      32.470 -10.014 -11.512  1.00  0.00     0.061 A 
BRANCH  20  22
HETATM   22  N3  UNL     1      32.016  -8.739 -13.597  1.00  0.00     0.096 N 
HETATM   23  C14 UNL     1      31.729  -9.764 -14.542  1.00  0.00     0.300 C 
HETATM   24  C15 UNL     1      31.090  -9.163 -15.812  1.00  0.00     0.262 C 
HETATM   25  N4  UNL     1      30.261  -8.039 -15.444  1.00  0.00    -0.072 N 
HETATM   26  C16 UNL     1      31.113  -6.960 -14.971  1.00  0.00     0.262 C 
ATOM     27  H42 UNL     1      29.646  -7.744 -16.202  1.00  0.00     0.277 HD
ATOM     28  H41 UNL     1      29.542  -8.292 -14.766  1.00  0.00     0.277 HD
HETATM   29  C17 UNL     1      32.344  -7.491 -14.230  1.00  0.00     0.300 C 
ENDBRANCH  20  22
ENDBRANCH   3  18
TORSDOF 4
ENDMDL
