MODEL 1
REMARK VINA RESULT: -6.587271663      0.000      0.000
REMARK  7 active torsions:
REMARK  status: ('A' for Active; 'I' for Inactive)
REMARK    1  A    between atoms: C2_2  and  C3_3 
REMARK       I    between atoms: C3_3  and  N1_5 
REMARK    2  A    between atoms: C6_8  and  N2_9 
REMARK    3  A    between atoms: N3_11  and  C8_12 
REMARK    4  A    between atoms: C8_12  and  C11_15 
REMARK    5  A    between atoms: C16_20  and  C17_21 
REMARK    6  A    between atoms: C17_21  and  C18_22 
REMARK    7  A    between atoms: C18_22  and  O2_23 
ROOT
HETATM    1  N2  UNL     1      31.458  -9.923  -9.553  1.00  0.00    -0.378 N 
HETATM    2  C7  UNL     1      32.124  -9.961 -10.819  1.00  0.00     0.395 C 
HETATM    3  N3  UNL     1      31.480  -8.991 -11.680  1.00  0.00     0.117 N 
HETATM    4  C15 UNL     1      30.738  -8.130 -10.793  1.00  0.00     0.300 C 
HETATM    5  C16 UNL     1      30.359  -9.041  -9.605  1.00  0.00     0.111 C 
ENDROOT
BRANCH   1   6
HETATM    6  C6  UNL     1      32.276  -9.893  -8.404  1.00  0.00     0.084 C 
HETATM    7  C5  UNL     1      31.768  -9.125  -7.222  1.00  0.00     0.045 C 
HETATM    8  C4  UNL     1      32.665  -9.410  -6.032  1.00  0.00     0.127 C 
HETATM    9  N1  UNL     1      34.043  -9.034  -6.285  1.00  0.00    -0.352 N 
HETATM   10  C3  UNL     1      34.723  -8.261  -5.334  1.00  0.00     0.219 C 
HETATM   11  C20 UNL     1      34.594  -9.513  -7.529  1.00  0.00     0.127 C 
HETATM   12  O1  UNL     1      34.117  -7.905  -4.270  1.00  0.00    -0.273 OA
HETATM   13  C19 UNL     1      33.662  -9.315  -8.711  1.00  0.00     0.045 C 
BRANCH  10  14
HETATM   14  C2  UNL     1      36.125  -7.802  -5.451  1.00  0.00     0.098 C 
HETATM   15  C1  UNL     1      36.195  -6.444  -6.137  1.00  0.00     0.014 C 
ENDBRANCH  10  14
ENDBRANCH   1   6
BRANCH   5  16
HETATM   16  C17 UNL     1      29.090  -9.790  -9.908  1.00  0.00     0.053 C 
BRANCH  16  17
HETATM   17  C18 UNL     1      28.983 -11.120  -9.237  1.00  0.00     0.166 C 
BRANCH  17  18
HETATM   18  O2  UNL     1      29.398 -12.175 -10.011  1.00  0.00    -0.401 OA
ATOM     19  H2  UNL     1      29.462 -11.974 -10.938  1.00  0.00     0.209 HD
ENDBRANCH  17  18
ENDBRANCH  16  17
ENDBRANCH   5  16
BRANCH   3  20
HETATM   20  C8  UNL     1      32.351  -8.359 -12.599  1.00  0.00     0.161 C 
HETATM   21  C9  UNL     1      32.990  -7.101 -12.029  1.00  0.00     0.049 C 
HETATM   22  C10 UNL     1      33.540  -9.313 -12.820  1.00  0.00     0.049 C 
BRANCH  20  23
HETATM   23  C11 UNL     1      31.791  -8.067 -13.957  1.00  0.00    -0.016 C 
HETATM   24  C12 UNL     1      30.623  -8.906 -14.388  1.00  0.00     0.017 C 
HETATM   25  C13 UNL     1      31.323  -6.606 -14.049  1.00  0.00     0.017 C 
HETATM   26  C14 UNL     1      32.843  -8.243 -15.054  1.00  0.00     0.017 C 
ENDBRANCH  20  23
ENDBRANCH   3  20
TORSDOF 7
ENDMDL
MODEL 2
REMARK VINA RESULT: -6.584437825      3.721      5.036
REMARK  7 active torsions:
REMARK  status: ('A' for Active; 'I' for Inactive)
REMARK    1  A    between atoms: C2_2  and  C3_3 
REMARK       I    between atoms: C3_3  and  N1_5 
REMARK    2  A    between atoms: C6_8  and  N2_9 
REMARK    3  A    between atoms: N3_11  and  C8_12 
REMARK    4  A    between atoms: C8_12  and  C11_15 
REMARK    5  A    between atoms: C16_20  and  C17_21 
REMARK    6  A    between atoms: C17_21  and  C18_22 
REMARK    7  A    between atoms: C18_22  and  O2_23 
ROOT
HETATM    1  N2  UNL     1      30.939  -8.936  -7.361  1.00  0.00    -0.378 N 
HETATM    2  C7  UNL     1      31.865  -8.025  -7.961  1.00  0.00     0.395 C 
HETATM    3  N3  UNL     1      31.714  -8.134  -9.397  1.00  0.00     0.117 N 
HETATM    4  C15 UNL     1      30.444  -8.786  -9.598  1.00  0.00     0.300 C 
HETATM    5  C16 UNL     1      30.277  -9.686  -8.355  1.00  0.00     0.111 C 
ENDROOT
BRANCH   1   6
HETATM    6  C6  UNL     1      30.173  -8.447  -6.282  1.00  0.00     0.084 C 
HETATM    7  C5  UNL     1      30.245  -9.204  -4.991  1.00  0.00     0.045 C 
HETATM    8  C4  UNL     1      29.552  -8.396  -3.911  1.00  0.00     0.127 C 
HETATM    9  N1  UNL     1      28.161  -8.137  -4.231  1.00  0.00    -0.352 N 
HETATM   10  C3  UNL     1      27.181  -8.392  -3.262  1.00  0.00     0.219 C 
HETATM   11  C20 UNL     1      27.919  -7.624  -5.557  1.00  0.00     0.127 C 
HETATM   12  O1  UNL     1      27.533  -8.844  -2.122  1.00  0.00    -0.273 OA
HETATM   13  C19 UNL     1      28.683  -8.370  -6.636  1.00  0.00     0.045 C 
BRANCH  10  14
HETATM   14  C2  UNL     1      25.728  -8.179  -3.439  1.00  0.00     0.098 C 
HETATM   15  C1  UNL     1      25.258  -6.964  -2.652  1.00  0.00     0.014 C 
ENDBRANCH  10  14
ENDBRANCH   1   6
BRANCH   5  16
HETATM   16  C17 UNL     1      30.967 -11.006  -8.573  1.00  0.00     0.053 C 
BRANCH  16  17
HETATM   17  C18 UNL     1      30.999 -11.458  -9.996  1.00  0.00     0.166 C 
BRANCH  17  18
HETATM   18  O2  UNL     1      30.191 -12.536 -10.261  1.00  0.00    -0.401 OA
ATOM     19  H2  UNL     1      30.590 -13.192 -10.820  1.00  0.00     0.209 HD
ENDBRANCH  17  18
ENDBRANCH  16  17
ENDBRANCH   5  16
BRANCH   3  20
HETATM   20  C8  UNL     1      31.925  -6.922 -10.099  1.00  0.00     0.161 C 
HETATM   21  C9  UNL     1      30.643  -6.124 -10.285  1.00  0.00     0.049 C 
HETATM   22  C10 UNL     1      32.794  -6.026  -9.195  1.00  0.00     0.049 C 
BRANCH  20  23
HETATM   23  C11 UNL     1      32.649  -7.024 -11.405  1.00  0.00    -0.016 C 
HETATM   24  C12 UNL     1      31.799  -6.962 -12.642  1.00  0.00     0.017 C 
HETATM   25  C13 UNL     1      33.683  -5.895 -11.542  1.00  0.00     0.017 C 
HETATM   26  C14 UNL     1      33.435  -8.332 -11.519  1.00  0.00     0.017 C 
ENDBRANCH  20  23
ENDBRANCH   3  20
TORSDOF 7
ENDMDL
MODEL 3
REMARK VINA RESULT: -6.581714979      2.780      7.213
REMARK  7 active torsions:
REMARK  status: ('A' for Active; 'I' for Inactive)
REMARK    1  A    between atoms: C2_2  and  C3_3 
REMARK       I    between atoms: C3_3  and  N1_5 
REMARK    2  A    between atoms: C6_8  and  N2_9 
REMARK    3  A    between atoms: N3_11  and  C8_12 
REMARK    4  A    between atoms: C8_12  and  C11_15 
REMARK    5  A    between atoms: C16_20  and  C17_21 
REMARK    6  A    between atoms: C17_21  and  C18_22 
REMARK    7  A    between atoms: C18_22  and  O2_23 
ROOT
HETATM    1  N2  UNL     1      32.556  -8.699  -8.804  1.00  0.00    -0.378 N 
HETATM    2  C7  UNL     1      31.313  -9.153  -8.258  1.00  0.00     0.395 C 
HETATM    3  N3  UNL     1      30.995  -8.302  -7.130  1.00  0.00     0.117 N 
HETATM    4  C15 UNL     1      31.827  -7.135  -7.288  1.00  0.00     0.300 C 
HETATM    5  C16 UNL     1      33.087  -7.661  -8.012  1.00  0.00     0.111 C 
ENDROOT
BRANCH   1   6
HETATM    6  C6  UNL     1      32.624  -8.562 -10.206  1.00  0.00     0.084 C 
HETATM    7  C5  UNL     1      32.377  -7.198 -10.773  1.00  0.00     0.045 C 
HETATM    8  C4  UNL     1      32.726  -7.212 -12.249  1.00  0.00     0.127 C 
HETATM    9  N1  UNL     1      31.937  -8.181 -12.987  1.00  0.00    -0.352 N 
HETATM   10  C3  UNL     1      31.302  -7.782 -14.171  1.00  0.00     0.219 C 
HETATM   11  C20 UNL     1      31.888  -9.503 -12.410  1.00  0.00     0.127 C 
HETATM   12  O1  UNL     1      31.431  -6.579 -14.573  1.00  0.00    -0.273 OA
HETATM   13  C19 UNL     1      31.632  -9.492 -10.914  1.00  0.00     0.045 C 
BRANCH  10  14
HETATM   14  C2  UNL     1      30.468  -8.653 -15.028  1.00  0.00     0.098 C 
HETATM   15  C1  UNL     1      31.308  -9.305 -16.118  1.00  0.00     0.014 C 
ENDBRANCH  10  14
ENDBRANCH   1   6
BRANCH   5  16
HETATM   16  C17 UNL     1      34.072  -8.204  -7.012  1.00  0.00     0.053 C 
BRANCH  16  17
HETATM   17  C18 UNL     1      34.361  -9.662  -7.161  1.00  0.00     0.166 C 
BRANCH  17  18
HETATM   18  O2  UNL     1      35.481  -9.938  -7.906  1.00  0.00    -0.401 OA
ATOM     19  H2  UNL     1      36.282  -9.992  -7.397  1.00  0.00     0.209 HD
ENDBRANCH  17  18
ENDBRANCH  16  17
ENDBRANCH   5  16
BRANCH   3  20
HETATM   20  C8  UNL     1      29.611  -8.075  -6.943  1.00  0.00     0.161 C 
HETATM   21  C9  UNL     1      29.119  -6.833  -7.670  1.00  0.00     0.049 C 
HETATM   22  C10 UNL     1      28.868  -9.232  -7.639  1.00  0.00     0.049 C 
BRANCH  20  23
HETATM   23  C11 UNL     1      29.122  -8.056  -5.528  1.00  0.00    -0.016 C 
HETATM   24  C12 UNL     1      29.194  -6.735  -4.818  1.00  0.00     0.017 C 
HETATM   25  C13 UNL     1      27.652  -8.499  -5.456  1.00  0.00     0.017 C 
HETATM   26  C14 UNL     1      29.901  -9.034  -4.645  1.00  0.00     0.017 C 
ENDBRANCH  20  23
ENDBRANCH   3  20
TORSDOF 7
ENDMDL
MODEL 4
REMARK VINA RESULT: -6.577446290      2.914      7.047
REMARK  7 active torsions:
REMARK  status: ('A' for Active; 'I' for Inactive)
REMARK    1  A    between atoms: C2_2  and  C3_3 
REMARK       I    between atoms: C3_3  and  N1_5 
REMARK    2  A    between atoms: C6_8  and  N2_9 
REMARK    3  A    between atoms: N3_11  and  C8_12 
REMARK    4  A    between atoms: C8_12  and  C11_15 
REMARK    5  A    between atoms: C16_20  and  C17_21 
REMARK    6  A    between atoms: C17_21  and  C18_22 
REMARK    7  A    between atoms: C18_22  and  O2_23 
ROOT
HETATM    1  N2  UNL     1      31.446  -9.663 -10.541  1.00  0.00    -0.378 N 
HETATM    2  C7  UNL     1      30.432  -8.857  -9.934  1.00  0.00     0.395 C 
HETATM    3  N3  UNL     1      30.746  -8.748  -8.525  1.00  0.00     0.117 N 
HETATM    4  C15 UNL     1      32.130  -9.137  -8.413  1.00  0.00     0.300 C 
HETATM    5  C16 UNL     1      32.335 -10.150  -9.561  1.00  0.00     0.111 C 
ENDROOT
BRANCH   1   6
HETATM    6  C6  UNL     1      31.992  -9.194 -11.754  1.00  0.00     0.084 C 
HETATM    7  C5  UNL     1      31.810  -7.741 -12.070  1.00  0.00     0.045 C 
HETATM    8  C4  UNL     1      32.659  -7.393 -13.278  1.00  0.00     0.127 C 
HETATM    9  N1  UNL     1      32.300  -8.180 -14.443  1.00  0.00    -0.352 N 
HETATM   10  C3  UNL     1      32.086  -7.528 -15.665  1.00  0.00     0.219 C 
HETATM   11  C20 UNL     1      32.199  -9.602 -14.219  1.00  0.00     0.127 C 
HETATM   12  O1  UNL     1      32.211  -6.261 -15.726  1.00  0.00    -0.273 OA
HETATM   13  C19 UNL     1      31.429  -9.956 -12.960  1.00  0.00     0.045 C 
BRANCH  10  14
HETATM   14  C2  UNL     1      31.716  -8.192 -16.934  1.00  0.00     0.098 C 
HETATM   15  C1  UNL     1      31.327  -7.166 -17.989  1.00  0.00     0.014 C 
ENDBRANCH  10  14
ENDBRANCH   1   6
BRANCH   5  16
HETATM   16  C17 UNL     1      31.932 -11.529  -9.115  1.00  0.00     0.053 C 
BRANCH  16  17
HETATM   17  C18 UNL     1      31.625 -12.474 -10.230  1.00  0.00     0.166 C 
BRANCH  17  18
HETATM   18  O2  UNL     1      31.712 -13.799  -9.883  1.00  0.00    -0.401 OA
ATOM     19  H2  UNL     1      30.886 -14.268  -9.930  1.00  0.00     0.209 HD
ENDBRANCH  17  18
ENDBRANCH  16  17
ENDBRANCH   5  16
BRANCH   3  20
HETATM   20  C8  UNL     1      30.384  -7.511  -7.941  1.00  0.00     0.161 C 
HETATM   21  C9  UNL     1      31.585  -6.613  -7.681  1.00  0.00     0.049 C 
HETATM   22  C10 UNL     1      29.564  -6.740  -8.994  1.00  0.00     0.049 C 
BRANCH  20  23
HETATM   23  C11 UNL     1      29.530  -7.576  -6.713  1.00  0.00    -0.016 C 
HETATM   24  C12 UNL     1      28.705  -8.819  -6.543  1.00  0.00     0.017 C 
HETATM   25  C13 UNL     1      30.393  -7.461  -5.445  1.00  0.00     0.017 C 
HETATM   26  C14 UNL     1      28.534  -6.417  -6.651  1.00  0.00     0.017 C 
ENDBRANCH  20  23
ENDBRANCH   3  20
TORSDOF 7
ENDMDL
MODEL 5
REMARK VINA RESULT: -6.553176769      2.916      4.150
REMARK  7 active torsions:
REMARK  status: ('A' for Active; 'I' for Inactive)
REMARK    1  A    between atoms: C2_2  and  C3_3 
REMARK       I    between atoms: C3_3  and  N1_5 
REMARK    2  A    between atoms: C6_8  and  N2_9 
REMARK    3  A    between atoms: N3_11  and  C8_12 
REMARK    4  A    between atoms: C8_12  and  C11_15 
REMARK    5  A    between atoms: C16_20  and  C17_21 
REMARK    6  A    between atoms: C17_21  and  C18_22 
REMARK    7  A    between atoms: C18_22  and  O2_23 
ROOT
HETATM    1  N2  UNL     1      31.866  -9.301  -8.764  1.00  0.00    -0.378 N 
HETATM    2  C7  UNL     1      32.575  -8.340  -9.552  1.00  0.00     0.395 C 
HETATM    3  N3  UNL     1      32.308  -8.635 -10.944  1.00  0.00     0.117 N 
HETATM    4  C15 UNL     1      31.144  -9.486 -10.936  1.00  0.00     0.300 C 
HETATM    5  C16 UNL     1      31.240 -10.251  -9.598  1.00  0.00     0.111 C 
ENDROOT
BRANCH   1   6
HETATM    6  C6  UNL     1      31.137  -8.808  -7.662  1.00  0.00     0.084 C 
HETATM    7  C5  UNL     1      31.215  -9.589  -6.385  1.00  0.00     0.045 C 
HETATM    8  C4  UNL     1      30.569  -8.780  -5.277  1.00  0.00     0.127 C 
HETATM    9  N1  UNL     1      29.179  -8.475  -5.562  1.00  0.00    -0.352 N 
HETATM   10  C3  UNL     1      28.213  -8.718  -4.577  1.00  0.00     0.219 C 
HETATM   11  C20 UNL     1      28.924  -7.932  -6.875  1.00  0.00     0.127 C 
HETATM   12  O1  UNL     1      28.575  -9.199  -3.453  1.00  0.00    -0.273 OA
HETATM   13  C19 UNL     1      29.643  -8.682  -7.982  1.00  0.00     0.045 C 
BRANCH  10  14
HETATM   14  C2  UNL     1      26.763  -8.459  -4.719  1.00  0.00     0.098 C 
HETATM   15  C1  UNL     1      26.019  -8.829  -3.444  1.00  0.00     0.014 C 
ENDBRANCH  10  14
ENDBRANCH   1   6
BRANCH   5  16
HETATM   16  C17 UNL     1      32.107 -11.471  -9.758  1.00  0.00     0.053 C 
BRANCH  16  17
HETATM   17  C18 UNL     1      31.435 -12.620 -10.437  1.00  0.00     0.166 C 
BRANCH  17  18
HETATM   18  O2  UNL     1      31.751 -13.846  -9.907  1.00  0.00    -0.401 OA
ATOM     19  H2  UNL     1      32.446 -13.822  -9.260  1.00  0.00     0.209 HD
ENDBRANCH  17  18
ENDBRANCH  16  17
ENDBRANCH   5  16
BRANCH   3  20
HETATM   20  C8  UNL     1      32.258  -7.496 -11.782  1.00  0.00     0.161 C 
HETATM   21  C9  UNL     1      31.065  -6.601 -11.481  1.00  0.00     0.049 C 
HETATM   22  C10 UNL     1      33.477  -6.623 -11.427  1.00  0.00     0.049 C 
BRANCH  20  23
HETATM   23  C11 UNL     1      32.339  -7.747 -13.256  1.00  0.00    -0.016 C 
HETATM   24  C12 UNL     1      31.065  -8.171 -13.929  1.00  0.00     0.017 C 
HETATM   25  C13 UNL     1      32.810  -6.484 -13.996  1.00  0.00     0.017 C 
HETATM   26  C14 UNL     1      33.357  -8.838 -13.592  1.00  0.00     0.017 C 
ENDBRANCH  20  23
ENDBRANCH   3  20
TORSDOF 7
ENDMDL
