MODEL 1
REMARK VINA RESULT: -7.710659099      0.000      0.000
REMARK  6 active torsions:
REMARK  status: ('A' for Active; 'I' for Inactive)
REMARK    1  A    between atoms: C4_5  and  C5_6 
REMARK    2  A    between atoms: C5_6  and  N2_7 
REMARK    3  A    between atoms: N2_7  and  C6_9 
REMARK    4  A    between atoms: C7_12  and  C8_13 
REMARK    5  A    between atoms: C15_22  and  N5_23 
REMARK    6  A    between atoms: N5_23  and  C16_25 
ROOT
HETATM    1  C6  UNL     1      32.969  -8.017 -11.107  1.00  0.00     0.694 A 
HETATM    2  N3  UNL     1      32.928  -8.115 -12.443  1.00  0.00    -0.179 N 
ATOM      3  H3  UNL     1      33.416  -7.402 -12.985  1.00  0.00     0.185 HD
HETATM    4  C7  UNL     1      32.291  -9.082 -13.119  1.00  0.00     0.118 A 
HETATM    5  N4  UNL     1      31.656 -10.003 -12.336  1.00  0.00    -0.179 N 
ATOM      6  H4  UNL     1      31.150 -10.766 -12.785  1.00  0.00     0.185 HD
HETATM    7  C15 UNL     1      31.675  -9.939 -10.991  1.00  0.00     0.694 A 
HETATM    8  N6  UNL     1      32.331  -8.946 -10.367  1.00  0.00    -0.022 N 
ATOM      9  H6  UNL     1      32.345  -8.895  -9.348  1.00  0.00     0.203 HD
ENDROOT
BRANCH   1  10
HETATM   10  N2  UNL     1      33.622  -7.030 -10.609  1.00  0.00    -0.225 N 
ATOM     11  H2  UNL     1      34.237  -7.234  -9.822  1.00  0.00     0.177 HD
BRANCH  10  12
HETATM   12  C5  UNL     1      33.569  -5.675 -11.054  1.00  0.00     0.143 C 
BRANCH  12  13
HETATM   13  C4  UNL     1      33.036  -4.804  -9.918  1.00  0.00     0.010 C 
HETATM   14  C3  UNL     1      32.669  -3.456 -10.446  1.00  0.00     0.026 C 
HETATM   15  C2  UNL     1      31.405  -3.585 -11.249  1.00  0.00     0.122 C 
HETATM   16  N1  UNL     1      30.340  -4.096 -10.464  1.00  0.00    -0.398 N 
HETATM   17  C1  UNL     1      29.523  -3.130  -9.814  1.00  0.00     0.148 C 
HETATM   18  C20 UNL     1      30.578  -5.297  -9.767  1.00  0.00     0.058 C 
HETATM   19  C19 UNL     1      31.921  -5.480  -9.176  1.00  0.00     0.050 C 
ENDBRANCH  12  13
ENDBRANCH  10  12
ENDBRANCH   1  10
BRANCH   4  20
HETATM   20  C8  UNL     1      32.211  -9.239 -14.563  1.00  0.00     0.059 C 
HETATM   21  C9  UNL     1      32.797  -8.097 -15.371  1.00  0.00     0.017 C 
HETATM   22  C10 UNL     1      31.959  -7.990 -16.612  1.00  0.00    -0.013 C 
HETATM   23  C11 UNL     1      30.744  -7.168 -16.245  1.00  0.00     0.005 C 
HETATM   24  C14 UNL     1      31.300  -9.381 -16.658  1.00  0.00     0.010 C 
HETATM   25  C12 UNL     1      30.131  -8.063 -15.153  1.00  0.00     0.006 C 
HETATM   26  C13 UNL     1      30.854  -9.352 -15.168  1.00  0.00    -0.003 C 
ENDBRANCH   4  20
BRANCH   7  27
HETATM   27  N5  UNL     1      31.078 -10.806 -10.246  1.00  0.00    -0.221 N 
ATOM     28  H5  UNL     1      31.248 -11.796 -10.420  1.00  0.00     0.178 HD
BRANCH  27  29
HETATM   29  C16 UNL     1      30.178 -10.437  -9.172  1.00  0.00     0.099 A 
HETATM   30  C17 UNL     1      29.067  -9.509  -9.481  1.00  0.00     0.028 A 
HETATM   31  C18 UNL     1      28.779 -10.976  -9.332  1.00  0.00     0.028 A 
ENDBRANCH  27  29
ENDBRANCH   7  27
TORSDOF 6
ENDMDL
MODEL 2
REMARK VINA RESULT: -7.604592355      1.941      6.019
REMARK  6 active torsions:
REMARK  status: ('A' for Active; 'I' for Inactive)
REMARK    1  A    between atoms: C4_5  and  C5_6 
REMARK    2  A    between atoms: C5_6  and  N2_7 
REMARK    3  A    between atoms: N2_7  and  C6_9 
REMARK    4  A    between atoms: C7_12  and  C8_13 
REMARK    5  A    between atoms: C15_22  and  N5_23 
REMARK    6  A    between atoms: N5_23  and  C16_25 
ROOT
HETATM    1  C6  UNL     1      31.246  -8.586 -12.777  1.00  0.00     0.694 A 
HETATM    2  N3  UNL     1      32.051  -7.612 -12.330  1.00  0.00    -0.179 N 
ATOM      3  H3  UNL     1      32.421  -7.701 -11.384  1.00  0.00     0.185 HD
HETATM    4  C7  UNL     1      32.405  -6.529 -13.036  1.00  0.00     0.118 A 
HETATM    5  N4  UNL     1      31.875  -6.468 -14.293  1.00  0.00    -0.179 N 
ATOM      6  H4  UNL     1      32.101  -5.670 -14.885  1.00  0.00     0.185 HD
HETATM    7  C15 UNL     1      31.063  -7.427 -14.778  1.00  0.00     0.694 A 
HETATM    8  N6  UNL     1      30.742  -8.492 -14.025  1.00  0.00    -0.022 N 
ATOM      9  H6  UNL     1      30.127  -9.219 -14.390  1.00  0.00     0.203 HD
ENDROOT
BRANCH   1  10
HETATM   10  N2  UNL     1      31.001  -9.560 -11.979  1.00  0.00    -0.225 N 
ATOM     11  H2  UNL     1      30.252 -10.198 -12.245  1.00  0.00     0.177 HD
BRANCH  10  12
HETATM   12  C5  UNL     1      31.679  -9.836 -10.753  1.00  0.00     0.143 C 
BRANCH  12  13
HETATM   13  C4  UNL     1      30.696 -10.486  -9.780  1.00  0.00     0.010 C 
HETATM   14  C3  UNL     1      31.353 -10.675  -8.452  1.00  0.00     0.026 C 
HETATM   15  C2  UNL     1      31.481  -9.334  -7.787  1.00  0.00     0.122 C 
HETATM   16  N1  UNL     1      30.216  -8.717  -7.610  1.00  0.00    -0.398 N 
HETATM   17  C1  UNL     1      29.560  -8.979  -6.376  1.00  0.00     0.148 C 
HETATM   18  C20 UNL     1      29.398  -8.599  -8.750  1.00  0.00     0.058 C 
HETATM   19  C19 UNL     1      29.405  -9.727  -9.707  1.00  0.00     0.050 C 
ENDBRANCH  12  13
ENDBRANCH  10  12
ENDBRANCH   1  10
BRANCH   4  20
HETATM   20  C8  UNL     1      33.270  -5.442 -12.605  1.00  0.00     0.059 C 
HETATM   21  C9  UNL     1      33.475  -5.335 -11.106  1.00  0.00     0.017 C 
HETATM   22  C10 UNL     1      33.616  -3.870 -10.808  1.00  0.00    -0.013 C 
HETATM   23  C11 UNL     1      32.215  -3.312 -10.703  1.00  0.00     0.005 C 
HETATM   24  C14 UNL     1      33.993  -3.310 -12.192  1.00  0.00     0.010 C 
HETATM   25  C12 UNL     1      31.696  -3.613 -12.121  1.00  0.00     0.006 C 
HETATM   26  C13 UNL     1      32.848  -4.052 -12.938  1.00  0.00    -0.003 C 
ENDBRANCH   4  20
BRANCH   7  27
HETATM   27  N5  UNL     1      30.560  -7.376 -15.965  1.00  0.00    -0.221 N 
ATOM     28  H5  UNL     1      29.549  -7.464 -16.068  1.00  0.00     0.178 HD
BRANCH  27  29
HETATM   29  C16 UNL     1      31.365  -7.202 -17.156  1.00  0.00     0.099 A 
HETATM   30  C17 UNL     1      31.269  -8.228 -18.220  1.00  0.00     0.028 A 
HETATM   31  C18 UNL     1      30.564  -6.914 -18.402  1.00  0.00     0.028 A 
ENDBRANCH  27  29
ENDBRANCH   7  27
TORSDOF 6
ENDMDL
MODEL 3
REMARK VINA RESULT: -7.597539859      1.296      2.046
REMARK  6 active torsions:
REMARK  status: ('A' for Active; 'I' for Inactive)
REMARK    1  A    between atoms: C4_5  and  C5_6 
REMARK    2  A    between atoms: C5_6  and  N2_7 
REMARK    3  A    between atoms: N2_7  and  C6_9 
REMARK    4  A    between atoms: C7_12  and  C8_13 
REMARK    5  A    between atoms: C15_22  and  N5_23 
REMARK    6  A    between atoms: N5_23  and  C16_25 
ROOT
HETATM    1  C6  UNL     1      32.935  -7.963 -11.147  1.00  0.00     0.694 A 
HETATM    2  N3  UNL     1      32.891  -8.070 -12.482  1.00  0.00    -0.179 N 
ATOM      3  H3  UNL     1      33.369  -7.354 -13.030  1.00  0.00     0.185 HD
HETATM    4  C7  UNL     1      32.264  -9.049 -13.150  1.00  0.00     0.118 A 
HETATM    5  N4  UNL     1      31.643  -9.973 -12.360  1.00  0.00    -0.179 N 
ATOM      6  H4  UNL     1      31.145 -10.744 -12.803  1.00  0.00     0.185 HD
HETATM    7  C15 UNL     1      31.665  -9.900 -11.016  1.00  0.00     0.694 A 
HETATM    8  N6  UNL     1      32.310  -8.896 -10.399  1.00  0.00    -0.022 N 
ATOM      9  H6  UNL     1      32.327  -8.838  -9.381  1.00  0.00     0.203 HD
ENDROOT
BRANCH   1  10
HETATM   10  N2  UNL     1      33.577  -6.966 -10.657  1.00  0.00    -0.225 N 
ATOM     11  H2  UNL     1      34.571  -6.904 -10.877  1.00  0.00     0.177 HD
BRANCH  10  12
HETATM   12  C5  UNL     1      33.032  -5.936  -9.834  1.00  0.00     0.143 C 
BRANCH  12  13
HETATM   13  C4  UNL     1      32.807  -4.689 -10.688  1.00  0.00     0.010 C 
HETATM   14  C3  UNL     1      32.746  -3.481  -9.811  1.00  0.00     0.026 C 
HETATM   15  C2  UNL     1      34.134  -3.176  -9.320  1.00  0.00     0.122 C 
HETATM   16  N1  UNL     1      35.026  -2.939 -10.396  1.00  0.00    -0.398 N 
HETATM   17  C1  UNL     1      35.155  -1.586 -10.815  1.00  0.00     0.148 C 
HETATM   18  C20 UNL     1      35.090  -3.923 -11.403  1.00  0.00     0.058 C 
HETATM   19  C19 UNL     1      33.821  -4.579 -11.787  1.00  0.00     0.050 C 
ENDBRANCH  12  13
ENDBRANCH  10  12
ENDBRANCH   1  10
BRANCH   4  20
HETATM   20  C8  UNL     1      32.181  -9.215 -14.593  1.00  0.00     0.059 C 
HETATM   21  C9  UNL     1      32.775  -8.084 -15.410  1.00  0.00     0.017 C 
HETATM   22  C10 UNL     1      31.937  -7.978 -16.650  1.00  0.00    -0.013 C 
HETATM   23  C11 UNL     1      30.729  -7.144 -16.288  1.00  0.00     0.005 C 
HETATM   24  C14 UNL     1      31.267  -9.365 -16.686  1.00  0.00     0.010 C 
HETATM   25  C12 UNL     1      30.110  -8.026 -15.189  1.00  0.00     0.006 C 
HETATM   26  C13 UNL     1      30.822  -9.322 -15.197  1.00  0.00    -0.003 C 
ENDBRANCH   4  20
BRANCH   7  27
HETATM   27  N5  UNL     1      31.082 -10.770 -10.263  1.00  0.00    -0.221 N 
ATOM     28  H5  UNL     1      31.257 -11.760 -10.437  1.00  0.00     0.178 HD
BRANCH  27  29
HETATM   29  C16 UNL     1      30.189 -10.406  -9.182  1.00  0.00     0.099 A 
HETATM   30  C17 UNL     1      29.028  -9.542  -9.496  1.00  0.00     0.028 A 
HETATM   31  C18 UNL     1      28.813 -11.014  -9.291  1.00  0.00     0.028 A 
ENDBRANCH  27  29
ENDBRANCH   7  27
TORSDOF 6
ENDMDL
MODEL 4
REMARK VINA RESULT: -7.529172609      1.944      5.652
REMARK  6 active torsions:
REMARK  status: ('A' for Active; 'I' for Inactive)
REMARK    1  A    between atoms: C4_5  and  C5_6 
REMARK    2  A    between atoms: C5_6  and  N2_7 
REMARK    3  A    between atoms: N2_7  and  C6_9 
REMARK    4  A    between atoms: C7_12  and  C8_13 
REMARK    5  A    between atoms: C15_22  and  N5_23 
REMARK    6  A    between atoms: N5_23  and  C16_25 
ROOT
HETATM    1  C6  UNL     1      31.146  -5.988 -11.072  1.00  0.00     0.694 A 
HETATM    2  N3  UNL     1      31.122  -6.539 -12.293  1.00  0.00    -0.179 N 
ATOM      3  H3  UNL     1      30.585  -7.398 -12.414  1.00  0.00     0.185 HD
HETATM    4  C7  UNL     1      31.753  -6.044 -13.368  1.00  0.00     0.118 A 
HETATM    5  N4  UNL     1      32.454  -4.896 -13.139  1.00  0.00    -0.179 N 
ATOM      6  H4  UNL     1      32.960  -4.465 -13.913  1.00  0.00     0.185 HD
HETATM    7  C15 UNL     1      32.502  -4.311 -11.927  1.00  0.00     0.694 A 
HETATM    8  N6  UNL     1      31.849  -4.852 -10.885  1.00  0.00    -0.022 N 
ATOM      9  H6  UNL     1      31.885  -4.412  -9.965  1.00  0.00     0.203 HD
ENDROOT
BRANCH   1  10
HETATM   10  N2  UNL     1      30.489  -6.584 -10.144  1.00  0.00    -0.225 N 
ATOM     11  H2  UNL     1      29.541  -6.254  -9.964  1.00  0.00     0.177 HD
BRANCH  10  12
HETATM   12  C5  UNL     1      30.961  -7.664  -9.339  1.00  0.00     0.143 C 
BRANCH  12  13
HETATM   13  C4  UNL     1      30.215  -8.937  -9.736  1.00  0.00     0.010 C 
HETATM   14  C3  UNL     1      30.862  -9.548 -10.936  1.00  0.00     0.026 C 
HETATM   15  C2  UNL     1      32.164 -10.167 -10.514  1.00  0.00     0.122 C 
HETATM   16  N1  UNL     1      31.971 -11.160  -9.520  1.00  0.00    -0.398 N 
HETATM   17  C1  UNL     1      31.788 -12.489  -9.991  1.00  0.00     0.148 C 
HETATM   18  C20 UNL     1      31.237 -10.786  -8.377  1.00  0.00     0.058 C 
HETATM   19  C19 UNL     1      30.082  -9.885  -8.581  1.00  0.00     0.050 C 
ENDBRANCH  12  13
ENDBRANCH  10  12
ENDBRANCH   1  10
BRANCH   4  20
HETATM   20  C8  UNL     1      31.764  -6.597 -14.713  1.00  0.00     0.059 C 
HETATM   21  C9  UNL     1      30.511  -7.353 -15.111  1.00  0.00     0.017 C 
HETATM   22  C10 UNL     1      30.962  -8.458 -16.022  1.00  0.00    -0.013 C 
HETATM   23  C11 UNL     1      31.419  -9.594 -15.134  1.00  0.00     0.005 C 
HETATM   24  C14 UNL     1      32.339  -7.940 -16.475  1.00  0.00     0.010 C 
HETATM   25  C12 UNL     1      32.567  -8.900 -14.379  1.00  0.00     0.006 C 
HETATM   26  C13 UNL     1      32.819  -7.600 -15.036  1.00  0.00    -0.003 C 
ENDBRANCH   4  20
BRANCH   7  27
HETATM   27  N5  UNL     1      33.162  -3.225 -11.704  1.00  0.00    -0.221 N 
ATOM     28  H5  UNL     1      32.702  -2.332 -11.880  1.00  0.00     0.178 HD
BRANCH  27  29
HETATM   29  C16 UNL     1      34.525  -3.217 -11.216  1.00  0.00     0.099 A 
HETATM   30  C17 UNL     1      35.399  -2.085 -11.604  1.00  0.00     0.028 A 
HETATM   31  C18 UNL     1      34.814  -2.121 -10.220  1.00  0.00     0.028 A 
ENDBRANCH  27  29
ENDBRANCH   7  27
TORSDOF 6
ENDMDL
MODEL 5
REMARK VINA RESULT: -7.478408947      2.498      3.856
REMARK  6 active torsions:
REMARK  status: ('A' for Active; 'I' for Inactive)
REMARK    1  A    between atoms: C4_5  and  C5_6 
REMARK    2  A    between atoms: C5_6  and  N2_7 
REMARK    3  A    between atoms: N2_7  and  C6_9 
REMARK    4  A    between atoms: C7_12  and  C8_13 
REMARK    5  A    between atoms: C15_22  and  N5_23 
REMARK    6  A    between atoms: N5_23  and  C16_25 
ROOT
HETATM    1  C6  UNL     1      30.525  -6.462 -10.189  1.00  0.00     0.694 A 
HETATM    2  N3  UNL     1      30.858  -6.535 -11.484  1.00  0.00    -0.179 N 
ATOM      3  H3  UNL     1      30.162  -6.241 -12.169  1.00  0.00     0.185 HD
HETATM    4  C7  UNL     1      32.040  -6.968 -11.946  1.00  0.00     0.118 A 
HETATM    5  N4  UNL     1      32.926  -7.348 -10.980  1.00  0.00    -0.179 N 
ATOM      6  H4  UNL     1      33.845  -7.689 -11.261  1.00  0.00     0.185 HD
HETATM    7  C15 UNL     1      32.629  -7.288  -9.668  1.00  0.00     0.694 A 
HETATM    8  N6  UNL     1      31.427  -6.846  -9.262  1.00  0.00    -0.022 N 
ATOM      9  H6  UNL     1      31.199  -6.801  -8.269  1.00  0.00     0.203 HD
ENDROOT
BRANCH   1  10
HETATM   10  N2  UNL     1      29.351  -6.025  -9.906  1.00  0.00    -0.225 N 
ATOM     11  H2  UNL     1      28.642  -6.722  -9.678  1.00  0.00     0.177 HD
BRANCH  10  12
HETATM   12  C5  UNL     1      28.945  -4.658  -9.881  1.00  0.00     0.143 C 
BRANCH  12  13
HETATM   13  C4  UNL     1      27.611  -4.552  -9.143  1.00  0.00     0.010 C 
HETATM   14  C3  UNL     1      27.745  -3.611  -7.991  1.00  0.00     0.026 C 
HETATM   15  C2  UNL     1      27.823  -2.209  -8.526  1.00  0.00     0.122 C 
HETATM   16  N1  UNL     1      26.671  -1.875  -9.282  1.00  0.00    -0.398 N 
HETATM   17  C1  UNL     1      25.606  -1.267  -8.563  1.00  0.00     0.148 C 
HETATM   18  C20 UNL     1      26.313  -2.754 -10.322  1.00  0.00     0.058 C 
HETATM   19  C19 UNL     1      26.489  -4.202 -10.074  1.00  0.00     0.050 C 
ENDBRANCH  12  13
ENDBRANCH  10  12
ENDBRANCH   1  10
BRANCH   4  20
HETATM   20  C8  UNL     1      32.457  -7.070 -13.336  1.00  0.00     0.059 C 
HETATM   21  C9  UNL     1      31.615  -6.285 -14.323  1.00  0.00     0.017 C 
HETATM   22  C10 UNL     1      31.603  -7.086 -15.593  1.00  0.00    -0.013 C 
HETATM   23  C11 UNL     1      30.523  -8.133 -15.435  1.00  0.00     0.005 C 
HETATM   24  C14 UNL     1      32.838  -7.985 -15.399  1.00  0.00     0.010 C 
HETATM   25  C12 UNL     1      31.068  -8.901 -14.217  1.00  0.00     0.006 C 
HETATM   26  C13 UNL     1      32.443  -8.424 -13.960  1.00  0.00    -0.003 C 
ENDBRANCH   4  20
BRANCH   7  27
HETATM   27  N5  UNL     1      33.462  -7.645  -8.750  1.00  0.00    -0.221 N 
ATOM     28  H5  UNL     1      34.344  -7.139  -8.670  1.00  0.00     0.178 HD
BRANCH  27  29
HETATM   29  C16 UNL     1      33.201  -8.730  -7.827  1.00  0.00     0.099 A 
HETATM   30  C17 UNL     1      33.090 -10.101  -8.374  1.00  0.00     0.028 A 
HETATM   31  C18 UNL     1      34.352  -9.692  -7.669  1.00  0.00     0.028 A 
ENDBRANCH  27  29
ENDBRANCH   7  27
TORSDOF 6
ENDMDL
