MODEL 1
REMARK VINA RESULT: -8.327658855      0.000      0.000
REMARK  4 active torsions:
REMARK  status: ('A' for Active; 'I' for Inactive)
REMARK       I    between atoms: C1_2  and  N1_3 
REMARK    1  A    between atoms: C1_2  and  C8_11 
REMARK    2  A    between atoms: N1_3  and  C2_5 
REMARK    3  A    between atoms: C2_5  and  C3_6 
REMARK    4  A    between atoms: N2_16  and  C13_17 
ROOT
HETATM    1  C8  UNL     1      30.791  -8.809 -10.124  1.00  0.00     0.172 C 
HETATM    2  C9  UNL     1      31.574  -8.726  -8.831  1.00  0.00     0.054 C 
HETATM    3  C10 UNL     1      30.674  -9.348  -7.812  1.00  0.00     0.037 C 
HETATM    4  C11 UNL     1      29.595  -8.342  -7.446  1.00  0.00     0.061 C 
HETATM    5  C12 UNL     1      28.946  -8.928  -6.178  1.00  0.00     0.275 C 
HETATM    6  N2  UNL     1      29.861  -8.634  -5.113  1.00  0.00     0.093 N 
HETATM    7  C18 UNL     1      31.208  -9.049  -5.379  1.00  0.00     0.275 C 
HETATM    8  C19 UNL     1      31.366  -9.898  -6.608  1.00  0.00     0.061 C 
HETATM    9  N3  UNL     1      30.004 -10.372  -8.591  1.00  0.00    -0.351 N 
ATOM     10  H3  UNL     1      29.790 -11.325  -8.296  1.00  0.00     0.163 HD
HETATM   11  C20 UNL     1      29.706  -9.782  -9.847  1.00  0.00     0.231 C 
HETATM   12  O3  UNL     1      28.721 -10.039 -10.569  1.00  0.00    -0.273 OA
ENDROOT
BRANCH   1  13
HETATM   13  C1  UNL     1      31.627  -9.400 -11.189  1.00  0.00     0.231 C 
HETATM   14  O1  UNL     1      32.713  -9.934 -10.888  1.00  0.00    -0.273 OA
HETATM   15  N1  UNL     1      31.214  -9.365 -12.537  1.00  0.00    -0.360 N 
ATOM     16  H1  UNL     1      30.322  -8.922 -12.756  1.00  0.00     0.162 HD
BRANCH  15  17
HETATM   17  C2  UNL     1      31.985  -9.922 -13.621  1.00  0.00     0.127 C 
BRANCH  17  18
HETATM   18  C3  UNL     1      31.743  -9.190 -14.913  1.00  0.00     0.003 C 
HETATM   19  C4  UNL     1      32.649  -7.994 -15.095  1.00  0.00     0.006 C 
HETATM   20  C5  UNL     1      31.869  -7.214 -16.158  1.00  0.00     0.000 C 
HETATM   21  C6  UNL     1      30.414  -7.451 -15.831  1.00  0.00     0.000 C 
HETATM   22  C7  UNL     1      30.377  -8.511 -14.758  1.00  0.00     0.006 C 
ENDBRANCH  17  18
ENDBRANCH  15  17
ENDBRANCH   1  13
BRANCH   6  23
HETATM   23  C13 UNL     1      29.392  -9.027  -3.804  1.00  0.00     0.227 C 
HETATM   24  C14 UNL     1      30.246  -8.411  -2.730  1.00  0.00     0.062 C 
HETATM   25  C15 UNL     1      29.536  -7.339  -1.946  1.00  0.00     0.169 C 
HETATM   26  O2  UNL     1      28.225  -7.673  -1.629  1.00  0.00    -0.391 OA
HETATM   27  C16 UNL     1      27.508  -7.664  -2.826  1.00  0.00     0.169 C 
HETATM   28  C17 UNL     1      27.923  -8.893  -3.594  1.00  0.00     0.062 C 
ENDBRANCH   6  23
TORSDOF 4
ENDMDL
MODEL 2
REMARK VINA RESULT: -8.217098623      1.673      2.376
REMARK  4 active torsions:
REMARK  status: ('A' for Active; 'I' for Inactive)
REMARK       I    between atoms: C1_2  and  N1_3 
REMARK    1  A    between atoms: C1_2  and  C8_11 
REMARK    2  A    between atoms: N1_3  and  C2_5 
REMARK    3  A    between atoms: C2_5  and  C3_6 
REMARK    4  A    between atoms: N2_16  and  C13_17 
ROOT
HETATM    1  C8  UNL     1      30.061  -9.140  -8.997  1.00  0.00     0.172 C 
HETATM    2  C9  UNL     1      29.651  -7.819  -8.381  1.00  0.00     0.054 C 
HETATM    3  C10 UNL     1      29.715  -8.063  -6.907  1.00  0.00     0.037 C 
HETATM    4  C11 UNL     1      28.483  -8.855  -6.497  1.00  0.00     0.061 C 
HETATM    5  C12 UNL     1      28.465  -8.758  -4.961  1.00  0.00     0.275 C 
HETATM    6  N2  UNL     1      27.965  -7.446  -4.668  1.00  0.00     0.093 N 
HETATM    7  C18 UNL     1      28.661  -6.396  -5.356  1.00  0.00     0.275 C 
HETATM    8  C19 UNL     1      29.905  -6.840  -6.071  1.00  0.00     0.061 C 
HETATM    9  N3  UNL     1      30.826  -8.990  -6.806  1.00  0.00    -0.351 N 
ATOM     10  H3  UNL     1      31.562  -8.990  -6.100  1.00  0.00     0.163 HD
HETATM   11  C20 UNL     1      30.681  -9.900  -7.886  1.00  0.00     0.231 C 
HETATM   12  O3  UNL     1      31.014 -11.103  -7.888  1.00  0.00    -0.273 OA
ENDROOT
BRANCH   1  13
HETATM   13  C1  UNL     1      31.119  -8.925 -10.006  1.00  0.00     0.231 C 
HETATM   14  O1  UNL     1      32.224  -8.472  -9.645  1.00  0.00    -0.273 OA
HETATM   15  N1  UNL     1      30.895  -9.224 -11.365  1.00  0.00    -0.360 N 
ATOM     16  H1  UNL     1      29.983  -9.593 -11.634  1.00  0.00     0.162 HD
BRANCH  15  17
HETATM   17  C2  UNL     1      31.887  -9.036 -12.396  1.00  0.00     0.127 C 
BRANCH  17  18
HETATM   18  C3  UNL     1      31.257  -8.842 -13.749  1.00  0.00     0.003 C 
HETATM   19  C4  UNL     1      31.699  -9.875 -14.760  1.00  0.00     0.006 C 
HETATM   20  C5  UNL     1      31.334  -9.159 -16.065  1.00  0.00     0.000 C 
HETATM   21  C6  UNL     1      31.602  -7.697 -15.799  1.00  0.00     0.000 C 
HETATM   22  C7  UNL     1      31.891  -7.570 -14.323  1.00  0.00     0.006 C 
ENDBRANCH  17  18
ENDBRANCH  15  17
ENDBRANCH   1  13
BRANCH   6  23
HETATM   23  C13 UNL     1      27.784  -7.182  -3.259  1.00  0.00     0.227 C 
HETATM   24  C14 UNL     1      26.822  -6.044  -3.055  1.00  0.00     0.062 C 
HETATM   25  C15 UNL     1      25.501  -6.478  -2.477  1.00  0.00     0.169 C 
HETATM   26  O2  UNL     1      25.632  -7.415  -1.459  1.00  0.00    -0.391 OA
HETATM   27  C16 UNL     1      26.076  -8.596  -2.057  1.00  0.00     0.169 C 
HETATM   28  C17 UNL     1      27.524  -8.385  -2.420  1.00  0.00     0.062 C 
ENDBRANCH   6  23
TORSDOF 4
ENDMDL
MODEL 3
REMARK VINA RESULT: -8.180040658      2.103      2.616
REMARK  4 active torsions:
REMARK  status: ('A' for Active; 'I' for Inactive)
REMARK       I    between atoms: C1_2  and  N1_3 
REMARK    1  A    between atoms: C1_2  and  C8_11 
REMARK    2  A    between atoms: N1_3  and  C2_5 
REMARK    3  A    between atoms: C2_5  and  C3_6 
REMARK    4  A    between atoms: N2_16  and  C13_17 
ROOT
HETATM    1  C8  UNL     1      31.871  -9.289 -10.798  1.00  0.00     0.172 C 
HETATM    2  C9  UNL     1      32.996  -8.741  -9.947  1.00  0.00     0.054 C 
HETATM    3  C10 UNL     1      32.910  -9.519  -8.673  1.00  0.00     0.037 C 
HETATM    4  C11 UNL     1      31.760  -8.963  -7.849  1.00  0.00     0.061 C 
HETATM    5  C12 UNL     1      31.963  -9.578  -6.451  1.00  0.00     0.275 C 
HETATM    6  N2  UNL     1      33.023  -8.818  -5.853  1.00  0.00     0.093 N 
HETATM    7  C18 UNL     1      34.196  -8.718  -6.673  1.00  0.00     0.275 C 
HETATM    8  C19 UNL     1      34.180  -9.597  -7.891  1.00  0.00     0.061 C 
HETATM    9  N3  UNL     1      32.460 -10.815  -9.145  1.00  0.00    -0.351 N 
ATOM     10  H3  UNL     1      32.784 -11.728  -8.827  1.00  0.00     0.163 HD
HETATM   11  C20 UNL     1      31.478 -10.556 -10.136  1.00  0.00     0.231 C 
HETATM   12  O3  UNL     1      30.482 -11.264 -10.392  1.00  0.00    -0.273 OA
ENDROOT
BRANCH   1  13
HETATM   13  C1  UNL     1      32.375  -9.650 -12.139  1.00  0.00     0.231 C 
HETATM   14  O1  UNL     1      33.603  -9.626 -12.357  1.00  0.00    -0.273 OA
HETATM   15  N1  UNL     1      31.488 -10.019 -13.171  1.00  0.00    -0.360 N 
ATOM     16  H1  UNL     1      30.489 -10.030 -12.967  1.00  0.00     0.162 HD
BRANCH  15  17
HETATM   17  C2  UNL     1      31.918 -10.381 -14.499  1.00  0.00     0.127 C 
BRANCH  17  18
HETATM   18  C3  UNL     1      31.567  -9.322 -15.509  1.00  0.00     0.003 C 
HETATM   19  C4  UNL     1      32.537  -8.163 -15.512  1.00  0.00     0.006 C 
HETATM   20  C5  UNL     1      31.691  -7.094 -16.210  1.00  0.00     0.000 C 
HETATM   21  C6  UNL     1      30.277  -7.343 -15.739  1.00  0.00     0.000 C 
HETATM   22  C7  UNL     1      30.296  -8.648 -14.981  1.00  0.00     0.006 C 
ENDBRANCH  17  18
ENDBRANCH  15  17
ENDBRANCH   1  13
BRANCH   6  23
HETATM   23  C13 UNL     1      33.314  -9.183  -4.485  1.00  0.00     0.227 C 
HETATM   24  C14 UNL     1      34.011  -8.055  -3.775  1.00  0.00     0.062 C 
HETATM   25  C15 UNL     1      33.154  -7.391  -2.730  1.00  0.00     0.169 C 
HETATM   26  O2  UNL     1      32.426  -8.295  -1.966  1.00  0.00    -0.391 OA
HETATM   27  C16 UNL     1      31.459  -8.844  -2.810  1.00  0.00     0.169 C 
HETATM   28  C17 UNL     1      32.177  -9.790  -3.739  1.00  0.00     0.062 C 
ENDBRANCH   6  23
TORSDOF 4
ENDMDL
MODEL 4
REMARK VINA RESULT: -8.019914025      2.071      8.768
REMARK  4 active torsions:
REMARK  status: ('A' for Active; 'I' for Inactive)
REMARK       I    between atoms: C1_2  and  N1_3 
REMARK    1  A    between atoms: C1_2  and  C8_11 
REMARK    2  A    between atoms: N1_3  and  C2_5 
REMARK    3  A    between atoms: C2_5  and  C3_6 
REMARK    4  A    between atoms: N2_16  and  C13_17 
ROOT
HETATM    1  C8  UNL     1      31.844 -10.249  -7.674  1.00  0.00     0.172 C 
HETATM    2  C9  UNL     1      32.866  -9.465  -8.469  1.00  0.00     0.054 C 
HETATM    3  C10 UNL     1      32.166  -9.132  -9.747  1.00  0.00     0.037 C 
HETATM    4  C11 UNL     1      32.154 -10.373 -10.625  1.00  0.00     0.061 C 
HETATM    5  C12 UNL     1      31.734  -9.852 -12.012  1.00  0.00     0.275 C 
HETATM    6  N2  UNL     1      32.909  -9.234 -12.557  1.00  0.00     0.093 N 
HETATM    7  C18 UNL     1      33.515  -8.273 -11.680  1.00  0.00     0.275 C 
HETATM    8  C19 UNL     1      32.696  -7.936 -10.467  1.00  0.00     0.061 C 
HETATM    9  N3  UNL     1      30.797  -8.958  -9.301  1.00  0.00    -0.351 N 
ATOM     10  H3  UNL     1      30.141  -8.238  -9.604  1.00  0.00     0.163 HD
HETATM   11  C20 UNL     1      30.553  -9.990  -8.357  1.00  0.00     0.231 C 
HETATM   12  O3  UNL     1      29.463 -10.560  -8.152  1.00  0.00    -0.273 OA
ENDROOT
BRANCH   1  13
HETATM   13  C1  UNL     1      31.721  -9.692  -6.311  1.00  0.00     0.231 C 
HETATM   14  O1  UNL     1      32.736  -9.606  -5.592  1.00  0.00    -0.273 OA
HETATM   15  N1  UNL     1      30.473  -9.260  -5.816  1.00  0.00    -0.360 N 
ATOM     16  H1  UNL     1      29.658  -9.341  -6.424  1.00  0.00     0.162 HD
BRANCH  15  17
HETATM   17  C2  UNL     1      30.288  -8.709  -4.496  1.00  0.00     0.127 C 
BRANCH  17  18
HETATM   18  C3  UNL     1      28.872  -8.252  -4.274  1.00  0.00     0.003 C 
HETATM   19  C4  UNL     1      28.114  -9.123  -3.299  1.00  0.00     0.006 C 
HETATM   20  C5  UNL     1      26.672  -8.752  -3.657  1.00  0.00     0.000 C 
HETATM   21  C6  UNL     1      26.683  -8.527  -5.150  1.00  0.00     0.000 C 
HETATM   22  C7  UNL     1      28.129  -8.549  -5.582  1.00  0.00     0.006 C 
ENDBRANCH  17  18
ENDBRANCH  15  17
ENDBRANCH   1  13
BRANCH   6  23
HETATM   23  C13 UNL     1      32.751  -8.751 -13.909  1.00  0.00     0.227 C 
HETATM   24  C14 UNL     1      31.692  -9.539 -14.630  1.00  0.00     0.062 C 
HETATM   25  C15 UNL     1      30.439  -8.747 -14.896  1.00  0.00     0.169 C 
HETATM   26  O2  UNL     1      30.693  -7.449 -15.321  1.00  0.00    -0.391 OA
HETATM   27  C16 UNL     1      31.227  -6.767 -14.227  1.00  0.00     0.169 C 
HETATM   28  C17 UNL     1      32.635  -7.272 -14.041  1.00  0.00     0.062 C 
ENDBRANCH   6  23
TORSDOF 4
ENDMDL
MODEL 5
REMARK VINA RESULT: -8.018364149      2.050      8.935
REMARK  4 active torsions:
REMARK  status: ('A' for Active; 'I' for Inactive)
REMARK       I    between atoms: C1_2  and  N1_3 
REMARK    1  A    between atoms: C1_2  and  C8_11 
REMARK    2  A    between atoms: N1_3  and  C2_5 
REMARK    3  A    between atoms: C2_5  and  C3_6 
REMARK    4  A    between atoms: N2_16  and  C13_17 
ROOT
HETATM    1  C8  UNL     1      31.483 -10.270  -8.002  1.00  0.00     0.172 C 
HETATM    2  C9  UNL     1      32.366  -9.249  -8.687  1.00  0.00     0.054 C 
HETATM    3  C10 UNL     1      31.768  -9.095 -10.047  1.00  0.00     0.037 C 
HETATM    4  C11 UNL     1      32.175 -10.293 -10.889  1.00  0.00     0.061 C 
HETATM    5  C12 UNL     1      31.813  -9.886 -12.330  1.00  0.00     0.275 C 
HETATM    6  N2  UNL     1      32.852  -8.988 -12.744  1.00  0.00     0.093 N 
HETATM    7  C18 UNL     1      33.085  -7.911 -11.825  1.00  0.00     0.275 C 
HETATM    8  C19 UNL     1      32.066  -7.799 -10.728  1.00  0.00     0.061 C 
HETATM    9  N3  UNL     1      30.354  -9.273  -9.775  1.00  0.00    -0.351 N 
ATOM     10  H3  UNL     1      29.581  -8.741 -10.173  1.00  0.00     0.163 HD
HETATM   11  C20 UNL     1      30.263 -10.340  -8.842  1.00  0.00     0.231 C 
HETATM   12  O3  UNL     1      29.334 -11.168  -8.755  1.00  0.00    -0.273 OA
ENDROOT
BRANCH   1  13
HETATM   13  C1  UNL     1      31.058  -9.770  -6.678  1.00  0.00     0.231 C 
HETATM   14  O1  UNL     1      31.617 -10.205  -5.652  1.00  0.00    -0.273 OA
HETATM   15  N1  UNL     1      30.029  -8.813  -6.562  1.00  0.00    -0.360 N 
ATOM     16  H1  UNL     1      29.587  -8.474  -7.416  1.00  0.00     0.162 HD
BRANCH  15  17
HETATM   17  C2  UNL     1      29.569  -8.288  -5.300  1.00  0.00     0.127 C 
BRANCH  17  18
HETATM   18  C3  UNL     1      28.256  -8.895  -4.887  1.00  0.00     0.003 C 
HETATM   19  C4  UNL     1      27.093  -7.939  -5.017  1.00  0.00     0.006 C 
HETATM   20  C5  UNL     1      26.071  -8.616  -4.099  1.00  0.00     0.000 C 
HETATM   21  C6  UNL     1      26.886  -9.208  -2.974  1.00  0.00     0.000 C 
HETATM   22  C7  UNL     1      28.336  -9.064  -3.365  1.00  0.00     0.006 C 
ENDBRANCH  17  18
ENDBRANCH  15  17
ENDBRANCH   1  13
BRANCH   6  23
HETATM   23  C13 UNL     1      32.746  -8.553 -14.117  1.00  0.00     0.227 C 
HETATM   24  C14 UNL     1      31.696  -9.347 -14.843  1.00  0.00     0.062 C 
HETATM   25  C15 UNL     1      30.467  -8.543 -15.177  1.00  0.00     0.169 C 
HETATM   26  O2  UNL     1      30.758  -7.266 -15.640  1.00  0.00    -0.391 OA
HETATM   27  C16 UNL     1      31.271  -6.554 -14.555  1.00  0.00     0.169 C 
HETATM   28  C17 UNL     1      32.663  -7.077 -14.306  1.00  0.00     0.062 C 
ENDBRANCH   6  23
TORSDOF 4
ENDMDL
