MODEL 1
REMARK VINA RESULT: -4.725209514      0.000      0.000
REMARK  4 active torsions:
REMARK  status: ('A' for Active; 'I' for Inactive)
REMARK    1  A    between atoms: C2_2  and  C3_6 
REMARK    2  A    between atoms: C3_6  and  C4_7 
REMARK    3  A    between atoms: C3_6  and  C5_9 
REMARK    4  A    between atoms: C5_9  and  N2_11 
ROOT
HETATM    1  C5  UNL     1       0.680   0.136  -8.608  1.00  0.00     0.098 C 
HETATM    2  S2  UNL     1       2.207  -0.362  -8.887  1.00  0.00    -0.064 SA
ENDROOT
BRANCH   1   3
HETATM    3  C3  UNL     1      -0.208   0.452  -9.749  1.00  0.00     0.106 C 
BRANCH   3   4
HETATM    4  C2  UNL     1      -0.127  -0.530 -10.832  1.00  0.00    -0.012 C 
HETATM    5  C1  UNL     1      -0.156  -2.008 -10.615  1.00  0.00     0.063 C 
HETATM    6  N1  UNL     1      -0.024  -0.119 -12.039  1.00  0.00    -0.405 N 
ATOM      7  H12 UNL     1       0.032  -0.803 -12.794  1.00  0.00     0.155 HD
ATOM      8  H11 UNL     1      -0.004   0.890 -12.188  1.00  0.00     0.155 HD
ENDBRANCH   3   4
BRANCH   3   9
HETATM    9  C4  UNL     1       0.073   1.797 -10.275  1.00  0.00     0.128 C 
HETATM   10  S1  UNL     1      -0.623   2.938  -9.785  1.00  0.00    -0.125 SA
ENDBRANCH   3   9
ENDBRANCH   1   3
BRANCH   1  11
HETATM   11  N2  UNL     1       0.244   0.251  -7.262  1.00  0.00    -0.270 N 
HETATM   12  C6  UNL     1       0.526   1.256  -6.381  1.00  0.00     0.128 A 
HETATM   13 CL1  UNL     1       1.529   2.616  -6.837  1.00  0.00    -0.062 Cl
HETATM   14  C7  UNL     1      -0.081   1.008  -5.170  1.00  0.00     0.133 A 
HETATM   15  N3  UNL     1      -0.738  -0.153  -5.310  1.00  0.00    -0.340 N 
HETATM   16  C8  UNL     1      -0.537  -0.596  -6.563  1.00  0.00     0.184 A 
ATOM     17  H3  UNL     1      -1.293  -0.618  -4.591  1.00  0.00     0.167 HD
HETATM   18  S3  UNL     1      -1.186  -1.996  -7.109  1.00  0.00    -0.040 SA
ENDBRANCH   1  11
TORSDOF 4
ENDMDL
MODEL 2
REMARK VINA RESULT: -4.723936377      2.264      3.312
REMARK  4 active torsions:
REMARK  status: ('A' for Active; 'I' for Inactive)
REMARK    1  A    between atoms: C2_2  and  C3_6 
REMARK    2  A    between atoms: C3_6  and  C4_7 
REMARK    3  A    between atoms: C3_6  and  C5_9 
REMARK    4  A    between atoms: C5_9  and  N2_11 
ROOT
HETATM    1  C5  UNL     1      -0.683  -0.115  -8.622  1.00  0.00     0.098 C 
HETATM    2  S2  UNL     1      -2.197   0.418  -8.906  1.00  0.00    -0.064 SA
ENDROOT
BRANCH   1   3
HETATM    3  C3  UNL     1       0.204  -0.446  -9.760  1.00  0.00     0.106 C 
BRANCH   3   4
HETATM    4  C2  UNL     1       0.134   0.531 -10.849  1.00  0.00    -0.012 C 
HETATM    5  C1  UNL     1       0.175   2.010 -10.639  1.00  0.00     0.063 C 
HETATM    6  N1  UNL     1       0.031   0.116 -12.054  1.00  0.00    -0.405 N 
ATOM      7  H12 UNL     1      -0.018   0.796 -12.812  1.00  0.00     0.155 HD
ATOM      8  H11 UNL     1       0.003  -0.894 -12.198  1.00  0.00     0.155 HD
ENDBRANCH   3   4
BRANCH   3   9
HETATM    9  C4  UNL     1      -0.090  -1.791 -10.280  1.00  0.00     0.128 C 
HETATM   10  S1  UNL     1       0.623  -2.931  -9.815  1.00  0.00    -0.125 SA
ENDBRANCH   3   9
ENDBRANCH   1   3
BRANCH   1  11
HETATM   11  N2  UNL     1      -0.255  -0.246  -7.275  1.00  0.00    -0.270 N 
HETATM   12  C6  UNL     1      -0.545  -1.260  -6.407  1.00  0.00     0.128 A 
HETATM   13 CL1  UNL     1      -1.548  -2.612  -6.885  1.00  0.00    -0.062 Cl
HETATM   14  C7  UNL     1       0.054  -1.027  -5.189  1.00  0.00     0.133 A 
HETATM   15  N3  UNL     1       0.715   0.134  -5.312  1.00  0.00    -0.340 N 
HETATM   16  C8  UNL     1       0.523   0.591  -6.562  1.00  0.00     0.184 A 
ATOM     17  H3  UNL     1       1.266   0.590  -4.585  1.00  0.00     0.167 HD
HETATM   18  S3  UNL     1       1.180   1.995  -7.088  1.00  0.00    -0.040 SA
ENDBRANCH   1  11
TORSDOF 4
ENDMDL
MODEL 3
REMARK VINA RESULT: -4.528431101      1.821      2.164
REMARK  4 active torsions:
REMARK  status: ('A' for Active; 'I' for Inactive)
REMARK    1  A    between atoms: C2_2  and  C3_6 
REMARK    2  A    between atoms: C3_6  and  C4_7 
REMARK    3  A    between atoms: C3_6  and  C5_9 
REMARK    4  A    between atoms: C5_9  and  N2_11 
ROOT
HETATM    1  C5  UNL     1       0.680   0.127  -8.610  1.00  0.00     0.098 C 
HETATM    2  S2  UNL     1       2.189  -0.422  -8.889  1.00  0.00    -0.064 SA
ENDROOT
BRANCH   1   3
HETATM    3  C3  UNL     1      -0.209   0.442  -9.751  1.00  0.00     0.106 C 
BRANCH   3   4
HETATM    4  C2  UNL     1      -0.129  -0.541 -10.833  1.00  0.00    -0.012 C 
HETATM    5  C1  UNL     1      -0.165  -2.019 -10.614  1.00  0.00     0.063 C 
HETATM    6  N1  UNL     1      -0.020  -0.133 -12.040  1.00  0.00    -0.405 N 
ATOM      7  H12 UNL     1       0.036  -0.818 -12.794  1.00  0.00     0.155 HD
ATOM      8  H11 UNL     1       0.005   0.876 -12.190  1.00  0.00     0.155 HD
ENDBRANCH   3   4
BRANCH   3   9
HETATM    9  C4  UNL     1       0.074   1.786 -10.279  1.00  0.00     0.128 C 
HETATM   10  S1  UNL     1      -0.667   2.919  -9.840  1.00  0.00    -0.125 SA
ENDBRANCH   3   9
ENDBRANCH   1   3
BRANCH   1  11
HETATM   11  N2  UNL     1       0.257   0.286  -7.264  1.00  0.00    -0.270 N 
HETATM   12  C6  UNL     1      -0.543  -0.552  -6.541  1.00  0.00     0.128 A 
HETATM   13 CL1  UNL     1      -1.189  -2.023  -7.235  1.00  0.00    -0.062 Cl
HETATM   14  C7  UNL     1      -0.726  -0.053  -5.270  1.00  0.00     0.133 A 
HETATM   15  N3  UNL     1      -0.033   1.095  -5.214  1.00  0.00    -0.340 N 
HETATM   16  C8  UNL     1       0.549   1.287  -6.411  1.00  0.00     0.184 A 
ATOM     17  H3  UNL     1       0.038   1.713  -4.406  1.00  0.00     0.167 HD
HETATM   18  S3  UNL     1       1.483   2.593  -6.727  1.00  0.00    -0.040 SA
ENDBRANCH   1  11
TORSDOF 4
ENDMDL
MODEL 4
REMARK VINA RESULT: -4.516216136      1.401      2.516
REMARK  4 active torsions:
REMARK  status: ('A' for Active; 'I' for Inactive)
REMARK    1  A    between atoms: C2_2  and  C3_6 
REMARK    2  A    between atoms: C3_6  and  C4_7 
REMARK    3  A    between atoms: C3_6  and  C5_9 
REMARK    4  A    between atoms: C5_9  and  N2_11 
ROOT
HETATM    1  C5  UNL     1      -0.677  -0.112  -8.591  1.00  0.00     0.098 C 
HETATM    2  S2  UNL     1      -2.174   0.468  -8.872  1.00  0.00    -0.064 SA
ENDROOT
BRANCH   1   3
HETATM    3  C3  UNL     1       0.205  -0.448  -9.731  1.00  0.00     0.106 C 
BRANCH   3   4
HETATM    4  C2  UNL     1       0.142   0.532 -10.818  1.00  0.00    -0.012 C 
HETATM    5  C1  UNL     1       0.205   2.009 -10.606  1.00  0.00     0.063 C 
HETATM    6  N1  UNL     1       0.025   0.120 -12.023  1.00  0.00    -0.405 N 
ATOM      7  H12 UNL     1      -0.019   0.803 -12.780  1.00  0.00     0.155 HD
ATOM      8  H11 UNL     1      -0.019  -0.889 -12.168  1.00  0.00     0.155 HD
ENDBRANCH   3   4
BRANCH   3   9
HETATM    9  C4  UNL     1      -0.101  -1.789 -10.253  1.00  0.00     0.128 C 
HETATM   10  S1  UNL     1       0.667  -2.922  -9.864  1.00  0.00    -0.125 SA
ENDBRANCH   3   9
ENDBRANCH   1   3
BRANCH   1  11
HETATM   11  N2  UNL     1      -0.259  -0.277  -7.245  1.00  0.00    -0.270 N 
HETATM   12  C6  UNL     1       0.536   0.559  -6.514  1.00  0.00     0.128 A 
HETATM   13 CL1  UNL     1       1.181   2.036  -7.198  1.00  0.00    -0.062 Cl
HETATM   14  C7  UNL     1       0.716   0.053  -5.246  1.00  0.00     0.133 A 
HETATM   15  N3  UNL     1       0.027  -1.097  -5.199  1.00  0.00    -0.340 N 
HETATM   16  C8  UNL     1      -0.551  -1.284  -6.399  1.00  0.00     0.184 A 
ATOM     17  H3  UNL     1      -0.046  -1.720  -4.395  1.00  0.00     0.167 HD
HETATM   18  S3  UNL     1      -1.481  -2.591  -6.725  1.00  0.00    -0.040 SA
ENDBRANCH   1  11
TORSDOF 4
ENDMDL
MODEL 5
REMARK VINA RESULT: -4.362261537      2.376      4.507
REMARK  4 active torsions:
REMARK  status: ('A' for Active; 'I' for Inactive)
REMARK    1  A    between atoms: C2_2  and  C3_6 
REMARK    2  A    between atoms: C3_6  and  C4_7 
REMARK    3  A    between atoms: C3_6  and  C5_9 
REMARK    4  A    between atoms: C5_9  and  N2_11 
ROOT
HETATM    1  C5  UNL     1      -0.832  -0.473  -8.312  1.00  0.00     0.098 C 
HETATM    2  S2  UNL     1      -1.934  -1.591  -7.871  1.00  0.00    -0.064 SA
ENDROOT
BRANCH   1   3
HETATM    3  C3  UNL     1      -0.292   0.463  -7.301  1.00  0.00     0.106 C 
BRANCH   3   4
HETATM    4  C2  UNL     1       1.057   0.937  -7.616  1.00  0.00    -0.012 C 
HETATM    5  C1  UNL     1       1.438   2.381  -7.660  1.00  0.00     0.063 C 
HETATM    6  N1  UNL     1       1.974   0.083  -7.872  1.00  0.00    -0.405 N 
ATOM      7  H12 UNL     1       2.914   0.414  -8.091  1.00  0.00     0.155 HD
ATOM      8  H11 UNL     1       1.714  -0.903  -7.841  1.00  0.00     0.155 HD
ENDBRANCH   3   4
BRANCH   3   9
HETATM    9  C4  UNL     1      -0.304  -0.148  -5.962  1.00  0.00     0.128 C 
HETATM   10  S1  UNL     1      -0.369   0.655  -4.788  1.00  0.00    -0.125 SA
ENDBRANCH   3   9
ENDBRANCH   1   3
BRANCH   1  11
HETATM   11  N2  UNL     1      -0.418  -0.433  -9.669  1.00  0.00    -0.270 N 
HETATM   12  C6  UNL     1      -0.536   0.612 -10.542  1.00  0.00     0.128 A 
HETATM   13 CL1  UNL     1      -1.263   2.129 -10.058  1.00  0.00    -0.062 Cl
HETATM   14  C7  UNL     1      -0.017   0.264 -11.769  1.00  0.00     0.133 A 
HETATM   15  N3  UNL     1       0.422  -0.998 -11.648  1.00  0.00    -0.340 N 
HETATM   16  C8  UNL     1       0.177  -1.404 -10.389  1.00  0.00     0.184 A 
ATOM     17  H3  UNL     1       0.863  -1.553 -12.381  1.00  0.00     0.167 HD
HETATM   18  S3  UNL     1       0.576  -2.901  -9.862  1.00  0.00    -0.040 SA
ENDBRANCH   1  11
TORSDOF 4
ENDMDL
