MODEL 1
REMARK VINA RESULT: -6.898802745      0.000      0.000
REMARK  3 active torsions:
REMARK  status: ('A' for Active; 'I' for Inactive)
REMARK    1  A    between atoms: C3_4  and  N1_5 
REMARK    2  A    between atoms: N1_5  and  C4_7 
REMARK    3  A    between atoms: C4_7  and  C5_8 
ROOT
HETATM    1  C1  UNL     1       1.041  -2.596 -10.505  1.00  0.00     0.057 C 
HETATM    2  C2  UNL     1       0.620  -1.383  -9.680  1.00  0.00    -0.012 A 
HETATM    3  S1  UNL     1       0.567  -1.189  -8.022  1.00  0.00    -0.075 SA
HETATM    4  C3  UNL     1      -0.045   0.441  -7.923  1.00  0.00     0.095 A 
HETATM    5  C8  UNL     1      -0.176   0.774  -9.231  1.00  0.00     0.085 A 
HETATM    6  C9  UNL     1      -0.531   2.160  -9.638  1.00  0.00     0.103 C 
HETATM    7  N4  UNL     1      -0.761   3.262  -9.980  1.00  0.00    -0.191 NA
HETATM    8  C10 UNL     1       0.171  -0.193 -10.163  1.00  0.00    -0.026 A 
HETATM    9  C11 UNL     1      -0.080  -0.004 -11.644  1.00  0.00     0.051 C 
ENDROOT
BRANCH   4  10
HETATM   10  N1  UNL     1      -0.306   1.078  -6.693  1.00  0.00    -0.357 N 
ATOM     11  H1  UNL     1      -0.125   2.081  -6.744  1.00  0.00     0.166 HD
BRANCH  10  12
HETATM   12  C4  UNL     1      -0.748   0.700  -5.419  1.00  0.00     0.121 C 
BRANCH  12  13
HETATM   13  C5  UNL     1       0.270  -0.101  -4.689  1.00  0.00     0.090 A 
HETATM   14  N2  UNL     1       1.374   0.290  -4.058  1.00  0.00    -0.295 N 
HETATM   15  N3  UNL     1       1.835  -0.763  -3.350  1.00  0.00    -0.265 N 
ATOM     16  H2  UNL     1       1.797   1.218  -4.101  1.00  0.00     0.187 HD
HETATM   17  C6  UNL     1       1.041  -1.821  -3.521  1.00  0.00     0.283 A 
ATOM     18  H3  UNL     1       2.671  -0.752  -2.766  1.00  0.00     0.190 HD
HETATM   19  O1  UNL     1       1.156  -2.985  -3.016  1.00  0.00    -0.265 OA
HETATM   20  C7  UNL     1       0.037  -1.450  -4.363  1.00  0.00     0.132 A 
HETATM   21 CL1  UNL     1      -1.273  -2.369  -5.071  1.00  0.00    -0.076 Cl
ENDBRANCH  12  13
ENDBRANCH  10  12
ENDBRANCH   4  10
TORSDOF 3
ENDMDL
MODEL 2
REMARK VINA RESULT: -6.860197769      2.832      3.686
REMARK  3 active torsions:
REMARK  status: ('A' for Active; 'I' for Inactive)
REMARK    1  A    between atoms: C3_4  and  N1_5 
REMARK    2  A    between atoms: N1_5  and  C4_7 
REMARK    3  A    between atoms: C4_7  and  C5_8 
ROOT
HETATM    1  C1  UNL     1      -0.862   2.684 -10.454  1.00  0.00     0.057 C 
HETATM    2  C2  UNL     1      -0.491   1.448  -9.640  1.00  0.00    -0.012 A 
HETATM    3  S1  UNL     1      -0.429   1.243  -7.984  1.00  0.00    -0.075 SA
HETATM    4  C3  UNL     1       0.104  -0.415  -7.899  1.00  0.00     0.095 A 
HETATM    5  C8  UNL     1       0.205  -0.747  -9.209  1.00  0.00     0.085 A 
HETATM    6  C9  UNL     1       0.488  -2.146  -9.628  1.00  0.00     0.103 C 
HETATM    7  N4  UNL     1       0.661  -3.257  -9.977  1.00  0.00    -0.191 NA
HETATM    8  C10 UNL     1      -0.105   0.241 -10.134  1.00  0.00    -0.026 A 
HETATM    9  C11 UNL     1       0.120   0.048 -11.618  1.00  0.00     0.051 C 
ENDROOT
BRANCH   4  10
HETATM   10  N1  UNL     1       0.348  -1.070  -6.675  1.00  0.00    -0.357 N 
ATOM     11  H1  UNL     1       0.177  -2.073  -6.746  1.00  0.00     0.166 HD
BRANCH  10  12
HETATM   12  C4  UNL     1       0.763  -0.710  -5.387  1.00  0.00     0.121 C 
BRANCH  12  13
HETATM   13  C5  UNL     1      -0.263   0.096  -4.674  1.00  0.00     0.090 A 
HETATM   14  N2  UNL     1      -1.381  -0.291  -4.064  1.00  0.00    -0.295 N 
HETATM   15  N3  UNL     1      -1.848   0.764  -3.362  1.00  0.00    -0.265 N 
ATOM     16  H2  UNL     1      -1.808  -1.215  -4.119  1.00  0.00     0.187 HD
HETATM   17  C6  UNL     1      -1.045   1.817  -3.515  1.00  0.00     0.283 A 
ATOM     18  H3  UNL     1      -2.695   0.756  -2.794  1.00  0.00     0.190 HD
HETATM   19  O1  UNL     1      -1.162   2.980  -3.009  1.00  0.00    -0.265 OA
HETATM   20  C7  UNL     1      -0.027   1.442  -4.340  1.00  0.00     0.132 A 
HETATM   21 CL1  UNL     1       1.301   2.355  -5.020  1.00  0.00    -0.076 Cl
ENDBRANCH  12  13
ENDBRANCH  10  12
ENDBRANCH   4  10
TORSDOF 3
ENDMDL
MODEL 3
REMARK VINA RESULT: -6.655421381      2.382      3.121
REMARK  3 active torsions:
REMARK  status: ('A' for Active; 'I' for Inactive)
REMARK    1  A    between atoms: C3_4  and  N1_5 
REMARK    2  A    between atoms: N1_5  and  C4_7 
REMARK    3  A    between atoms: C4_7  and  C5_8 
ROOT
HETATM    1  C1  UNL     1      -0.731   2.785 -10.019  1.00  0.00     0.057 C 
HETATM    2  C2  UNL     1      -0.618   1.459  -9.271  1.00  0.00    -0.012 A 
HETATM    3  S1  UNL     1      -0.788   1.137  -7.642  1.00  0.00    -0.075 SA
HETATM    4  C3  UNL     1      -0.476  -0.578  -7.633  1.00  0.00     0.095 A 
HETATM    5  C8  UNL     1      -0.254  -0.832  -8.946  1.00  0.00     0.085 A 
HETATM    6  C9  UNL     1      -0.095  -2.226  -9.443  1.00  0.00     0.103 C 
HETATM    7  N4  UNL     1      -0.016  -3.323  -9.860  1.00  0.00    -0.191 NA
HETATM    8  C10 UNL     1      -0.324   0.247  -9.815  1.00  0.00    -0.026 A 
HETATM    9  C11 UNL     1       0.059   0.126 -11.275  1.00  0.00     0.051 C 
ENDROOT
BRANCH   4  10
HETATM   10  N1  UNL     1      -0.468  -1.340  -6.447  1.00  0.00    -0.357 N 
ATOM     11  H1  UNL     1      -0.122  -2.286  -6.611  1.00  0.00     0.166 HD
BRANCH  10  12
HETATM   12  C4  UNL     1      -0.810  -1.144  -5.103  1.00  0.00     0.121 C 
BRANCH  12  13
HETATM   13  C5  UNL     1       0.298  -1.520  -4.185  1.00  0.00     0.090 A 
HETATM   14  N2  UNL     1       0.631  -2.709  -3.689  1.00  0.00    -0.295 N 
HETATM   15  N3  UNL     1       1.843  -2.582  -3.106  1.00  0.00    -0.265 N 
ATOM     16  H2  UNL     1       0.073  -3.561  -3.740  1.00  0.00     0.187 HD
HETATM   17  C6  UNL     1       2.286  -1.330  -3.222  1.00  0.00     0.283 A 
ATOM     18  H3  UNL     1       2.348  -3.338  -2.643  1.00  0.00     0.190 HD
HETATM   19  O1  UNL     1       3.382  -0.838  -2.798  1.00  0.00    -0.265 OA
HETATM   20  C7  UNL     1       1.340  -0.619  -3.897  1.00  0.00     0.132 A 
HETATM   21 CL1  UNL     1       1.244   1.081  -4.298  1.00  0.00    -0.076 Cl
ENDBRANCH  12  13
ENDBRANCH  10  12
ENDBRANCH   4  10
TORSDOF 3
ENDMDL
MODEL 4
REMARK VINA RESULT: -6.652494216      2.196      2.462
REMARK  3 active torsions:
REMARK  status: ('A' for Active; 'I' for Inactive)
REMARK    1  A    between atoms: C3_4  and  N1_5 
REMARK    2  A    between atoms: N1_5  and  C4_7 
REMARK    3  A    between atoms: C4_7  and  C5_8 
ROOT
HETATM    1  C1  UNL     1       0.695  -2.822  -9.981  1.00  0.00     0.057 C 
HETATM    2  C2  UNL     1       0.586  -1.490  -9.245  1.00  0.00    -0.012 A 
HETATM    3  S1  UNL     1       0.739  -1.158  -7.616  1.00  0.00    -0.075 SA
HETATM    4  C3  UNL     1       0.444   0.560  -7.622  1.00  0.00     0.095 A 
HETATM    5  C8  UNL     1       0.241   0.807  -8.940  1.00  0.00     0.085 A 
HETATM    6  C9  UNL     1       0.101   2.198  -9.448  1.00  0.00     0.103 C 
HETATM    7  N4  UNL     1       0.038   3.293  -9.874  1.00  0.00    -0.191 NA
HETATM    8  C10 UNL     1       0.311  -0.279  -9.801  1.00  0.00    -0.026 A 
HETATM    9  C11 UNL     1      -0.053  -0.165 -11.266  1.00  0.00     0.051 C 
ENDROOT
BRANCH   4  10
HETATM   10  N1  UNL     1       0.429   1.331  -6.442  1.00  0.00    -0.357 N 
ATOM     11  H1  UNL     1       0.053   2.264  -6.608  1.00  0.00     0.166 HD
BRANCH  10  12
HETATM   12  C4  UNL     1       0.794   1.155  -5.101  1.00  0.00     0.121 C 
BRANCH  12  13
HETATM   13  C5  UNL     1      -0.306   1.521  -4.171  1.00  0.00     0.090 A 
HETATM   14  N2  UNL     1      -0.635   2.704  -3.659  1.00  0.00    -0.295 N 
HETATM   15  N3  UNL     1      -1.842   2.573  -3.069  1.00  0.00    -0.265 N 
ATOM     16  H2  UNL     1      -0.076   3.556  -3.703  1.00  0.00     0.187 HD
HETATM   17  C6  UNL     1      -2.288   1.323  -3.196  1.00  0.00     0.283 A 
ATOM     18  H3  UNL     1      -2.343   3.324  -2.593  1.00  0.00     0.190 HD
HETATM   19  O1  UNL     1      -3.381   0.827  -2.769  1.00  0.00    -0.265 OA
HETATM   20  C7  UNL     1      -1.348   0.619  -3.886  1.00  0.00     0.132 A 
HETATM   21 CL1  UNL     1      -1.257  -1.077  -4.307  1.00  0.00    -0.076 Cl
ENDBRANCH  12  13
ENDBRANCH  10  12
ENDBRANCH   4  10
TORSDOF 3
ENDMDL
MODEL 5
REMARK VINA RESULT: -6.443590671      2.292      3.203
REMARK  3 active torsions:
REMARK  status: ('A' for Active; 'I' for Inactive)
REMARK    1  A    between atoms: C3_4  and  N1_5 
REMARK    2  A    between atoms: N1_5  and  C4_7 
REMARK    3  A    between atoms: C4_7  and  C5_8 
ROOT
HETATM    1  C1  UNL     1      -0.816   2.719 -10.400  1.00  0.00     0.057 C 
HETATM    2  C2  UNL     1      -0.382   1.476  -9.628  1.00  0.00    -0.012 A 
HETATM    3  S1  UNL     1      -0.189   1.256  -7.984  1.00  0.00    -0.075 SA
HETATM    4  C3  UNL     1       0.348  -0.402  -7.956  1.00  0.00     0.095 A 
HETATM    5  C8  UNL     1       0.345  -0.723  -9.274  1.00  0.00     0.085 A 
HETATM    6  C9  UNL     1       0.593  -2.119  -9.725  1.00  0.00     0.103 C 
HETATM    7  N4  UNL     1       0.737  -3.226 -10.097  1.00  0.00    -0.191 NA
HETATM    8  C10 UNL     1      -0.037   0.273 -10.162  1.00  0.00    -0.026 A 
HETATM    9  C11 UNL     1       0.069   0.093 -11.661  1.00  0.00     0.051 C 
ENDROOT
BRANCH   4  10
HETATM   10  N1  UNL     1       0.688  -1.068  -6.761  1.00  0.00    -0.357 N 
ATOM     11  H1  UNL     1       0.370  -2.038  -6.769  1.00  0.00     0.166 HD
BRANCH  10  12
HETATM   12  C4  UNL     1       1.346  -0.753  -5.566  1.00  0.00     0.121 C 
BRANCH  12  13
HETATM   13  C5  UNL     1       0.524   0.125  -4.691  1.00  0.00     0.090 A 
HETATM   14  N2  UNL     1       0.713   1.392  -4.332  1.00  0.00    -0.295 N 
HETATM   15  N3  UNL     1      -0.419   1.820  -3.733  1.00  0.00    -0.265 N 
ATOM     16  H2  UNL     1       1.559   1.941  -4.483  1.00  0.00     0.187 HD
HETATM   17  C6  UNL     1      -1.326   0.843  -3.702  1.00  0.00     0.283 A 
ATOM     18  H3  UNL     1      -0.560   2.757  -3.356  1.00  0.00     0.190 HD
HETATM   19  O1  UNL     1      -2.504   0.874  -3.219  1.00  0.00    -0.265 OA
HETATM   20  C7  UNL     1      -0.773  -0.251  -4.297  1.00  0.00     0.132 A 
HETATM   21 CL1  UNL     1      -1.378  -1.880  -4.502  1.00  0.00    -0.076 Cl
ENDBRANCH  12  13
ENDBRANCH  10  12
ENDBRANCH   4  10
TORSDOF 3
ENDMDL
