MODEL 1
REMARK VINA RESULT: -6.435252155      0.000      0.000
REMARK  4 active torsions:
REMARK  status: ('A' for Active; 'I' for Inactive)
REMARK    1  A    between atoms: C3_3  and  C4_4 
REMARK    2  A    between atoms: C3_3  and  C7_14 
REMARK    3  A    between atoms: N2_7  and  N3_9 
REMARK    4  A    between atoms: N3_9  and  C6_11 
ROOT
HETATM    1  C4  UNL     1      -0.104  -1.165  -8.091  1.00  0.00     0.141 C 
HETATM    2  C5  UNL     1      -0.050  -2.210  -9.121  1.00  0.00     0.120 C 
HETATM    3  N1  UNL     1      -0.016  -3.020  -9.944  1.00  0.00    -0.190 NA
HETATM    4  N2  UNL     1       0.333   0.010  -8.367  1.00  0.00    -0.288 N 
ATOM      5  H2  UNL     1       0.306   0.751  -7.668  1.00  0.00     0.188 HD
ENDROOT
BRANCH   1   6
HETATM    6  C3  UNL     1      -0.666  -1.580  -6.813  1.00  0.00     0.033 C 
HETATM    7  C2  UNL     1      -1.460  -2.657  -6.774  1.00  0.00    -0.014 C 
HETATM    8  C1  UNL     1      -2.104  -3.208  -5.589  1.00  0.00     0.037 C 
BRANCH   6   9
HETATM    9  C7  UNL     1      -0.403  -0.871  -5.566  1.00  0.00     0.090 A 
HETATM   10  C8  UNL     1       0.430  -1.223  -4.530  1.00  0.00     0.042 A 
HETATM   11  C9  UNL     1       0.324  -0.214  -3.582  1.00  0.00     0.053 A 
HETATM   12  C10 UNL     1      -0.566   0.702  -4.079  1.00  0.00     0.145 A 
HETATM   13 CL1  UNL     1      -1.098   2.186  -3.327  1.00  0.00    -0.057 Cl
HETATM   14  O1  UNL     1      -0.968   0.280  -5.243  1.00  0.00    -0.298 OA
ENDBRANCH   6   9
ENDBRANCH   1   6
BRANCH   4  15
HETATM   15  N3  UNL     1       0.847   0.254  -9.649  1.00  0.00    -0.278 N 
ATOM     16  H3  UNL     1       1.798  -0.044  -9.866  1.00  0.00     0.189 HD
BRANCH  15  17
HETATM   17  C6  UNL     1       0.080   0.903 -10.651  1.00  0.00     0.199 C 
HETATM   18  N4  UNL     1      -0.117   0.283 -11.911  1.00  0.00    -0.068 NA
HETATM   19  S1  UNL     1      -0.601   2.364 -10.415  1.00  0.00    -0.043 SA
ENDBRANCH  15  17
ENDBRANCH   4  15
TORSDOF 4
ENDMDL
MODEL 2
REMARK VINA RESULT: -6.433240886      2.671      3.778
REMARK  4 active torsions:
REMARK  status: ('A' for Active; 'I' for Inactive)
REMARK    1  A    between atoms: C3_3  and  C4_4 
REMARK    2  A    between atoms: C3_3  and  C7_14 
REMARK    3  A    between atoms: N2_7  and  N3_9 
REMARK    4  A    between atoms: N3_9  and  C6_11 
ROOT
HETATM    1  C4  UNL     1       0.104   1.182  -8.099  1.00  0.00     0.141 C 
HETATM    2  C5  UNL     1       0.047   2.234  -9.121  1.00  0.00     0.120 C 
HETATM    3  N1  UNL     1       0.010   3.050  -9.938  1.00  0.00    -0.190 NA
HETATM    4  N2  UNL     1      -0.327   0.008  -8.383  1.00  0.00    -0.288 N 
ATOM      5  H2  UNL     1      -0.298  -0.739  -7.689  1.00  0.00     0.188 HD
ENDROOT
BRANCH   1   6
HETATM    6  C3  UNL     1       0.664   1.591  -6.817  1.00  0.00     0.033 C 
HETATM    7  C2  UNL     1       1.462   2.664  -6.772  1.00  0.00    -0.014 C 
HETATM    8  C1  UNL     1       2.104   3.208  -5.582  1.00  0.00     0.037 C 
BRANCH   6   9
HETATM    9  C7  UNL     1       0.393   0.879  -5.573  1.00  0.00     0.090 A 
HETATM   10  C8  UNL     1      -0.458   1.221  -4.549  1.00  0.00     0.042 A 
HETATM   11  C9  UNL     1      -0.352   0.213  -3.599  1.00  0.00     0.053 A 
HETATM   12  C10 UNL     1       0.555  -0.692  -4.084  1.00  0.00     0.145 A 
HETATM   13 CL1  UNL     1       1.095  -2.169  -3.324  1.00  0.00    -0.057 Cl
HETATM   14  O1  UNL     1       0.967  -0.265  -5.242  1.00  0.00    -0.298 OA
ENDBRANCH   6   9
ENDBRANCH   1   6
BRANCH   4  15
HETATM   15  N3  UNL     1      -0.839  -0.229  -9.667  1.00  0.00    -0.278 N 
ATOM     16  H3  UNL     1      -1.784   0.085  -9.889  1.00  0.00     0.189 HD
BRANCH  15  17
HETATM   17  C6  UNL     1      -0.079  -0.894 -10.664  1.00  0.00     0.199 C 
HETATM   18  N4  UNL     1       0.106  -0.296 -11.935  1.00  0.00    -0.068 NA
HETATM   19  S1  UNL     1       0.606  -2.351 -10.408  1.00  0.00    -0.043 SA
ENDBRANCH  15  17
ENDBRANCH   4  15
TORSDOF 4
ENDMDL
MODEL 3
REMARK VINA RESULT: -6.321447919      2.154      2.835
REMARK  4 active torsions:
REMARK  status: ('A' for Active; 'I' for Inactive)
REMARK    1  A    between atoms: C3_3  and  C4_4 
REMARK    2  A    between atoms: C3_3  and  C7_14 
REMARK    3  A    between atoms: N2_7  and  N3_9 
REMARK    4  A    between atoms: N3_9  and  C6_11 
ROOT
HETATM    1  C4  UNL     1       0.071  -0.168  -6.914  1.00  0.00     0.141 C 
HETATM    2  C5  UNL     1      -0.659  -1.329  -7.436  1.00  0.00     0.120 C 
HETATM    3  N1  UNL     1      -1.242  -2.232  -7.861  1.00  0.00    -0.190 NA
HETATM    4  N2  UNL     1       0.706   0.592  -7.730  1.00  0.00    -0.288 N 
ATOM      5  H2  UNL     1       1.221   1.404  -7.390  1.00  0.00     0.188 HD
ENDROOT
BRANCH   1   6
HETATM    6  C3  UNL     1      -0.001   0.013  -5.470  1.00  0.00     0.033 C 
HETATM    7  C2  UNL     1      -0.738   1.017  -4.979  1.00  0.00    -0.014 C 
HETATM    8  C1  UNL     1      -0.918   1.341  -3.570  1.00  0.00     0.037 C 
BRANCH   6   9
HETATM    9  C7  UNL     1       0.699  -0.854  -4.529  1.00  0.00     0.090 A 
HETATM   10  C8  UNL     1       0.293  -2.053  -3.992  1.00  0.00     0.042 A 
HETATM   11  C9  UNL     1       1.318  -2.475  -3.155  1.00  0.00     0.053 A 
HETATM   12  C10 UNL     1       2.296  -1.518  -3.218  1.00  0.00     0.145 A 
HETATM   13 CL1  UNL     1       3.826  -1.503  -2.375  1.00  0.00    -0.057 Cl
HETATM   14  O1  UNL     1       1.894  -0.586  -4.033  1.00  0.00    -0.298 OA
ENDBRANCH   6   9
ENDBRANCH   1   6
BRANCH   4  15
HETATM   15  N3  UNL     1       0.680   0.283  -9.097  1.00  0.00    -0.278 N 
ATOM     16  H3  UNL     1       1.073  -0.604  -9.413  1.00  0.00     0.189 HD
BRANCH  15  17
HETATM   17  C6  UNL     1       0.121   1.171 -10.054  1.00  0.00     0.199 C 
HETATM   18  N4  UNL     1      -0.171   0.715 -11.363  1.00  0.00    -0.068 NA
HETATM   19  S1  UNL     1      -0.208   2.729  -9.705  1.00  0.00    -0.043 SA
ENDBRANCH  15  17
ENDBRANCH   4  15
TORSDOF 4
ENDMDL
MODEL 4
REMARK VINA RESULT: -6.315513489      2.319      3.126
REMARK  4 active torsions:
REMARK  status: ('A' for Active; 'I' for Inactive)
REMARK    1  A    between atoms: C3_3  and  C4_4 
REMARK    2  A    between atoms: C3_3  and  C7_14 
REMARK    3  A    between atoms: N2_7  and  N3_9 
REMARK    4  A    between atoms: N3_9  and  C6_11 
ROOT
HETATM    1  C4  UNL     1      -0.024   0.193  -6.879  1.00  0.00     0.141 C 
HETATM    2  C5  UNL     1       0.724   1.349  -7.387  1.00  0.00     0.120 C 
HETATM    3  N1  UNL     1       1.322   2.248  -7.800  1.00  0.00    -0.190 NA
HETATM    4  N2  UNL     1      -0.654  -0.559  -7.706  1.00  0.00    -0.288 N 
ATOM      5  H2  UNL     1      -1.181  -1.367  -7.376  1.00  0.00     0.188 HD
ENDROOT
BRANCH   1   6
HETATM    6  C3  UNL     1       0.024   0.008  -5.434  1.00  0.00     0.033 C 
HETATM    7  C2  UNL     1       0.749  -0.999  -4.934  1.00  0.00    -0.014 C 
HETATM    8  C1  UNL     1       0.906  -1.328  -3.524  1.00  0.00     0.037 C 
BRANCH   6   9
HETATM    9  C7  UNL     1      -0.689   0.875  -4.503  1.00  0.00     0.090 A 
HETATM   10  C8  UNL     1      -0.292   2.076  -3.964  1.00  0.00     0.042 A 
HETATM   11  C9  UNL     1      -1.327   2.496  -3.138  1.00  0.00     0.053 A 
HETATM   12  C10 UNL     1      -2.302   1.536  -3.209  1.00  0.00     0.145 A 
HETATM   13 CL1  UNL     1      -3.840   1.517  -2.383  1.00  0.00    -0.057 Cl
HETATM   14  O1  UNL     1      -1.889   0.604  -4.018  1.00  0.00    -0.298 OA
ENDBRANCH   6   9
ENDBRANCH   1   6
BRANCH   4  15
HETATM   15  N3  UNL     1      -0.603  -0.247  -9.072  1.00  0.00    -0.278 N 
ATOM     16  H3  UNL     1      -0.943   0.662  -9.386  1.00  0.00     0.189 HD
BRANCH  15  17
HETATM   17  C6  UNL     1      -0.093  -1.162 -10.030  1.00  0.00     0.199 C 
HETATM   18  N4  UNL     1       0.159  -0.737 -11.358  1.00  0.00    -0.068 NA
HETATM   19  S1  UNL     1       0.225  -2.718  -9.662  1.00  0.00    -0.043 SA
ENDBRANCH  15  17
ENDBRANCH   4  15
TORSDOF 4
ENDMDL
MODEL 5
REMARK VINA RESULT: -6.305364587      1.532      2.282
REMARK  4 active torsions:
REMARK  status: ('A' for Active; 'I' for Inactive)
REMARK    1  A    between atoms: C3_3  and  C4_4 
REMARK    2  A    between atoms: C3_3  and  C7_14 
REMARK    3  A    between atoms: N2_7  and  N3_9 
REMARK    4  A    between atoms: N3_9  and  C6_11 
ROOT
HETATM    1  C4  UNL     1       0.144  -0.534  -6.785  1.00  0.00     0.141 C 
HETATM    2  C5  UNL     1      -0.791  -1.538  -7.307  1.00  0.00     0.120 C 
HETATM    3  N1  UNL     1      -1.534  -2.316  -7.729  1.00  0.00    -0.190 NA
HETATM    4  N2  UNL     1       0.805   0.195  -7.609  1.00  0.00    -0.288 N 
ATOM      5  H2  UNL     1       1.460   0.899  -7.270  1.00  0.00     0.188 HD
ENDROOT
BRANCH   1   6
HETATM    6  C3  UNL     1       0.232  -0.462  -5.333  1.00  0.00     0.033 C 
HETATM    7  C2  UNL     1       0.991  -1.354  -4.685  1.00  0.00    -0.014 C 
HETATM    8  C1  UNL     1       1.189  -1.427  -3.244  1.00  0.00     0.037 C 
BRANCH   6   9
HETATM    9  C7  UNL     1      -0.475   0.543  -4.547  1.00  0.00     0.090 A 
HETATM   10  C8  UNL     1      -0.072   1.812  -4.204  1.00  0.00     0.042 A 
HETATM   11  C9  UNL     1      -1.104   2.361  -3.452  1.00  0.00     0.053 A 
HETATM   12  C10 UNL     1      -2.083   1.406  -3.371  1.00  0.00     0.145 A 
HETATM   13 CL1  UNL     1      -3.619   1.524  -2.549  1.00  0.00    -0.057 Cl
HETATM   14  O1  UNL     1      -1.675   0.357  -4.025  1.00  0.00    -0.298 OA
ENDBRANCH   6   9
ENDBRANCH   1   6
BRANCH   4  15
HETATM   15  N3  UNL     1       0.609   0.004  -8.984  1.00  0.00    -0.278 N 
ATOM     16  H3  UNL     1       0.774  -0.919  -9.385  1.00  0.00     0.189 HD
BRANCH  15  17
HETATM   17  C6  UNL     1       0.186   1.060  -9.833  1.00  0.00     0.199 C 
HETATM   18  N4  UNL     1      -0.097   0.807 -11.199  1.00  0.00    -0.068 NA
HETATM   19  S1  UNL     1       0.008   2.589  -9.296  1.00  0.00    -0.043 SA
ENDBRANCH  15  17
ENDBRANCH   4  15
TORSDOF 4
ENDMDL
