MODEL 1
REMARK VINA RESULT: -5.752684589      0.000      0.000
REMARK  3 active torsions:
REMARK  status: ('A' for Active; 'I' for Inactive)
REMARK    1  A    between atoms: C3_3  and  C5_5 
REMARK    2  A    between atoms: C5_5  and  C6_6 
REMARK    3  A    between atoms: C8_13  and  C9_14 
ROOT
HETATM    1  C1  UNL     1       0.985  -2.538 -10.545  1.00  0.00     0.012 C 
HETATM    2  C2  UNL     1       0.518  -2.237  -9.484  1.00  0.00    -0.110 C 
HETATM    3  C3  UNL     1      -0.063  -1.850  -8.194  1.00  0.00     0.093 C 
HETATM    4  C4  UNL     1      -1.502  -2.297  -8.079  1.00  0.00     0.026 C 
ENDROOT
BRANCH   3   5
HETATM    5  C5  UNL     1       0.068  -0.347  -8.062  1.00  0.00     0.119 A 
HETATM    6  N2  UNL     1      -0.761   0.309  -9.067  1.00  0.00    -0.107 NA
HETATM    7  N3  UNL     1      -1.740   1.009  -8.357  1.00  0.00    -0.030 NA
HETATM    8  N4  UNL     1      -1.519   0.860  -6.985  1.00  0.00    -0.288 N 
HETATM    9  C8  UNL     1      -0.490   0.089  -6.783  1.00  0.00     0.070 A 
ATOM     10  H4  UNL     1      -2.080   1.292  -6.251  1.00  0.00     0.183 HD
BRANCH   5  11
HETATM   11  C6  UNL     1       1.483   0.074  -8.274  1.00  0.00     0.160 C 
HETATM   12  C7  UNL     1       1.580   1.531  -8.179  1.00  0.00     0.061 C 
HETATM   13  N1  UNL     1       1.675   2.689  -8.095  1.00  0.00    -0.197 NA
ENDBRANCH   5  11
BRANCH   9  14
HETATM   14  C9  UNL     1       0.005  -0.267  -5.457  1.00  0.00     0.052 A 
HETATM   15  S1  UNL     1      -0.133  -1.780  -4.684  1.00  0.00    -0.098 SA
HETATM   16  C10 UNL     1       0.662  -1.418  -3.217  1.00  0.00     0.052 A 
HETATM   17  C11 UNL     1       1.015  -0.107  -3.384  1.00  0.00     0.032 A 
HETATM   18  C12 UNL     1       0.678   0.487  -4.536  1.00  0.00     0.053 A 
HETATM   19 CL1  UNL     1       1.059   2.189  -4.914  1.00  0.00    -0.083 Cl
ENDBRANCH   9  14
ENDBRANCH   3   5
TORSDOF 3
ENDMDL
MODEL 2
REMARK VINA RESULT: -5.724205024      2.440      3.726
REMARK  3 active torsions:
REMARK  status: ('A' for Active; 'I' for Inactive)
REMARK    1  A    between atoms: C3_3  and  C5_5 
REMARK    2  A    between atoms: C5_5  and  C6_6 
REMARK    3  A    between atoms: C8_13  and  C9_14 
ROOT
HETATM    1  C1  UNL     1      -0.811   2.663 -10.474  1.00  0.00     0.012 C 
HETATM    2  C2  UNL     1      -0.365   2.322  -9.416  1.00  0.00    -0.110 C 
HETATM    3  C3  UNL     1       0.188   1.885  -8.129  1.00  0.00     0.093 C 
HETATM    4  C4  UNL     1       1.640   2.277  -7.991  1.00  0.00     0.026 C 
ENDROOT
BRANCH   3   5
HETATM    5  C5  UNL     1       0.002   0.385  -8.033  1.00  0.00     0.119 A 
HETATM    6  N2  UNL     1       0.830  -0.278  -9.035  1.00  0.00    -0.107 NA
HETATM    7  N3  UNL     1       1.768  -1.027  -8.320  1.00  0.00    -0.030 NA
HETATM    8  N4  UNL     1       1.522  -0.899  -6.950  1.00  0.00    -0.288 N 
HETATM    9  C8  UNL     1       0.517  -0.098  -6.753  1.00  0.00     0.070 A 
ATOM     10  H4  UNL     1       2.052  -1.366  -6.214  1.00  0.00     0.183 HD
BRANCH   5  11
HETATM   11  C6  UNL     1      -1.422   0.018  -8.284  1.00  0.00     0.160 C 
HETATM   12  C7  UNL     1      -1.570  -1.436  -8.229  1.00  0.00     0.061 C 
HETATM   13  N1  UNL     1      -1.705  -2.592  -8.176  1.00  0.00    -0.197 NA
ENDBRANCH   5  11
BRANCH   9  14
HETATM   14  C9  UNL     1       0.005   0.248  -5.430  1.00  0.00     0.052 A 
HETATM   15  S1  UNL     1       0.166   1.743  -4.627  1.00  0.00    -0.098 SA
HETATM   16  C10 UNL     1      -0.666   1.375  -3.183  1.00  0.00     0.052 A 
HETATM   17  C11 UNL     1      -1.048   0.076  -3.380  1.00  0.00     0.032 A 
HETATM   18  C12 UNL     1      -0.704  -0.505  -4.536  1.00  0.00     0.053 A 
HETATM   19 CL1  UNL     1      -1.121  -2.190  -4.952  1.00  0.00    -0.083 Cl
ENDBRANCH   9  14
ENDBRANCH   3   5
TORSDOF 3
ENDMDL
MODEL 3
REMARK VINA RESULT: -5.581460532      2.480      4.798
REMARK  3 active torsions:
REMARK  status: ('A' for Active; 'I' for Inactive)
REMARK    1  A    between atoms: C3_3  and  C5_5 
REMARK    2  A    between atoms: C5_5  and  C6_6 
REMARK    3  A    between atoms: C8_13  and  C9_14 
ROOT
HETATM    1  C1  UNL     1      -1.296  -2.113  -5.178  1.00  0.00     0.012 C 
HETATM    2  C2  UNL     1      -0.358  -1.369  -5.181  1.00  0.00    -0.110 C 
HETATM    3  C3  UNL     1       0.778  -0.440  -5.176  1.00  0.00     0.093 C 
HETATM    4  C4  UNL     1       1.475  -0.427  -3.835  1.00  0.00     0.026 C 
ENDROOT
BRANCH   3   5
HETATM    5  C5  UNL     1       0.254   0.932  -5.546  1.00  0.00     0.119 A 
HETATM    6  N2  UNL     1       0.832   1.935  -4.659  1.00  0.00    -0.107 NA
HETATM    7  N3  UNL     1       1.616   2.757  -5.474  1.00  0.00    -0.030 NA
HETATM    8  N4  UNL     1       1.502   2.344  -6.803  1.00  0.00    -0.288 N 
HETATM    9  C8  UNL     1       0.728   1.301  -6.879  1.00  0.00     0.070 A 
ATOM     10  H4  UNL     1       1.957   2.794  -7.598  1.00  0.00     0.183 HD
BRANCH   5  11
HETATM   11  C6  UNL     1      -1.231   0.979  -5.403  1.00  0.00     0.160 C 
HETATM   12  C7  UNL     1      -1.579   1.597  -4.123  1.00  0.00     0.061 C 
HETATM   13  N1  UNL     1      -1.872   2.097  -3.112  1.00  0.00    -0.197 NA
ENDBRANCH   5  11
BRANCH   9  14
HETATM   14  C9  UNL     1       0.403   0.623  -8.131  1.00  0.00     0.052 A 
HETATM   15  S1  UNL     1       0.664  -1.020  -8.503  1.00  0.00    -0.098 SA
HETATM   16  C10 UNL     1       0.044  -1.046 -10.094  1.00  0.00     0.052 A 
HETATM   17  C11 UNL     1      -0.352   0.250 -10.282  1.00  0.00     0.032 A 
HETATM   18  C12 UNL     1      -0.168   1.110  -9.273  1.00  0.00     0.053 A 
HETATM   19 CL1  UNL     1      -0.627   2.833  -9.353  1.00  0.00    -0.083 Cl
ENDBRANCH   9  14
ENDBRANCH   3   5
TORSDOF 3
ENDMDL
MODEL 4
REMARK VINA RESULT: -5.578878826      3.093      5.122
REMARK  3 active torsions:
REMARK  status: ('A' for Active; 'I' for Inactive)
REMARK    1  A    between atoms: C3_3  and  C5_5 
REMARK    2  A    between atoms: C5_5  and  C6_6 
REMARK    3  A    between atoms: C8_13  and  C9_14 
ROOT
HETATM    1  C1  UNL     1       1.289   2.078  -5.247  1.00  0.00     0.012 C 
HETATM    2  C2  UNL     1       0.350   1.334  -5.228  1.00  0.00    -0.110 C 
HETATM    3  C3  UNL     1      -0.785   0.406  -5.196  1.00  0.00     0.093 C 
HETATM    4  C4  UNL     1      -1.449   0.392  -3.838  1.00  0.00     0.026 C 
ENDROOT
BRANCH   3   5
HETATM    5  C5  UNL     1      -0.271  -0.966  -5.580  1.00  0.00     0.119 A 
HETATM    6  N2  UNL     1      -0.856  -1.973  -4.703  1.00  0.00    -0.107 NA
HETATM    7  N3  UNL     1      -1.647  -2.782  -5.525  1.00  0.00    -0.030 NA
HETATM    8  N4  UNL     1      -1.530  -2.356  -6.850  1.00  0.00    -0.288 N 
HETATM    9  C8  UNL     1      -0.749  -1.318  -6.916  1.00  0.00     0.070 A 
ATOM     10  H4  UNL     1      -1.990  -2.795  -7.649  1.00  0.00     0.183 HD
BRANCH   5  11
HETATM   11  C6  UNL     1       1.213  -1.025  -5.439  1.00  0.00     0.160 C 
HETATM   12  C7  UNL     1       1.558  -1.580  -4.130  1.00  0.00     0.061 C 
HETATM   13  N1  UNL     1       1.848  -2.031  -3.095  1.00  0.00    -0.197 NA
ENDBRANCH   5  11
BRANCH   9  14
HETATM   14  C9  UNL     1      -0.421  -0.629  -8.162  1.00  0.00     0.052 A 
HETATM   15  S1  UNL     1      -0.708   1.009  -8.532  1.00  0.00    -0.098 SA
HETATM   16  C10 UNL     1      -0.068   1.053 -10.115  1.00  0.00     0.052 A 
HETATM   17  C11 UNL     1       0.355  -0.235 -10.302  1.00  0.00     0.032 A 
HETATM   18  C12 UNL     1       0.174  -1.101  -9.298  1.00  0.00     0.053 A 
HETATM   19 CL1  UNL     1       0.666  -2.816  -9.377  1.00  0.00    -0.083 Cl
ENDBRANCH   9  14
ENDBRANCH   3   5
TORSDOF 3
ENDMDL
MODEL 5
REMARK VINA RESULT: -5.420144741      1.577      2.529
REMARK  3 active torsions:
REMARK  status: ('A' for Active; 'I' for Inactive)
REMARK    1  A    between atoms: C3_3  and  C5_5 
REMARK    2  A    between atoms: C5_5  and  C6_6 
REMARK    3  A    between atoms: C8_13  and  C9_14 
ROOT
HETATM    1  C1  UNL     1      -1.651  -2.456  -7.466  1.00  0.00     0.012 C 
HETATM    2  C2  UNL     1      -1.453  -1.302  -7.721  1.00  0.00    -0.110 C 
HETATM    3  C3  UNL     1      -1.192   0.105  -8.044  1.00  0.00     0.093 C 
HETATM    4  C4  UNL     1      -1.782   0.482  -9.383  1.00  0.00     0.026 C 
ENDROOT
BRANCH   3   5
HETATM    5  C5  UNL     1       0.307   0.314  -8.015  1.00  0.00     0.119 A 
HETATM    6  N2  UNL     1       0.681   1.323  -8.999  1.00  0.00    -0.107 NA
HETATM    7  N3  UNL     1       1.196   2.397  -8.268  1.00  0.00    -0.030 NA
HETATM    8  N4  UNL     1       1.205   2.075  -6.908  1.00  0.00    -0.288 N 
HETATM    9  C8  UNL     1       0.703   0.888  -6.730  1.00  0.00     0.070 A 
ATOM     10  H4  UNL     1       1.554   2.681  -6.165  1.00  0.00     0.183 HD
BRANCH   5  11
HETATM   11  C6  UNL     1       1.018  -0.954  -8.349  1.00  0.00     0.160 C 
HETATM   12  C7  UNL     1       0.898  -1.219  -9.784  1.00  0.00     0.061 C 
HETATM   13  N1  UNL     1       0.820  -1.436 -10.926  1.00  0.00    -0.197 NA
ENDBRANCH   5  11
BRANCH   9  14
HETATM   14  C9  UNL     1       0.568   0.255  -5.421  1.00  0.00     0.052 A 
HETATM   15  S1  UNL     1       1.517  -1.015  -4.796  1.00  0.00    -0.098 SA
HETATM   16  C10 UNL     1       0.773  -1.193  -3.269  1.00  0.00     0.052 A 
HETATM   17  C11 UNL     1      -0.207  -0.239  -3.301  1.00  0.00     0.032 A 
HETATM   18  C12 UNL     1      -0.313   0.507  -4.407  1.00  0.00     0.053 A 
HETATM   19 CL1  UNL     1      -1.534   1.793  -4.613  1.00  0.00    -0.083 Cl
ENDBRANCH   9  14
ENDBRANCH   3   5
TORSDOF 3
ENDMDL
