MODEL 1
REMARK VINA RESULT: -5.324045470      0.000      0.000
REMARK  4 active torsions:
REMARK  status: ('A' for Active; 'I' for Inactive)
REMARK    1  A    between atoms: C2_2  and  N1_3 
REMARK    2  A    between atoms: C3_4  and  C4_5 
REMARK    3  A    between atoms: C6_9  and  N3_10 
REMARK    4  A    between atoms: C9_19  and  C10_20 
ROOT
HETATM    1  N1  UNL     1      -6.033   1.251   0.632  1.00  0.00    -0.321 N 
HETATM    2  C3  UNL     1      -5.190   2.165   0.230  1.00  0.00     0.122 A 
HETATM    3  N5  UNL     1      -5.717   3.355   0.644  1.00  0.00    -0.339 N 
ATOM      4  H5  UNL     1      -5.283   4.263   0.481  1.00  0.00     0.167 HD
HETATM    5  C9  UNL     1      -6.878   3.177   1.293  1.00  0.00     0.074 A 
HETATM    6  C13 UNL     1      -7.100   1.827   1.298  1.00  0.00     0.134 A 
HETATM    7 CL1  UNL     1      -8.484   1.069   2.019  1.00  0.00    -0.062 Cl
ENDROOT
BRANCH   2   8
HETATM    8  C4  UNL     1      -4.019   2.150  -0.639  1.00  0.00     0.047 A 
HETATM    9  C5  UNL     1      -4.286   2.023  -2.051  1.00  0.00     0.123 A 
HETATM   10  N2  UNL     1      -3.247   2.078  -2.851  1.00  0.00    -0.201 N 
HETATM   11  C6  UNL     1      -1.988   2.236  -2.430  1.00  0.00     0.675 A 
ATOM     12  H2  UNL     1      -3.410   1.996  -3.854  1.00  0.00     0.183 HD
HETATM   13  N4  UNL     1      -1.715   2.356  -1.113  1.00  0.00    -0.195 N 
HETATM   14  C7  UNL     1      -2.741   2.314  -0.213  1.00  0.00     0.038 A 
ATOM     15  H4  UNL     1      -0.754   2.478  -0.794  1.00  0.00     0.184 HD
HETATM   16  C8  UNL     1      -2.394   2.520   1.246  1.00  0.00     0.070 C 
BRANCH  11  17
HETATM   17  N3  UNL     1      -0.998   2.295  -3.257  1.00  0.00    -0.234 N 
ATOM     18  H32 UNL     1      -0.100   1.922  -2.949  1.00  0.00     0.174 HD
ATOM     19  H31 UNL     1      -1.097   2.710  -4.183  1.00  0.00     0.174 HD
ENDBRANCH  11  17
ENDBRANCH   2   8
BRANCH   1  20
HETATM   20  C2  UNL     1      -6.045  -0.192   0.459  1.00  0.00     0.127 C 
HETATM   21  C1  UNL     1      -6.661  -0.558  -0.896  1.00  0.00     0.027 C 
ENDBRANCH   1  20
BRANCH   5  22
HETATM   22  C10 UNL     1      -7.846   4.234   1.743  1.00  0.00    -0.058 C 
HETATM   23  C11 UNL     1      -8.099   5.296   0.742  1.00  0.00     0.045 C 
HETATM   24  C12 UNL     1      -7.733   4.621   3.181  1.00  0.00     0.045 C 
ENDBRANCH   5  22
TORSDOF 4
ENDMDL
MODEL 2
REMARK VINA RESULT: -5.127553728      6.115      9.233
REMARK  4 active torsions:
REMARK  status: ('A' for Active; 'I' for Inactive)
REMARK    1  A    between atoms: C2_2  and  N1_3 
REMARK    2  A    between atoms: C3_4  and  C4_5 
REMARK    3  A    between atoms: C6_9  and  N3_10 
REMARK    4  A    between atoms: C9_19  and  C10_20 
ROOT
HETATM    1  N1  UNL     1      -0.345   0.667  -4.743  1.00  0.00    -0.321 N 
HETATM    2  C3  UNL     1       0.027   0.261  -5.928  1.00  0.00     0.122 A 
HETATM    3  N5  UNL     1       0.854  -0.803  -5.707  1.00  0.00    -0.339 N 
ATOM      4  H5  UNL     1       1.307  -1.342  -6.445  1.00  0.00     0.167 HD
HETATM    5  C9  UNL     1       0.996  -1.048  -4.396  1.00  0.00     0.074 A 
HETATM    6  C13 UNL     1       0.230  -0.113  -3.756  1.00  0.00     0.134 A 
HETATM    7 CL1  UNL     1       0.071   0.004  -2.031  1.00  0.00    -0.062 Cl
ENDROOT
BRANCH   2   8
HETATM    8  C4  UNL     1      -0.126   0.797  -7.276  1.00  0.00     0.047 A 
HETATM    9  C5  UNL     1      -1.160   0.189  -8.080  1.00  0.00     0.123 A 
HETATM   10  N2  UNL     1      -1.357   0.707  -9.269  1.00  0.00    -0.201 N 
HETATM   11  C6  UNL     1      -0.659   1.738  -9.761  1.00  0.00     0.675 A 
ATOM     12  H2  UNL     1      -2.085   0.299  -9.855  1.00  0.00     0.183 HD
HETATM   13  N4  UNL     1       0.313   2.320  -9.026  1.00  0.00    -0.195 N 
HETATM   14  C7  UNL     1       0.578   1.844  -7.774  1.00  0.00     0.038 A 
ATOM     15  H4  UNL     1       0.842   3.106  -9.402  1.00  0.00     0.184 HD
HETATM   16  C8  UNL     1       1.629   2.571  -6.963  1.00  0.00     0.070 C 
BRANCH  11  17
HETATM   17  N3  UNL     1      -0.896   2.219 -10.934  1.00  0.00    -0.234 N 
ATOM     18  H32 UNL     1      -0.740   1.610 -11.737  1.00  0.00     0.174 HD
ATOM     19  H31 UNL     1      -1.217   3.179 -11.066  1.00  0.00     0.174 HD
ENDBRANCH  11  17
ENDBRANCH   2   8
BRANCH   1  20
HETATM   20  C2  UNL     1      -1.185   1.776  -4.324  1.00  0.00     0.127 C 
HETATM   21  C1  UNL     1      -2.437   1.254  -3.611  1.00  0.00     0.027 C 
ENDBRANCH   1  20
BRANCH   5  22
HETATM   22  C10 UNL     1       1.949  -2.008  -3.742  1.00  0.00    -0.058 C 
HETATM   23  C11 UNL     1       1.293  -3.097  -2.983  1.00  0.00     0.045 C 
HETATM   24  C12 UNL     1       3.181  -1.384  -3.175  1.00  0.00     0.045 C 
ENDBRANCH   5  22
TORSDOF 4
ENDMDL
MODEL 3
REMARK VINA RESULT: -5.125291546      5.877      8.741
REMARK  4 active torsions:
REMARK  status: ('A' for Active; 'I' for Inactive)
REMARK    1  A    between atoms: C2_2  and  N1_3 
REMARK    2  A    between atoms: C3_4  and  C4_5 
REMARK    3  A    between atoms: C6_9  and  N3_10 
REMARK    4  A    between atoms: C9_19  and  C10_20 
ROOT
HETATM    1  N1  UNL     1       0.331  -0.665  -4.741  1.00  0.00    -0.321 N 
HETATM    2  C3  UNL     1      -0.038  -0.260  -5.927  1.00  0.00     0.122 A 
HETATM    3  N5  UNL     1      -0.863   0.807  -5.708  1.00  0.00    -0.339 N 
ATOM      4  H5  UNL     1      -1.313   1.346  -6.447  1.00  0.00     0.167 HD
HETATM    5  C9  UNL     1      -1.005   1.055  -4.397  1.00  0.00     0.074 A 
HETATM    6  C13 UNL     1      -0.243   0.118  -3.755  1.00  0.00     0.134 A 
HETATM    7 CL1  UNL     1      -0.087   0.003  -2.031  1.00  0.00    -0.062 Cl
ENDROOT
BRANCH   2   8
HETATM    8  C4  UNL     1       0.115  -0.798  -7.274  1.00  0.00     0.047 A 
HETATM    9  C5  UNL     1       1.143  -0.186  -8.081  1.00  0.00     0.123 A 
HETATM   10  N2  UNL     1       1.340  -0.705  -9.270  1.00  0.00    -0.201 N 
HETATM   11  C6  UNL     1       0.648  -1.741  -9.757  1.00  0.00     0.675 A 
ATOM     12  H2  UNL     1       2.064  -0.294  -9.858  1.00  0.00     0.183 HD
HETATM   13  N4  UNL     1      -0.318  -2.328  -9.019  1.00  0.00    -0.195 N 
HETATM   14  C7  UNL     1      -0.583  -1.851  -7.767  1.00  0.00     0.038 A 
ATOM     15  H4  UNL     1      -0.844  -3.119  -9.391  1.00  0.00     0.184 HD
HETATM   16  C8  UNL     1      -1.628  -2.583  -6.952  1.00  0.00     0.070 C 
BRANCH  11  17
HETATM   17  N3  UNL     1       0.885  -2.224 -10.930  1.00  0.00    -0.234 N 
ATOM     18  H32 UNL     1       1.859  -2.345 -11.206  1.00  0.00     0.174 HD
ATOM     19  H31 UNL     1       0.131  -2.468 -11.572  1.00  0.00     0.174 HD
ENDBRANCH  11  17
ENDBRANCH   2   8
BRANCH   1  20
HETATM   20  C2  UNL     1       1.167  -1.776  -4.319  1.00  0.00     0.127 C 
HETATM   21  C1  UNL     1       2.426  -1.256  -3.616  1.00  0.00     0.027 C 
ENDBRANCH   1  20
BRANCH   5  22
HETATM   22  C10 UNL     1      -1.957   2.018  -3.746  1.00  0.00    -0.058 C 
HETATM   23  C11 UNL     1      -1.299   3.113  -2.998  1.00  0.00     0.045 C 
HETATM   24  C12 UNL     1      -3.186   1.397  -3.169  1.00  0.00     0.045 C 
ENDBRANCH   5  22
TORSDOF 4
ENDMDL
MODEL 4
REMARK VINA RESULT: -5.081552494      5.488      8.297
REMARK  4 active torsions:
REMARK  status: ('A' for Active; 'I' for Inactive)
REMARK    1  A    between atoms: C2_2  and  N1_3 
REMARK    2  A    between atoms: C3_4  and  C4_5 
REMARK    3  A    between atoms: C6_9  and  N3_10 
REMARK    4  A    between atoms: C9_19  and  C10_20 
ROOT
HETATM    1  N1  UNL     1       0.156   0.292  -4.625  1.00  0.00    -0.321 N 
HETATM    2  C3  UNL     1      -0.288   0.496  -5.837  1.00  0.00     0.122 A 
HETATM    3  N5  UNL     1      -1.387   1.294  -5.694  1.00  0.00    -0.339 N 
ATOM      4  H5  UNL     1      -1.956   1.633  -6.470  1.00  0.00     0.167 HD
HETATM    5  C9  UNL     1      -1.622   1.577  -4.404  1.00  0.00     0.074 A 
HETATM    6  C13 UNL     1      -0.638   0.942  -3.697  1.00  0.00     0.134 A 
HETATM    7 CL1  UNL     1      -0.493   0.990  -1.969  1.00  0.00    -0.062 Cl
ENDROOT
BRANCH   2   8
HETATM    8  C4  UNL     1       0.041  -0.064  -7.144  1.00  0.00     0.047 A 
HETATM    9  C5  UNL     1      -0.563  -1.338  -7.451  1.00  0.00     0.123 A 
HETATM   10  N2  UNL     1      -0.333  -1.821  -8.649  1.00  0.00    -0.201 N 
HETATM   11  C6  UNL     1       0.418  -1.208  -9.570  1.00  0.00     0.675 A 
ATOM     12  H2  UNL     1      -0.753  -2.718  -8.892  1.00  0.00     0.183 HD
HETATM   13  N4  UNL     1       0.992  -0.015  -9.304  1.00  0.00    -0.195 N 
HETATM   14  C7  UNL     1       0.799   0.559  -8.080  1.00  0.00     0.038 A 
ATOM     15  H4  UNL     1       1.564   0.451 -10.008  1.00  0.00     0.184 HD
HETATM   16  C8  UNL     1       1.407   1.926  -7.851  1.00  0.00     0.070 C 
BRANCH  11  17
HETATM   17  N3  UNL     1       0.607  -1.719 -10.740  1.00  0.00    -0.234 N 
ATOM     18  H32 UNL     1      -0.160  -2.244 -11.159  1.00  0.00     0.174 HD
ATOM     19  H31 UNL     1       1.495  -1.617 -11.233  1.00  0.00     0.174 HD
ENDBRANCH  11  17
ENDBRANCH   2   8
BRANCH   1  20
HETATM   20  C2  UNL     1       1.264  -0.504  -4.126  1.00  0.00     0.127 C 
HETATM   21  C1  UNL     1       0.776  -1.900  -3.724  1.00  0.00     0.027 C 
ENDBRANCH   1  20
BRANCH   5  22
HETATM   22  C10 UNL     1      -2.823   2.269  -3.823  1.00  0.00    -0.058 C 
HETATM   23  C11 UNL     1      -3.583   1.454  -2.848  1.00  0.00     0.045 C 
HETATM   24  C12 UNL     1      -3.580   3.127  -4.781  1.00  0.00     0.045 C 
ENDBRANCH   5  22
TORSDOF 4
ENDMDL
MODEL 5
REMARK VINA RESULT: -5.071584341      6.843      9.780
REMARK  4 active torsions:
REMARK  status: ('A' for Active; 'I' for Inactive)
REMARK    1  A    between atoms: C2_2  and  N1_3 
REMARK    2  A    between atoms: C3_4  and  C4_5 
REMARK    3  A    between atoms: C6_9  and  N3_10 
REMARK    4  A    between atoms: C9_19  and  C10_20 
ROOT
HETATM    1  N1  UNL     1      -0.168  -0.314  -4.608  1.00  0.00    -0.321 N 
HETATM    2  C3  UNL     1       0.270  -0.515  -5.822  1.00  0.00     0.122 A 
HETATM    3  N5  UNL     1       1.372  -1.311  -5.686  1.00  0.00    -0.339 N 
ATOM      4  H5  UNL     1       1.938  -1.646  -6.465  1.00  0.00     0.167 HD
HETATM    5  C9  UNL     1       1.614  -1.595  -4.397  1.00  0.00     0.074 A 
HETATM    6  C13 UNL     1       0.632  -0.963  -3.685  1.00  0.00     0.134 A 
HETATM    7 CL1  UNL     1       0.495  -1.015  -1.955  1.00  0.00    -0.062 Cl
ENDROOT
BRANCH   2   8
HETATM    8  C4  UNL     1      -0.067   0.046  -7.126  1.00  0.00     0.047 A 
HETATM    9  C5  UNL     1       0.511   1.334  -7.423  1.00  0.00     0.123 A 
HETATM   10  N2  UNL     1       0.275   1.820  -8.619  1.00  0.00    -0.201 N 
HETATM   11  C6  UNL     1      -0.461   1.197  -9.547  1.00  0.00     0.675 A 
ATOM     12  H2  UNL     1       0.676   2.726  -8.856  1.00  0.00     0.183 HD
HETATM   13  N4  UNL     1      -1.012  -0.009  -9.289  1.00  0.00    -0.195 N 
HETATM   14  C7  UNL     1      -0.810  -0.587  -8.068  1.00  0.00     0.038 A 
ATOM     15  H4  UNL     1      -1.572  -0.482  -9.998  1.00  0.00     0.184 HD
HETATM   16  C8  UNL     1      -1.391  -1.967  -7.850  1.00  0.00     0.070 C 
BRANCH  11  17
HETATM   17  N3  UNL     1      -0.658   1.711 -10.714  1.00  0.00    -0.234 N 
ATOM     18  H32 UNL     1      -0.557   2.721 -10.812  1.00  0.00     0.174 HD
ATOM     19  H31 UNL     1      -0.919   1.136 -11.516  1.00  0.00     0.174 HD
ENDBRANCH  11  17
ENDBRANCH   2   8
BRANCH   1  20
HETATM   20  C2  UNL     1      -1.277   0.478  -4.102  1.00  0.00     0.127 C 
HETATM   21  C1  UNL     1      -0.794   1.882  -3.720  1.00  0.00     0.027 C 
ENDBRANCH   1  20
BRANCH   5  22
HETATM   22  C10 UNL     1       2.819  -2.284  -3.823  1.00  0.00    -0.058 C 
HETATM   23  C11 UNL     1       3.568  -1.479  -2.832  1.00  0.00     0.045 C 
HETATM   24  C12 UNL     1       3.589  -3.119  -4.792  1.00  0.00     0.045 C 
ENDBRANCH   5  22
TORSDOF 4
ENDMDL
