MODEL 1
REMARK VINA RESULT: -4.045046079      0.000      0.000
REMARK  2 active torsions:
REMARK  status: ('A' for Active; 'I' for Inactive)
REMARK       I    between atoms: N1_2  and  C2_4 
REMARK       I    between atoms: C2_4  and  N2_5 
REMARK    1  A    between atoms: C3_7  and  N3_9 
REMARK    2  A    between atoms: N6_14  and  C5_16 
ROOT
HETATM    1  C1  UNL     1       3.740  -2.854   0.276  1.00  0.00     0.165 C 
HETATM    2  N1  UNL     1       4.692  -2.900   1.370  1.00  0.00    -0.231 N 
ATOM      3  H1  UNL     1       5.692  -2.970   1.186  1.00  0.00     0.177 HD
HETATM    4  C2  UNL     1       4.202  -2.844   2.707  1.00  0.00     0.676 C 
HETATM    5  N2  UNL     1       3.701  -1.618   3.195  1.00  0.00    -0.166 N 
ATOM      6  H2  UNL     1       2.750  -1.610   3.562  1.00  0.00     0.186 HD
HETATM    7  C3  UNL     1       4.346  -0.524   3.212  1.00  0.00     0.195 C 
HETATM    8 CL1  UNL     1       3.611   0.922   3.843  1.00  0.00    -0.044 Cl
HETATM    9  N6  UNL     1       4.205  -3.864   3.462  1.00  0.00    -0.220 N 
ATOM     10  H6  UNL     1       3.836  -3.738   4.404  1.00  0.00     0.178 HD
ENDROOT
BRANCH   9  11
HETATM   11  C5  UNL     1       4.676  -5.175   3.124  1.00  0.00     0.116 C 
HETATM   12  C6  UNL     1       3.752  -6.320   3.486  1.00  0.00     0.044 C 
HETATM   13  C7  UNL     1       5.000  -7.102   3.854  1.00  0.00     0.076 C 
HETATM   14 BR1  UNL     1       5.714  -7.967   2.298  1.00  0.00    -0.090 Br
HETATM   15  C8  UNL     1       5.662  -5.765   4.121  1.00  0.00     0.095 C 
HETATM   16 BR2  UNL     1       7.498  -5.639   3.583  1.00  0.00    -0.088 Br
ENDBRANCH   9  11
BRANCH   7  17
HETATM   17  N3  UNL     1       5.668  -0.467   2.720  1.00  0.00    -0.309 N 
HETATM   18  C4  UNL     1       5.980  -0.035   1.553  1.00  0.00     0.203 C 
HETATM   19  N4  UNL     1       7.327  -0.002   1.115  1.00  0.00    -0.066 NA
HETATM   20  N5  UNL     1       4.937   0.412   0.703  1.00  0.00    -0.066 NA
ATOM     21  H3  UNL     1       6.421  -0.788   3.329  1.00  0.00     0.170 HD
ENDBRANCH   7  17
TORSDOF 2
ENDMDL
MODEL 2
REMARK VINA RESULT: -3.942839238     11.213     12.665
REMARK  2 active torsions:
REMARK  status: ('A' for Active; 'I' for Inactive)
REMARK       I    between atoms: N1_2  and  C2_4 
REMARK       I    between atoms: C2_4  and  N2_5 
REMARK    1  A    between atoms: C3_7  and  N3_9 
REMARK    2  A    between atoms: N6_14  and  C5_16 
ROOT
HETATM    1  C1  UNL     1      -3.404   2.195   4.122  1.00  0.00     0.165 C 
HETATM    2  N1  UNL     1      -4.382   2.912   3.326  1.00  0.00    -0.231 N 
ATOM      3  H1  UNL     1      -5.380   2.777   3.486  1.00  0.00     0.177 HD
HETATM    4  C2  UNL     1      -3.922   3.806   2.317  1.00  0.00     0.676 C 
HETATM    5  N2  UNL     1      -3.346   5.034   2.711  1.00  0.00    -0.166 N 
ATOM      6  H2  UNL     1      -2.406   5.242   2.376  1.00  0.00     0.186 HD
HETATM    7  C3  UNL     1      -3.911   5.898   3.451  1.00  0.00     0.195 C 
HETATM    8 CL1  UNL     1      -3.089   7.376   3.864  1.00  0.00    -0.044 Cl
HETATM    9  N6  UNL     1      -4.018   3.527   1.084  1.00  0.00    -0.220 N 
ATOM     10  H6  UNL     1      -3.663   4.223   0.427  1.00  0.00     0.178 HD
ENDROOT
BRANCH   9  11
HETATM   11  C5  UNL     1      -4.573   2.332   0.519  1.00  0.00     0.116 C 
HETATM   12  C6  UNL     1      -4.263   2.089  -0.943  1.00  0.00     0.044 C 
HETATM   13  C7  UNL     1      -5.682   1.564  -1.072  1.00  0.00     0.076 C 
HETATM   14 BR1  UNL     1      -5.735  -0.298  -0.615  1.00  0.00    -0.090 Br
HETATM   15  C8  UNL     1      -6.032   2.454   0.103  1.00  0.00     0.095 C 
HETATM   16 BR2  UNL     1      -7.274   1.702   1.356  1.00  0.00    -0.088 Br
ENDBRANCH   9  11
BRANCH   7  17
HETATM   17  N3  UNL     1      -5.213   5.671   3.948  1.00  0.00    -0.309 N 
HETATM   18  C4  UNL     1      -6.284   6.019   3.334  1.00  0.00     0.203 C 
HETATM   19  N4  UNL     1      -7.565   5.763   3.883  1.00  0.00    -0.066 NA
HETATM   20  N5  UNL     1      -6.158   6.670   2.080  1.00  0.00    -0.066 NA
ATOM     21  H3  UNL     1      -5.308   5.203   4.849  1.00  0.00     0.170 HD
ENDBRANCH   7  17
TORSDOF 2
ENDMDL
MODEL 3
REMARK VINA RESULT: -3.912406085      9.860     11.813
REMARK  2 active torsions:
REMARK  status: ('A' for Active; 'I' for Inactive)
REMARK       I    between atoms: N1_2  and  C2_4 
REMARK       I    between atoms: C2_4  and  N2_5 
REMARK    1  A    between atoms: C3_7  and  N3_9 
REMARK    2  A    between atoms: N6_14  and  C5_16 
ROOT
HETATM    1  C1  UNL     1       1.421   2.327  -7.335  1.00  0.00     0.165 C 
HETATM    2  N1  UNL     1       0.969   1.067  -6.776  1.00  0.00    -0.231 N 
ATOM      3  H1  UNL     1       1.641   0.375  -6.447  1.00  0.00     0.177 HD
HETATM    4  C2  UNL     1      -0.431   0.815  -6.696  1.00  0.00     0.676 C 
HETATM    5  N2  UNL     1      -1.191   1.512  -5.733  1.00  0.00    -0.166 N 
ATOM      6  H2  UNL     1      -1.991   2.052  -6.064  1.00  0.00     0.186 HD
HETATM    7  C3  UNL     1      -0.955   1.519  -4.485  1.00  0.00     0.195 C 
HETATM    8 CL1  UNL     1      -1.973   2.423  -3.400  1.00  0.00    -0.044 Cl
HETATM    9  N6  UNL     1      -1.004  -0.015  -7.465  1.00  0.00    -0.220 N 
ATOM     10  H6  UNL     1      -2.010  -0.136  -7.342  1.00  0.00     0.178 HD
ENDROOT
BRANCH   9  11
HETATM   11  C5  UNL     1      -0.382  -0.801  -8.490  1.00  0.00     0.116 C 
HETATM   12  C6  UNL     1       0.872  -1.545  -8.080  1.00  0.00     0.044 C 
HETATM   13  C7  UNL     1       1.421  -1.210  -9.455  1.00  0.00     0.076 C 
HETATM   14 BR1  UNL     1       0.865  -2.537 -10.723  1.00  0.00    -0.090 Br
HETATM   15  C8  UNL     1       0.500  -0.007  -9.441  1.00  0.00     0.095 C 
HETATM   16 BR2  UNL     1      -0.327   0.408 -11.121  1.00  0.00    -0.088 Br
ENDBRANCH   9  11
BRANCH   7  17
HETATM   17  N3  UNL     1       0.136   0.792  -3.961  1.00  0.00    -0.309 N 
HETATM   18  C4  UNL     1       0.187  -0.489  -3.913  1.00  0.00     0.203 C 
HETATM   19  N4  UNL     1       1.311  -1.162  -3.375  1.00  0.00    -0.066 NA
HETATM   20  N5  UNL     1      -0.918  -1.223  -4.414  1.00  0.00    -0.066 NA
ATOM     21  H3  UNL     1       0.933   1.316  -3.599  1.00  0.00     0.170 HD
ENDBRANCH   7  17
TORSDOF 2
ENDMDL
MODEL 4
REMARK VINA RESULT: -3.910881928     10.091     12.156
REMARK  2 active torsions:
REMARK  status: ('A' for Active; 'I' for Inactive)
REMARK       I    between atoms: N1_2  and  C2_4 
REMARK       I    between atoms: C2_4  and  N2_5 
REMARK    1  A    between atoms: C3_7  and  N3_9 
REMARK    2  A    between atoms: N6_14  and  C5_16 
ROOT
HETATM    1  C1  UNL     1      -1.397  -2.337  -7.329  1.00  0.00     0.165 C 
HETATM    2  N1  UNL     1      -0.960  -1.071  -6.770  1.00  0.00    -0.231 N 
ATOM      3  H1  UNL     1      -1.639  -0.383  -6.448  1.00  0.00     0.177 HD
HETATM    4  C2  UNL     1       0.438  -0.808  -6.681  1.00  0.00     0.676 C 
HETATM    5  N2  UNL     1       1.197  -1.497  -5.710  1.00  0.00    -0.166 N 
ATOM      6  H2  UNL     1       2.003  -2.031  -6.033  1.00  0.00     0.186 HD
HETATM    7  C3  UNL     1       0.951  -1.501  -4.464  1.00  0.00     0.195 C 
HETATM    8 CL1  UNL     1       1.968  -2.395  -3.369  1.00  0.00    -0.044 Cl
HETATM    9  N6  UNL     1       1.011   0.025  -7.448  1.00  0.00    -0.220 N 
ATOM     10  H6  UNL     1       2.014   0.153  -7.317  1.00  0.00     0.178 HD
ENDROOT
BRANCH   9  11
HETATM   11  C5  UNL     1       0.390   0.803  -8.479  1.00  0.00     0.116 C 
HETATM   12  C6  UNL     1      -0.864   1.551  -8.076  1.00  0.00     0.044 C 
HETATM   13  C7  UNL     1      -1.412   1.206  -9.449  1.00  0.00     0.076 C 
HETATM   14 BR1  UNL     1      -0.853   2.521 -10.727  1.00  0.00    -0.090 Br
HETATM   15  C8  UNL     1      -0.492   0.002  -9.425  1.00  0.00     0.095 C 
HETATM   16 BR2  UNL     1       0.335  -0.428 -11.101  1.00  0.00    -0.088 Br
ENDBRANCH   9  11
BRANCH   7  17
HETATM   17  N3  UNL     1      -0.150  -0.782  -3.950  1.00  0.00    -0.309 N 
HETATM   18  C4  UNL     1      -0.221   0.499  -3.929  1.00  0.00     0.203 C 
HETATM   19  N4  UNL     1      -1.354   1.165  -3.400  1.00  0.00    -0.066 NA
HETATM   20  N5  UNL     1       0.869   1.240  -4.452  1.00  0.00    -0.066 NA
ATOM     21  H3  UNL     1      -0.936  -1.311  -3.573  1.00  0.00     0.170 HD
ENDBRANCH   7  17
TORSDOF 2
ENDMDL
MODEL 5
REMARK VINA RESULT: -3.852255603      9.893     12.024
REMARK  2 active torsions:
REMARK  status: ('A' for Active; 'I' for Inactive)
REMARK       I    between atoms: N1_2  and  C2_4 
REMARK       I    between atoms: C2_4  and  N2_5 
REMARK    1  A    between atoms: C3_7  and  N3_9 
REMARK    2  A    between atoms: N6_14  and  C5_16 
ROOT
HETATM    1  C1  UNL     1       1.774   2.827  -6.432  1.00  0.00     0.165 C 
HETATM    2  N1  UNL     1       1.221   1.487  -6.358  1.00  0.00    -0.231 N 
ATOM      3  H1  UNL     1       1.832   0.672  -6.383  1.00  0.00     0.177 HD
HETATM    4  C2  UNL     1      -0.191   1.334  -6.249  1.00  0.00     0.676 C 
HETATM    5  N2  UNL     1      -0.816   1.657  -5.025  1.00  0.00    -0.166 N 
ATOM      6  H2  UNL     1      -1.570   2.343  -5.047  1.00  0.00     0.186 HD
HETATM    7  C3  UNL     1      -0.509   1.157  -3.898  1.00  0.00     0.195 C 
HETATM    8 CL1  UNL     1      -1.360   1.643  -2.459  1.00  0.00    -0.044 Cl
HETATM    9  N6  UNL     1      -0.894   0.916  -7.219  1.00  0.00    -0.220 N 
ATOM     10  H6  UNL     1      -1.898   0.835  -7.057  1.00  0.00     0.178 HD
ENDROOT
BRANCH   9  11
HETATM   11  C5  UNL     1      -0.419   0.546  -8.520  1.00  0.00     0.116 C 
HETATM   12  C6  UNL     1      -0.833   1.458  -9.656  1.00  0.00     0.044 C 
HETATM   13  C7  UNL     1      -0.985   0.205 -10.498  1.00  0.00     0.076 C 
HETATM   14 BR1  UNL     1       0.700  -0.264 -11.285  1.00  0.00    -0.090 Br
HETATM   15  C8  UNL     1      -1.240  -0.538  -9.203  1.00  0.00     0.095 C 
HETATM   16 BR2  UNL     1      -0.469  -2.292  -9.100  1.00  0.00    -0.088 Br
ENDBRANCH   9  11
BRANCH   7  17
HETATM   17  N3  UNL     1       0.525   0.201  -3.797  1.00  0.00    -0.309 N 
HETATM   18  C4  UNL     1       0.409  -1.021  -4.168  1.00  0.00     0.203 C 
HETATM   19  N4  UNL     1       1.484  -1.934  -4.042  1.00  0.00    -0.066 NA
HETATM   20  N5  UNL     1      -0.832  -1.442  -4.711  1.00  0.00    -0.066 NA
ATOM     21  H3  UNL     1       1.418   0.501  -3.407  1.00  0.00     0.170 HD
ENDBRANCH   7  17
TORSDOF 2
ENDMDL
