MODEL 1
REMARK VINA RESULT: -5.896995146      0.000      0.000
REMARK  4 active torsions:
REMARK  status: ('A' for Active; 'I' for Inactive)
REMARK    1  A    between atoms: C2_2  and  C3_3 
REMARK    2  A    between atoms: C4_4  and  C5_5 
REMARK    3  A    between atoms: C5_5  and  C7_8 
REMARK    4  A    between atoms: C7_8  and  N1_9 
REMARK       I    between atoms: N1_9  and  C8_11 
REMARK       I    between atoms: N3_13  and  C9_15 
REMARK       I    between atoms: N5_17  and  C10_19 
REMARK       I    between atoms: C10_19  and  N6_21 
REMARK       I    between atoms: N7_23  and  C11_25 
ROOT
HETATM    1  N1  UNL     1       0.222  -1.734  -6.265  1.00  0.00    -0.362 N 
ATOM      2  H1  UNL     1      -0.057  -2.714  -6.298  1.00  0.00     0.162 HD
HETATM    3  C8  UNL     1       0.098  -0.985  -5.020  1.00  0.00     0.190 C 
HETATM    4  N2  UNL     1       0.964  -1.350  -3.972  1.00  0.00    -0.063 NA
HETATM    5  N3  UNL     1      -0.784  -0.077  -5.037  1.00  0.00    -0.305 N 
ATOM      6  H3  UNL     1      -1.279  -0.007  -5.926  1.00  0.00     0.171 HD
HETATM    7  C9  UNL     1      -1.212   0.835  -4.099  1.00  0.00     0.198 C 
HETATM    8  N4  UNL     1      -0.690   0.863  -2.782  1.00  0.00    -0.063 NA
HETATM    9  N5  UNL     1      -2.116   1.677  -4.488  1.00  0.00    -0.281 N 
ATOM     10  H5  UNL     1      -2.431   1.593  -5.454  1.00  0.00     0.173 HD
HETATM   11  C10 UNL     1      -2.707   2.693  -3.725  1.00  0.00     0.341 C 
HETATM   12  O1  UNL     1      -2.733   3.861  -4.255  1.00  0.00    -0.245 OA
HETATM   13  N6  UNL     1      -3.270   2.567  -2.452  1.00  0.00    -0.249 N 
ATOM     14  H6  UNL     1      -3.271   3.419  -1.890  1.00  0.00     0.192 HD
HETATM   15  N7  UNL     1      -3.771   1.569  -1.903  1.00  0.00    -0.266 N 
ATOM     16  H7  UNL     1      -3.805   0.681  -2.404  1.00  0.00     0.190 HD
HETATM   17  C11 UNL     1      -4.307   1.656  -0.558  1.00  0.00     0.232 C 
HETATM   18  C12 UNL     1      -4.131   2.922   0.207  1.00  0.00     0.119 C 
HETATM   19  O2  UNL     1      -4.906   0.686  -0.047  1.00  0.00    -0.272 OA
ENDROOT
BRANCH   1  20
HETATM   20  C7  UNL     1       0.732  -1.101  -7.432  1.00  0.00     0.156 C 
BRANCH  20  21
HETATM   21  C5  UNL     1      -0.216  -1.467  -8.586  1.00  0.00     0.093 C 
HETATM   22  C6  UNL     1      -1.524  -1.997  -7.955  1.00  0.00     0.043 C 
HETATM   23 BR1  UNL     1       0.575  -2.718  -9.785  1.00  0.00    -0.070 Br
BRANCH  21  24
HETATM   24  C4  UNL     1      -0.531  -0.213  -9.266  1.00  0.00    -0.084 C 
HETATM   25  C3  UNL     1      -0.770   0.840  -9.823  1.00  0.00    -0.105 C 
BRANCH  25  26
HETATM   26  C2  UNL     1      -1.036   2.132 -10.490  1.00  0.00     0.089 C 
HETATM   27  C1  UNL     1      -0.112   3.193  -9.901  1.00  0.00     0.018 C 
ENDBRANCH  25  26
ENDBRANCH  21  24
ENDBRANCH  20  21
ENDBRANCH   1  20
TORSDOF 4
ENDMDL
MODEL 2
REMARK VINA RESULT: -5.891648133      4.176      5.971
REMARK  4 active torsions:
REMARK  status: ('A' for Active; 'I' for Inactive)
REMARK    1  A    between atoms: C2_2  and  C3_3 
REMARK    2  A    between atoms: C4_4  and  C5_5 
REMARK    3  A    between atoms: C5_5  and  C7_8 
REMARK    4  A    between atoms: C7_8  and  N1_9 
REMARK       I    between atoms: N1_9  and  C8_11 
REMARK       I    between atoms: N3_13  and  C9_15 
REMARK       I    between atoms: N5_17  and  C10_19 
REMARK       I    between atoms: C10_19  and  N6_21 
REMARK       I    between atoms: N7_23  and  C11_25 
ROOT
HETATM    1  N1  UNL     1      -0.252   1.675  -6.262  1.00  0.00    -0.362 N 
ATOM      2  H1  UNL     1       0.010   2.659  -6.292  1.00  0.00     0.162 HD
HETATM    3  C8  UNL     1      -0.121   0.925  -5.019  1.00  0.00     0.190 C 
HETATM    4  N2  UNL     1      -0.998   1.273  -3.973  1.00  0.00    -0.063 NA
HETATM    5  N3  UNL     1       0.777   0.032  -5.034  1.00  0.00    -0.305 N 
ATOM      6  H3  UNL     1       1.276  -0.028  -5.921  1.00  0.00     0.171 HD
HETATM    7  C9  UNL     1       1.216  -0.874  -4.096  1.00  0.00     0.198 C 
HETATM    8  N4  UNL     1       0.690  -0.915  -2.781  1.00  0.00    -0.063 NA
HETATM    9  N5  UNL     1       2.135  -1.701  -4.482  1.00  0.00    -0.281 N 
ATOM     10  H5  UNL     1       2.453  -1.610  -5.448  1.00  0.00     0.173 HD
HETATM   11  C10 UNL     1       2.740  -2.708  -3.719  1.00  0.00     0.341 C 
HETATM   12  O1  UNL     1       2.788  -3.875  -4.252  1.00  0.00    -0.245 OA
HETATM   13  N6  UNL     1       3.296  -2.576  -2.444  1.00  0.00    -0.249 N 
ATOM     14  H6  UNL     1       3.309  -3.429  -1.884  1.00  0.00     0.192 HD
HETATM   15  N7  UNL     1       3.778  -1.570  -1.891  1.00  0.00    -0.266 N 
ATOM     16  H7  UNL     1       3.799  -0.681  -2.390  1.00  0.00     0.190 HD
HETATM   17  C11 UNL     1       4.310  -1.651  -0.544  1.00  0.00     0.232 C 
HETATM   18  C12 UNL     1       4.153  -2.922   0.217  1.00  0.00     0.119 C 
HETATM   19  O2  UNL     1       4.890  -0.672  -0.028  1.00  0.00    -0.272 OA
ENDROOT
BRANCH   1  20
HETATM   20  C7  UNL     1      -0.747   1.036  -7.433  1.00  0.00     0.156 C 
BRANCH  20  21
HETATM   21  C5  UNL     1       0.201   1.417  -8.581  1.00  0.00     0.093 C 
HETATM   22  C6  UNL     1       1.515   1.922  -7.943  1.00  0.00     0.043 C 
HETATM   23 BR1  UNL     1      -0.582   2.701  -9.751  1.00  0.00    -0.070 Br
BRANCH  21  24
HETATM   24  C4  UNL     1       0.502   0.176  -9.289  1.00  0.00    -0.084 C 
HETATM   25  C3  UNL     1       0.735  -0.870  -9.863  1.00  0.00    -0.105 C 
BRANCH  25  26
HETATM   26  C2  UNL     1       0.999  -2.155 -10.544  1.00  0.00     0.089 C 
HETATM   27  C1  UNL     1       0.153  -3.244  -9.892  1.00  0.00     0.018 C 
ENDBRANCH  25  26
ENDBRANCH  21  24
ENDBRANCH  20  21
ENDBRANCH   1  20
TORSDOF 4
ENDMDL
MODEL 3
REMARK VINA RESULT: -5.480965218      3.940      5.816
REMARK  4 active torsions:
REMARK  status: ('A' for Active; 'I' for Inactive)
REMARK    1  A    between atoms: C2_2  and  C3_3 
REMARK    2  A    between atoms: C4_4  and  C5_5 
REMARK    3  A    between atoms: C5_5  and  C7_8 
REMARK    4  A    between atoms: C7_8  and  N1_9 
REMARK       I    between atoms: N1_9  and  C8_11 
REMARK       I    between atoms: N3_13  and  C9_15 
REMARK       I    between atoms: N5_17  and  C10_19 
REMARK       I    between atoms: C10_19  and  N6_21 
REMARK       I    between atoms: N7_23  and  C11_25 
ROOT
HETATM    1  N1  UNL     1      -1.804   2.282  -3.579  1.00  0.00    -0.362 N 
ATOM      2  H1  UNL     1      -2.036   2.779  -4.438  1.00  0.00     0.162 HD
HETATM    3  C8  UNL     1      -2.848   1.993  -2.603  1.00  0.00     0.190 C 
HETATM    4  N2  UNL     1      -3.824   1.050  -2.979  1.00  0.00    -0.063 NA
HETATM    5  N3  UNL     1      -2.743   2.630  -1.514  1.00  0.00    -0.305 N 
ATOM      6  H3  UNL     1      -1.938   3.256  -1.485  1.00  0.00     0.171 HD
HETATM    7  C9  UNL     1      -3.495   2.652  -0.362  1.00  0.00     0.198 C 
HETATM    8  N4  UNL     1      -4.687   1.897  -0.224  1.00  0.00    -0.063 NA
HETATM    9  N5  UNL     1      -3.050   3.395   0.601  1.00  0.00    -0.281 N 
ATOM     10  H5  UNL     1      -2.181   3.899   0.423  1.00  0.00     0.173 HD
HETATM   11  C10 UNL     1      -3.632   3.583   1.861  1.00  0.00     0.341 C 
HETATM   12  O1  UNL     1      -2.856   3.440   2.873  1.00  0.00    -0.245 OA
HETATM   13  N6  UNL     1      -4.964   3.907   2.132  1.00  0.00    -0.249 N 
ATOM     14  H6  UNL     1      -5.309   3.606   3.043  1.00  0.00     0.192 HD
HETATM   15  N7  UNL     1      -5.791   4.510   1.423  1.00  0.00    -0.266 N 
ATOM     16  H7  UNL     1      -5.518   4.841   0.498  1.00  0.00     0.190 HD
HETATM   17  C11 UNL     1      -7.140   4.747   1.901  1.00  0.00     0.232 C 
HETATM   18  C12 UNL     1      -7.562   4.144   3.196  1.00  0.00     0.119 C 
HETATM   19  O2  UNL     1      -7.938   5.443   1.238  1.00  0.00    -0.272 OA
ENDROOT
BRANCH   1  20
HETATM   20  C7  UNL     1      -0.464   1.872  -3.335  1.00  0.00     0.156 C 
BRANCH  20  21
HETATM   21  C5  UNL     1       0.032   1.186  -4.618  1.00  0.00     0.093 C 
HETATM   22  C6  UNL     1       1.202   2.033  -5.168  1.00  0.00     0.043 C 
HETATM   23 BR1  UNL     1      -1.368   0.962  -5.890  1.00  0.00    -0.070 Br
BRANCH  21  24
HETATM   24  C4  UNL     1       0.578  -0.103  -4.204  1.00  0.00    -0.084 C 
HETATM   25  C3  UNL     1       1.054  -1.164  -3.849  1.00  0.00    -0.105 C 
BRANCH  25  26
HETATM   26  C2  UNL     1       1.658  -2.439  -3.408  1.00  0.00     0.089 C 
HETATM   27  C1  UNL     1       2.985  -2.147  -2.716  1.00  0.00     0.018 C 
ENDBRANCH  25  26
ENDBRANCH  21  24
ENDBRANCH  20  21
ENDBRANCH   1  20
TORSDOF 4
ENDMDL
MODEL 4
REMARK VINA RESULT: -5.462329303      6.237      8.317
REMARK  4 active torsions:
REMARK  status: ('A' for Active; 'I' for Inactive)
REMARK    1  A    between atoms: C2_2  and  C3_3 
REMARK    2  A    between atoms: C4_4  and  C5_5 
REMARK    3  A    between atoms: C5_5  and  C7_8 
REMARK    4  A    between atoms: C7_8  and  N1_9 
REMARK       I    between atoms: N1_9  and  C8_11 
REMARK       I    between atoms: N3_13  and  C9_15 
REMARK       I    between atoms: N5_17  and  C10_19 
REMARK       I    between atoms: C10_19  and  N6_21 
REMARK       I    between atoms: N7_23  and  C11_25 
ROOT
HETATM    1  N1  UNL     1       1.709  -2.233  -3.666  1.00  0.00    -0.362 N 
ATOM      2  H1  UNL     1       1.947  -2.730  -4.524  1.00  0.00     0.162 HD
HETATM    3  C8  UNL     1       2.749  -1.923  -2.693  1.00  0.00     0.190 C 
HETATM    4  N2  UNL     1       3.709  -0.965  -3.075  1.00  0.00    -0.063 NA
HETATM    5  N3  UNL     1       2.657  -2.558  -1.601  1.00  0.00    -0.305 N 
ATOM      6  H3  UNL     1       1.862  -3.197  -1.568  1.00  0.00     0.171 HD
HETATM    7  C9  UNL     1       3.411  -2.563  -0.450  1.00  0.00     0.198 C 
HETATM    8  N4  UNL     1       4.590  -1.788  -0.318  1.00  0.00    -0.063 NA
HETATM    9  N5  UNL     1       2.980  -3.310   0.516  1.00  0.00    -0.281 N 
ATOM     10  H5  UNL     1       2.119  -3.828   0.341  1.00  0.00     0.173 HD
HETATM   11  C10 UNL     1       3.568  -3.483   1.776  1.00  0.00     0.341 C 
HETATM   12  O1  UNL     1       2.790  -3.349   2.789  1.00  0.00    -0.245 OA
HETATM   13  N6  UNL     1       4.905  -3.784   2.045  1.00  0.00    -0.249 N 
ATOM     14  H6  UNL     1       5.247  -3.474   2.955  1.00  0.00     0.192 HD
HETATM   15  N7  UNL     1       5.741  -4.376   1.337  1.00  0.00    -0.266 N 
ATOM     16  H7  UNL     1       5.471  -4.714   0.414  1.00  0.00     0.190 HD
HETATM   17  C11 UNL     1       7.094  -4.588   1.814  1.00  0.00     0.232 C 
HETATM   18  C12 UNL     1       7.508  -3.973   3.106  1.00  0.00     0.119 C 
HETATM   19  O2  UNL     1       7.902  -5.274   1.152  1.00  0.00    -0.272 OA
ENDROOT
BRANCH   1  20
HETATM   20  C7  UNL     1       0.363  -1.845  -3.421  1.00  0.00     0.156 C 
BRANCH  20  21
HETATM   21  C5  UNL     1      -0.160  -1.209  -4.719  1.00  0.00     0.093 C 
HETATM   22  C6  UNL     1      -1.302  -2.109  -5.243  1.00  0.00     0.043 C 
HETATM   23 BR1  UNL     1       1.227  -0.970  -6.002  1.00  0.00    -0.070 Br
BRANCH  21  24
HETATM   24  C4  UNL     1      -0.749   0.072  -4.336  1.00  0.00    -0.084 C 
HETATM   25  C3  UNL     1      -1.255   1.125  -4.001  1.00  0.00    -0.105 C 
BRANCH  25  26
HETATM   26  C2  UNL     1      -1.889   2.390  -3.575  1.00  0.00     0.089 C 
HETATM   27  C1  UNL     1      -3.006   2.076  -2.584  1.00  0.00     0.018 C 
ENDBRANCH  25  26
ENDBRANCH  21  24
ENDBRANCH  20  21
ENDBRANCH   1  20
TORSDOF 4
ENDMDL
MODEL 5
REMARK VINA RESULT: -5.275308950      3.721      8.662
REMARK  4 active torsions:
REMARK  status: ('A' for Active; 'I' for Inactive)
REMARK    1  A    between atoms: C2_2  and  C3_3 
REMARK    2  A    between atoms: C4_4  and  C5_5 
REMARK    3  A    between atoms: C5_5  and  C7_8 
REMARK    4  A    between atoms: C7_8  and  N1_9 
REMARK       I    between atoms: N1_9  and  C8_11 
REMARK       I    between atoms: N3_13  and  C9_15 
REMARK       I    between atoms: N5_17  and  C10_19 
REMARK       I    between atoms: C10_19  and  N6_21 
REMARK       I    between atoms: N7_23  and  C11_25 
ROOT
HETATM    1  N1  UNL     1      -3.991   2.162  -2.040  1.00  0.00    -0.362 N 
ATOM      2  H1  UNL     1      -4.974   2.016  -2.266  1.00  0.00     0.162 HD
HETATM    3  C8  UNL     1      -3.006   2.259  -3.111  1.00  0.00     0.190 C 
HETATM    4  N2  UNL     1      -3.070   3.404  -3.929  1.00  0.00    -0.063 NA
HETATM    5  N3  UNL     1      -2.195   1.288  -3.171  1.00  0.00    -0.305 N 
ATOM      6  H3  UNL     1      -2.355   0.579  -2.456  1.00  0.00     0.171 HD
HETATM    7  C9  UNL     1      -1.141   0.995  -4.006  1.00  0.00     0.198 C 
HETATM    8  N4  UNL     1      -0.792   1.825  -5.100  1.00  0.00    -0.063 NA
HETATM    9  N5  UNL     1      -0.474  -0.081  -3.734  1.00  0.00    -0.281 N 
ATOM     10  H5  UNL     1      -0.787  -0.617  -2.924  1.00  0.00     0.173 HD
HETATM   11  C10 UNL     1       0.630  -0.589  -4.430  1.00  0.00     0.341 C 
HETATM   12  O1  UNL     1       1.653  -0.904  -3.722  1.00  0.00    -0.245 OA
HETATM   13  N6  UNL     1       0.734  -0.789  -5.809  1.00  0.00    -0.249 N 
ATOM     14  H6  UNL     1       1.684  -0.761  -6.182  1.00  0.00     0.192 HD
HETATM   15  N7  UNL     1      -0.160  -0.997  -6.648  1.00  0.00    -0.266 N 
ATOM     16  H7  UNL     1      -1.135  -1.038  -6.349  1.00  0.00     0.190 HD
HETATM   17  C11 UNL     1       0.168  -1.181  -8.049  1.00  0.00     0.232 C 
HETATM   18  C12 UNL     1       1.578  -0.987  -8.489  1.00  0.00     0.119 C 
HETATM   19  O2  UNL     1      -0.715  -1.496  -8.875  1.00  0.00    -0.272 OA
ENDROOT
BRANCH   1  20
HETATM   20  C7  UNL     1      -3.583   2.269  -0.682  1.00  0.00     0.156 C 
BRANCH  20  21
HETATM   21  C5  UNL     1      -4.759   1.777   0.176  1.00  0.00     0.093 C 
HETATM   22  C6  UNL     1      -4.197   1.452   1.580  1.00  0.00     0.043 C 
HETATM   23 BR1  UNL     1      -5.643   0.289  -0.617  1.00  0.00    -0.070 Br
BRANCH  21  24
HETATM   24  C4  UNL     1      -5.664   2.914   0.316  1.00  0.00    -0.084 C 
HETATM   25  C3  UNL     1      -6.439   3.844   0.433  1.00  0.00    -0.105 C 
BRANCH  25  26
HETATM   26  C2  UNL     1      -7.403   4.954   0.573  1.00  0.00     0.089 C 
HETATM   27  C1  UNL     1      -7.096   5.720   1.855  1.00  0.00     0.018 C 
ENDBRANCH  25  26
ENDBRANCH  21  24
ENDBRANCH  20  21
ENDBRANCH   1  20
TORSDOF 4
ENDMDL
