MODEL 1
REMARK VINA RESULT: -5.875486922      0.000      0.000
REMARK  6 active torsions:
REMARK  status: ('A' for Active; 'I' for Inactive)
REMARK    1  A    between atoms: C2_2  and  N1_3 
REMARK    2  A    between atoms: N1_3  and  C3_4 
REMARK    3  A    between atoms: N1_3  and  C6_8 
REMARK    4  A    between atoms: C3_4  and  C4_5 
REMARK    5  A    between atoms: C6_8  and  C7_9 
REMARK    6  A    between atoms: C7_9  and  N2_10 
ROOT
HETATM    1  C6  UNL     1       0.260   0.097  -5.229  1.00  0.00     0.303 C 
ENDROOT
BRANCH   1   2
HETATM    2  N1  UNL     1      -0.517   0.134  -4.011  1.00  0.00     0.093 N 
BRANCH   2   3
HETATM    3  C2  UNL     1       0.315  -0.396  -2.947  1.00  0.00     0.268 C 
HETATM    4  C1  UNL     1       1.427  -1.268  -3.503  1.00  0.00     0.037 C 
ENDBRANCH   2   3
BRANCH   2   5
HETATM    5  C3  UNL     1      -0.941   1.446  -3.622  1.00  0.00     0.300 C 
BRANCH   5   6
HETATM    6  C4  UNL     1      -1.981   1.480  -2.562  1.00  0.00     0.015 C 
HETATM    7  C5  UNL     1      -3.229   1.818  -2.749  1.00  0.00     0.082 C 
HETATM    8 CL1  UNL     1      -4.333   1.812  -1.383  1.00  0.00    -0.097 Cl
ENDBRANCH   5   6
ENDBRANCH   2   5
ENDBRANCH   1   2
BRANCH   1   9
HETATM    9  C7  UNL     1      -0.548   0.669  -6.360  1.00  0.00     0.302 C 
BRANCH   9  10
HETATM   10  N2  UNL     1      -0.928  -0.339  -7.300  1.00  0.00     0.090 N 
HETATM   11  C8  UNL     1       0.086  -1.309  -7.579  1.00  0.00     0.272 C 
HETATM   12  C9  UNL     1      -0.268  -2.153  -8.792  1.00  0.00     0.030 C 
HETATM   13  C10 UNL     1       0.356  -1.689 -10.061  1.00  0.00     0.002 C 
HETATM   14  C11 UNL     1      -0.120  -0.362 -10.563  1.00  0.00     0.002 C 
HETATM   15  C12 UNL     1      -0.230   0.657  -9.446  1.00  0.00     0.030 C 
HETATM   16  C13 UNL     1      -1.375   0.346  -8.503  1.00  0.00     0.272 C 
ENDBRANCH   9  10
ENDBRANCH   1   9
TORSDOF 6
ENDMDL
MODEL 2
REMARK VINA RESULT: -5.862153987      1.234      1.983
REMARK  6 active torsions:
REMARK  status: ('A' for Active; 'I' for Inactive)
REMARK    1  A    between atoms: C2_2  and  N1_3 
REMARK    2  A    between atoms: N1_3  and  C3_4 
REMARK    3  A    between atoms: N1_3  and  C6_8 
REMARK    4  A    between atoms: C3_4  and  C4_5 
REMARK    5  A    between atoms: C6_8  and  C7_9 
REMARK    6  A    between atoms: C7_9  and  N2_10 
ROOT
HETATM    1  C6  UNL     1      -0.535  -0.392  -5.766  1.00  0.00     0.303 C 
ENDROOT
BRANCH   1   2
HETATM    2  N1  UNL     1      -0.292  -0.300  -4.344  1.00  0.00     0.093 N 
BRANCH   2   3
HETATM    3  C2  UNL     1       1.060  -0.768  -4.103  1.00  0.00     0.268 C 
HETATM    4  C1  UNL     1       1.136  -1.601  -2.835  1.00  0.00     0.037 C 
ENDBRANCH   2   3
BRANCH   2   5
HETATM    5  C3  UNL     1      -0.397   1.026  -3.813  1.00  0.00     0.300 C 
BRANCH   5   6
HETATM    6  C4  UNL     1      -1.522   1.233  -2.865  1.00  0.00     0.015 C 
HETATM    7  C5  UNL     1      -2.636   1.852  -3.149  1.00  0.00     0.082 C 
HETATM    8 CL1  UNL     1      -3.867   2.018  -1.906  1.00  0.00    -0.097 Cl
ENDBRANCH   5   6
ENDBRANCH   2   5
ENDBRANCH   1   2
BRANCH   1   9
HETATM    9  C7  UNL     1       0.761  -0.647  -6.483  1.00  0.00     0.302 C 
BRANCH   9  10
HETATM   10  N2  UNL     1       1.048   0.379  -7.438  1.00  0.00     0.090 N 
HETATM   11  C8  UNL     1      -0.014   1.316  -7.644  1.00  0.00     0.272 C 
HETATM   12  C9  UNL     1       0.234   2.178  -8.871  1.00  0.00     0.030 C 
HETATM   13  C10 UNL     1      -0.453   1.701 -10.102  1.00  0.00     0.002 C 
HETATM   14  C11 UNL     1       0.033   0.393 -10.643  1.00  0.00     0.002 C 
HETATM   15  C12 UNL     1       0.247  -0.628  -9.543  1.00  0.00     0.030 C 
HETATM   16  C13 UNL     1       1.439  -0.285  -8.672  1.00  0.00     0.272 C 
ENDBRANCH   9  10
ENDBRANCH   1   9
TORSDOF 6
ENDMDL
MODEL 3
REMARK VINA RESULT: -5.851962917      2.695      3.986
REMARK  6 active torsions:
REMARK  status: ('A' for Active; 'I' for Inactive)
REMARK    1  A    between atoms: C2_2  and  N1_3 
REMARK    2  A    between atoms: N1_3  and  C3_4 
REMARK    3  A    between atoms: N1_3  and  C6_8 
REMARK    4  A    between atoms: C3_4  and  C4_5 
REMARK    5  A    between atoms: C6_8  and  C7_9 
REMARK    6  A    between atoms: C7_9  and  N2_10 
ROOT
HETATM    1  C6  UNL     1      -0.181  -0.124  -5.284  1.00  0.00     0.303 C 
ENDROOT
BRANCH   1   2
HETATM    2  N1  UNL     1       0.579  -0.147  -4.056  1.00  0.00     0.093 N 
BRANCH   2   3
HETATM    3  C2  UNL     1      -0.277   0.368  -3.004  1.00  0.00     0.268 C 
HETATM    4  C1  UNL     1      -1.177   1.477  -3.522  1.00  0.00     0.037 C 
ENDBRANCH   2   3
BRANCH   2   5
HETATM    5  C3  UNL     1       1.020  -1.452  -3.661  1.00  0.00     0.300 C 
BRANCH   5   6
HETATM    6  C4  UNL     1       2.041  -1.468  -2.582  1.00  0.00     0.015 C 
HETATM    7  C5  UNL     1       3.289  -1.819  -2.738  1.00  0.00     0.082 C 
HETATM    8 CL1  UNL     1       4.369  -1.788  -1.353  1.00  0.00    -0.097 Cl
ENDBRANCH   5   6
ENDBRANCH   2   5
ENDBRANCH   1   2
BRANCH   1   9
HETATM    9  C7  UNL     1       0.659  -0.663  -6.408  1.00  0.00     0.302 C 
BRANCH   9  10
HETATM   10  N2  UNL     1       0.990   0.354  -7.356  1.00  0.00     0.090 N 
HETATM   11  C8  UNL     1      -0.046   1.314  -7.589  1.00  0.00     0.272 C 
HETATM   12  C9  UNL     1       0.249   2.168  -8.810  1.00  0.00     0.030 C 
HETATM   13  C10 UNL     1      -0.419   1.703 -10.057  1.00  0.00     0.002 C 
HETATM   14  C11 UNL     1       0.052   0.385 -10.585  1.00  0.00     0.002 C 
HETATM   15  C12 UNL     1       0.218  -0.639  -9.478  1.00  0.00     0.030 C 
HETATM   16  C13 UNL     1       1.396  -0.319  -8.581  1.00  0.00     0.272 C 
ENDBRANCH   9  10
ENDBRANCH   1   9
TORSDOF 6
ENDMDL
MODEL 4
REMARK VINA RESULT: -5.851434053      2.380      3.346
REMARK  6 active torsions:
REMARK  status: ('A' for Active; 'I' for Inactive)
REMARK    1  A    between atoms: C2_2  and  N1_3 
REMARK    2  A    between atoms: N1_3  and  C3_4 
REMARK    3  A    between atoms: N1_3  and  C6_8 
REMARK    4  A    between atoms: C3_4  and  C4_5 
REMARK    5  A    between atoms: C6_8  and  C7_9 
REMARK    6  A    between atoms: C7_9  and  N2_10 
ROOT
HETATM    1  C6  UNL     1       0.538   0.419  -5.700  1.00  0.00     0.303 C 
ENDROOT
BRANCH   1   2
HETATM    2  N1  UNL     1       0.260   0.316  -4.285  1.00  0.00     0.093 N 
BRANCH   2   3
HETATM    3  C2  UNL     1      -1.099   0.776  -4.075  1.00  0.00     0.268 C 
HETATM    4  C1  UNL     1      -1.186   1.703  -2.875  1.00  0.00     0.037 C 
ENDBRANCH   2   3
BRANCH   2   5
HETATM    5  C3  UNL     1       0.358  -1.014  -3.761  1.00  0.00     0.300 C 
BRANCH   5   6
HETATM    6  C4  UNL     1       1.498  -1.239  -2.835  1.00  0.00     0.015 C 
HETATM    7  C5  UNL     1       2.620  -1.824  -3.158  1.00  0.00     0.082 C 
HETATM    8 CL1  UNL     1       3.869  -2.019  -1.938  1.00  0.00    -0.097 Cl
ENDBRANCH   5   6
ENDBRANCH   2   5
ENDBRANCH   1   2
BRANCH   1   9
HETATM    9  C7  UNL     1      -0.742   0.664  -6.448  1.00  0.00     0.302 C 
BRANCH   9  10
HETATM   10  N2  UNL     1      -1.014  -0.380  -7.387  1.00  0.00     0.090 N 
HETATM   11  C8  UNL     1       0.070  -1.289  -7.600  1.00  0.00     0.272 C 
HETATM   12  C9  UNL     1      -0.172  -2.171  -8.813  1.00  0.00     0.030 C 
HETATM   13  C10 UNL     1       0.481  -1.688 -10.060  1.00  0.00     0.002 C 
HETATM   14  C11 UNL     1      -0.050  -0.401 -10.608  1.00  0.00     0.002 C 
HETATM   15  C12 UNL     1      -0.277   0.625  -9.515  1.00  0.00     0.030 C 
HETATM   16  C13 UNL     1      -1.444   0.258  -8.622  1.00  0.00     0.272 C 
ENDBRANCH   9  10
ENDBRANCH   1   9
TORSDOF 6
ENDMDL
MODEL 5
REMARK VINA RESULT: -5.751651468      0.556      1.517
REMARK  6 active torsions:
REMARK  status: ('A' for Active; 'I' for Inactive)
REMARK    1  A    between atoms: C2_2  and  N1_3 
REMARK    2  A    between atoms: N1_3  and  C3_4 
REMARK    3  A    between atoms: N1_3  and  C6_8 
REMARK    4  A    between atoms: C3_4  and  C4_5 
REMARK    5  A    between atoms: C6_8  and  C7_9 
REMARK    6  A    between atoms: C7_9  and  N2_10 
ROOT
HETATM    1  C6  UNL     1       0.224  -0.145  -5.097  1.00  0.00     0.303 C 
ENDROOT
BRANCH   1   2
HETATM    2  N1  UNL     1      -0.485   0.036  -3.850  1.00  0.00     0.093 N 
BRANCH   2   3
HETATM    3  C2  UNL     1       0.389  -0.413  -2.783  1.00  0.00     0.268 C 
HETATM    4  C1  UNL     1       1.524  -1.264  -3.325  1.00  0.00     0.037 C 
ENDBRANCH   2   3
BRANCH   2   5
HETATM    5  C3  UNL     1      -0.852   1.393  -3.573  1.00  0.00     0.300 C 
BRANCH   5   6
HETATM    6  C4  UNL     1      -1.893   1.559  -2.526  1.00  0.00     0.015 C 
HETATM    7  C5  UNL     1      -3.170   1.708  -2.757  1.00  0.00     0.082 C 
HETATM    8 CL1  UNL     1      -4.271   1.899  -1.402  1.00  0.00    -0.097 Cl
ENDBRANCH   5   6
ENDBRANCH   2   5
ENDBRANCH   1   2
BRANCH   1   9
HETATM    9  C7  UNL     1      -0.606   0.388  -6.231  1.00  0.00     0.302 C 
BRANCH   9  10
HETATM   10  N2  UNL     1       0.163   0.528  -7.428  1.00  0.00     0.090 N 
HETATM   11  C8  UNL     1      -0.570   1.016  -8.556  1.00  0.00     0.272 C 
HETATM   12  C9  UNL     1       0.215   0.850  -9.846  1.00  0.00     0.030 C 
HETATM   13  C10 UNL     1      -0.135  -0.371 -10.622  1.00  0.00     0.002 C 
HETATM   14  C11 UNL     1       0.222  -1.670  -9.971  1.00  0.00     0.002 C 
HETATM   15  C12 UNL     1      -0.126  -1.676  -8.496  1.00  0.00     0.030 C 
HETATM   16  C13 UNL     1       0.778  -0.764  -7.693  1.00  0.00     0.272 C 
ENDBRANCH   9  10
ENDBRANCH   1   9
TORSDOF 6
ENDMDL
