MODEL 1
REMARK VINA RESULT: -6.109426781      0.000      0.000
REMARK  5 active torsions:
REMARK  status: ('A' for Active; 'I' for Inactive)
REMARK    1  A    between atoms: C2_2  and  C3_3 
REMARK    2  A    between atoms: C3_3  and  C4_4 
REMARK    3  A    between atoms: N1_7  and  N2_9 
REMARK       I    between atoms: N2_9  and  C6_11 
REMARK    4  A    between atoms: C6_11  and  C7_13 
REMARK    5  A    between atoms: C7_13  and  C8_14 
ROOT
HETATM    1  N2  UNL     1      -0.493   0.038  -5.585  1.00  0.00    -0.270 N 
ATOM      2  H2  UNL     1      -0.812  -0.931  -5.561  1.00  0.00     0.190 HD
HETATM    3  C6  UNL     1       0.681   0.359  -6.363  1.00  0.00     0.236 C 
HETATM    4  O1  UNL     1       1.047   1.546  -6.373  1.00  0.00    -0.272 OA
ENDROOT
BRANCH   1   5
HETATM    5  N1  UNL     1      -1.202   0.984  -4.872  1.00  0.00    -0.306 N 
HETATM    6  C2  UNL     1      -1.153   1.134  -3.601  1.00  0.00     0.003 C 
HETATM    7  C1  UNL     1      -0.286   0.256  -2.780  1.00  0.00     0.065 C 
ATOM      8  H1  UNL     1      -1.812   1.611  -5.398  1.00  0.00     0.186 HD
BRANCH   6   9
HETATM    9  C3  UNL     1      -1.953   2.179  -2.934  1.00  0.00     0.081 C 
BRANCH   9  10
HETATM   10  C4  UNL     1      -3.271   1.747  -2.445  1.00  0.00    -0.009 C 
HETATM   11  C5  UNL     1      -3.749   1.835  -1.235  1.00  0.00     0.081 C 
HETATM   12 CL1  UNL     1      -5.376   1.256  -0.821  1.00  0.00    -0.097 Cl
ENDBRANCH   9  10
ENDBRANCH   6   9
ENDBRANCH   1   5
BRANCH   3  13
HETATM   13  C7  UNL     1       1.407  -0.669  -7.106  1.00  0.00     0.109 C 
BRANCH  13  14
HETATM   14  C8  UNL     1       1.013  -0.913  -8.507  1.00  0.00    -0.006 C 
HETATM   15  C9  UNL     1       0.329   0.193  -9.227  1.00  0.00     0.005 C 
HETATM   16  C10 UNL     1      -0.068  -0.480 -10.547  1.00  0.00     0.000 C 
HETATM   17  C11 UNL     1      -0.098  -1.981 -10.247  1.00  0.00     0.000 C 
HETATM   18  C12 UNL     1       0.037  -2.056  -8.717  1.00  0.00     0.005 C 
ENDBRANCH  13  14
ENDBRANCH   3  13
TORSDOF 5
ENDMDL
MODEL 2
REMARK VINA RESULT: -6.104010918      4.406      5.422
REMARK  5 active torsions:
REMARK  status: ('A' for Active; 'I' for Inactive)
REMARK    1  A    between atoms: C2_2  and  C3_3 
REMARK    2  A    between atoms: C3_3  and  C4_4 
REMARK    3  A    between atoms: N1_7  and  N2_9 
REMARK       I    between atoms: N2_9  and  C6_11 
REMARK    4  A    between atoms: C6_11  and  C7_13 
REMARK    5  A    between atoms: C7_13  and  C8_14 
ROOT
HETATM    1  N2  UNL     1       0.921  -1.233  -4.107  1.00  0.00    -0.270 N 
ATOM      2  H2  UNL     1       0.570  -2.090  -4.536  1.00  0.00     0.190 HD
HETATM    3  C6  UNL     1       0.630   0.028  -4.748  1.00  0.00     0.236 C 
HETATM    4  O1  UNL     1       1.070   1.054  -4.205  1.00  0.00    -0.272 OA
ENDROOT
BRANCH   1   5
HETATM    5  N1  UNL     1       1.653  -1.331  -2.941  1.00  0.00    -0.306 N 
HETATM    6  C2  UNL     1       2.748  -1.981  -2.814  1.00  0.00     0.003 C 
HETATM    7  C1  UNL     1       3.324  -2.704  -3.974  1.00  0.00     0.065 C 
ATOM      8  H1  UNL     1       1.293  -0.848  -2.117  1.00  0.00     0.186 HD
BRANCH   6   9
HETATM    9  C3  UNL     1       3.455  -2.023  -1.520  1.00  0.00     0.081 C 
BRANCH   9  10
HETATM   10  C4  UNL     1       4.670  -1.199  -1.439  1.00  0.00    -0.009 C 
HETATM   11  C5  UNL     1       5.575  -1.189  -0.499  1.00  0.00     0.081 C 
HETATM   12 CL1  UNL     1       6.990  -0.117  -0.567  1.00  0.00    -0.097 Cl
ENDBRANCH   9  10
ENDBRANCH   6   9
ENDBRANCH   1   5
BRANCH   3  13
HETATM   13  C7  UNL     1      -0.150   0.093  -5.983  1.00  0.00     0.109 C 
BRANCH  13  14
HETATM   14  C8  UNL     1       0.191  -0.854  -7.062  1.00  0.00    -0.006 C 
HETATM   15  C9  UNL     1       1.050  -0.352  -8.167  1.00  0.00     0.005 C 
HETATM   16  C10 UNL     1       1.032  -1.531  -9.148  1.00  0.00     0.000 C 
HETATM   17  C11 UNL     1      -0.235  -2.323  -8.813  1.00  0.00     0.000 C 
HETATM   18  C12 UNL     1      -0.992  -1.411  -7.832  1.00  0.00     0.005 C 
ENDBRANCH  13  14
ENDBRANCH   3  13
TORSDOF 5
ENDMDL
MODEL 3
REMARK VINA RESULT: -6.077322771      3.805      6.736
REMARK  5 active torsions:
REMARK  status: ('A' for Active; 'I' for Inactive)
REMARK    1  A    between atoms: C2_2  and  C3_3 
REMARK    2  A    between atoms: C3_3  and  C4_4 
REMARK    3  A    between atoms: N1_7  and  N2_9 
REMARK       I    between atoms: N2_9  and  C6_11 
REMARK    4  A    between atoms: C6_11  and  C7_13 
REMARK    5  A    between atoms: C7_13  and  C8_14 
ROOT
HETATM    1  N2  UNL     1      -0.037   0.602  -5.225  1.00  0.00    -0.270 N 
ATOM      2  H2  UNL     1       0.512   1.399  -4.903  1.00  0.00     0.190 HD
HETATM    3  C6  UNL     1      -0.367  -0.437  -4.277  1.00  0.00     0.236 C 
HETATM    4  O1  UNL     1      -1.035  -1.396  -4.697  1.00  0.00    -0.272 OA
ENDROOT
BRANCH   1   5
HETATM    5  N1  UNL     1      -0.432   0.563  -6.547  1.00  0.00    -0.306 N 
HETATM    6  C2  UNL     1       0.169   1.156  -7.510  1.00  0.00     0.003 C 
HETATM    7  C1  UNL     1       1.387   1.960  -7.246  1.00  0.00     0.065 C 
ATOM      8  H1  UNL     1      -1.266   0.021  -6.775  1.00  0.00     0.186 HD
BRANCH   6   9
HETATM    9  C3  UNL     1      -0.335   1.051  -8.892  1.00  0.00     0.081 C 
BRANCH   9  10
HETATM   10  C4  UNL     1      -0.147  -0.258  -9.533  1.00  0.00    -0.009 C 
HETATM   11  C5  UNL     1       0.772  -1.152  -9.287  1.00  0.00     0.081 C 
HETATM   12 CL1  UNL     1       0.848  -2.692 -10.168  1.00  0.00    -0.097 Cl
ENDBRANCH   9  10
ENDBRANCH   6   9
ENDBRANCH   1   5
BRANCH   3  13
HETATM   13  C7  UNL     1       0.067  -0.362  -2.884  1.00  0.00     0.109 C 
BRANCH  13  14
HETATM   14  C8  UNL     1       1.437  -0.810  -2.565  1.00  0.00    -0.006 C 
HETATM   15  C9  UNL     1       2.093  -1.738  -3.522  1.00  0.00     0.005 C 
HETATM   16  C10 UNL     1       3.385  -2.104  -2.780  1.00  0.00     0.000 C 
HETATM   17  C11 UNL     1       3.097  -1.834  -1.301  1.00  0.00     0.000 C 
HETATM   18  C12 UNL     1       1.582  -1.572  -1.260  1.00  0.00     0.005 C 
ENDBRANCH  13  14
ENDBRANCH   3  13
TORSDOF 5
ENDMDL
MODEL 4
REMARK VINA RESULT: -6.073293647      3.704      4.828
REMARK  5 active torsions:
REMARK  status: ('A' for Active; 'I' for Inactive)
REMARK    1  A    between atoms: C2_2  and  C3_3 
REMARK    2  A    between atoms: C3_3  and  C4_4 
REMARK    3  A    between atoms: N1_7  and  N2_9 
REMARK       I    between atoms: N2_9  and  C6_11 
REMARK    4  A    between atoms: C6_11  and  C7_13 
REMARK    5  A    between atoms: C7_13  and  C8_14 
ROOT
HETATM    1  N2  UNL     1       0.403  -0.096  -5.703  1.00  0.00    -0.270 N 
ATOM      2  H2  UNL     1       0.662   0.890  -5.679  1.00  0.00     0.190 HD
HETATM    3  C6  UNL     1      -0.743  -0.490  -6.489  1.00  0.00     0.236 C 
HETATM    4  O1  UNL     1      -1.035  -1.697  -6.499  1.00  0.00    -0.272 OA
ENDROOT
BRANCH   1   5
HETATM    5  N1  UNL     1       1.163  -0.996  -4.982  1.00  0.00    -0.306 N 
HETATM    6  C2  UNL     1       1.150  -1.110  -3.706  1.00  0.00     0.003 C 
HETATM    7  C1  UNL     1       0.274  -0.238  -2.888  1.00  0.00     0.065 C 
ATOM      8  H1  UNL     1       1.781  -1.617  -5.505  1.00  0.00     0.186 HD
BRANCH   6   9
HETATM    9  C3  UNL     1       2.003  -2.106  -3.031  1.00  0.00     0.081 C 
BRANCH   9  10
HETATM   10  C4  UNL     1       3.265  -1.588  -2.484  1.00  0.00    -0.009 C 
HETATM   11  C5  UNL     1       3.873  -1.943  -1.385  1.00  0.00     0.081 C 
HETATM   12 CL1  UNL     1       5.404  -1.202  -0.875  1.00  0.00    -0.097 Cl
ENDBRANCH   9  10
ENDBRANCH   6   9
ENDBRANCH   1   5
BRANCH   3  13
HETATM   13  C7  UNL     1      -1.523   0.490  -7.241  1.00  0.00     0.109 C 
BRANCH  13  14
HETATM   14  C8  UNL     1      -1.078   0.823  -8.609  1.00  0.00    -0.006 C 
HETATM   15  C9  UNL     1      -0.334  -0.223  -9.358  1.00  0.00     0.005 C 
HETATM   16  C10 UNL     1       0.099   0.534 -10.620  1.00  0.00     0.000 C 
HETATM   17  C11 UNL     1       0.075   2.016 -10.236  1.00  0.00     0.000 C 
HETATM   18  C12 UNL     1      -0.126   2.000  -8.712  1.00  0.00     0.005 C 
ENDBRANCH  13  14
ENDBRANCH   3  13
TORSDOF 5
ENDMDL
MODEL 5
REMARK VINA RESULT: -6.072531268      2.886      6.711
REMARK  5 active torsions:
REMARK  status: ('A' for Active; 'I' for Inactive)
REMARK    1  A    between atoms: C2_2  and  C3_3 
REMARK    2  A    between atoms: C3_3  and  C4_4 
REMARK    3  A    between atoms: N1_7  and  N2_9 
REMARK       I    between atoms: N2_9  and  C6_11 
REMARK    4  A    between atoms: C6_11  and  C7_13 
REMARK    5  A    between atoms: C7_13  and  C8_14 
ROOT
HETATM    1  N2  UNL     1       0.027  -0.639  -5.249  1.00  0.00    -0.270 N 
ATOM      2  H2  UNL     1      -0.506  -1.440  -4.909  1.00  0.00     0.190 HD
HETATM    3  C6  UNL     1       0.356   0.416  -4.320  1.00  0.00     0.236 C 
HETATM    4  O1  UNL     1       1.004   1.378  -4.761  1.00  0.00    -0.272 OA
ENDROOT
BRANCH   1   5
HETATM    5  N1  UNL     1       0.401  -0.612  -6.578  1.00  0.00    -0.306 N 
HETATM    6  C2  UNL     1      -0.218  -1.209  -7.527  1.00  0.00     0.003 C 
HETATM    7  C1  UNL     1      -1.435  -2.005  -7.238  1.00  0.00     0.065 C 
ATOM      8  H1  UNL     1       1.234  -0.075  -6.822  1.00  0.00     0.186 HD
BRANCH   6   9
HETATM    9  C3  UNL     1       0.266  -1.116  -8.917  1.00  0.00     0.081 C 
BRANCH   9  10
HETATM   10  C4  UNL     1       0.063   0.186  -9.569  1.00  0.00    -0.009 C 
HETATM   11  C5  UNL     1      -0.805   1.112  -9.265  1.00  0.00     0.081 C 
HETATM   12 CL1  UNL     1      -0.910   2.636 -10.171  1.00  0.00    -0.097 Cl
ENDBRANCH   9  10
ENDBRANCH   6   9
ENDBRANCH   1   5
BRANCH   3  13
HETATM   13  C7  UNL     1      -0.056   0.353  -2.919  1.00  0.00     0.109 C 
BRANCH  13  14
HETATM   14  C8  UNL     1      -1.422   0.801  -2.583  1.00  0.00    -0.006 C 
HETATM   15  C9  UNL     1      -2.082   1.745  -3.522  1.00  0.00     0.005 C 
HETATM   16  C10 UNL     1      -3.367   2.104  -2.765  1.00  0.00     0.000 C 
HETATM   17  C11 UNL     1      -3.068   1.814  -1.291  1.00  0.00     0.000 C 
HETATM   18  C12 UNL     1      -1.553   1.546  -1.267  1.00  0.00     0.005 C 
ENDBRANCH  13  14
ENDBRANCH   3  13
TORSDOF 5
ENDMDL
