MODEL 1
REMARK VINA RESULT: -6.285843219      0.000      0.000
REMARK  5 active torsions:
REMARK  status: ('A' for Active; 'I' for Inactive)
REMARK       I    between atoms: C1_2  and  N1_3 
REMARK    1  A    between atoms: C1_2  and  C10_14 
REMARK    2  A    between atoms: N1_3  and  N2_4 
REMARK    3  A    between atoms: C2_6  and  C3_7 
REMARK    4  A    between atoms: C3_7  and  C4_8 
REMARK    5  A    between atoms: C4_8  and  C5_9 
ROOT
HETATM    1  N2  UNL     1      -0.937  -1.893  -8.414  1.00  0.00    -0.247 N 
ATOM      2  H2  UNL     1      -1.137  -2.714  -8.986  1.00  0.00     0.200 HD
HETATM    3  C2  UNL     1      -1.232  -2.226  -7.280  1.00  0.00     0.094 C 
ENDROOT
BRANCH   1   4
HETATM    4  N1  UNL     1      -0.495  -1.012  -9.246  1.00  0.00    -0.287 NA
HETATM    5  C1  UNL     1      -0.036  -0.094 -10.115  1.00  0.00     0.316 C 
HETATM    6  O1  UNL     1      -0.084  -0.084 -11.386  1.00  0.00    -0.255 OA
BRANCH   5   7
HETATM    7  C10 UNL     1       0.647   1.130  -9.537  1.00  0.00     0.095 C 
HETATM    8  C11 UNL     1       1.630   0.817  -8.427  1.00  0.00     0.015 C 
HETATM    9  C12 UNL     1       1.188   2.163  -7.813  1.00  0.00     0.002 C 
HETATM   10  C13 UNL     1      -0.153   1.896  -8.521  1.00  0.00     0.015 C 
ENDBRANCH   5   7
ENDBRANCH   1   4
BRANCH   3  11
HETATM   11  C3  UNL     1      -1.110  -1.361  -6.071  1.00  0.00     0.047 C 
BRANCH  11  12
HETATM   12  C4  UNL     1       0.363  -1.052  -5.787  1.00  0.00     0.010 C 
BRANCH  12  13
HETATM   13  C5  UNL     1       0.412   0.109  -4.834  1.00  0.00    -0.014 C 
HETATM   14  C6  UNL     1       0.713  -0.274  -3.405  1.00  0.00     0.004 C 
HETATM   15  C7  UNL     1      -0.384   0.373  -2.552  1.00  0.00     0.000 C 
HETATM   16  C8  UNL     1      -0.806   1.545  -3.413  1.00  0.00     0.000 C 
HETATM   17  C9  UNL     1      -0.892   0.860  -4.789  1.00  0.00     0.004 C 
ENDBRANCH  12  13
ENDBRANCH  11  12
ENDBRANCH   3  11
TORSDOF 5
ENDMDL
MODEL 2
REMARK VINA RESULT: -6.284028657      1.503      3.035
REMARK  5 active torsions:
REMARK  status: ('A' for Active; 'I' for Inactive)
REMARK       I    between atoms: C1_2  and  N1_3 
REMARK    1  A    between atoms: C1_2  and  C10_14 
REMARK    2  A    between atoms: N1_3  and  N2_4 
REMARK    3  A    between atoms: C2_6  and  C3_7 
REMARK    4  A    between atoms: C3_7  and  C4_8 
REMARK    5  A    between atoms: C4_8  and  C5_9 
ROOT
HETATM    1  N2  UNL     1       0.989   1.897  -8.399  1.00  0.00    -0.247 N 
ATOM      2  H2  UNL     1       1.219   2.706  -8.977  1.00  0.00     0.200 HD
HETATM    3  C2  UNL     1       1.281   2.233  -7.265  1.00  0.00     0.094 C 
ENDROOT
BRANCH   1   4
HETATM    4  N1  UNL     1       0.531   1.021  -9.228  1.00  0.00    -0.287 NA
HETATM    5  C1  UNL     1       0.055   0.108 -10.093  1.00  0.00     0.316 C 
HETATM    6  O1  UNL     1       0.086   0.100 -11.364  1.00  0.00    -0.255 OA
BRANCH   5   7
HETATM    7  C10 UNL     1      -0.630  -1.113  -9.508  1.00  0.00     0.095 C 
HETATM    8  C11 UNL     1      -1.631  -0.792  -8.417  1.00  0.00     0.015 C 
HETATM    9  C12 UNL     1      -1.189  -2.127  -7.779  1.00  0.00     0.002 C 
HETATM   10  C13 UNL     1       0.160  -1.861  -8.471  1.00  0.00     0.015 C 
ENDBRANCH   5   7
ENDBRANCH   1   4
BRANCH   3  11
HETATM   11  C3  UNL     1       1.122   1.383  -6.050  1.00  0.00     0.047 C 
BRANCH  11  12
HETATM   12  C4  UNL     1      -0.361   1.095  -5.796  1.00  0.00     0.010 C 
BRANCH  12  13
HETATM   13  C5  UNL     1      -0.446  -0.061  -4.839  1.00  0.00    -0.014 C 
HETATM   14  C6  UNL     1      -0.745   0.334  -3.414  1.00  0.00     0.004 C 
HETATM   15  C7  UNL     1       0.330  -0.339  -2.553  1.00  0.00     0.000 C 
HETATM   16  C8  UNL     1       0.726  -1.525  -3.407  1.00  0.00     0.000 C 
HETATM   17  C9  UNL     1       0.837  -0.847  -4.785  1.00  0.00     0.004 C 
ENDBRANCH  12  13
ENDBRANCH  11  12
ENDBRANCH   3  11
TORSDOF 5
ENDMDL
MODEL 3
REMARK VINA RESULT: -6.105901354      2.348      4.894
REMARK  5 active torsions:
REMARK  status: ('A' for Active; 'I' for Inactive)
REMARK       I    between atoms: C1_2  and  N1_3 
REMARK    1  A    between atoms: C1_2  and  C10_14 
REMARK    2  A    between atoms: N1_3  and  N2_4 
REMARK    3  A    between atoms: C2_6  and  C3_7 
REMARK    4  A    between atoms: C3_7  and  C4_8 
REMARK    5  A    between atoms: C4_8  and  C5_9 
ROOT
HETATM    1  N2  UNL     1      -1.214  -1.668  -6.608  1.00  0.00    -0.247 N 
ATOM      2  H2  UNL     1      -2.200  -1.679  -6.343  1.00  0.00     0.200 HD
HETATM    3  C2  UNL     1      -1.209  -1.961  -7.790  1.00  0.00     0.094 C 
ENDROOT
BRANCH   1   4
HETATM    4  N1  UNL     1      -0.587  -1.351  -5.527  1.00  0.00    -0.287 NA
HETATM    5  C1  UNL     1       0.069  -1.021  -4.400  1.00  0.00     0.316 C 
HETATM    6  O1  UNL     1       0.779  -1.746  -3.632  1.00  0.00    -0.255 OA
BRANCH   5   7
HETATM    7  C10 UNL     1      -0.025   0.420  -3.938  1.00  0.00     0.095 C 
HETATM    8  C11 UNL     1      -0.565   0.580  -2.532  1.00  0.00     0.015 C 
HETATM    9  C12 UNL     1      -1.208   1.885  -3.051  1.00  0.00     0.002 C 
HETATM   10  C13 UNL     1      -1.233   1.174  -4.417  1.00  0.00     0.015 C 
ENDBRANCH   5   7
ENDBRANCH   1   4
BRANCH   3  11
HETATM   11  C3  UNL     1       0.011  -2.073  -8.642  1.00  0.00     0.047 C 
BRANCH  11  12
HETATM   12  C4  UNL     1      -0.117  -1.171  -9.873  1.00  0.00     0.010 C 
BRANCH  12  13
HETATM   13  C5  UNL     1       0.607   0.112  -9.577  1.00  0.00    -0.014 C 
HETATM   14  C6  UNL     1       1.539   0.039  -8.392  1.00  0.00     0.004 C 
HETATM   15  C7  UNL     1       1.166   1.219  -7.486  1.00  0.00     0.000 C 
HETATM   16  C8  UNL     1       0.555   2.195  -8.469  1.00  0.00     0.000 C 
HETATM   17  C9  UNL     1      -0.342   1.243  -9.282  1.00  0.00     0.004 C 
ENDBRANCH  12  13
ENDBRANCH  11  12
ENDBRANCH   3  11
TORSDOF 5
ENDMDL
MODEL 4
REMARK VINA RESULT: -6.093239475      2.649      5.530
REMARK  5 active torsions:
REMARK  status: ('A' for Active; 'I' for Inactive)
REMARK       I    between atoms: C1_2  and  N1_3 
REMARK    1  A    between atoms: C1_2  and  C10_14 
REMARK    2  A    between atoms: N1_3  and  N2_4 
REMARK    3  A    between atoms: C2_6  and  C3_7 
REMARK    4  A    between atoms: C3_7  and  C4_8 
REMARK    5  A    between atoms: C4_8  and  C5_9 
ROOT
HETATM    1  N2  UNL     1       1.066   1.550  -6.528  1.00  0.00    -0.247 N 
ATOM      2  H2  UNL     1       2.018   1.562  -6.159  1.00  0.00     0.200 HD
HETATM    3  C2  UNL     1       1.179   1.906  -7.687  1.00  0.00     0.094 C 
ENDROOT
BRANCH   1   4
HETATM    4  N1  UNL     1       0.335   1.166  -5.537  1.00  0.00    -0.287 NA
HETATM    5  C1  UNL     1      -0.429   0.766  -4.505  1.00  0.00     0.316 C 
HETATM    6  O1  UNL     1      -1.421   1.345  -3.957  1.00  0.00    -0.255 OA
BRANCH   5   7
HETATM    7  C10 UNL     1      -0.093  -0.568  -3.868  1.00  0.00     0.095 C 
HETATM    8  C11 UNL     1       0.447  -0.457  -2.457  1.00  0.00     0.015 C 
HETATM    9  C12 UNL     1       1.314  -1.684  -2.815  1.00  0.00     0.002 C 
HETATM   10  C13 UNL     1       1.234  -1.154  -4.259  1.00  0.00     0.015 C 
ENDBRANCH   5   7
ENDBRANCH   1   4
BRANCH   3  11
HETATM   11  C3  UNL     1       0.053   2.044  -8.656  1.00  0.00     0.047 C 
BRANCH  11  12
HETATM   12  C4  UNL     1       0.288   1.144  -9.873  1.00  0.00     0.010 C 
BRANCH  12  13
HETATM   13  C5  UNL     1      -0.471  -0.133  -9.651  1.00  0.00    -0.014 C 
HETATM   14  C6  UNL     1      -1.509  -0.056  -8.558  1.00  0.00     0.004 C 
HETATM   15  C7  UNL     1      -1.232  -1.241  -7.625  1.00  0.00     0.000 C 
HETATM   16  C8  UNL     1      -0.541  -2.219  -8.551  1.00  0.00     0.000 C 
HETATM   17  C9  UNL     1       0.436  -1.273  -9.273  1.00  0.00     0.004 C 
ENDBRANCH  12  13
ENDBRANCH  11  12
ENDBRANCH   3  11
TORSDOF 5
ENDMDL
MODEL 5
REMARK VINA RESULT: -6.081038428      2.384      5.247
REMARK  5 active torsions:
REMARK  status: ('A' for Active; 'I' for Inactive)
REMARK       I    between atoms: C1_2  and  N1_3 
REMARK    1  A    between atoms: C1_2  and  C10_14 
REMARK    2  A    between atoms: N1_3  and  N2_4 
REMARK    3  A    between atoms: C2_6  and  C3_7 
REMARK    4  A    between atoms: C3_7  and  C4_8 
REMARK    5  A    between atoms: C4_8  and  C5_9 
ROOT
HETATM    1  N2  UNL     1      -0.899  -1.385  -5.793  1.00  0.00    -0.247 N 
ATOM      2  H2  UNL     1      -0.789  -2.187  -5.171  1.00  0.00     0.200 HD
HETATM    3  C2  UNL     1      -1.192  -1.868  -6.872  1.00  0.00     0.094 C 
ENDROOT
BRANCH   1   4
HETATM    4  N1  UNL     1      -0.660  -0.358  -5.050  1.00  0.00    -0.287 NA
HETATM    5  C1  UNL     1      -0.410   0.713  -4.277  1.00  0.00     0.316 C 
HETATM    6  O1  UNL     1       0.557   1.538  -4.321  1.00  0.00    -0.255 OA
BRANCH   5   7
HETATM    7  C10 UNL     1      -1.404   1.022  -3.175  1.00  0.00     0.095 C 
HETATM    8  C11 UNL     1      -1.547   2.499  -2.871  1.00  0.00     0.015 C 
HETATM    9  C12 UNL     1      -1.770   2.060  -1.408  1.00  0.00     0.002 C 
HETATM   10  C13 UNL     1      -0.887   0.852  -1.774  1.00  0.00     0.015 C 
ENDBRANCH   5   7
ENDBRANCH   1   4
BRANCH   3  11
HETATM   11  C3  UNL     1      -1.462  -1.091  -8.117  1.00  0.00     0.047 C 
BRANCH  11  12
HETATM   12  C4  UNL     1      -0.327  -1.294  -9.125  1.00  0.00     0.010 C 
BRANCH  12  13
HETATM   13  C5  UNL     1       0.364   0.028  -9.308  1.00  0.00    -0.014 C 
HETATM   14  C6  UNL     1       1.553   0.237  -8.401  1.00  0.00     0.004 C 
HETATM   15  C7  UNL     1       1.331   1.591  -7.717  1.00  0.00     0.000 C 
HETATM   16  C8  UNL     1       0.446   2.310  -8.713  1.00  0.00     0.000 C 
HETATM   17  C9  UNL     1      -0.556   1.190  -9.049  1.00  0.00     0.004 C 
ENDBRANCH  12  13
ENDBRANCH  11  12
ENDBRANCH   3  11
TORSDOF 5
ENDMDL
