MODEL 1
REMARK VINA RESULT: -7.365493373      0.000      0.000
REMARK  8 active torsions:
REMARK  status: ('A' for Active; 'I' for Inactive)
REMARK    1  A    between atoms: C2_2  and  C3_3 
REMARK    2  A    between atoms: C3_3  and  N1_4 
REMARK    3  A    between atoms: N1_4  and  C4_6 
REMARK    4  A    between atoms: C5_9  and  C6_10 
REMARK    5  A    between atoms: C6_10  and  C7_11 
REMARK    6  A    between atoms: C7_11  and  C8_12 
REMARK    7  A    between atoms: C9_14  and  C10_15 
REMARK    8  A    between atoms: C10_15  and  O2_16 
ROOT
HETATM    1  C4  UNL     1      16.574   1.692  14.816  1.00  0.00     0.681 A 
HETATM    2  N2  UNL     1      16.306   2.985  14.604  1.00  0.00    -0.192 N 
ATOM      3  H2  UNL     1      16.505   3.387  13.688  1.00  0.00     0.184 HD
HETATM    4  C5  UNL     1      15.775   3.781  15.573  1.00  0.00     0.071 A 
HETATM    5  C14 UNL     1      15.527   3.190  16.786  1.00  0.00     0.207 A 
HETATM    6  F1  UNL     1      15.007   3.902  17.788  1.00  0.00    -0.198 F 
HETATM    7  C15 UNL     1      15.805   1.849  17.005  1.00  0.00     0.300 A 
HETATM    8  O4  UNL     1      15.578   1.296  18.122  1.00  0.00    -0.264 OA
HETATM    9  N3  UNL     1      16.319   1.121  16.032  1.00  0.00    -0.154 N 
ATOM     10  H3  UNL     1      16.527   0.135  16.186  1.00  0.00     0.187 HD
ENDROOT
BRANCH   4  11
HETATM   11  C6  UNL     1      15.525   5.171  15.226  1.00  0.00     0.066 C 
BRANCH  11  12
HETATM   12  C7  UNL     1      16.700   6.073  15.134  1.00  0.00     0.067 C 
BRANCH  12  13
HETATM   13  C8  UNL     1      16.870   6.405  13.640  1.00  0.00     0.261 C 
HETATM   14  O1  UNL     1      16.197   5.515  12.840  1.00  0.00    -0.351 OA
HETATM   15  C9  UNL     1      16.922   5.516  11.640  1.00  0.00     0.182 C 
HETATM   16  C11 UNL     1      18.327   5.704  12.116  1.00  0.00     0.085 C 
HETATM   17  C12 UNL     1      18.992   4.348  12.156  1.00  0.00     0.048 C 
HETATM   18  C13 UNL     1      19.149   6.595  11.223  1.00  0.00     0.048 C 
HETATM   19  O3  UNL     1      18.223   6.292  13.361  1.00  0.00    -0.348 OA
BRANCH  15  20
HETATM   20  C10 UNL     1      16.435   6.660  10.782  1.00  0.00     0.199 C 
BRANCH  20  21
HETATM   21  O2  UNL     1      15.275   6.300  10.128  1.00  0.00    -0.398 OA
ATOM     22  H2  UNL     1      15.475   5.711   9.410  1.00  0.00     0.209 HD
ENDBRANCH  20  21
ENDBRANCH  15  20
ENDBRANCH  12  13
ENDBRANCH  11  12
ENDBRANCH   4  11
BRANCH   1  23
HETATM   23  N1  UNL     1      17.072   0.892  13.949  1.00  0.00    -0.226 N 
ATOM     24  H1  UNL     1      17.471   0.006  14.260  1.00  0.00     0.177 HD
BRANCH  23  25
HETATM   25  C3  UNL     1      17.081   1.213  12.544  1.00  0.00     0.137 C 
BRANCH  25  26
HETATM   26  C2  UNL     1      17.274  -0.066  11.737  1.00  0.00     0.016 C 
HETATM   27  C1  UNL     1      17.897   0.281  10.424  1.00  0.00     0.006 C 
ENDBRANCH  25  26
ENDBRANCH  23  25
ENDBRANCH   1  23
TORSDOF 8
ENDMDL
MODEL 2
REMARK VINA RESULT: -7.283262702      1.507      2.152
REMARK  8 active torsions:
REMARK  status: ('A' for Active; 'I' for Inactive)
REMARK    1  A    between atoms: C2_2  and  C3_3 
REMARK    2  A    between atoms: C3_3  and  N1_4 
REMARK    3  A    between atoms: N1_4  and  C4_6 
REMARK    4  A    between atoms: C5_9  and  C6_10 
REMARK    5  A    between atoms: C6_10  and  C7_11 
REMARK    6  A    between atoms: C7_11  and  C8_12 
REMARK    7  A    between atoms: C9_14  and  C10_15 
REMARK    8  A    between atoms: C10_15  and  O2_16 
ROOT
HETATM    1  C4  UNL     1      16.521   1.719  14.860  1.00  0.00     0.681 A 
HETATM    2  N2  UNL     1      16.105   2.973  14.654  1.00  0.00    -0.192 N 
ATOM      3  H2  UNL     1      16.251   3.397  13.738  1.00  0.00     0.184 HD
HETATM    4  C5  UNL     1      15.494   3.700  15.629  1.00  0.00     0.071 A 
HETATM    5  C14 UNL     1      15.324   3.081  16.842  1.00  0.00     0.207 A 
HETATM    6  F1  UNL     1      14.733   3.726  17.851  1.00  0.00    -0.198 F 
HETATM    7  C15 UNL     1      15.756   1.780  17.055  1.00  0.00     0.300 A 
HETATM    8  O4  UNL     1      15.602   1.202  18.171  1.00  0.00    -0.264 OA
HETATM    9  N3  UNL     1      16.343   1.119  16.076  1.00  0.00    -0.154 N 
ATOM     10  H3  UNL     1      16.663   0.162  16.225  1.00  0.00     0.187 HD
ENDROOT
BRANCH   4  11
HETATM   11  C6  UNL     1      15.084   5.053  15.289  1.00  0.00     0.066 C 
BRANCH  11  12
HETATM   12  C7  UNL     1      16.078   6.137  15.485  1.00  0.00     0.067 C 
BRANCH  12  13
HETATM   13  C8  UNL     1      17.135   5.956  14.380  1.00  0.00     0.261 C 
HETATM   14  O1  UNL     1      18.286   5.386  14.865  1.00  0.00    -0.351 OA
HETATM   15  C9  UNL     1      19.290   5.866  14.013  1.00  0.00     0.182 C 
HETATM   16  C11 UNL     1      18.809   7.245  13.697  1.00  0.00     0.085 C 
HETATM   17  C12 UNL     1      19.541   8.213  14.597  1.00  0.00     0.048 C 
HETATM   18  C13 UNL     1      19.064   7.659  12.271  1.00  0.00     0.048 C 
HETATM   19  O3  UNL     1      17.447   7.225  13.919  1.00  0.00    -0.348 OA
BRANCH  15  20
HETATM   20  C10 UNL     1      19.358   4.975  12.795  1.00  0.00     0.199 C 
BRANCH  20  21
HETATM   21  O2  UNL     1      20.516   4.225  12.822  1.00  0.00    -0.398 OA
ATOM     22  H2  UNL     1      20.708   3.892  11.953  1.00  0.00     0.209 HD
ENDBRANCH  20  21
ENDBRANCH  15  20
ENDBRANCH  12  13
ENDBRANCH  11  12
ENDBRANCH   4  11
BRANCH   1  23
HETATM   23  N1  UNL     1      17.102   0.983  13.987  1.00  0.00    -0.226 N 
ATOM     24  H1  UNL     1      17.591   0.141  14.291  1.00  0.00     0.177 HD
BRANCH  23  25
HETATM   25  C3  UNL     1      17.078   1.316  12.585  1.00  0.00     0.137 C 
BRANCH  25  26
HETATM   26  C2  UNL     1      17.139   0.034  11.762  1.00  0.00     0.016 C 
HETATM   27  C1  UNL     1      17.924   0.295  10.518  1.00  0.00     0.006 C 
ENDBRANCH  25  26
ENDBRANCH  23  25
ENDBRANCH   1  23
TORSDOF 8
ENDMDL
MODEL 3
REMARK VINA RESULT: -7.119577986      0.933      1.105
REMARK  8 active torsions:
REMARK  status: ('A' for Active; 'I' for Inactive)
REMARK    1  A    between atoms: C2_2  and  C3_3 
REMARK    2  A    between atoms: C3_3  and  N1_4 
REMARK    3  A    between atoms: N1_4  and  C4_6 
REMARK    4  A    between atoms: C5_9  and  C6_10 
REMARK    5  A    between atoms: C6_10  and  C7_11 
REMARK    6  A    between atoms: C7_11  and  C8_12 
REMARK    7  A    between atoms: C9_14  and  C10_15 
REMARK    8  A    between atoms: C10_15  and  O2_16 
ROOT
HETATM    1  C4  UNL     1      16.551   1.713  14.874  1.00  0.00     0.681 A 
HETATM    2  N2  UNL     1      16.267   3.008  14.698  1.00  0.00    -0.192 N 
ATOM      3  H2  UNL     1      16.460   3.438  13.794  1.00  0.00     0.184 HD
HETATM    4  C5  UNL     1      15.727   3.769  15.690  1.00  0.00     0.071 A 
HETATM    5  C14 UNL     1      15.488   3.142  16.886  1.00  0.00     0.207 A 
HETATM    6  F1  UNL     1      14.961   3.818  17.909  1.00  0.00    -0.198 F 
HETATM    7  C15 UNL     1      15.783   1.798  17.067  1.00  0.00     0.300 A 
HETATM    8  O4  UNL     1      15.566   1.212  18.169  1.00  0.00    -0.264 OA
HETATM    9  N3  UNL     1      16.306   1.105  16.074  1.00  0.00    -0.154 N 
ATOM     10  H3  UNL     1      16.526   0.117  16.200  1.00  0.00     0.187 HD
ENDROOT
BRANCH   4  11
HETATM   11  C6  UNL     1      15.460   5.165  15.383  1.00  0.00     0.066 C 
BRANCH  11  12
HETATM   12  C7  UNL     1      16.622   6.028  15.058  1.00  0.00     0.067 C 
BRANCH  12  13
HETATM   13  C8  UNL     1      16.700   6.084  13.521  1.00  0.00     0.261 C 
HETATM   14  O1  UNL     1      17.429   5.038  13.010  1.00  0.00    -0.351 OA
HETATM   15  C9  UNL     1      17.947   5.539  11.807  1.00  0.00     0.182 C 
HETATM   16  C11 UNL     1      18.192   6.975  12.138  1.00  0.00     0.085 C 
HETATM   17  C12 UNL     1      19.656   7.135  12.477  1.00  0.00     0.048 C 
HETATM   18  C13 UNL     1      17.876   7.916  11.004  1.00  0.00     0.048 C 
HETATM   19  O3  UNL     1      17.358   7.260  13.201  1.00  0.00    -0.348 OA
BRANCH  15  20
HETATM   20  C10 UNL     1      16.914   5.355  10.721  1.00  0.00     0.199 C 
BRANCH  20  21
HETATM   21  O2  UNL     1      17.007   4.085  10.190  1.00  0.00    -0.398 OA
ATOM     22  H2  UNL     1      17.911   3.887   9.973  1.00  0.00     0.209 HD
ENDBRANCH  20  21
ENDBRANCH  15  20
ENDBRANCH  12  13
ENDBRANCH  11  12
ENDBRANCH   4  11
BRANCH   1  23
HETATM   23  N1  UNL     1      17.058   0.943  13.984  1.00  0.00    -0.226 N 
ATOM     24  H1  UNL     1      17.462   0.051  14.270  1.00  0.00     0.177 HD
BRANCH  23  25
HETATM   25  C3  UNL     1      17.071   1.309  12.591  1.00  0.00     0.137 C 
BRANCH  25  26
HETATM   26  C2  UNL     1      17.139   0.046  11.740  1.00  0.00     0.016 C 
HETATM   27  C1  UNL     1      17.914   0.341  10.497  1.00  0.00     0.006 C 
ENDBRANCH  25  26
ENDBRANCH  23  25
ENDBRANCH   1  23
TORSDOF 8
ENDMDL
MODEL 4
REMARK VINA RESULT: -7.077096419      0.963      2.025
REMARK  8 active torsions:
REMARK  status: ('A' for Active; 'I' for Inactive)
REMARK    1  A    between atoms: C2_2  and  C3_3 
REMARK    2  A    between atoms: C3_3  and  N1_4 
REMARK    3  A    between atoms: N1_4  and  C4_6 
REMARK    4  A    between atoms: C5_9  and  C6_10 
REMARK    5  A    between atoms: C6_10  and  C7_11 
REMARK    6  A    between atoms: C7_11  and  C8_12 
REMARK    7  A    between atoms: C9_14  and  C10_15 
REMARK    8  A    between atoms: C10_15  and  O2_16 
ROOT
HETATM    1  C4  UNL     1      16.448   1.829  14.947  1.00  0.00     0.681 A 
HETATM    2  N2  UNL     1      15.998   3.082  14.817  1.00  0.00    -0.192 N 
ATOM      3  H2  UNL     1      16.119   3.560  13.924  1.00  0.00     0.184 HD
HETATM    4  C5  UNL     1      15.384   3.738  15.840  1.00  0.00     0.071 A 
HETATM    5  C14 UNL     1      15.249   3.050  17.018  1.00  0.00     0.207 A 
HETATM    6  F1  UNL     1      14.658   3.622  18.069  1.00  0.00    -0.198 F 
HETATM    7  C15 UNL     1      15.716   1.750  17.152  1.00  0.00     0.300 A 
HETATM    8  O4  UNL     1      15.594   1.108  18.237  1.00  0.00    -0.264 OA
HETATM    9  N3  UNL     1      16.304   1.159  16.130  1.00  0.00    -0.154 N 
ATOM     10  H3  UNL     1      16.650   0.204  16.221  1.00  0.00     0.187 HD
ENDROOT
BRANCH   4  11
HETATM   11  C6  UNL     1      14.936   5.097  15.581  1.00  0.00     0.066 C 
BRANCH  11  12
HETATM   12  C7  UNL     1      15.978   6.138  15.406  1.00  0.00     0.067 C 
BRANCH  12  13
HETATM   13  C8  UNL     1      16.900   5.638  14.279  1.00  0.00     0.261 C 
HETATM   14  O1  UNL     1      18.023   6.419  14.155  1.00  0.00    -0.351 OA
HETATM   15  C9  UNL     1      18.382   6.290  12.806  1.00  0.00     0.182 C 
HETATM   16  C11 UNL     1      17.054   6.180  12.130  1.00  0.00     0.085 C 
HETATM   17  C12 UNL     1      16.693   7.542  11.583  1.00  0.00     0.048 C 
HETATM   18  C13 UNL     1      17.042   5.204  10.983  1.00  0.00     0.048 C 
HETATM   19  O3  UNL     1      16.177   5.739  13.102  1.00  0.00    -0.348 OA
BRANCH  15  20
HETATM   20  C10 UNL     1      19.226   5.047  12.647  1.00  0.00     0.199 C 
BRANCH  20  21
HETATM   21  O2  UNL     1      20.146   4.966  13.672  1.00  0.00    -0.398 OA
ATOM     22  H2  UNL     1      20.237   4.065  13.958  1.00  0.00     0.209 HD
ENDBRANCH  20  21
ENDBRANCH  15  20
ENDBRANCH  12  13
ENDBRANCH  11  12
ENDBRANCH   4  11
BRANCH   1  23
HETATM   23  N1  UNL     1      17.033   1.158  14.026  1.00  0.00    -0.226 N 
ATOM     24  H1  UNL     1      17.510   0.290  14.269  1.00  0.00     0.177 HD
BRANCH  23  25
HETATM   25  C3  UNL     1      17.031   1.599  12.654  1.00  0.00     0.137 C 
BRANCH  25  26
HETATM   26  C2  UNL     1      16.996   0.384  11.735  1.00  0.00     0.016 C 
HETATM   27  C1  UNL     1      18.079   0.520  10.714  1.00  0.00     0.006 C 
ENDBRANCH  25  26
ENDBRANCH  23  25
ENDBRANCH   1  23
TORSDOF 8
ENDMDL
MODEL 5
REMARK VINA RESULT: -6.956246680      2.694      4.820
REMARK  8 active torsions:
REMARK  status: ('A' for Active; 'I' for Inactive)
REMARK    1  A    between atoms: C2_2  and  C3_3 
REMARK    2  A    between atoms: C3_3  and  N1_4 
REMARK    3  A    between atoms: N1_4  and  C4_6 
REMARK    4  A    between atoms: C5_9  and  C6_10 
REMARK    5  A    between atoms: C6_10  and  C7_11 
REMARK    6  A    between atoms: C7_11  and  C8_12 
REMARK    7  A    between atoms: C9_14  and  C10_15 
REMARK    8  A    between atoms: C10_15  and  O2_16 
ROOT
HETATM    1  C4  UNL     1      16.659   3.230  14.313  1.00  0.00     0.681 A 
HETATM    2  N2  UNL     1      17.050   3.075  13.043  1.00  0.00    -0.192 N 
ATOM      3  H2  UNL     1      17.183   3.902  12.462  1.00  0.00     0.184 HD
HETATM    4  C5  UNL     1      17.274   1.846  12.502  1.00  0.00     0.071 A 
HETATM    5  C14 UNL     1      17.079   0.767  13.327  1.00  0.00     0.207 A 
HETATM    6  F1  UNL     1      17.277  -0.473  12.873  1.00  0.00    -0.198 F 
HETATM    7  C15 UNL     1      16.675   0.929  14.644  1.00  0.00     0.300 A 
HETATM    8  O4  UNL     1      16.493  -0.062  15.411  1.00  0.00    -0.264 OA
HETATM    9  N3  UNL     1      16.471   2.143  15.119  1.00  0.00    -0.154 N 
ATOM     10  H3  UNL     1      16.173   2.270  16.086  1.00  0.00     0.187 HD
ENDROOT
BRANCH   4  11
HETATM   11  C6  UNL     1      17.696   1.800  11.111  1.00  0.00     0.066 C 
BRANCH  11  12
HETATM   12  C7  UNL     1      19.091   1.379  10.835  1.00  0.00     0.067 C 
BRANCH  12  13
HETATM   13  C8  UNL     1      19.915   2.674  10.713  1.00  0.00     0.261 C 
HETATM   14  O1  UNL     1      19.929   3.382  11.890  1.00  0.00    -0.351 OA
HETATM   15  C9  UNL     1      20.102   4.713  11.487  1.00  0.00     0.182 C 
HETATM   16  C11 UNL     1      19.344   4.759  10.200  1.00  0.00     0.085 C 
HETATM   17  C12 UNL     1      17.980   5.346  10.481  1.00  0.00     0.048 C 
HETATM   18  C13 UNL     1      20.003   5.607   9.144  1.00  0.00     0.048 C 
HETATM   19  O3  UNL     1      19.289   3.453   9.754  1.00  0.00    -0.348 OA
BRANCH  15  20
HETATM   20  C10 UNL     1      21.579   4.976  11.308  1.00  0.00     0.199 C 
BRANCH  20  21
HETATM   21  O2  UNL     1      22.008   5.908  12.230  1.00  0.00    -0.398 OA
ATOM     22  H2  UNL     1      22.907   6.155  12.049  1.00  0.00     0.209 HD
ENDBRANCH  20  21
ENDBRANCH  15  20
ENDBRANCH  12  13
ENDBRANCH  11  12
ENDBRANCH   4  11
BRANCH   1  23
HETATM   23  N1  UNL     1      16.432   4.356  14.880  1.00  0.00    -0.226 N 
ATOM     24  H1  UNL     1      17.216   4.893  15.253  1.00  0.00     0.177 HD
BRANCH  23  25
HETATM   25  C3  UNL     1      15.097   4.881  15.005  1.00  0.00     0.137 C 
BRANCH  25  26
HETATM   26  C2  UNL     1      14.846   5.279  16.455  1.00  0.00     0.016 C 
HETATM   27  C1  UNL     1      14.384   4.077  17.213  1.00  0.00     0.006 C 
ENDBRANCH  25  26
ENDBRANCH  23  25
ENDBRANCH   1  23
TORSDOF 8
ENDMDL
