MODEL 1
REMARK VINA RESULT: -6.667865736      0.000      0.000
REMARK  9 active torsions:
REMARK  status: ('A' for Active; 'I' for Inactive)
REMARK    1  A    between atoms: N1_1  and  C1_5 
REMARK    2  A    between atoms: C1_5  and  C2_6 
REMARK    3  A    between atoms: C2_6  and  C3_7 
REMARK    4  A    between atoms: C3_7  and  N2_8 
REMARK    5  A    between atoms: N2_8  and  C4_10 
REMARK    6  A    between atoms: C7_17  and  N5_18 
REMARK    7  A    between atoms: N5_18  and  C8_20 
REMARK    8  A    between atoms: C8_20  and  C9_21 
REMARK    9  A    between atoms: C9_21  and  C10_22 
ROOT
HETATM    1  C4  UNL     1      17.315   5.835  10.058  1.00  0.00     0.131 A 
HETATM    2  N3  UNL     1      17.746   7.065  10.395  1.00  0.00    -0.337 N 
ATOM      3  H3  UNL     1      17.822   7.785   9.677  1.00  0.00     0.168 HD
HETATM    4  C5  UNL     1      18.077   7.359  11.656  1.00  0.00     0.182 A 
HETATM    5  N4  UNL     1      17.979   6.415  12.608  1.00  0.00    -0.347 N 
ATOM      6  H4  UNL     1      18.234   6.649  13.568  1.00  0.00     0.167 HD
HETATM    7  C6  UNL     1      17.549   5.153  12.327  1.00  0.00     0.108 A 
HETATM    8  C7  UNL     1      17.453   4.187  13.324  1.00  0.00     0.131 A 
HETATM    9  N6  UNL     1      17.027   2.950  13.019  1.00  0.00    -0.337 N 
ATOM     10  H6  UNL     1      16.954   2.234  13.743  1.00  0.00     0.168 HD
HETATM   11  C15 UNL     1      16.698   2.667  11.748  1.00  0.00     0.182 A 
HETATM   12  N7  UNL     1      16.787   3.605  10.763  1.00  0.00    -0.347 N 
ATOM     13  H7  UNL     1      16.527   3.354   9.809  1.00  0.00     0.167 HD
HETATM   14  C16 UNL     1      17.209   4.852  11.023  1.00  0.00     0.108 A 
ENDROOT
BRANCH   1  15
HETATM   15  N2  UNL     1      16.996   5.531   8.866  1.00  0.00    -0.374 N 
ATOM     16  H2  UNL     1      16.509   4.645   8.733  1.00  0.00     0.161 HD
BRANCH  15  17
HETATM   17  C3  UNL     1      17.250   6.307   7.692  1.00  0.00     0.123 C 
BRANCH  17  18
HETATM   18  C2  UNL     1      15.998   6.718   6.965  1.00  0.00     0.047 C 
BRANCH  18  19
HETATM   19  C1  UNL     1      15.072   7.530   7.848  1.00  0.00     0.231 C 
BRANCH  19  20
HETATM   20  N1  UNL     1      13.825   6.851   8.088  1.00  0.00    -0.079 N 
ATOM     21  H13 UNL     1      13.800   5.945   7.619  1.00  0.00     0.274 HD
ATOM     22  H12 UNL     1      13.755   6.533   9.055  1.00  0.00     0.274 HD
ATOM     23  H11 UNL     1      13.023   7.425   7.828  1.00  0.00     0.274 HD
ENDBRANCH  19  20
ENDBRANCH  18  19
ENDBRANCH  17  18
ENDBRANCH  15  17
ENDBRANCH   1  15
BRANCH   8  24
HETATM   24  N5  UNL     1      17.791   4.555  14.508  1.00  0.00    -0.374 N 
ATOM     25  H5  UNL     1      18.553   5.227  14.602  1.00  0.00     0.161 HD
BRANCH  24  26
HETATM   26  C8  UNL     1      17.157   4.074  15.714  1.00  0.00     0.121 C 
BRANCH  26  27
HETATM   27  C9  UNL     1      15.704   4.469  15.653  1.00  0.00     0.024 C 
BRANCH  27  28
HETATM   28  C10 UNL     1      14.810   3.454  16.331  1.00  0.00    -0.013 C 
HETATM   29  C11 UNL     1      15.491   2.104  16.280  1.00  0.00     0.005 C 
HETATM   30  C12 UNL     1      14.829   1.351  17.403  1.00  0.00     0.000 C 
HETATM   31  C13 UNL     1      14.500   2.396  18.431  1.00  0.00     0.000 C 
HETATM   32  C14 UNL     1      14.824   3.740  17.823  1.00  0.00     0.005 C 
ENDBRANCH  27  28
ENDBRANCH  26  27
ENDBRANCH  24  26
ENDBRANCH   8  24
TORSDOF 9
ENDMDL
MODEL 2
REMARK VINA RESULT: -6.636732755      1.406      1.929
REMARK  9 active torsions:
REMARK  status: ('A' for Active; 'I' for Inactive)
REMARK    1  A    between atoms: N1_1  and  C1_5 
REMARK    2  A    between atoms: C1_5  and  C2_6 
REMARK    3  A    between atoms: C2_6  and  C3_7 
REMARK    4  A    between atoms: C3_7  and  N2_8 
REMARK    5  A    between atoms: N2_8  and  C4_10 
REMARK    6  A    between atoms: C7_17  and  N5_18 
REMARK    7  A    between atoms: N5_18  and  C8_20 
REMARK    8  A    between atoms: C8_20  and  C9_21 
REMARK    9  A    between atoms: C9_21  and  C10_22 
ROOT
HETATM    1  C4  UNL     1      16.839   5.483  11.154  1.00  0.00     0.131 A 
HETATM    2  N3  UNL     1      17.044   6.464  12.053  1.00  0.00    -0.337 N 
ATOM      3  H3  UNL     1      17.096   7.432  11.736  1.00  0.00     0.168 HD
HETATM    4  C5  UNL     1      17.179   6.191  13.354  1.00  0.00     0.182 A 
HETATM    5  N4  UNL     1      17.111   4.917  13.778  1.00  0.00    -0.347 N 
ATOM      6  H4  UNL     1      17.216   4.720  14.774  1.00  0.00     0.167 HD
HETATM    7  C6  UNL     1      16.905   3.882  12.916  1.00  0.00     0.108 A 
HETATM    8  C7  UNL     1      16.837   2.570  13.371  1.00  0.00     0.131 A 
HETATM    9  N6  UNL     1      16.635   1.568  12.499  1.00  0.00    -0.337 N 
ATOM     10  H6  UNL     1      16.583   0.602  12.823  1.00  0.00     0.168 HD
HETATM   11  C15 UNL     1      16.500   1.855  11.194  1.00  0.00     0.182 A 
HETATM   12  N7  UNL     1      16.565   3.137  10.737  1.00  0.00    -0.347 N 
ATOM     13  H7  UNL     1      16.457   3.318   9.738  1.00  0.00     0.167 HD
HETATM   14  C16 UNL     1      16.767   4.168  11.572  1.00  0.00     0.108 A 
ENDROOT
BRANCH   1  15
HETATM   15  N2  UNL     1      16.708   5.717   9.911  1.00  0.00    -0.374 N 
ATOM     16  H2  UNL     1      16.934   4.953   9.274  1.00  0.00     0.161 HD
BRANCH  15  17
HETATM   17  C3  UNL     1      16.276   6.944   9.317  1.00  0.00     0.123 C 
BRANCH  17  18
HETATM   18  C2  UNL     1      14.855   7.305   9.660  1.00  0.00     0.047 C 
BRANCH  18  19
HETATM   19  C1  UNL     1      13.937   7.186   8.460  1.00  0.00     0.231 C 
BRANCH  19  20
HETATM   20  N1  UNL     1      14.622   6.653   7.310  1.00  0.00    -0.079 N 
ATOM     21  H13 UNL     1      14.189   6.967   6.442  1.00  0.00     0.274 HD
ATOM     22  H12 UNL     1      15.541   7.080   7.195  1.00  0.00     0.274 HD
ATOM     23  H11 UNL     1      14.688   5.636   7.345  1.00  0.00     0.274 HD
ENDBRANCH  19  20
ENDBRANCH  18  19
ENDBRANCH  17  18
ENDBRANCH  15  17
ENDBRANCH   1  15
BRANCH   8  24
HETATM   24  N5  UNL     1      16.978   2.398  14.637  1.00  0.00    -0.374 N 
ATOM     25  H5  UNL     1      17.259   3.200  15.202  1.00  0.00     0.161 HD
BRANCH  24  26
HETATM   26  C8  UNL     1      16.763   1.137  15.309  1.00  0.00     0.121 C 
BRANCH  26  27
HETATM   27  C9  UNL     1      15.593   1.312  16.243  1.00  0.00     0.024 C 
BRANCH  27  28
HETATM   28  C10 UNL     1      15.646   2.632  16.978  1.00  0.00    -0.013 C 
HETATM   29  C11 UNL     1      14.548   3.526  16.442  1.00  0.00     0.005 C 
HETATM   30  C12 UNL     1      14.343   4.515  17.557  1.00  0.00     0.000 C 
HETATM   31  C13 UNL     1      14.643   3.749  18.815  1.00  0.00     0.000 C 
HETATM   32  C14 UNL     1      15.168   2.396  18.402  1.00  0.00     0.005 C 
ENDBRANCH  27  28
ENDBRANCH  26  27
ENDBRANCH  24  26
ENDBRANCH   8  24
TORSDOF 9
ENDMDL
MODEL 3
REMARK VINA RESULT: -6.586901647      3.112      4.824
REMARK  9 active torsions:
REMARK  status: ('A' for Active; 'I' for Inactive)
REMARK    1  A    between atoms: N1_1  and  C1_5 
REMARK    2  A    between atoms: C1_5  and  C2_6 
REMARK    3  A    between atoms: C2_6  and  C3_7 
REMARK    4  A    between atoms: C3_7  and  N2_8 
REMARK    5  A    between atoms: N2_8  and  C4_10 
REMARK    6  A    between atoms: C7_17  and  N5_18 
REMARK    7  A    between atoms: N5_18  and  C8_20 
REMARK    8  A    between atoms: C8_20  and  C9_21 
REMARK    9  A    between atoms: C9_21  and  C10_22 
ROOT
HETATM    1  C4  UNL     1      20.004   4.263  12.212  1.00  0.00     0.131 A 
HETATM    2  N3  UNL     1      19.294   3.285  11.621  1.00  0.00    -0.337 N 
ATOM      3  H3  UNL     1      19.774   2.595  11.044  1.00  0.00     0.168 HD
HETATM    4  C5  UNL     1      17.969   3.202  11.778  1.00  0.00     0.182 A 
HETATM    5  N4  UNL     1      17.330   4.108  12.538  1.00  0.00    -0.347 N 
ATOM      6  H4  UNL     1      16.318   4.036  12.651  1.00  0.00     0.167 HD
HETATM    7  C6  UNL     1      17.996   5.121  13.162  1.00  0.00     0.108 A 
HETATM    8  C7  UNL     1      17.320   6.050  13.945  1.00  0.00     0.131 A 
HETATM    9  N6  UNL     1      18.001   7.039  14.548  1.00  0.00    -0.337 N 
ATOM     10  H6  UNL     1      17.513   7.726  15.125  1.00  0.00     0.168 HD
HETATM   11  C15 UNL     1      19.332   7.111  14.383  1.00  0.00     0.182 A 
HETATM   12  N7  UNL     1      20.004   6.206  13.619  1.00  0.00    -0.347 N 
ATOM     13  H7  UNL     1      21.016   6.291  13.517  1.00  0.00     0.167 HD
HETATM   14  C16 UNL     1      19.364   5.203  12.997  1.00  0.00     0.108 A 
ENDROOT
BRANCH   1  15
HETATM   15  N2  UNL     1      21.264   4.363  12.078  1.00  0.00    -0.374 N 
ATOM     16  H2  UNL     1      21.833   4.126  12.891  1.00  0.00     0.161 HD
BRANCH  15  17
HETATM   17  C3  UNL     1      21.965   4.776  10.901  1.00  0.00     0.123 C 
BRANCH  17  18
HETATM   18  C2  UNL     1      22.659   6.103  11.055  1.00  0.00     0.047 C 
BRANCH  18  19
HETATM   19  C1  UNL     1      24.160   5.943  11.188  1.00  0.00     0.231 C 
BRANCH  19  20
HETATM   20  N1  UNL     1      24.578   5.930  12.567  1.00  0.00    -0.079 N 
ATOM     21  H13 UNL     1      23.935   6.461  13.154  1.00  0.00     0.274 HD
ATOM     22  H12 UNL     1      24.454   5.008  12.984  1.00  0.00     0.274 HD
ATOM     23  H11 UNL     1      25.537   6.260  12.677  1.00  0.00     0.274 HD
ENDBRANCH  19  20
ENDBRANCH  18  19
ENDBRANCH  17  18
ENDBRANCH  15  17
ENDBRANCH   1  15
BRANCH   8  24
HETATM   24  N5  UNL     1      16.047   5.896  14.041  1.00  0.00    -0.374 N 
ATOM     25  H5  UNL     1      15.487   5.988  13.193  1.00  0.00     0.161 HD
BRANCH  24  26
HETATM   26  C8  UNL     1      15.362   5.600  15.278  1.00  0.00     0.121 C 
BRANCH  26  27
HETATM   27  C9  UNL     1      15.069   4.122  15.295  1.00  0.00     0.024 C 
BRANCH  27  28
HETATM   28  C10 UNL     1      15.546   3.462  16.570  1.00  0.00    -0.013 C 
HETATM   29  C11 UNL     1      14.625   3.875  17.698  1.00  0.00     0.005 C 
HETATM   30  C12 UNL     1      14.834   2.787  18.717  1.00  0.00     0.000 C 
HETATM   31  C13 UNL     1      15.129   1.553  17.913  1.00  0.00     0.000 C 
HETATM   32  C14 UNL     1      15.247   1.976  16.469  1.00  0.00     0.005 C 
ENDBRANCH  27  28
ENDBRANCH  26  27
ENDBRANCH  24  26
ENDBRANCH   8  24
TORSDOF 9
ENDMDL
MODEL 4
REMARK VINA RESULT: -6.558681084      3.069      6.310
REMARK  9 active torsions:
REMARK  status: ('A' for Active; 'I' for Inactive)
REMARK    1  A    between atoms: N1_1  and  C1_5 
REMARK    2  A    between atoms: C1_5  and  C2_6 
REMARK    3  A    between atoms: C2_6  and  C3_7 
REMARK    4  A    between atoms: C3_7  and  N2_8 
REMARK    5  A    between atoms: N2_8  and  C4_10 
REMARK    6  A    between atoms: C7_17  and  N5_18 
REMARK    7  A    between atoms: N5_18  and  C8_20 
REMARK    8  A    between atoms: C8_20  and  C9_21 
REMARK    9  A    between atoms: C9_21  and  C10_22 
ROOT
HETATM    1  C4  UNL     1      16.573   2.636  11.557  1.00  0.00     0.131 A 
HETATM    2  N3  UNL     1      16.692   3.607  10.633  1.00  0.00    -0.337 N 
ATOM      3  H3  UNL     1      16.568   3.379   9.647  1.00  0.00     0.168 HD
HETATM    4  C5  UNL     1      16.968   4.866  10.986  1.00  0.00     0.182 A 
HETATM    5  N4  UNL     1      17.132   5.174  12.284  1.00  0.00    -0.347 N 
ATOM      6  H4  UNL     1      17.343   6.138  12.543  1.00  0.00     0.167 HD
HETATM    7  C6  UNL     1      17.023   4.233  13.265  1.00  0.00     0.108 A 
HETATM    8  C7  UNL     1      17.195   4.568  14.603  1.00  0.00     0.131 A 
HETATM    9  N6  UNL     1      17.084   3.621  15.550  1.00  0.00    -0.337 N 
ATOM     10  H6  UNL     1      17.209   3.856  16.535  1.00  0.00     0.168 HD
HETATM   11  C15 UNL     1      16.805   2.359  15.183  1.00  0.00     0.182 A 
HETATM   12  N7  UNL     1      16.634   2.020  13.874  1.00  0.00    -0.347 N 
ATOM     13  H7  UNL     1      16.423   1.052  13.632  1.00  0.00     0.167 HD
HETATM   14  C16 UNL     1      16.738   2.934  12.897  1.00  0.00     0.108 A 
ENDROOT
BRANCH   1  15
HETATM   15  N2  UNL     1      16.311   1.431  11.247  1.00  0.00    -0.374 N 
ATOM     16  H2  UNL     1      15.485   1.016  11.676  1.00  0.00     0.161 HD
BRANCH  15  17
HETATM   17  C3  UNL     1      17.059   0.600  10.355  1.00  0.00     0.123 C 
BRANCH  17  18
HETATM   18  C2  UNL     1      18.223  -0.089  11.016  1.00  0.00     0.047 C 
BRANCH  18  19
HETATM   19  C1  UNL     1      17.788  -1.322  11.783  1.00  0.00     0.231 C 
BRANCH  19  20
HETATM   20  N1  UNL     1      18.571  -2.478  11.429  1.00  0.00    -0.079 N 
ATOM     21  H13 UNL     1      19.551  -2.234  11.291  1.00  0.00     0.274 HD
ATOM     22  H12 UNL     1      18.673  -3.114  12.220  1.00  0.00     0.274 HD
ATOM     23  H11 UNL     1      18.191  -2.960  10.614  1.00  0.00     0.274 HD
ENDBRANCH  19  20
ENDBRANCH  18  19
ENDBRANCH  17  18
ENDBRANCH  15  17
ENDBRANCH   1  15
BRANCH   8  24
HETATM   24  N5  UNL     1      17.459   5.801  14.853  1.00  0.00    -0.374 N 
ATOM     25  H5  UNL     1      16.693   6.403  15.156  1.00  0.00     0.161 HD
BRANCH  24  26
HETATM   26  C8  UNL     1      18.775   6.385  14.732  1.00  0.00     0.121 C 
BRANCH  26  27
HETATM   27  C9  UNL     1      18.601   7.876  14.597  1.00  0.00     0.024 C 
BRANCH  27  28
HETATM   28  C10 UNL     1      19.912   8.617  14.735  1.00  0.00    -0.013 C 
HETATM   29  C11 UNL     1      20.062   9.552  13.554  1.00  0.00     0.005 C 
HETATM   30  C12 UNL     1      21.046  10.574  14.057  1.00  0.00     0.000 C 
HETATM   31  C13 UNL     1      20.782  10.674  15.533  1.00  0.00     0.000 C 
HETATM   32  C14 UNL     1      19.776   9.604  15.882  1.00  0.00     0.005 C 
ENDBRANCH  27  28
ENDBRANCH  26  27
ENDBRANCH  24  26
ENDBRANCH   8  24
TORSDOF 9
ENDMDL
MODEL 5
REMARK VINA RESULT: -6.504214016      2.982      4.067
REMARK  9 active torsions:
REMARK  status: ('A' for Active; 'I' for Inactive)
REMARK    1  A    between atoms: N1_1  and  C1_5 
REMARK    2  A    between atoms: C1_5  and  C2_6 
REMARK    3  A    between atoms: C2_6  and  C3_7 
REMARK    4  A    between atoms: C3_7  and  N2_8 
REMARK    5  A    between atoms: N2_8  and  C4_10 
REMARK    6  A    between atoms: C7_17  and  N5_18 
REMARK    7  A    between atoms: N5_18  and  C8_20 
REMARK    8  A    between atoms: C8_20  and  C9_21 
REMARK    9  A    between atoms: C9_21  and  C10_22 
ROOT
HETATM    1  C4  UNL     1      20.218   4.397  10.853  1.00  0.00     0.131 A 
HETATM    2  N3  UNL     1      20.082   5.655  11.311  1.00  0.00    -0.337 N 
ATOM      3  H3  UNL     1      20.766   6.363  11.043  1.00  0.00     0.168 HD
HETATM    4  C5  UNL     1      19.067   5.993  12.112  1.00  0.00     0.182 A 
HETATM    5  N4  UNL     1      18.163   5.066  12.469  1.00  0.00    -0.347 N 
ATOM      6  H4  UNL     1      17.392   5.334  13.081  1.00  0.00     0.167 HD
HETATM    7  C6  UNL     1      18.247   3.776  12.037  1.00  0.00     0.108 A 
HETATM    8  C7  UNL     1      17.303   2.828  12.415  1.00  0.00     0.131 A 
HETATM    9  N6  UNL     1      17.410   1.563  11.975  1.00  0.00    -0.337 N 
ATOM     10  H6  UNL     1      16.722   0.860  12.248  1.00  0.00     0.168 HD
HETATM   11  C15 UNL     1      18.434   1.236  11.171  1.00  0.00     0.182 A 
HETATM   12  N7  UNL     1      19.365   2.156  10.793  1.00  0.00    -0.347 N 
ATOM     13  H7  UNL     1      20.130   1.872  10.180  1.00  0.00     0.167 HD
HETATM   14  C16 UNL     1      19.297   3.430  11.210  1.00  0.00     0.108 A 
ENDROOT
BRANCH   1  15
HETATM   15  N2  UNL     1      21.175   4.051  10.091  1.00  0.00    -0.374 N 
ATOM     16  H2  UNL     1      21.364   3.051  10.017  1.00  0.00     0.161 HD
BRANCH  15  17
HETATM   17  C3  UNL     1      22.013   4.922   9.328  1.00  0.00     0.123 C 
BRANCH  17  18
HETATM   18  C2  UNL     1      23.454   4.895   9.762  1.00  0.00     0.047 C 
BRANCH  18  19
HETATM   19  C1  UNL     1      23.791   6.055  10.677  1.00  0.00     0.231 C 
BRANCH  19  20
HETATM   20  N1  UNL     1      23.748   5.674  12.065  1.00  0.00    -0.079 N 
ATOM     21  H13 UNL     1      23.118   4.886  12.214  1.00  0.00     0.274 HD
ATOM     22  H12 UNL     1      24.622   5.239  12.358  1.00  0.00     0.274 HD
ATOM     23  H11 UNL     1      23.506   6.461  12.668  1.00  0.00     0.274 HD
ENDBRANCH  19  20
ENDBRANCH  18  19
ENDBRANCH  17  18
ENDBRANCH  15  17
ENDBRANCH   1  15
BRANCH   8  24
HETATM   24  N5  UNL     1      16.360   3.239  13.187  1.00  0.00    -0.374 N 
ATOM     25  H5  UNL     1      15.535   3.655  12.756  1.00  0.00     0.161 HD
BRANCH  24  26
HETATM   26  C8  UNL     1      16.400   3.147  14.629  1.00  0.00     0.121 C 
BRANCH  26  27
HETATM   27  C9  UNL     1      15.160   3.817  15.162  1.00  0.00     0.024 C 
BRANCH  27  28
HETATM   28  C10 UNL     1      14.554   3.053  16.319  1.00  0.00    -0.013 C 
HETATM   29  C11 UNL     1      15.361   1.792  16.538  1.00  0.00     0.005 C 
HETATM   30  C12 UNL     1      15.044   1.433  17.965  1.00  0.00     0.000 C 
HETATM   31  C13 UNL     1      14.821   2.749  18.656  1.00  0.00     0.000 C 
HETATM   32  C14 UNL     1      14.851   3.823  17.596  1.00  0.00     0.005 C 
ENDBRANCH  27  28
ENDBRANCH  26  27
ENDBRANCH  24  26
ENDBRANCH   8  24
TORSDOF 9
ENDMDL
