MODEL 1
REMARK VINA RESULT: -6.663448621      0.000      0.000
REMARK  8 active torsions:
REMARK  status: ('A' for Active; 'I' for Inactive)
REMARK    1  A    between atoms: N1_1  and  C1_5 
REMARK    2  A    between atoms: C1_5  and  C2_6 
REMARK    3  A    between atoms: C2_6  and  C3_7 
REMARK    4  A    between atoms: C3_7  and  N2_8 
REMARK    5  A    between atoms: C6_11  and  C7_12 
REMARK    6  A    between atoms: C7_12  and  N3_13 
REMARK    7  A    between atoms: N3_13  and  C8_15 
REMARK    8  A    between atoms: C11_21  and  C12_22 
ROOT
HETATM    1  C8  UNL     1      19.601   5.132  13.030  1.00  0.00     0.682 A 
HETATM    2  N4  UNL     1      20.735   5.557  12.491  1.00  0.00    -0.199 N 
ATOM      3  H4  UNL     1      21.261   6.290  12.966  1.00  0.00     0.183 HD
HETATM    4  C9  UNL     1      21.212   5.059  11.346  1.00  0.00     0.150 A 
HETATM    5  C10 UNL     1      20.515   4.060  10.673  1.00  0.00     0.157 A 
HETATM    6  F1  UNL     1      20.954   3.559   9.505  1.00  0.00    -0.203 F 
HETATM    7  C11 UNL     1      19.325   3.622  11.243  1.00  0.00     0.097 A 
HETATM    8  N6  UNL     1      18.906   4.155  12.386  1.00  0.00    -0.190 N 
ATOM      9  H6  UNL     1      18.033   3.821  12.794  1.00  0.00     0.184 HD
ENDROOT
BRANCH   1  10
HETATM   10  N3  UNL     1      19.148   5.685  14.103  1.00  0.00    -0.205 N 
ATOM     11  H3  UNL     1      19.786   5.754  14.896  1.00  0.00     0.183 HD
BRANCH  10  12
HETATM   12  C7  UNL     1      17.877   6.193  14.273  1.00  0.00     0.083 C 
BRANCH  12  13
HETATM   13  C6  UNL     1      16.950   5.913  15.380  1.00  0.00     0.028 C 
HETATM   14  C5  UNL     1      15.504   6.106  15.233  1.00  0.00     0.040 C 
HETATM   15  C4  UNL     1      14.783   4.993  16.037  1.00  0.00     0.273 C 
HETATM   16  N2  UNL     1      14.962   3.707  15.352  1.00  0.00     0.088 N 
HETATM   17  C17 UNL     1      16.302   3.556  14.916  1.00  0.00     0.273 C 
HETATM   18  C16 UNL     1      17.177   4.437  15.773  1.00  0.00     0.040 C 
BRANCH  16  19
HETATM   19  C3  UNL     1      14.485   2.596  16.117  1.00  0.00     0.274 C 
BRANCH  19  20
HETATM   20  C2  UNL     1      14.393   2.935  17.565  1.00  0.00     0.057 C 
BRANCH  20  21
HETATM   21  C1  UNL     1      15.210   1.968  18.433  1.00  0.00     0.231 C 
BRANCH  21  22
HETATM   22  N1  UNL     1      15.366   0.730  17.745  1.00  0.00    -0.079 N 
ATOM     23  H13 UNL     1      14.812  -0.016  18.166  1.00  0.00     0.274 HD
ATOM     24  H12 UNL     1      14.923   0.740  16.826  1.00  0.00     0.274 HD
ATOM     25  H11 UNL     1      16.357   0.493  17.693  1.00  0.00     0.274 HD
ENDBRANCH  21  22
ENDBRANCH  20  21
ENDBRANCH  19  20
ENDBRANCH  16  19
ENDBRANCH  12  13
ENDBRANCH  10  12
ENDBRANCH   1  10
BRANCH   7  26
HETATM   26  C12 UNL     1      18.626   2.512  10.511  1.00  0.00     0.239 C 
HETATM   27  C13 UNL     1      17.203   2.500  11.050  1.00  0.00     0.041 C 
HETATM   28  C14 UNL     1      16.842   1.070  11.289  1.00  0.00     0.030 C 
HETATM   29  C15 UNL     1      18.188   0.353  11.338  1.00  0.00     0.233 C 
HETATM   30  N5  UNL     1      19.219   1.293  11.039  1.00  0.00    -0.065 N 
ATOM     31  H52 UNL     1      19.925   0.905  10.414  1.00  0.00     0.278 HD
ATOM     32  H51 UNL     1      19.820   1.473  11.843  1.00  0.00     0.278 HD
ENDBRANCH   7  26
TORSDOF 8
ENDMDL
MODEL 2
REMARK VINA RESULT: -6.653700623      2.521      6.207
REMARK  8 active torsions:
REMARK  status: ('A' for Active; 'I' for Inactive)
REMARK    1  A    between atoms: N1_1  and  C1_5 
REMARK    2  A    between atoms: C1_5  and  C2_6 
REMARK    3  A    between atoms: C2_6  and  C3_7 
REMARK    4  A    between atoms: C3_7  and  N2_8 
REMARK    5  A    between atoms: C6_11  and  C7_12 
REMARK    6  A    between atoms: C7_12  and  N3_13 
REMARK    7  A    between atoms: N3_13  and  C8_15 
REMARK    8  A    between atoms: C11_21  and  C12_22 
ROOT
HETATM    1  C8  UNL     1      17.802   5.001  14.327  1.00  0.00     0.682 A 
HETATM    2  N4  UNL     1      17.467   6.267  14.527  1.00  0.00    -0.199 N 
ATOM      3  H4  UNL     1      18.066   7.001  14.148  1.00  0.00     0.183 HD
HETATM    4  C9  UNL     1      16.372   6.617  15.210  1.00  0.00     0.150 A 
HETATM    5  C10 UNL     1      15.537   5.639  15.742  1.00  0.00     0.157 A 
HETATM    6  F1  UNL     1      14.444   5.958  16.457  1.00  0.00    -0.203 F 
HETATM    7  C11 UNL     1      15.897   4.312  15.529  1.00  0.00     0.097 A 
HETATM    8  N6  UNL     1      16.996   4.030  14.839  1.00  0.00    -0.190 N 
ATOM      9  H6  UNL     1      17.246   3.053  14.689  1.00  0.00     0.184 HD
ENDROOT
BRANCH   1  10
HETATM   10  N3  UNL     1      18.900   4.712  13.716  1.00  0.00    -0.205 N 
ATOM     11  H3  UNL     1      19.626   4.247  14.261  1.00  0.00     0.183 HD
BRANCH  10  12
HETATM   12  C7  UNL     1      19.180   4.975  12.392  1.00  0.00     0.083 C 
BRANCH  12  13
HETATM   13  C6  UNL     1      19.246   4.005  11.288  1.00  0.00     0.028 C 
HETATM   14  C5  UNL     1      20.077   2.800  11.378  1.00  0.00     0.040 C 
HETATM   15  C4  UNL     1      19.337   1.646  10.655  1.00  0.00     0.273 C 
HETATM   16  N2  UNL     1      18.175   1.240  11.455  1.00  0.00     0.088 N 
HETATM   17  C17 UNL     1      17.480   2.376  11.939  1.00  0.00     0.273 C 
HETATM   18  C16 UNL     1      17.795   3.541  11.032  1.00  0.00     0.040 C 
BRANCH  16  19
HETATM   19  C3  UNL     1      17.329   0.305  10.777  1.00  0.00     0.274 C 
BRANCH  19  20
HETATM   20  C2  UNL     1      17.267  -0.995  11.504  1.00  0.00     0.057 C 
BRANCH  20  21
HETATM   21  C1  UNL     1      18.606  -1.742  11.455  1.00  0.00     0.231 C 
BRANCH  21  22
HETATM   22  N1  UNL     1      18.367  -3.147  11.467  1.00  0.00    -0.079 N 
ATOM     23  H13 UNL     1      17.503  -3.386  11.954  1.00  0.00     0.274 HD
ATOM     24  H12 UNL     1      18.116  -3.503  10.544  1.00  0.00     0.274 HD
ATOM     25  H11 UNL     1      19.177  -3.626  11.859  1.00  0.00     0.274 HD
ENDBRANCH  21  22
ENDBRANCH  20  21
ENDBRANCH  19  20
ENDBRANCH  16  19
ENDBRANCH  12  13
ENDBRANCH  10  12
ENDBRANCH   1  10
BRANCH   7  26
HETATM   26  C12 UNL     1      14.947   3.288  16.079  1.00  0.00     0.239 C 
HETATM   27  C13 UNL     1      14.911   3.529  17.581  1.00  0.00     0.041 C 
HETATM   28  C14 UNL     1      14.984   2.190  18.238  1.00  0.00     0.030 C 
HETATM   29  C15 UNL     1      15.532   1.274  17.147  1.00  0.00     0.233 C 
HETATM   30  N5  UNL     1      15.651   2.021  15.938  1.00  0.00    -0.065 N 
ATOM     31  H52 UNL     1      15.334   1.493  15.126  1.00  0.00     0.278 HD
ATOM     32  H51 UNL     1      16.623   2.150  15.659  1.00  0.00     0.278 HD
ENDBRANCH   7  26
TORSDOF 8
ENDMDL
MODEL 3
REMARK VINA RESULT: -6.345665450      2.617      7.439
REMARK  8 active torsions:
REMARK  status: ('A' for Active; 'I' for Inactive)
REMARK    1  A    between atoms: N1_1  and  C1_5 
REMARK    2  A    between atoms: C1_5  and  C2_6 
REMARK    3  A    between atoms: C2_6  and  C3_7 
REMARK    4  A    between atoms: C3_7  and  N2_8 
REMARK    5  A    between atoms: C6_11  and  C7_12 
REMARK    6  A    between atoms: C7_12  and  N3_13 
REMARK    7  A    between atoms: N3_13  and  C8_15 
REMARK    8  A    between atoms: C11_21  and  C12_22 
ROOT
HETATM    1  C8  UNL     1      17.169   3.612  13.299  1.00  0.00     0.682 A 
HETATM    2  N4  UNL     1      16.948   4.876  12.966  1.00  0.00    -0.199 N 
ATOM      3  H4  UNL     1      17.274   5.210  12.059  1.00  0.00     0.183 HD
HETATM    4  C9  UNL     1      16.312   5.727  13.777  1.00  0.00     0.150 A 
HETATM    5  C10 UNL     1      15.858   5.301  15.022  1.00  0.00     0.157 A 
HETATM    6  F1  UNL     1      15.241   6.140  15.872  1.00  0.00    -0.203 F 
HETATM    7  C11 UNL     1      16.097   3.975  15.365  1.00  0.00     0.097 A 
HETATM    8  N6  UNL     1      16.731   3.177  14.513  1.00  0.00    -0.190 N 
ATOM      9  H6  UNL     1      16.896   2.206  14.777  1.00  0.00     0.184 HD
ENDROOT
BRANCH   1  10
HETATM   10  N3  UNL     1      17.841   2.844  12.511  1.00  0.00    -0.205 N 
ATOM     11  H3  UNL     1      18.034   1.897  12.837  1.00  0.00     0.183 HD
BRANCH  10  12
HETATM   12  C7  UNL     1      18.323   3.190  11.266  1.00  0.00     0.083 C 
BRANCH  12  13
HETATM   13  C6  UNL     1      19.732   3.275  10.850  1.00  0.00     0.028 C 
HETATM   14  C5  UNL     1      20.122   3.946   9.606  1.00  0.00     0.040 C 
HETATM   15  C4  UNL     1      21.477   4.661   9.846  1.00  0.00     0.273 C 
HETATM   16  N2  UNL     1      21.265   5.816  10.728  1.00  0.00     0.088 N 
HETATM   17  C17 UNL     1      20.408   5.473  11.804  1.00  0.00     0.273 C 
HETATM   18  C16 UNL     1      20.481   3.978  12.004  1.00  0.00     0.040 C 
BRANCH  16  19
HETATM   19  C3  UNL     1      22.488   6.428  11.151  1.00  0.00     0.274 C 
BRANCH  19  20
HETATM   20  C2  UNL     1      23.662   5.565  10.837  1.00  0.00     0.057 C 
BRANCH  20  21
HETATM   21  C1  UNL     1      24.963   6.137  11.415  1.00  0.00     0.231 C 
BRANCH  21  22
HETATM   22  N1  UNL     1      25.018   5.872  12.814  1.00  0.00    -0.079 N 
ATOM     23  H13 UNL     1      24.163   6.154  13.293  1.00  0.00     0.274 HD
ATOM     24  H12 UNL     1      24.978   4.873  13.020  1.00  0.00     0.274 HD
ATOM     25  H11 UNL     1      25.847   6.315  13.211  1.00  0.00     0.274 HD
ENDBRANCH  21  22
ENDBRANCH  20  21
ENDBRANCH  19  20
ENDBRANCH  16  19
ENDBRANCH  12  13
ENDBRANCH  10  12
ENDBRANCH   1  10
BRANCH   7  26
HETATM   26  C12 UNL     1      15.552   3.542  16.695  1.00  0.00     0.239 C 
HETATM   27  C13 UNL     1      16.187   2.189  16.977  1.00  0.00     0.041 C 
HETATM   28  C14 UNL     1      15.105   1.300  17.495  1.00  0.00     0.030 C 
HETATM   29  C15 UNL     1      13.818   1.993  17.057  1.00  0.00     0.233 C 
HETATM   30  N5  UNL     1      14.153   3.233  16.437  1.00  0.00    -0.065 N 
ATOM     31  H52 UNL     1      13.532   3.989  16.725  1.00  0.00     0.278 HD
ATOM     32  H51 UNL     1      13.936   3.237  15.441  1.00  0.00     0.278 HD
ENDBRANCH   7  26
TORSDOF 8
ENDMDL
MODEL 4
REMARK VINA RESULT: -6.310782256      1.665      3.111
REMARK  8 active torsions:
REMARK  status: ('A' for Active; 'I' for Inactive)
REMARK    1  A    between atoms: N1_1  and  C1_5 
REMARK    2  A    between atoms: C1_5  and  C2_6 
REMARK    3  A    between atoms: C2_6  and  C3_7 
REMARK    4  A    between atoms: C3_7  and  N2_8 
REMARK    5  A    between atoms: C6_11  and  C7_12 
REMARK    6  A    between atoms: C7_12  and  N3_13 
REMARK    7  A    between atoms: N3_13  and  C8_15 
REMARK    8  A    between atoms: C11_21  and  C12_22 
ROOT
HETATM    1  C8  UNL     1      17.380   4.681  11.501  1.00  0.00     0.682 A 
HETATM    2  N4  UNL     1      16.836   3.485  11.673  1.00  0.00    -0.199 N 
ATOM      3  H4  UNL     1      15.878   3.425  12.016  1.00  0.00     0.183 HD
HETATM    4  C9  UNL     1      17.500   2.354  11.411  1.00  0.00     0.150 A 
HETATM    5  C10 UNL     1      18.809   2.404  10.943  1.00  0.00     0.157 A 
HETATM    6  F1  UNL     1      19.513   1.284  10.698  1.00  0.00    -0.203 F 
HETATM    7  C11 UNL     1      19.374   3.662  10.769  1.00  0.00     0.097 A 
HETATM    8  N6  UNL     1      18.661   4.749  11.044  1.00  0.00    -0.190 N 
ATOM      9  H6  UNL     1      19.088   5.665  10.908  1.00  0.00     0.184 HD
ENDROOT
BRANCH   1  10
HETATM   10  N3  UNL     1      16.724   5.743  11.826  1.00  0.00    -0.205 N 
ATOM     11  H3  UNL     1      15.971   6.033  11.203  1.00  0.00     0.183 HD
BRANCH  10  12
HETATM   12  C7  UNL     1      16.952   6.520  12.942  1.00  0.00     0.083 C 
BRANCH  12  13
HETATM   13  C6  UNL     1      16.293   6.407  14.253  1.00  0.00     0.028 C 
HETATM   14  C5  UNL     1      15.007   5.720  14.405  1.00  0.00     0.040 C 
HETATM   15  C4  UNL     1      15.009   4.984  15.769  1.00  0.00     0.273 C 
HETATM   16  N2  UNL     1      15.927   3.840  15.699  1.00  0.00     0.088 N 
HETATM   17  C17 UNL     1      17.134   4.206  15.054  1.00  0.00     0.273 C 
HETATM   18  C16 UNL     1      17.302   5.700  15.185  1.00  0.00     0.040 C 
BRANCH  16  19
HETATM   19  C3  UNL     1      16.131   3.210  16.968  1.00  0.00     0.274 C 
BRANCH  19  20
HETATM   20  C2  UNL     1      14.865   3.150  17.753  1.00  0.00     0.057 C 
BRANCH  20  21
HETATM   21  C1  UNL     1      14.188   1.778  17.644  1.00  0.00     0.231 C 
BRANCH  21  22
HETATM   22  N1  UNL     1      15.178   0.755  17.691  1.00  0.00    -0.079 N 
ATOM     23  H13 UNL     1      16.096   1.093  17.401  1.00  0.00     0.274 HD
ATOM     24  H12 UNL     1      15.416   0.491  18.648  1.00  0.00     0.274 HD
ATOM     25  H11 UNL     1      14.868  -0.044  17.138  1.00  0.00     0.274 HD
ENDBRANCH  21  22
ENDBRANCH  20  21
ENDBRANCH  19  20
ENDBRANCH  16  19
ENDBRANCH  12  13
ENDBRANCH  10  12
ENDBRANCH   1  10
BRANCH   7  26
HETATM   26  C12 UNL     1      20.772   3.674  10.220  1.00  0.00     0.239 C 
HETATM   27  C13 UNL     1      21.535   4.683  11.066  1.00  0.00     0.041 C 
HETATM   28  C14 UNL     1      22.349   5.510  10.126  1.00  0.00     0.030 C 
HETATM   29  C15 UNL     1      21.688   5.284   8.770  1.00  0.00     0.233 C 
HETATM   30  N5  UNL     1      20.651   4.317   8.920  1.00  0.00    -0.065 N 
ATOM     31  H52 UNL     1      20.639   3.642   8.156  1.00  0.00     0.278 HD
ATOM     32  H51 UNL     1      19.725   4.719   8.773  1.00  0.00     0.278 HD
ENDBRANCH   7  26
TORSDOF 8
ENDMDL
MODEL 5
REMARK VINA RESULT: -6.233743284      1.969      4.191
REMARK  8 active torsions:
REMARK  status: ('A' for Active; 'I' for Inactive)
REMARK    1  A    between atoms: N1_1  and  C1_5 
REMARK    2  A    between atoms: C1_5  and  C2_6 
REMARK    3  A    between atoms: C2_6  and  C3_7 
REMARK    4  A    between atoms: C3_7  and  N2_8 
REMARK    5  A    between atoms: C6_11  and  C7_12 
REMARK    6  A    between atoms: C7_12  and  N3_13 
REMARK    7  A    between atoms: N3_13  and  C8_15 
REMARK    8  A    between atoms: C11_21  and  C12_22 
ROOT
HETATM    1  C8  UNL     1      20.343   5.058  12.594  1.00  0.00     0.682 A 
HETATM    2  N4  UNL     1      20.097   4.185  11.627  1.00  0.00    -0.199 N 
ATOM      3  H4  UNL     1      19.265   3.600  11.693  1.00  0.00     0.183 HD
HETATM    4  C9  UNL     1      20.903   4.046  10.569  1.00  0.00     0.150 A 
HETATM    5  C10 UNL     1      22.047   4.829  10.454  1.00  0.00     0.157 A 
HETATM    6  F1  UNL     1      22.892   4.693   9.416  1.00  0.00    -0.203 F 
HETATM    7  C11 UNL     1      22.300   5.740  11.473  1.00  0.00     0.097 A 
HETATM    8  N6  UNL     1      21.458   5.833  12.497  1.00  0.00    -0.190 N 
ATOM      9  H6  UNL     1      21.655   6.508  13.236  1.00  0.00     0.184 HD
ENDROOT
BRANCH   1  10
HETATM   10  N3  UNL     1      19.572   5.113  13.626  1.00  0.00    -0.205 N 
ATOM     11  H3  UNL     1      19.931   4.721  14.496  1.00  0.00     0.183 HD
BRANCH  10  12
HETATM   12  C7  UNL     1      18.305   5.656  13.657  1.00  0.00     0.083 C 
BRANCH  12  13
HETATM   13  C6  UNL     1      17.388   5.708  14.806  1.00  0.00     0.028 C 
HETATM   14  C5  UNL     1      15.974   6.058  14.641  1.00  0.00     0.040 C 
HETATM   15  C4  UNL     1      15.146   5.216  15.645  1.00  0.00     0.273 C 
HETATM   16  N2  UNL     1      15.137   3.814  15.209  1.00  0.00     0.088 N 
HETATM   17  C17 UNL     1      16.431   3.411  14.795  1.00  0.00     0.273 C 
HETATM   18  C16 UNL     1      17.440   4.312  15.465  1.00  0.00     0.040 C 
BRANCH  16  19
HETATM   19  C3  UNL     1      14.550   2.933  16.172  1.00  0.00     0.274 C 
BRANCH  19  20
HETATM   20  C2  UNL     1      14.692   3.470  17.555  1.00  0.00     0.057 C 
BRANCH  20  21
HETATM   21  C1  UNL     1      15.083   2.375  18.557  1.00  0.00     0.231 C 
BRANCH  21  22
HETATM   22  N1  UNL     1      15.246   1.138  17.868  1.00  0.00    -0.079 N 
ATOM     23  H13 UNL     1      15.725   1.255  16.975  1.00  0.00     0.274 HD
ATOM     24  H12 UNL     1      15.930   0.531  18.322  1.00  0.00     0.274 HD
ATOM     25  H11 UNL     1      14.338   0.686  17.763  1.00  0.00     0.274 HD
ENDBRANCH  21  22
ENDBRANCH  20  21
ENDBRANCH  19  20
ENDBRANCH  16  19
ENDBRANCH  12  13
ENDBRANCH  10  12
ENDBRANCH   1  10
BRANCH   7  26
HETATM   26  C12 UNL     1      23.519   6.596  11.289  1.00  0.00     0.239 C 
HETATM   27  C13 UNL     1      24.573   6.012  12.217  1.00  0.00     0.041 C 
HETATM   28  C14 UNL     1      25.233   7.163  12.904  1.00  0.00     0.030 C 
HETATM   29  C15 UNL     1      24.248   8.314  12.723  1.00  0.00     0.233 C 
HETATM   30  N5  UNL     1      23.169   7.869  11.902  1.00  0.00    -0.065 N 
ATOM     31  H52 UNL     1      22.898   8.568  11.211  1.00  0.00     0.278 HD
ATOM     32  H51 UNL     1      22.289   7.822  12.414  1.00  0.00     0.278 HD
ENDBRANCH   7  26
TORSDOF 8
ENDMDL
