MODEL 1
REMARK VINA RESULT: -6.169854129      0.000      0.000
REMARK  2 active torsions:
REMARK  status: ('A' for Active; 'I' for Inactive)
REMARK    1  A    between atoms: C1_2  and  N1_3 
REMARK    2  A    between atoms: N1_3  and  C2_5 
ROOT
HETATM    1  C2  UNL     1      -6.144   3.177  15.075  1.00  0.00     0.088 C 
HETATM    2  C3  UNL     1      -6.328   4.617  14.842  1.00  0.00     0.030 C 
HETATM    3  C4  UNL     1      -5.315   5.368  14.070  1.00  0.00    -0.012 C 
HETATM    4  C5  UNL     1      -3.988   5.528  14.770  1.00  0.00     0.009 C 
HETATM    5  C6  UNL     1      -3.067   4.359  14.539  1.00  0.00    -0.013 C 
HETATM    6  C7  UNL     1      -2.902   4.015  13.089  1.00  0.00     0.009 C 
HETATM    7  C8  UNL     1      -4.246   3.736  12.493  1.00  0.00    -0.013 C 
HETATM    8  C9  UNL     1      -5.128   4.927  12.649  1.00  0.00     0.009 C 
HETATM    9  C10 UNL     1      -4.803   2.495  13.140  1.00  0.00     0.011 C 
HETATM   10  C11 UNL     1      -4.834   2.581  14.640  1.00  0.00     0.009 C 
HETATM   11  C12 UNL     1      -3.627   3.183  15.261  1.00  0.00     0.011 C 
ENDROOT
BRANCH   1  12
HETATM   12  N1  UNL     1      -6.379   2.838  16.452  1.00  0.00    -0.363 N 
ATOM     13  H1  UNL     1      -5.936   3.384  17.192  1.00  0.00     0.162 HD
BRANCH  12  14
HETATM   14  C1  UNL     1      -7.217   1.757  16.783  1.00  0.00     0.348 C 
HETATM   15  O1  UNL     1      -6.852   0.548  16.740  1.00  0.00    -0.284 OA
ENDBRANCH  12  14
ENDBRANCH   1  12
TORSDOF 2
ENDMDL
MODEL 2
REMARK VINA RESULT: -6.127376742      1.770      2.252
REMARK  2 active torsions:
REMARK  status: ('A' for Active; 'I' for Inactive)
REMARK    1  A    between atoms: C1_2  and  N1_3 
REMARK    2  A    between atoms: N1_3  and  C2_5 
ROOT
HETATM    1  C2  UNL     1      -4.710   2.665  13.357  1.00  0.00     0.088 C 
HETATM    2  C3  UNL     1      -5.701   3.319  14.224  1.00  0.00     0.030 C 
HETATM    3  C4  UNL     1      -5.688   4.791  14.368  1.00  0.00    -0.012 C 
HETATM    4  C5  UNL     1      -4.497   5.335  15.116  1.00  0.00     0.009 C 
HETATM    5  C6  UNL     1      -3.310   5.572  14.220  1.00  0.00    -0.013 C 
HETATM    6  C7  UNL     1      -3.638   6.392  13.009  1.00  0.00     0.009 C 
HETATM    7  C8  UNL     1      -4.735   5.721  12.243  1.00  0.00    -0.013 C 
HETATM    8  C9  UNL     1      -5.937   5.566  13.109  1.00  0.00     0.009 C 
HETATM    9  C10 UNL     1      -4.211   4.412  11.712  1.00  0.00     0.011 C 
HETATM   10  C11 UNL     1      -3.627   3.538  12.785  1.00  0.00     0.009 C 
HETATM   11  C12 UNL     1      -2.789   4.245  13.787  1.00  0.00     0.011 C 
ENDROOT
BRANCH   1  12
HETATM   12  N1  UNL     1      -4.106   1.538  14.015  1.00  0.00    -0.363 N 
ATOM     13  H1  UNL     1      -3.403   0.983  13.528  1.00  0.00     0.162 HD
BRANCH  12  14
HETATM   14  C1  UNL     1      -4.481   1.200  15.328  1.00  0.00     0.348 C 
HETATM   15  O1  UNL     1      -3.688   0.704  16.178  1.00  0.00    -0.284 OA
ENDBRANCH  12  14
ENDBRANCH   1  12
TORSDOF 2
ENDMDL
MODEL 3
REMARK VINA RESULT: -5.757409505      1.063      2.368
REMARK  2 active torsions:
REMARK  status: ('A' for Active; 'I' for Inactive)
REMARK    1  A    between atoms: C1_2  and  N1_3 
REMARK    2  A    between atoms: N1_3  and  C2_5 
ROOT
HETATM    1  C2  UNL     1      -4.836   2.985  15.288  1.00  0.00     0.088 C 
HETATM    2  C3  UNL     1      -3.440   3.448  15.312  1.00  0.00     0.030 C 
HETATM    3  C4  UNL     1      -2.956   4.364  14.256  1.00  0.00    -0.012 C 
HETATM    4  C5  UNL     1      -2.852   3.740  12.887  1.00  0.00     0.009 C 
HETATM    5  C6  UNL     1      -4.148   3.801  12.123  1.00  0.00    -0.013 C 
HETATM    6  C7  UNL     1      -4.739   5.178  12.072  1.00  0.00     0.009 C 
HETATM    7  C8  UNL     1      -4.941   5.679  13.468  1.00  0.00    -0.013 C 
HETATM    8  C9  UNL     1      -3.640   5.697  14.194  1.00  0.00     0.009 C 
HETATM    9  C10 UNL     1      -5.983   4.819  14.135  1.00  0.00     0.011 C 
HETATM   10  C11 UNL     1      -5.653   3.354  14.081  1.00  0.00     0.009 C 
HETATM   11  C12 UNL     1      -5.114   2.877  12.781  1.00  0.00     0.011 C 
ENDROOT
BRANCH   1  12
HETATM   12  N1  UNL     1      -4.916   1.564  15.492  1.00  0.00    -0.363 N 
ATOM     13  H1  UNL     1      -4.578   0.927  14.771  1.00  0.00     0.162 HD
BRANCH  12  14
HETATM   14  C1  UNL     1      -5.459   1.049  16.684  1.00  0.00     0.348 C 
HETATM   15  O1  UNL     1      -5.448  -0.178  16.987  1.00  0.00    -0.284 OA
ENDBRANCH  12  14
ENDBRANCH   1  12
TORSDOF 2
ENDMDL
MODEL 4
REMARK VINA RESULT: -5.741066211      1.074      2.562
REMARK  2 active torsions:
REMARK  status: ('A' for Active; 'I' for Inactive)
REMARK    1  A    between atoms: C1_2  and  N1_3 
REMARK    2  A    between atoms: N1_3  and  C2_5 
ROOT
HETATM    1  C2  UNL     1      -5.512   2.857  16.166  1.00  0.00     0.088 C 
HETATM    2  C3  UNL     1      -4.167   2.437  15.745  1.00  0.00     0.030 C 
HETATM    3  C4  UNL     1      -3.514   3.115  14.603  1.00  0.00    -0.012 C 
HETATM    4  C5  UNL     1      -4.151   2.838  13.265  1.00  0.00     0.009 C 
HETATM    5  C6  UNL     1      -5.291   3.774  12.962  1.00  0.00    -0.013 C 
HETATM    6  C7  UNL     1      -4.928   5.219  13.126  1.00  0.00     0.009 C 
HETATM    7  C8  UNL     1      -4.432   5.447  14.520  1.00  0.00    -0.013 C 
HETATM    8  C9  UNL     1      -3.251   4.579  14.786  1.00  0.00     0.009 C 
HETATM    9  C10 UNL     1      -5.573   5.208  15.474  1.00  0.00     0.011 C 
HETATM   10  C11 UNL     1      -6.214   3.861  15.293  1.00  0.00     0.009 C 
HETATM   11  C12 UNL     1      -6.414   3.443  13.882  1.00  0.00     0.011 C 
ENDROOT
BRANCH   1  12
HETATM   12  N1  UNL     1      -6.374   1.724  16.363  1.00  0.00    -0.363 N 
ATOM     13  H1  UNL     1      -7.121   1.531  15.696  1.00  0.00     0.162 HD
BRANCH  12  14
HETATM   14  C1  UNL     1      -6.190   0.878  17.472  1.00  0.00     0.348 C 
HETATM   15  O1  UNL     1      -5.643  -0.259  17.404  1.00  0.00    -0.284 OA
ENDBRANCH  12  14
ENDBRANCH   1  12
TORSDOF 2
ENDMDL
MODEL 5
REMARK VINA RESULT: -5.691946392      1.827      2.836
REMARK  2 active torsions:
REMARK  status: ('A' for Active; 'I' for Inactive)
REMARK    1  A    between atoms: C1_2  and  N1_3 
REMARK    2  A    between atoms: N1_3  and  C2_5 
ROOT
HETATM    1  C2  UNL     1      -4.329   3.273  14.340  1.00  0.00     0.088 C 
HETATM    2  C3  UNL     1      -3.110   3.826  14.950  1.00  0.00     0.030 C 
HETATM    3  C4  UNL     1      -2.383   4.920  14.269  1.00  0.00    -0.012 C 
HETATM    4  C5  UNL     1      -1.702   4.514  12.986  1.00  0.00     0.009 C 
HETATM    5  C6  UNL     1      -2.618   4.595  11.794  1.00  0.00    -0.013 C 
HETATM    6  C7  UNL     1      -3.311   5.919  11.670  1.00  0.00     0.009 C 
HETATM    7  C8  UNL     1      -4.077   6.192  12.926  1.00  0.00    -0.013 C 
HETATM    8  C9  UNL     1      -3.152   6.195  14.094  1.00  0.00     0.009 C 
HETATM    9  C10 UNL     1      -5.179   5.171  13.042  1.00  0.00     0.011 C 
HETATM   10  C11 UNL     1      -4.676   3.758  12.959  1.00  0.00     0.009 C 
HETATM   11  C12 UNL     1      -3.639   3.518  11.924  1.00  0.00     0.011 C 
ENDROOT
BRANCH   1  12
HETATM   12  N1  UNL     1      -4.305   1.836  14.340  1.00  0.00    -0.363 N 
ATOM     13  H1  UNL     1      -4.103   1.331  13.477  1.00  0.00     0.162 HD
BRANCH  12  14
HETATM   14  C1  UNL     1      -4.559   1.124  15.527  1.00  0.00     0.348 C 
HETATM   15  O1  UNL     1      -3.664   0.532  16.195  1.00  0.00    -0.284 OA
ENDBRANCH  12  14
ENDBRANCH   1  12
TORSDOF 2
ENDMDL
