MODEL 1
REMARK VINA RESULT: -6.251400325      0.000      0.000
REMARK  2 active torsions:
REMARK  status: ('A' for Active; 'I' for Inactive)
REMARK    1  A    between atoms: C8_8  and  N1_9 
REMARK    2  A    between atoms: N1_9  and  C9_11 
ROOT
HETATM    1  C1  UNL     1      -5.048   5.236  12.680  1.00  0.00     0.009 C 
HETATM    2  C2  UNL     1      -4.352   3.908  12.479  1.00  0.00    -0.012 C 
HETATM    3  C3  UNL     1      -2.921   3.985  12.938  1.00  0.00     0.009 C 
HETATM    4  C4  UNL     1      -2.920   4.422  14.375  1.00  0.00    -0.012 C 
HETATM    5  C5  UNL     1      -3.643   5.727  14.602  1.00  0.00     0.009 C 
HETATM    6  C6  UNL     1      -5.068   5.543  14.148  1.00  0.00    -0.012 C 
HETATM    7  C7  UNL     1      -5.786   4.455  14.913  1.00  0.00     0.035 C 
HETATM    8  C8  UNL     1      -5.054   3.145  14.721  1.00  0.00     0.027 C 
HETATM    9  C12 UNL     1      -5.065   2.839  13.252  1.00  0.00     0.035 C 
HETATM   10  C13 UNL     1      -3.620   3.374  15.192  1.00  0.00     0.035 C 
ENDROOT
BRANCH   8  11
HETATM   11  N1  UNL     1      -5.566   2.092  15.545  1.00  0.00    -0.408 N 
ATOM     12  H1  UNL     1      -5.325   1.113  15.392  1.00  0.00     0.154 HD
BRANCH  11  13
HETATM   13  C9  UNL     1      -6.442   2.512  16.600  1.00  0.00     0.077 A 
HETATM   14  C10 UNL     1      -7.420   1.419  17.028  1.00  0.00     0.027 A 
HETATM   15  C11 UNL     1      -6.299   1.805  17.948  1.00  0.00     0.027 A 
ENDBRANCH  11  13
ENDBRANCH   8  11
TORSDOF 2
ENDMDL
MODEL 2
REMARK VINA RESULT: -6.137153718      0.284      2.066
REMARK  2 active torsions:
REMARK  status: ('A' for Active; 'I' for Inactive)
REMARK    1  A    between atoms: C8_8  and  N1_9 
REMARK    2  A    between atoms: N1_9  and  C9_11 
ROOT
HETATM    1  C1  UNL     1      -2.761   4.051  13.031  1.00  0.00     0.009 C 
HETATM    2  C2  UNL     1      -2.940   4.448  14.480  1.00  0.00    -0.012 C 
HETATM    3  C3  UNL     1      -3.855   5.637  14.593  1.00  0.00     0.009 C 
HETATM    4  C4  UNL     1      -5.155   5.286  13.930  1.00  0.00    -0.012 C 
HETATM    5  C5  UNL     1      -4.994   4.849  12.495  1.00  0.00     0.009 C 
HETATM    6  C6  UNL     1      -4.096   3.639  12.484  1.00  0.00    -0.012 C 
HETATM    7  C7  UNL     1      -4.667   2.486  13.277  1.00  0.00     0.035 C 
HETATM    8  C8  UNL     1      -4.865   2.918  14.713  1.00  0.00     0.027 C 
HETATM    9  C12 UNL     1      -3.518   3.301  15.253  1.00  0.00     0.035 C 
HETATM   10  C13 UNL     1      -5.777   4.141  14.679  1.00  0.00     0.035 C 
ENDROOT
BRANCH   8  11
HETATM   11  N1  UNL     1      -5.558   1.944  15.500  1.00  0.00    -0.408 N 
ATOM     12  H1  UNL     1      -5.457   0.941  15.342  1.00  0.00     0.154 HD
BRANCH  11  13
HETATM   13  C9  UNL     1      -6.406   2.476  16.527  1.00  0.00     0.077 A 
HETATM   14  C10 UNL     1      -7.445   1.470  17.019  1.00  0.00     0.027 A 
HETATM   15  C11 UNL     1      -6.301   1.845  17.915  1.00  0.00     0.027 A 
ENDBRANCH  11  13
ENDBRANCH   8  11
TORSDOF 2
ENDMDL
MODEL 3
REMARK VINA RESULT: -6.039825682      0.098      1.966
REMARK  2 active torsions:
REMARK  status: ('A' for Active; 'I' for Inactive)
REMARK    1  A    between atoms: C8_8  and  N1_9 
REMARK    2  A    between atoms: N1_9  and  C9_11 
ROOT
HETATM    1  C1  UNL     1      -3.580   5.746  14.548  1.00  0.00     0.009 C 
HETATM    2  C2  UNL     1      -5.023   5.599  14.121  1.00  0.00    -0.012 C 
HETATM    3  C3  UNL     1      -5.109   5.197  12.674  1.00  0.00     0.009 C 
HETATM    4  C4  UNL     1      -4.327   3.927  12.500  1.00  0.00    -0.012 C 
HETATM    5  C5  UNL     1      -2.894   4.042  12.956  1.00  0.00     0.009 C 
HETATM    6  C6  UNL     1      -2.908   4.411  14.418  1.00  0.00    -0.012 C 
HETATM    7  C7  UNL     1      -3.604   3.376  15.271  1.00  0.00     0.035 C 
HETATM    8  C8  UNL     1      -5.036   3.225  14.805  1.00  0.00     0.027 C 
HETATM    9  C12 UNL     1      -5.700   4.562  14.967  1.00  0.00     0.035 C 
HETATM   10  C13 UNL     1      -4.975   2.852  13.326  1.00  0.00     0.035 C 
ENDROOT
BRANCH   8  11
HETATM   11  N1  UNL     1      -5.723   2.147  15.446  1.00  0.00    -0.408 N 
ATOM     12  H1  UNL     1      -5.664   1.185  15.111  1.00  0.00     0.154 HD
BRANCH  11  13
HETATM   13  C9  UNL     1      -6.500   2.512  16.595  1.00  0.00     0.077 A 
HETATM   14  C10 UNL     1      -7.427   1.392  17.065  1.00  0.00     0.027 A 
HETATM   15  C11 UNL     1      -6.227   1.752  17.893  1.00  0.00     0.027 A 
ENDBRANCH  11  13
ENDBRANCH   8  11
TORSDOF 2
ENDMDL
MODEL 4
REMARK VINA RESULT: -5.464062447      1.251      1.409
REMARK  2 active torsions:
REMARK  status: ('A' for Active; 'I' for Inactive)
REMARK    1  A    between atoms: C8_8  and  N1_9 
REMARK    2  A    between atoms: N1_9  and  C9_11 
ROOT
HETATM    1  C1  UNL     1      -4.332   5.149  11.633  1.00  0.00     0.009 C 
HETATM    2  C2  UNL     1      -3.609   3.851  11.921  1.00  0.00    -0.012 C 
HETATM    3  C3  UNL     1      -2.320   4.114  12.651  1.00  0.00     0.009 C 
HETATM    4  C4  UNL     1      -2.646   4.879  13.901  1.00  0.00    -0.012 C 
HETATM    5  C5  UNL     1      -3.401   6.158  13.639  1.00  0.00     0.009 C 
HETATM    6  C6  UNL     1      -4.686   5.794  12.941  1.00  0.00    -0.012 C 
HETATM    7  C7  UNL     1      -5.559   4.881  13.770  1.00  0.00     0.035 C 
HETATM    8  C8  UNL     1      -4.802   3.605  14.070  1.00  0.00     0.027 C 
HETATM    9  C12 UNL     1      -4.480   2.959  12.754  1.00  0.00     0.035 C 
HETATM   10  C13 UNL     1      -3.514   4.018  14.775  1.00  0.00     0.035 C 
ENDROOT
BRANCH   8  11
HETATM   11  N1  UNL     1      -5.488   2.751  14.991  1.00  0.00    -0.408 N 
ATOM     12  H1  UNL     1      -6.498   2.613  14.959  1.00  0.00     0.154 HD
BRANCH  11  13
HETATM   13  C9  UNL     1      -4.655   2.105  15.963  1.00  0.00     0.077 A 
HETATM   14  C10 UNL     1      -5.423   1.113  16.836  1.00  0.00     0.027 A 
HETATM   15  C11 UNL     1      -4.452   0.597  15.814  1.00  0.00     0.027 A 
ENDBRANCH  11  13
ENDBRANCH   8  11
TORSDOF 2
ENDMDL
MODEL 5
REMARK VINA RESULT: -5.352327707      1.257      2.234
REMARK  2 active torsions:
REMARK  status: ('A' for Active; 'I' for Inactive)
REMARK    1  A    between atoms: C8_8  and  N1_9 
REMARK    2  A    between atoms: N1_9  and  C9_11 
ROOT
HETATM    1  C1  UNL     1      -3.257   6.097  13.588  1.00  0.00     0.009 C 
HETATM    2  C2  UNL     1      -4.599   5.759  12.976  1.00  0.00    -0.012 C 
HETATM    3  C3  UNL     1      -4.419   5.013  11.682  1.00  0.00     0.009 C 
HETATM    4  C4  UNL     1      -3.593   3.791  11.965  1.00  0.00    -0.012 C 
HETATM    5  C5  UNL     1      -2.266   4.104  12.610  1.00  0.00     0.009 C 
HETATM    6  C6  UNL     1      -2.546   4.815  13.909  1.00  0.00    -0.012 C 
HETATM    7  C7  UNL     1      -3.362   3.976  14.866  1.00  0.00     0.035 C 
HETATM    8  C8  UNL     1      -4.685   3.627  14.220  1.00  0.00     0.027 C 
HETATM    9  C12 UNL     1      -5.393   4.918  13.930  1.00  0.00     0.035 C 
HETATM   10  C13 UNL     1      -4.356   2.910  12.914  1.00  0.00     0.035 C 
ENDROOT
BRANCH   8  11
HETATM   11  N1  UNL     1      -5.453   2.695  14.988  1.00  0.00    -0.408 N 
ATOM     12  H1  UNL     1      -6.432   2.497  14.786  1.00  0.00     0.154 HD
BRANCH  11  13
HETATM   13  C9  UNL     1      -4.747   2.057  16.061  1.00  0.00     0.077 A 
HETATM   14  C10 UNL     1      -5.585   0.997  16.774  1.00  0.00     0.027 A 
HETATM   15  C11 UNL     1      -4.438   0.568  15.906  1.00  0.00     0.027 A 
ENDBRANCH  11  13
ENDBRANCH   8  11
TORSDOF 2
ENDMDL
