MODEL 1
REMARK VINA RESULT: -6.363362857      0.000      0.000
REMARK  1 active torsions:
REMARK  status: ('A' for Active; 'I' for Inactive)
REMARK    1  A    between atoms: C2_2  and  C3_3 
ROOT
HETATM    1  C3  UNL     1      -5.801   1.752  16.007  1.00  0.00     0.012 A 
HETATM    2  C4  UNL     1      -4.505   1.628  15.200  1.00  0.00     0.014 A 
HETATM    3  C5  UNL     1      -4.232   3.082  15.365  1.00  0.00     0.002 A 
HETATM    4  C6  UNL     1      -5.543   3.246  16.048  1.00  0.00     0.002 A 
HETATM    5  C7  UNL     1      -6.522   4.091  15.296  1.00  0.00    -0.009 C 
HETATM    6  C8  UNL     1      -5.820   5.425  15.005  1.00  0.00     0.010 C 
HETATM    7  C9  UNL     1      -5.248   4.706  13.775  1.00  0.00    -0.003 C 
HETATM    8  C10 UNL     1      -6.495   3.850  13.810  1.00  0.00     0.010 C 
HETATM    9  C11 UNL     1      -4.013   3.914  14.171  1.00  0.00    -0.007 C 
HETATM   10  C12 UNL     1      -2.952   4.993  14.444  1.00  0.00     0.039 C 
HETATM   11  C13 UNL     1      -1.712   4.310  13.898  1.00  0.00     0.233 C 
HETATM   12  N1  UNL     1      -2.219   3.833  12.613  1.00  0.00    -0.074 N 
ATOM     13  H11 UNL     1      -1.575   3.232  12.099  1.00  0.00     0.277 HD
ATOM     14  H12 UNL     1      -2.289   4.550  11.892  1.00  0.00     0.277 HD
HETATM   15  C14 UNL     1      -3.484   3.205  12.971  1.00  0.00     0.242 C 
ENDROOT
BRANCH   1  16
HETATM   16  C2  UNL     1      -5.713   1.089  17.356  1.00  0.00    -0.032 C 
HETATM   17  C1  UNL     1      -6.169   1.677  18.450  1.00  0.00     0.007 C 
ENDBRANCH   1  16
TORSDOF 1
ENDMDL
MODEL 2
REMARK VINA RESULT: -6.029453517      1.089      1.231
REMARK  1 active torsions:
REMARK  status: ('A' for Active; 'I' for Inactive)
REMARK    1  A    between atoms: C2_2  and  C3_3 
ROOT
HETATM    1  C3  UNL     1      -5.438   2.188  15.408  1.00  0.00     0.012 A 
HETATM    2  C4  UNL     1      -4.637   1.886  14.139  1.00  0.00     0.014 A 
HETATM    3  C5  UNL     1      -3.820   3.115  14.329  1.00  0.00     0.002 A 
HETATM    4  C6  UNL     1      -4.664   3.489  15.496  1.00  0.00     0.002 A 
HETATM    5  C7  UNL     1      -5.468   4.734  15.295  1.00  0.00    -0.009 C 
HETATM    6  C8  UNL     1      -4.478   5.835  14.886  1.00  0.00     0.010 C 
HETATM    7  C9  UNL     1      -4.664   5.291  13.462  1.00  0.00    -0.003 C 
HETATM    8  C10 UNL     1      -6.041   4.852  13.908  1.00  0.00     0.010 C 
HETATM    9  C11 UNL     1      -3.741   4.104  13.241  1.00  0.00    -0.007 C 
HETATM   10  C12 UNL     1      -2.339   4.731  13.174  1.00  0.00     0.039 C 
HETATM   11  C13 UNL     1      -1.697   3.864  12.106  1.00  0.00     0.233 C 
HETATM   12  N1  UNL     1      -2.749   3.872  11.093  1.00  0.00    -0.074 N 
ATOM     13  H11 UNL     1      -2.584   3.248  10.304  1.00  0.00     0.277 HD
ATOM     14  H12 UNL     1      -2.800   4.727  10.540  1.00  0.00     0.277 HD
HETATM   15  C14 UNL     1      -3.950   3.574  11.863  1.00  0.00     0.242 C 
ENDROOT
BRANCH   1  16
HETATM   16  C2  UNL     1      -5.137   1.231  16.530  1.00  0.00    -0.032 C 
HETATM   17  C1  UNL     1      -5.987   1.039  17.526  1.00  0.00     0.007 C 
ENDBRANCH   1  16
TORSDOF 1
ENDMDL
MODEL 3
REMARK VINA RESULT: -5.968892497      2.270      4.321
REMARK  1 active torsions:
REMARK  status: ('A' for Active; 'I' for Inactive)
REMARK    1  A    between atoms: C2_2  and  C3_3 
ROOT
HETATM    1  C3  UNL     1      -4.123   2.439  12.182  1.00  0.00     0.012 A 
HETATM    2  C4  UNL     1      -4.478   1.484  13.325  1.00  0.00     0.014 A 
HETATM    3  C5  UNL     1      -5.381   2.500  13.929  1.00  0.00     0.002 A 
HETATM    4  C6  UNL     1      -4.959   3.483  12.895  1.00  0.00     0.002 A 
HETATM    5  C7  UNL     1      -4.204   4.655  13.438  1.00  0.00    -0.009 C 
HETATM    6  C8  UNL     1      -5.081   5.272  14.538  1.00  0.00     0.010 C 
HETATM    7  C9  UNL     1      -4.437   4.224  15.457  1.00  0.00    -0.003 C 
HETATM    8  C10 UNL     1      -3.240   4.283  14.533  1.00  0.00     0.010 C 
HETATM    9  C11 UNL     1      -5.179   2.903  15.330  1.00  0.00    -0.007 C 
HETATM   10  C12 UNL     1      -6.526   3.166  16.023  1.00  0.00     0.039 C 
HETATM   11  C13 UNL     1      -6.759   1.826  16.696  1.00  0.00     0.233 C 
HETATM   12  N1  UNL     1      -5.449   1.605  17.303  1.00  0.00    -0.074 N 
ATOM     13  H11 UNL     1      -5.328   0.687  17.731  1.00  0.00     0.277 HD
ATOM     14  H12 UNL     1      -5.279   2.139  18.154  1.00  0.00     0.277 HD
HETATM   15  C14 UNL     1      -4.528   1.892  16.211  1.00  0.00     0.242 C 
ENDROOT
BRANCH   1  16
HETATM   16  C2  UNL     1      -4.699   2.006  10.860  1.00  0.00    -0.032 C 
HETATM   17  C1  UNL     1      -5.069   0.755  10.641  1.00  0.00     0.007 C 
ENDBRANCH   1  16
TORSDOF 1
ENDMDL
MODEL 4
REMARK VINA RESULT: -5.899338976      2.033      4.644
REMARK  1 active torsions:
REMARK  status: ('A' for Active; 'I' for Inactive)
REMARK    1  A    between atoms: C2_2  and  C3_3 
ROOT
HETATM    1  C3  UNL     1      -3.108   6.277  13.845  1.00  0.00     0.012 A 
HETATM    2  C4  UNL     1      -4.104   5.851  14.928  1.00  0.00     0.014 A 
HETATM    3  C5  UNL     1      -3.713   4.424  14.765  1.00  0.00     0.002 A 
HETATM    4  C6  UNL     1      -2.829   4.802  13.630  1.00  0.00     0.002 A 
HETATM    5  C7  UNL     1      -3.259   4.249  12.309  1.00  0.00    -0.009 C 
HETATM    6  C8  UNL     1      -3.396   2.730  12.491  1.00  0.00     0.010 C 
HETATM    7  C9  UNL     1      -4.809   3.050  13.002  1.00  0.00    -0.003 C 
HETATM    8  C10 UNL     1      -4.752   4.274  12.115  1.00  0.00     0.010 C 
HETATM    9  C11 UNL     1      -4.750   3.422  14.475  1.00  0.00    -0.007 C 
HETATM   10  C12 UNL     1      -4.438   2.093  15.181  1.00  0.00     0.039 C 
HETATM   11  C13 UNL     1      -5.276   2.241  16.438  1.00  0.00     0.233 C 
HETATM   12  N1  UNL     1      -6.540   2.692  15.859  1.00  0.00    -0.074 N 
ATOM     13  H11 UNL     1      -7.245   2.970  16.542  1.00  0.00     0.277 HD
ATOM     14  H12 UNL     1      -7.097   1.954  15.429  1.00  0.00     0.277 HD
HETATM   15  C14 UNL     1      -6.125   3.751  14.948  1.00  0.00     0.242 C 
ENDROOT
BRANCH   1  16
HETATM   16  C2  UNL     1      -1.934   7.038  14.400  1.00  0.00    -0.032 C 
HETATM   17  C1  UNL     1      -2.089   8.189  15.032  1.00  0.00     0.007 C 
ENDBRANCH   1  16
TORSDOF 1
ENDMDL
MODEL 5
REMARK VINA RESULT: -5.735773488      1.910      4.065
REMARK  1 active torsions:
REMARK  status: ('A' for Active; 'I' for Inactive)
REMARK    1  A    between atoms: C2_2  and  C3_3 
ROOT
HETATM    1  C3  UNL     1      -3.319   5.923  14.830  1.00  0.00     0.012 A 
HETATM    2  C4  UNL     1      -2.825   4.474  14.774  1.00  0.00     0.014 A 
HETATM    3  C5  UNL     1      -3.904   4.114  13.815  1.00  0.00     0.002 A 
HETATM    4  C6  UNL     1      -4.471   5.483  13.947  1.00  0.00     0.002 A 
HETATM    5  C7  UNL     1      -5.825   5.526  14.581  1.00  0.00    -0.009 C 
HETATM    6  C8  UNL     1      -6.720   4.574  13.773  1.00  0.00     0.010 C 
HETATM    7  C9  UNL     1      -6.149   3.476  14.682  1.00  0.00    -0.003 C 
HETATM    8  C10 UNL     1      -5.973   4.558  15.725  1.00  0.00     0.010 C 
HETATM    9  C11 UNL     1      -4.812   3.001  14.136  1.00  0.00    -0.007 C 
HETATM   10  C12 UNL     1      -5.186   2.218  12.867  1.00  0.00     0.039 C 
HETATM   11  C13 UNL     1      -4.173   1.089  12.927  1.00  0.00     0.233 C 
HETATM   12  N1  UNL     1      -4.313   0.684  14.324  1.00  0.00    -0.074 N 
ATOM     13  H11 UNL     1      -3.634  -0.009  14.636  1.00  0.00     0.277 HD
ATOM     14  H12 UNL     1      -5.138   0.117  14.521  1.00  0.00     0.277 HD
HETATM   15  C14 UNL     1      -4.262   1.952  15.041  1.00  0.00     0.242 C 
ENDROOT
BRANCH   1  16
HETATM   16  C2  UNL     1      -2.378   6.886  14.157  1.00  0.00    -0.032 C 
HETATM   17  C1  UNL     1      -2.043   8.036  14.720  1.00  0.00     0.007 C 
ENDBRANCH   1  16
TORSDOF 1
ENDMDL
