MODEL 1
REMARK VINA RESULT: -7.195227722      0.000      0.000
REMARK  2 active torsions:
REMARK  status: ('A' for Active; 'I' for Inactive)
REMARK       I    between atoms: C1_2  and  N1_3 
REMARK    1  A    between atoms: C1_2  and  C11_14 
REMARK    2  A    between atoms: N1_3  and  C2_5 
ROOT
HETATM    1  C2  UNL     1      -4.485   3.636  14.650  1.00  0.00     0.037 C 
HETATM    2  C3  UNL     1      -4.549   3.010  13.270  1.00  0.00     0.036 C 
HETATM    3  C4  UNL     1      -4.271   4.263  12.425  1.00  0.00    -0.011 C 
HETATM    4  C5  UNL     1      -2.939   4.865  12.741  1.00  0.00     0.009 C 
HETATM    5  C6  UNL     1      -2.671   5.018  14.199  1.00  0.00    -0.011 C 
HETATM    6  C7  UNL     1      -3.760   5.930  14.780  1.00  0.00     0.012 C 
HETATM    7  C8  UNL     1      -4.989   5.054  14.500  1.00  0.00     0.014 C 
HETATM    8  C9  UNL     1      -5.343   5.173  13.033  1.00  0.00     0.012 C 
HETATM    9  C10 UNL     1      -3.009   3.742  14.985  1.00  0.00     0.036 C 
ENDROOT
BRANCH   1  10
HETATM   10  N1  UNL     1      -5.254   2.943  15.637  1.00  0.00    -0.351 N 
HETATM   11  C1  UNL     1      -4.829   1.787  16.320  1.00  0.00     0.222 C 
HETATM   12  O1  UNL     1      -3.707   1.293  16.077  1.00  0.00    -0.273 OA
ATOM     13  H1  UNL     1      -6.177   3.314  15.863  1.00  0.00     0.163 HD
BRANCH  11  14
HETATM   14  C11 UNL     1      -5.696   1.148  17.322  1.00  0.00     0.078 A 
HETATM   15  C12 UNL     1      -6.451   1.965  18.300  1.00  0.00     0.015 A 
HETATM   16  C13 UNL     1      -7.188   1.253  17.159  1.00  0.00     0.015 A 
ENDBRANCH  11  14
ENDBRANCH   1  10
TORSDOF 2
ENDMDL
MODEL 2
REMARK VINA RESULT: -6.835827544      0.658      1.405
REMARK  2 active torsions:
REMARK  status: ('A' for Active; 'I' for Inactive)
REMARK       I    between atoms: C1_2  and  N1_3 
REMARK    1  A    between atoms: C1_2  and  C11_14 
REMARK    2  A    between atoms: N1_3  and  C2_5 
ROOT
HETATM    1  C2  UNL     1      -4.820   3.587  14.396  1.00  0.00     0.037 C 
HETATM    2  C3  UNL     1      -5.723   4.559  13.663  1.00  0.00     0.036 C 
HETATM    3  C4  UNL     1      -4.662   5.565  13.192  1.00  0.00    -0.011 C 
HETATM    4  C5  UNL     1      -3.640   4.924  12.307  1.00  0.00     0.009 C 
HETATM    5  C6  UNL     1      -3.099   3.639  12.834  1.00  0.00    -0.011 C 
HETATM    6  C7  UNL     1      -2.444   3.931  14.191  1.00  0.00     0.012 C 
HETATM    7  C8  UNL     1      -3.683   4.406  14.964  1.00  0.00     0.014 C 
HETATM    8  C9  UNL     1      -3.998   5.826  14.547  1.00  0.00     0.012 C 
HETATM    9  C10 UNL     1      -4.213   2.702  13.323  1.00  0.00     0.036 C 
ENDROOT
BRANCH   1  10
HETATM   10  N1  UNL     1      -5.474   2.863  15.442  1.00  0.00    -0.351 N 
HETATM   11  C1  UNL     1      -4.874   1.848  16.213  1.00  0.00     0.222 C 
HETATM   12  O1  UNL     1      -3.686   1.522  16.003  1.00  0.00    -0.273 OA
ATOM     13  H1  UNL     1      -6.446   3.098  15.643  1.00  0.00     0.163 HD
BRANCH  11  14
HETATM   14  C11 UNL     1      -5.634   1.161  17.269  1.00  0.00     0.078 A 
HETATM   15  C12 UNL     1      -6.376   1.936  18.291  1.00  0.00     0.015 A 
HETATM   16  C13 UNL     1      -7.137   1.172  17.201  1.00  0.00     0.015 A 
ENDBRANCH  11  14
ENDBRANCH   1  10
TORSDOF 2
ENDMDL
MODEL 3
REMARK VINA RESULT: -6.504432637      0.928      1.127
REMARK  2 active torsions:
REMARK  status: ('A' for Active; 'I' for Inactive)
REMARK       I    between atoms: C1_2  and  N1_3 
REMARK    1  A    between atoms: C1_2  and  C11_14 
REMARK    2  A    between atoms: N1_3  and  C2_5 
ROOT
HETATM    1  C2  UNL     1      -4.518   4.205  14.199  1.00  0.00     0.037 C 
HETATM    2  C3  UNL     1      -4.656   3.403  12.920  1.00  0.00     0.036 C 
HETATM    3  C4  UNL     1      -3.933   4.358  11.958  1.00  0.00    -0.011 C 
HETATM    4  C5  UNL     1      -2.511   4.585  12.363  1.00  0.00     0.009 C 
HETATM    5  C6  UNL     1      -2.332   4.895  13.809  1.00  0.00    -0.011 C 
HETATM    6  C7  UNL     1      -3.128   6.172  14.114  1.00  0.00     0.012 C 
HETATM    7  C8  UNL     1      -4.541   5.662  13.795  1.00  0.00     0.014 C 
HETATM    8  C9  UNL     1      -4.715   5.631  12.292  1.00  0.00     0.012 C 
HETATM    9  C10 UNL     1      -3.115   3.926  14.708  1.00  0.00     0.036 C 
ENDROOT
BRANCH   1  10
HETATM   10  N1  UNL     1      -5.544   3.945  15.161  1.00  0.00    -0.351 N 
HETATM   11  C1  UNL     1      -5.773   2.698  15.775  1.00  0.00     0.222 C 
HETATM   12  O1  UNL     1      -5.053   1.717  15.487  1.00  0.00    -0.273 OA
ATOM     13  H1  UNL     1      -6.154   4.720  15.422  1.00  0.00     0.163 HD
BRANCH  11  14
HETATM   14  C11 UNL     1      -6.857   2.533  16.755  1.00  0.00     0.078 A 
HETATM   15  C12 UNL     1      -7.319   1.182  17.152  1.00  0.00     0.015 A 
HETATM   16  C13 UNL     1      -6.515   2.042  18.136  1.00  0.00     0.015 A 
ENDBRANCH  11  14
ENDBRANCH   1  10
TORSDOF 2
ENDMDL
MODEL 4
REMARK VINA RESULT: -6.432425116      0.713      1.660
REMARK  2 active torsions:
REMARK  status: ('A' for Active; 'I' for Inactive)
REMARK       I    between atoms: C1_2  and  N1_3 
REMARK    1  A    between atoms: C1_2  and  C11_14 
REMARK    2  A    between atoms: N1_3  and  C2_5 
ROOT
HETATM    1  C2  UNL     1      -4.370   3.969  14.728  1.00  0.00     0.037 C 
HETATM    2  C3  UNL     1      -2.883   3.819  14.985  1.00  0.00     0.036 C 
HETATM    3  C4  UNL     1      -2.358   4.223  13.599  1.00  0.00    -0.011 C 
HETATM    4  C5  UNL     1      -2.757   5.618  13.237  1.00  0.00     0.009 C 
HETATM    5  C6  UNL     1      -4.197   5.920  13.475  1.00  0.00    -0.011 C 
HETATM    6  C7  UNL     1      -5.024   4.947  12.624  1.00  0.00     0.012 C 
HETATM    7  C8  UNL     1      -4.588   3.624  13.272  1.00  0.00     0.014 C 
HETATM    8  C9  UNL     1      -3.210   3.268  12.760  1.00  0.00     0.012 C 
HETATM    9  C10 UNL     1      -4.662   5.452  14.862  1.00  0.00     0.036 C 
ENDROOT
BRANCH   1  10
HETATM   10  N1  UNL     1      -5.189   3.141  15.557  1.00  0.00    -0.351 N 
HETATM   11  C1  UNL     1      -4.761   1.950  16.177  1.00  0.00     0.222 C 
HETATM   12  O1  UNL     1      -3.588   1.548  16.017  1.00  0.00    -0.273 OA
ATOM     13  H1  UNL     1      -6.155   3.434  15.711  1.00  0.00     0.163 HD
BRANCH  11  14
HETATM   14  C11 UNL     1      -5.684   1.168  17.014  1.00  0.00     0.078 A 
HETATM   15  C12 UNL     1      -6.359   1.789  18.177  1.00  0.00     0.015 A 
HETATM   16  C13 UNL     1      -7.160   1.443  16.915  1.00  0.00     0.015 A 
ENDBRANCH  11  14
ENDBRANCH   1  10
TORSDOF 2
ENDMDL
MODEL 5
REMARK VINA RESULT: -6.394386957      1.137      1.149
REMARK  2 active torsions:
REMARK  status: ('A' for Active; 'I' for Inactive)
REMARK       I    between atoms: C1_2  and  N1_3 
REMARK    1  A    between atoms: C1_2  and  C11_14 
REMARK    2  A    between atoms: N1_3  and  C2_5 
ROOT
HETATM    1  C2  UNL     1      -3.871   3.950  14.411  1.00  0.00     0.037 C 
HETATM    2  C3  UNL     1      -4.220   3.490  13.009  1.00  0.00     0.036 C 
HETATM    3  C4  UNL     1      -4.389   4.864  12.341  1.00  0.00    -0.011 C 
HETATM    4  C5  UNL     1      -3.132   5.672  12.404  1.00  0.00     0.009 C 
HETATM    5  C6  UNL     1      -2.494   5.702  13.750  1.00  0.00    -0.011 C 
HETATM    6  C7  UNL     1      -3.506   6.310  14.731  1.00  0.00     0.012 C 
HETATM    7  C8  UNL     1      -4.612   5.249  14.631  1.00  0.00     0.014 C 
HETATM    8  C9  UNL     1      -5.376   5.469  13.343  1.00  0.00     0.012 C 
HETATM    9  C10 UNL     1      -2.395   4.302  14.373  1.00  0.00     0.036 C 
ENDROOT
BRANCH   1  10
HETATM   10  N1  UNL     1      -4.215   3.009  15.432  1.00  0.00    -0.351 N 
HETATM   11  C1  UNL     1      -5.531   2.652  15.786  1.00  0.00     0.222 C 
HETATM   12  O1  UNL     1      -6.501   3.171  15.193  1.00  0.00    -0.273 OA
ATOM     13  H1  UNL     1      -3.451   2.564  15.941  1.00  0.00     0.163 HD
BRANCH  11  14
HETATM   14  C11 UNL     1      -5.779   1.672  16.854  1.00  0.00     0.078 A 
HETATM   15  C12 UNL     1      -6.403   2.087  18.132  1.00  0.00     0.015 A 
HETATM   16  C13 UNL     1      -7.196   1.243  17.126  1.00  0.00     0.015 A 
ENDBRANCH  11  14
ENDBRANCH   1  10
TORSDOF 2
ENDMDL
