MODEL 1
REMARK VINA RESULT: -6.058035154      0.000      0.000
REMARK  2 active torsions:
REMARK  status: ('A' for Active; 'I' for Inactive)
REMARK    1  A    between atoms: C1_2  and  N1_3 
REMARK    2  A    between atoms: N1_3  and  C2_5 
ROOT
HETATM    1  C2  UNL     1      -4.505   2.109  15.119  1.00  0.00     0.033 C 
HETATM    2  C3  UNL     1      -5.834   2.830  15.332  1.00  0.00     0.035 C 
HETATM    3  C4  UNL     1      -6.118   3.900  14.344  1.00  0.00    -0.012 C 
HETATM    4  C5  UNL     1      -5.586   5.252  14.709  1.00  0.00     0.005 C 
HETATM    5  C6  UNL     1      -4.142   5.427  14.724  1.00  0.00     0.005 C 
HETATM    6  C7  UNL     1      -3.290   4.226  14.456  1.00  0.00    -0.012 C 
HETATM    7  C8  UNL     1      -3.362   3.726  13.046  1.00  0.00     0.009 C 
HETATM    8  C9  UNL     1      -4.498   2.791  12.790  1.00  0.00    -0.012 C 
HETATM    9  C10 UNL     1      -5.779   3.539  12.917  1.00  0.00     0.009 C 
HETATM   10  C11 UNL     1      -4.463   1.592  13.716  1.00  0.00     0.035 C 
HETATM   11  C12 UNL     1      -3.447   3.122  15.452  1.00  0.00     0.035 C 
ENDROOT
BRANCH   1  12
HETATM   12  N1  UNL     1      -4.448   1.023  16.041  1.00  0.00    -0.359 N 
ATOM     13  H1  UNL     1      -3.667   0.369  15.987  1.00  0.00     0.162 HD
BRANCH  12  14
HETATM   14  C1  UNL     1      -5.436   0.825  17.020  1.00  0.00     0.349 C 
HETATM   15  O1  UNL     1      -5.736  -0.291  17.536  1.00  0.00    -0.284 OA
ENDBRANCH  12  14
ENDBRANCH   1  12
TORSDOF 2
ENDMDL
MODEL 2
REMARK VINA RESULT: -5.949761254      1.490      2.770
REMARK  2 active torsions:
REMARK  status: ('A' for Active; 'I' for Inactive)
REMARK    1  A    between atoms: C1_2  and  N1_3 
REMARK    2  A    between atoms: N1_3  and  C2_5 
ROOT
HETATM    1  C2  UNL     1      -4.513   3.152  14.181  1.00  0.00     0.033 C 
HETATM    2  C3  UNL     1      -3.337   3.755  14.946  1.00  0.00     0.035 C 
HETATM    3  C4  UNL     1      -2.751   4.965  14.319  1.00  0.00    -0.012 C 
HETATM    4  C5  UNL     1      -1.669   4.696  13.319  1.00  0.00     0.005 C 
HETATM    5  C6  UNL     1      -2.047   4.040  12.077  1.00  0.00     0.005 C 
HETATM    6  C7  UNL     1      -3.470   3.606  11.922  1.00  0.00    -0.012 C 
HETATM    7  C8  UNL     1      -4.445   4.736  11.791  1.00  0.00     0.009 C 
HETATM    8  C9  UNL     1      -4.912   5.287  13.098  1.00  0.00    -0.012 C 
HETATM    9  C10 UNL     1      -3.767   5.947  13.784  1.00  0.00     0.009 C 
HETATM   10  C11 UNL     1      -5.540   4.219  13.971  1.00  0.00     0.035 C 
HETATM   11  C12 UNL     1      -3.920   2.589  12.922  1.00  0.00     0.035 C 
ENDROOT
BRANCH   1  12
HETATM   12  N1  UNL     1      -5.057   2.103  14.977  1.00  0.00    -0.359 N 
ATOM     13  H1  UNL     1      -5.959   1.703  14.720  1.00  0.00     0.162 HD
BRANCH  12  14
HETATM   14  C1  UNL     1      -4.387   1.601  16.107  1.00  0.00     0.349 C 
HETATM   15  O1  UNL     1      -3.687   0.547  16.129  1.00  0.00    -0.284 OA
ENDBRANCH  12  14
ENDBRANCH   1  12
TORSDOF 2
ENDMDL
MODEL 3
REMARK VINA RESULT: -5.935621368      1.475      2.755
REMARK  2 active torsions:
REMARK  status: ('A' for Active; 'I' for Inactive)
REMARK    1  A    between atoms: C1_2  and  N1_3 
REMARK    2  A    between atoms: N1_3  and  C2_5 
ROOT
HETATM    1  C2  UNL     1      -4.456   3.181  14.142  1.00  0.00     0.033 C 
HETATM    2  C3  UNL     1      -3.256   3.975  14.654  1.00  0.00     0.035 C 
HETATM    3  C4  UNL     1      -3.498   5.431  14.799  1.00  0.00    -0.012 C 
HETATM    4  C5  UNL     1      -3.222   6.241  13.571  1.00  0.00     0.005 C 
HETATM    5  C6  UNL     1      -4.096   6.047  12.424  1.00  0.00     0.005 C 
HETATM    6  C7  UNL     1      -5.155   4.995  12.524  1.00  0.00    -0.012 C 
HETATM    7  C8  UNL     1      -6.252   5.319  13.490  1.00  0.00     0.009 C 
HETATM    8  C9  UNL     1      -5.950   4.937  14.902  1.00  0.00    -0.012 C 
HETATM    9  C10 UNL     1      -4.835   5.785  15.406  1.00  0.00     0.009 C 
HETATM   10  C11 UNL     1      -5.626   3.462  15.031  1.00  0.00     0.035 C 
HETATM   11  C12 UNL     1      -4.631   3.607  12.713  1.00  0.00     0.035 C 
ENDROOT
BRANCH   1  12
HETATM   12  N1  UNL     1      -4.119   1.798  14.202  1.00  0.00    -0.359 N 
ATOM     13  H1  UNL     1      -3.612   1.378  13.424  1.00  0.00     0.162 HD
BRANCH  12  14
HETATM   14  C1  UNL     1      -4.464   0.994  15.302  1.00  0.00     0.349 C 
HETATM   15  O1  UNL     1      -3.662   0.608  16.202  1.00  0.00    -0.284 OA
ENDBRANCH  12  14
ENDBRANCH   1  12
TORSDOF 2
ENDMDL
MODEL 4
REMARK VINA RESULT: -5.894060241      0.432      2.319
REMARK  2 active torsions:
REMARK  status: ('A' for Active; 'I' for Inactive)
REMARK    1  A    between atoms: C1_2  and  N1_3 
REMARK    2  A    between atoms: N1_3  and  C2_5 
ROOT
HETATM    1  C2  UNL     1      -4.612   2.256  15.201  1.00  0.00     0.033 C 
HETATM    2  C3  UNL     1      -3.361   3.109  15.404  1.00  0.00     0.035 C 
HETATM    3  C4  UNL     1      -3.368   4.395  14.666  1.00  0.00    -0.012 C 
HETATM    4  C5  UNL     1      -2.820   4.328  13.274  1.00  0.00     0.005 C 
HETATM    5  C6  UNL     1      -3.578   3.573  12.287  1.00  0.00     0.005 C 
HETATM    6  C7  UNL     1      -4.804   2.851  12.751  1.00  0.00    -0.012 C 
HETATM    7  C8  UNL     1      -5.933   3.753  13.144  1.00  0.00     0.009 C 
HETATM    8  C9  UNL     1      -5.864   4.232  14.556  1.00  0.00    -0.012 C 
HETATM    9  C10 UNL     1      -4.686   5.132  14.706  1.00  0.00     0.009 C 
HETATM   10  C11 UNL     1      -5.811   3.083  15.542  1.00  0.00     0.035 C 
HETATM   11  C12 UNL     1      -4.548   1.792  13.775  1.00  0.00     0.035 C 
ENDROOT
BRANCH   1  12
HETATM   12  N1  UNL     1      -4.522   1.140  16.083  1.00  0.00    -0.359 N 
ATOM     13  H1  UNL     1      -3.702   0.536  16.035  1.00  0.00     0.162 HD
BRANCH  12  14
HETATM   14  C1  UNL     1      -5.530   0.845  17.016  1.00  0.00     0.349 C 
HETATM   15  O1  UNL     1      -5.722  -0.288  17.548  1.00  0.00    -0.284 OA
ENDBRANCH  12  14
ENDBRANCH   1  12
TORSDOF 2
ENDMDL
MODEL 5
REMARK VINA RESULT: -5.823634122      1.521      2.840
REMARK  2 active torsions:
REMARK  status: ('A' for Active; 'I' for Inactive)
REMARK    1  A    between atoms: C1_2  and  N1_3 
REMARK    2  A    between atoms: N1_3  and  C2_5 
ROOT
HETATM    1  C2  UNL     1      -4.388   3.202  14.248  1.00  0.00     0.033 C 
HETATM    2  C3  UNL     1      -3.911   2.651  12.906  1.00  0.00     0.035 C 
HETATM    3  C4  UNL     1      -3.105   3.603  12.102  1.00  0.00    -0.012 C 
HETATM    4  C5  UNL     1      -3.899   4.493  11.196  1.00  0.00     0.005 C 
HETATM    5  C6  UNL     1      -4.756   5.492  11.815  1.00  0.00     0.005 C 
HETATM    6  C7  UNL     1      -4.848   5.505  13.308  1.00  0.00    -0.012 C 
HETATM    7  C8  UNL     1      -3.592   5.945  13.995  1.00  0.00     0.009 C 
HETATM    8  C9  UNL     1      -2.604   4.847  14.215  1.00  0.00    -0.012 C 
HETATM    9  C10 UNL     1      -2.088   4.388  12.896  1.00  0.00     0.009 C 
HETATM   10  C11 UNL     1      -3.200   3.701  15.007  1.00  0.00     0.035 C 
HETATM   11  C12 UNL     1      -5.405   4.253  13.905  1.00  0.00     0.035 C 
ENDROOT
BRANCH   1  12
HETATM   12  N1  UNL     1      -5.009   2.135  14.959  1.00  0.00    -0.359 N 
ATOM     13  H1  UNL     1      -5.907   1.779  14.632  1.00  0.00     0.162 HD
BRANCH  12  14
HETATM   14  C1  UNL     1      -4.421   1.557  16.097  1.00  0.00     0.349 C 
HETATM   15  O1  UNL     1      -3.730   0.496  16.100  1.00  0.00    -0.284 OA
ENDBRANCH  12  14
ENDBRANCH   1  12
TORSDOF 2
ENDMDL
