MODEL 1
REMARK VINA RESULT: -6.342274473      0.000      0.000
REMARK  3 active torsions:
REMARK  status: ('A' for Active; 'I' for Inactive)
REMARK    1  A    between atoms: C4_4  and  N1_5 
REMARK       I    between atoms: N1_5  and  C5_7 
REMARK    2  A    between atoms: C5_7  and  C6_9 
REMARK    3  A    between atoms: C7_10  and  C8_11 
ROOT
HETATM    1  N1  UNL     1      -5.471   6.657  12.120  1.00  0.00    -0.312 N 
ATOM      2  H1  UNL     1      -4.770   7.310  12.470  1.00  0.00     0.170 HD
HETATM    3  C5  UNL     1      -5.842   5.655  13.019  1.00  0.00     0.228 C 
HETATM    4  O1  UNL     1      -6.995   5.699  13.526  1.00  0.00    -0.273 OA
ENDROOT
BRANCH   3   5
HETATM    5  C6  UNL     1      -4.882   4.582  13.348  1.00  0.00     0.092 A 
HETATM    6  C7  UNL     1      -4.775   4.006  14.720  1.00  0.00     0.015 A 
HETATM    7  C12 UNL     1      -3.767   4.966  14.319  1.00  0.00    -0.030 A 
HETATM    8  C13 UNL     1      -2.409   4.636  13.787  1.00  0.00     0.016 C 
HETATM    9  C14 UNL     1      -3.819   6.353  14.961  1.00  0.00     0.016 C 
BRANCH   6  10
HETATM   10  C8  UNL     1      -4.627   2.548  14.901  1.00  0.00    -0.046 C 
HETATM   11  C9  UNL     1      -3.455   2.246  15.834  1.00  0.00     0.015 C 
HETATM   12  C10 UNL     1      -4.494   1.698  13.701  1.00  0.00     0.015 C 
HETATM   13  C11 UNL     1      -5.866   2.051  15.665  1.00  0.00     0.015 C 
ENDBRANCH   6  10
ENDBRANCH   3   5
BRANCH   1  14
HETATM   14  C4  UNL     1      -5.868   6.883  10.936  1.00  0.00     0.126 A 
HETATM   15  C3  UNL     1      -7.071   7.562  10.666  1.00  0.00     0.076 A 
HETATM   16  C2  UNL     1      -7.217   7.646   9.305  1.00  0.00     0.025 A 
HETATM   17  C1  UNL     1      -8.326   8.273   8.520  1.00  0.00     0.070 C 
HETATM   18  N3  UNL     1      -6.145   7.042   8.775  1.00  0.00    -0.302 N 
HETATM   19  N2  UNL     1      -5.335   6.584   9.752  1.00  0.00    -0.281 N 
ATOM     20  H3  UNL     1      -5.965   6.944   7.776  1.00  0.00     0.186 HD
HETATM   21  C15 UNL     1      -4.086   5.880   9.537  1.00  0.00     0.179 C 
ENDBRANCH   1  14
TORSDOF 3
ENDMDL
MODEL 2
REMARK VINA RESULT: -6.218805944      2.388      6.212
REMARK  3 active torsions:
REMARK  status: ('A' for Active; 'I' for Inactive)
REMARK    1  A    between atoms: C4_4  and  N1_5 
REMARK       I    between atoms: N1_5  and  C5_7 
REMARK    2  A    between atoms: C5_7  and  C6_9 
REMARK    3  A    between atoms: C7_10  and  C8_11 
ROOT
HETATM    1  N1  UNL     1      -3.969   5.824  13.807  1.00  0.00    -0.312 N 
ATOM      2  H1  UNL     1      -4.219   6.674  14.312  1.00  0.00     0.170 HD
HETATM    3  C5  UNL     1      -3.193   6.024  12.664  1.00  0.00     0.228 C 
HETATM    4  O1  UNL     1      -1.987   5.660  12.684  1.00  0.00    -0.273 OA
ENDROOT
BRANCH   3   5
HETATM    5  C6  UNL     1      -3.801   6.655  11.475  1.00  0.00     0.092 A 
HETATM    6  C7  UNL     1      -5.212   6.390  11.070  1.00  0.00     0.015 A 
HETATM    7  C12 UNL     1      -4.167   5.706  10.336  1.00  0.00    -0.030 A 
HETATM    8  C13 UNL     1      -3.593   6.139   9.024  1.00  0.00     0.016 C 
HETATM    9  C14 UNL     1      -4.007   4.204  10.572  1.00  0.00     0.016 C 
BRANCH   6  10
HETATM   10  C8  UNL     1      -6.071   7.500  10.613  1.00  0.00    -0.046 C 
HETATM   11  C9  UNL     1      -6.745   7.140   9.290  1.00  0.00     0.015 C 
HETATM   12  C10 UNL     1      -5.476   8.844  10.479  1.00  0.00     0.015 C 
HETATM   13  C11 UNL     1      -7.233   7.625  11.615  1.00  0.00     0.015 C 
ENDBRANCH   6  10
ENDBRANCH   3   5
BRANCH   1  14
HETATM   14  C4  UNL     1      -4.413   4.749  14.317  1.00  0.00     0.126 A 
HETATM   15  C3  UNL     1      -3.559   3.752  14.826  1.00  0.00     0.076 A 
HETATM   16  C2  UNL     1      -4.336   2.728  15.301  1.00  0.00     0.025 A 
HETATM   17  C1  UNL     1      -3.903   1.443  15.938  1.00  0.00     0.070 C 
HETATM   18  N3  UNL     1      -5.608   3.091  15.088  1.00  0.00    -0.302 N 
HETATM   19  N2  UNL     1      -5.655   4.303  14.498  1.00  0.00    -0.281 N 
ATOM     20  H3  UNL     1      -6.423   2.532  15.338  1.00  0.00     0.186 HD
HETATM   21  C15 UNL     1      -6.870   5.001  14.125  1.00  0.00     0.179 C 
ENDBRANCH   1  14
TORSDOF 3
ENDMDL
MODEL 3
REMARK VINA RESULT: -6.212925352      2.422      6.227
REMARK  3 active torsions:
REMARK  status: ('A' for Active; 'I' for Inactive)
REMARK    1  A    between atoms: C4_4  and  N1_5 
REMARK       I    between atoms: N1_5  and  C5_7 
REMARK    2  A    between atoms: C5_7  and  C6_9 
REMARK    3  A    between atoms: C7_10  and  C8_11 
ROOT
HETATM    1  N1  UNL     1      -4.300   4.167  13.006  1.00  0.00    -0.312 N 
ATOM      2  H1  UNL     1      -3.344   4.443  13.225  1.00  0.00     0.170 HD
HETATM    3  C5  UNL     1      -4.799   4.677  11.806  1.00  0.00     0.228 C 
HETATM    4  O1  UNL     1      -4.978   3.884  10.843  1.00  0.00    -0.273 OA
ENDROOT
BRANCH   3   5
HETATM    5  C6  UNL     1      -5.099   6.120  11.698  1.00  0.00     0.092 A 
HETATM    6  C7  UNL     1      -5.397   6.773  10.391  1.00  0.00     0.015 A 
HETATM    7  C12 UNL     1      -4.069   6.955  10.940  1.00  0.00    -0.030 A 
HETATM    8  C13 UNL     1      -3.603   8.138  11.727  1.00  0.00     0.016 C 
HETATM    9  C14 UNL     1      -2.916   6.224  10.253  1.00  0.00     0.016 C 
BRANCH   6  10
HETATM   10  C8  UNL     1      -6.487   7.764  10.291  1.00  0.00    -0.046 C 
HETATM   11  C9  UNL     1      -7.470   7.362   9.192  1.00  0.00     0.015 C 
HETATM   12  C10 UNL     1      -6.134   9.184  10.100  1.00  0.00     0.015 C 
HETATM   13  C11 UNL     1      -7.307   7.679  11.590  1.00  0.00     0.015 C 
ENDBRANCH   6  10
ENDBRANCH   3   5
BRANCH   1  14
HETATM   14  C4  UNL     1      -4.851   3.413  13.866  1.00  0.00     0.126 A 
HETATM   15  C3  UNL     1      -5.693   3.917  14.875  1.00  0.00     0.076 A 
HETATM   16  C2  UNL     1      -6.125   2.863  15.636  1.00  0.00     0.025 A 
HETATM   17  C1  UNL     1      -7.036   2.877  16.825  1.00  0.00     0.070 C 
HETATM   18  N3  UNL     1      -5.567   1.765  15.108  1.00  0.00    -0.302 N 
HETATM   19  N2  UNL     1      -4.802   2.094  14.046  1.00  0.00    -0.281 N 
ATOM     20  H3  UNL     1      -5.702   0.817  15.458  1.00  0.00     0.186 HD
HETATM   21  C15 UNL     1      -4.052   1.154  13.237  1.00  0.00     0.179 C 
ENDBRANCH   1  14
TORSDOF 3
ENDMDL
MODEL 4
REMARK VINA RESULT: -6.187505088      2.763      5.919
REMARK  3 active torsions:
REMARK  status: ('A' for Active; 'I' for Inactive)
REMARK    1  A    between atoms: C4_4  and  N1_5 
REMARK       I    between atoms: N1_5  and  C5_7 
REMARK    2  A    between atoms: C5_7  and  C6_9 
REMARK    3  A    between atoms: C7_10  and  C8_11 
ROOT
HETATM    1  N1  UNL     1      -6.168   3.705  14.122  1.00  0.00    -0.312 N 
ATOM      2  H1  UNL     1      -6.794   3.470  13.352  1.00  0.00     0.170 HD
HETATM    3  C5  UNL     1      -5.872   5.063  14.247  1.00  0.00     0.228 C 
HETATM    4  O1  UNL     1      -6.350   5.696  15.225  1.00  0.00    -0.273 OA
ENDROOT
BRANCH   3   5
HETATM    5  C6  UNL     1      -5.015   5.716  13.236  1.00  0.00     0.092 A 
HETATM    6  C7  UNL     1      -3.966   4.968  12.483  1.00  0.00     0.015 A 
HETATM    7  C12 UNL     1      -3.530   5.804  13.583  1.00  0.00    -0.030 A 
HETATM    8  C13 UNL     1      -2.998   7.197  13.466  1.00  0.00     0.016 C 
HETATM    9  C14 UNL     1      -3.046   5.102  14.852  1.00  0.00     0.016 C 
BRANCH   6  10
HETATM   10  C8  UNL     1      -3.788   5.199  11.036  1.00  0.00    -0.046 C 
HETATM   11  C9  UNL     1      -2.316   5.453  10.716  1.00  0.00     0.015 C 
HETATM   12  C10 UNL     1      -4.592   6.253  10.385  1.00  0.00     0.015 C 
HETATM   13  C11 UNL     1      -4.116   3.880  10.316  1.00  0.00     0.015 C 
ENDBRANCH   6  10
ENDBRANCH   3   5
BRANCH   1  14
HETATM   14  C4  UNL     1      -5.779   2.715  14.816  1.00  0.00     0.126 A 
HETATM   15  C3  UNL     1      -6.290   2.454  16.102  1.00  0.00     0.076 A 
HETATM   16  C2  UNL     1      -5.676   1.328  16.584  1.00  0.00     0.025 A 
HETATM   17  C1  UNL     1      -5.875   0.645  17.901  1.00  0.00     0.070 C 
HETATM   18  N3  UNL     1      -4.829   0.924  15.627  1.00  0.00    -0.302 N 
HETATM   19  N2  UNL     1      -4.890   1.756  14.566  1.00  0.00    -0.281 N 
ATOM     20  H3  UNL     1      -4.225   0.104  15.692  1.00  0.00     0.186 HD
HETATM   21  C15 UNL     1      -4.108   1.617  13.354  1.00  0.00     0.179 C 
ENDBRANCH   1  14
TORSDOF 3
ENDMDL
MODEL 5
REMARK VINA RESULT: -6.164977181      2.823      6.244
REMARK  3 active torsions:
REMARK  status: ('A' for Active; 'I' for Inactive)
REMARK    1  A    between atoms: C4_4  and  N1_5 
REMARK       I    between atoms: N1_5  and  C5_7 
REMARK    2  A    between atoms: C5_7  and  C6_9 
REMARK    3  A    between atoms: C7_10  and  C8_11 
ROOT
HETATM    1  N1  UNL     1      -5.453   3.714  13.951  1.00  0.00    -0.312 N 
ATOM      2  H1  UNL     1      -5.950   3.583  13.070  1.00  0.00     0.170 HD
HETATM    3  C5  UNL     1      -5.011   5.017  14.189  1.00  0.00     0.228 C 
HETATM    4  O1  UNL     1      -5.578   5.689  15.092  1.00  0.00    -0.273 OA
ENDROOT
BRANCH   3   5
HETATM    5  C6  UNL     1      -3.903   5.566  13.382  1.00  0.00     0.092 A 
HETATM    6  C7  UNL     1      -3.663   7.034  13.258  1.00  0.00     0.015 A 
HETATM    7  C12 UNL     1      -4.316   6.368  12.149  1.00  0.00    -0.030 A 
HETATM    8  C13 UNL     1      -3.644   5.884  10.903  1.00  0.00     0.016 C 
HETATM    9  C14 UNL     1      -5.804   6.645  11.937  1.00  0.00     0.016 C 
BRANCH   6  10
HETATM   10  C8  UNL     1      -2.288   7.567  13.322  1.00  0.00    -0.046 C 
HETATM   11  C9  UNL     1      -2.165   8.822  12.460  1.00  0.00     0.015 C 
HETATM   12  C10 UNL     1      -1.166   6.666  12.991  1.00  0.00     0.015 C 
HETATM   13  C11 UNL     1      -2.053   8.062  14.759  1.00  0.00     0.015 C 
ENDBRANCH   6  10
ENDBRANCH   3   5
BRANCH   1  14
HETATM   14  C4  UNL     1      -5.334   2.667  14.659  1.00  0.00     0.126 A 
HETATM   15  C3  UNL     1      -5.889   2.566  15.948  1.00  0.00     0.076 A 
HETATM   16  C2  UNL     1      -5.589   1.324  16.446  1.00  0.00     0.025 A 
HETATM   17  C1  UNL     1      -5.953   0.735  17.773  1.00  0.00     0.070 C 
HETATM   18  N3  UNL     1      -4.881   0.700  15.494  1.00  0.00    -0.302 N 
HETATM   19  N2  UNL     1      -4.727   1.505  14.422  1.00  0.00    -0.281 N 
ATOM     20  H3  UNL     1      -4.512  -0.248  15.570  1.00  0.00     0.186 HD
HETATM   21  C15 UNL     1      -4.014   1.150  13.211  1.00  0.00     0.179 C 
ENDBRANCH   1  14
TORSDOF 3
ENDMDL
