MODEL 1
REMARK VINA RESULT: -6.018981343      0.000      0.000
REMARK  3 active torsions:
REMARK  status: ('A' for Active; 'I' for Inactive)
REMARK    1  A    between atoms: C3_5  and  N2_6 
REMARK       I    between atoms: N2_6  and  C4_8 
REMARK    2  A    between atoms: C4_8  and  C5_10 
REMARK    3  A    between atoms: C9_15  and  C10_16 
ROOT
HETATM    1  C1  UNL     1      -0.973   3.852  11.903  1.00  0.00     0.069 C 
HETATM    2  C2  UNL     1      -2.080   4.396  12.799  1.00  0.00     0.021 A 
HETATM    3  N1  UNL     1      -2.801   3.633  13.583  1.00  0.00    -0.339 N 
ATOM      4  H1  UNL     1      -2.645   2.625  13.624  1.00  0.00     0.168 HD
HETATM    5  C3  UNL     1      -3.750   4.216  14.329  1.00  0.00     0.151 A 
HETATM    6  S1  UNL     1      -3.609   5.862  13.908  1.00  0.00    -0.056 SA
HETATM    7  C9  UNL     1      -2.336   5.733  12.788  1.00  0.00     0.016 A 
ENDROOT
BRANCH   5   8
HETATM    8  N2  UNL     1      -4.570   3.621  15.172  1.00  0.00    -0.307 N 
HETATM    9  C4  UNL     1      -4.286   2.342  15.659  1.00  0.00     0.228 C 
HETATM   10  O1  UNL     1      -3.119   1.924  15.841  1.00  0.00    -0.273 OA
ATOM     11  H2  UNL     1      -5.421   4.098  15.471  1.00  0.00     0.171 HD
BRANCH   9  12
HETATM   12  C5  UNL     1      -5.413   1.434  15.978  1.00  0.00     0.082 A 
HETATM   13  C6  UNL     1      -5.406   0.686  17.268  1.00  0.00     0.019 A 
HETATM   14  C7  UNL     1      -6.336   1.813  17.096  1.00  0.00    -0.005 A 
HETATM   15  C8  UNL     1      -7.797   1.603  16.849  1.00  0.00     0.011 C 
ENDBRANCH   9  12
ENDBRANCH   5   8
BRANCH   7  16
HETATM   16  C10 UNL     1      -1.726   6.850  12.040  1.00  0.00    -0.016 C 
HETATM   17  C11 UNL     1      -2.388   8.128  12.497  1.00  0.00     0.020 C 
HETATM   18  C12 UNL     1      -0.239   6.977  12.337  1.00  0.00     0.020 C 
HETATM   19  C13 UNL     1      -1.878   6.745  10.564  1.00  0.00     0.020 C 
ENDBRANCH   7  16
TORSDOF 3
ENDMDL
MODEL 2
REMARK VINA RESULT: -5.779318940      2.692      3.105
REMARK  3 active torsions:
REMARK  status: ('A' for Active; 'I' for Inactive)
REMARK    1  A    between atoms: C3_5  and  N2_6 
REMARK       I    between atoms: N2_6  and  C4_8 
REMARK    2  A    between atoms: C4_8  and  C5_10 
REMARK    3  A    between atoms: C9_15  and  C10_16 
ROOT
HETATM    1  C1  UNL     1      -3.569   5.389   9.289  1.00  0.00     0.069 C 
HETATM    2  C2  UNL     1      -4.037   5.133  10.717  1.00  0.00     0.021 A 
HETATM    3  N1  UNL     1      -3.580   4.147  11.450  1.00  0.00    -0.339 N 
ATOM      4  H1  UNL     1      -2.879   3.501  11.085  1.00  0.00     0.168 HD
HETATM    5  C3  UNL     1      -4.061   4.014  12.694  1.00  0.00     0.151 A 
HETATM    6  S1  UNL     1      -5.170   5.303  12.816  1.00  0.00    -0.056 SA
HETATM    7  C9  UNL     1      -4.971   5.961  11.260  1.00  0.00     0.016 A 
ENDROOT
BRANCH   5   8
HETATM    8  N2  UNL     1      -3.727   3.093  13.576  1.00  0.00    -0.307 N 
HETATM    9  C4  UNL     1      -4.402   1.870  13.617  1.00  0.00     0.228 C 
HETATM   10  O1  UNL     1      -4.888   1.323  12.601  1.00  0.00    -0.273 OA
ATOM     11  H2  UNL     1      -2.970   3.275  14.235  1.00  0.00     0.171 HD
BRANCH   9  12
HETATM   12  C5  UNL     1      -4.552   1.183  14.922  1.00  0.00     0.082 A 
HETATM   13  C6  UNL     1      -3.817   1.703  16.111  1.00  0.00     0.019 A 
HETATM   14  C7  UNL     1      -5.272   1.899  16.023  1.00  0.00    -0.005 A 
HETATM   15  C8  UNL     1      -6.231   1.079  16.830  1.00  0.00     0.011 C 
ENDBRANCH   9  12
ENDBRANCH   5   8
BRANCH   7  16
HETATM   16  C10 UNL     1      -5.678   7.140  10.723  1.00  0.00    -0.016 C 
HETATM   17  C11 UNL     1      -6.855   7.425  11.627  1.00  0.00     0.020 C 
HETATM   18  C12 UNL     1      -4.792   8.377  10.728  1.00  0.00     0.020 C 
HETATM   19  C13 UNL     1      -6.185   6.962   9.336  1.00  0.00     0.020 C 
ENDBRANCH   7  16
TORSDOF 3
ENDMDL
MODEL 3
REMARK VINA RESULT: -5.608757806      1.419      1.576
REMARK  3 active torsions:
REMARK  status: ('A' for Active; 'I' for Inactive)
REMARK    1  A    between atoms: C3_5  and  N2_6 
REMARK       I    between atoms: N2_6  and  C4_8 
REMARK    2  A    between atoms: C4_8  and  C5_10 
REMARK    3  A    between atoms: C9_15  and  C10_16 
ROOT
HETATM    1  C1  UNL     1      -0.981   5.352  12.254  1.00  0.00     0.069 C 
HETATM    2  C2  UNL     1      -2.286   4.934  12.923  1.00  0.00     0.021 A 
HETATM    3  N1  UNL     1      -2.352   3.979  13.819  1.00  0.00    -0.339 N 
ATOM      4  H1  UNL     1      -1.516   3.470  14.108  1.00  0.00     0.168 HD
HETATM    5  C3  UNL     1      -3.552   3.692  14.343  1.00  0.00     0.151 A 
HETATM    6  S1  UNL     1      -4.588   4.792  13.553  1.00  0.00    -0.056 SA
HETATM    7  C9  UNL     1      -3.435   5.576  12.578  1.00  0.00     0.016 A 
ENDROOT
BRANCH   5   8
HETATM    8  N2  UNL     1      -3.819   2.773  15.249  1.00  0.00    -0.307 N 
HETATM    9  C4  UNL     1      -4.606   1.664  14.927  1.00  0.00     0.228 C 
HETATM   10  O1  UNL     1      -4.625   1.148  13.785  1.00  0.00    -0.273 OA
ATOM     11  H2  UNL     1      -3.448   2.873  16.195  1.00  0.00     0.171 HD
BRANCH   9  12
HETATM   12  C5  UNL     1      -5.458   1.065  15.981  1.00  0.00     0.082 A 
HETATM   13  C6  UNL     1      -5.222   1.429  17.407  1.00  0.00     0.019 A 
HETATM   14  C7  UNL     1      -6.409   1.957  16.718  1.00  0.00    -0.005 A 
HETATM   15  C8  UNL     1      -7.779   1.406  16.966  1.00  0.00     0.011 C 
ENDBRANCH   9  12
ENDBRANCH   5   8
BRANCH   7  16
HETATM   16  C10 UNL     1      -3.709   6.671  11.627  1.00  0.00    -0.016 C 
HETATM   17  C11 UNL     1      -5.187   6.977  11.687  1.00  0.00     0.020 C 
HETATM   18  C12 UNL     1      -2.966   7.944  12.008  1.00  0.00     0.020 C 
HETATM   19  C13 UNL     1      -3.353   6.352  10.219  1.00  0.00     0.020 C 
ENDBRANCH   7  16
TORSDOF 3
ENDMDL
MODEL 4
REMARK VINA RESULT: -5.577139257      1.407      1.653
REMARK  3 active torsions:
REMARK  status: ('A' for Active; 'I' for Inactive)
REMARK    1  A    between atoms: C3_5  and  N2_6 
REMARK       I    between atoms: N2_6  and  C4_8 
REMARK    2  A    between atoms: C4_8  and  C5_10 
REMARK    3  A    between atoms: C9_15  and  C10_16 
ROOT
HETATM    1  C1  UNL     1      -1.465   3.896  11.874  1.00  0.00     0.069 C 
HETATM    2  C2  UNL     1      -2.459   4.232  12.979  1.00  0.00     0.021 A 
HETATM    3  N1  UNL     1      -3.131   3.317  13.636  1.00  0.00    -0.339 N 
ATOM      4  H1  UNL     1      -3.009   2.326  13.427  1.00  0.00     0.168 HD
HETATM    5  C3  UNL     1      -3.981   3.724  14.588  1.00  0.00     0.151 A 
HETATM    6  S1  UNL     1      -3.819   5.421  14.546  1.00  0.00    -0.056 SA
HETATM    7  C9  UNL     1      -2.664   5.538  13.303  1.00  0.00     0.016 A 
ENDROOT
BRANCH   5   8
HETATM    8  N2  UNL     1      -4.739   2.961  15.350  1.00  0.00    -0.307 N 
HETATM    9  C4  UNL     1      -6.127   3.123  15.362  1.00  0.00     0.228 C 
HETATM   10  O1  UNL     1      -6.780   3.500  14.362  1.00  0.00    -0.273 OA
ATOM     11  H2  UNL     1      -4.308   2.246  15.937  1.00  0.00     0.171 HD
BRANCH   9  12
HETATM   12  C5  UNL     1      -6.867   2.835  16.614  1.00  0.00     0.082 A 
HETATM   13  C6  UNL     1      -7.671   1.584  16.716  1.00  0.00     0.019 A 
HETATM   14  C7  UNL     1      -6.409   1.689  17.463  1.00  0.00    -0.005 A 
HETATM   15  C8  UNL     1      -6.380   1.929  18.940  1.00  0.00     0.011 C 
ENDBRANCH   9  12
ENDBRANCH   5   8
BRANCH   7  16
HETATM   16  C10 UNL     1      -2.087   6.790  12.775  1.00  0.00    -0.016 C 
HETATM   17  C11 UNL     1      -2.330   7.878  13.794  1.00  0.00     0.020 C 
HETATM   18  C12 UNL     1      -0.581   6.676  12.583  1.00  0.00     0.020 C 
HETATM   19  C13 UNL     1      -2.669   7.224  11.477  1.00  0.00     0.020 C 
ENDBRANCH   7  16
TORSDOF 3
ENDMDL
MODEL 5
REMARK VINA RESULT: -5.557862789      1.835      2.276
REMARK  3 active torsions:
REMARK  status: ('A' for Active; 'I' for Inactive)
REMARK    1  A    between atoms: C3_5  and  N2_6 
REMARK       I    between atoms: N2_6  and  C4_8 
REMARK    2  A    between atoms: C4_8  and  C5_10 
REMARK    3  A    between atoms: C9_15  and  C10_16 
ROOT
HETATM    1  C1  UNL     1      -1.948   8.104  13.790  1.00  0.00     0.069 C 
HETATM    2  C2  UNL     1      -3.008   7.048  13.497  1.00  0.00     0.021 A 
HETATM    3  N1  UNL     1      -3.483   6.242  14.414  1.00  0.00    -0.339 N 
ATOM      4  H1  UNL     1      -3.154   6.292  15.380  1.00  0.00     0.168 HD
HETATM    5  C3  UNL     1      -4.412   5.349  14.047  1.00  0.00     0.151 A 
HETATM    6  S1  UNL     1      -4.609   5.665  12.383  1.00  0.00    -0.056 SA
HETATM    7  C9  UNL     1      -3.485   6.933  12.228  1.00  0.00     0.016 A 
ENDROOT
BRANCH   5   8
HETATM    8  N2  UNL     1      -5.005   4.461  14.820  1.00  0.00    -0.307 N 
HETATM    9  C4  UNL     1      -4.360   3.268  15.156  1.00  0.00     0.228 C 
HETATM   10  O1  UNL     1      -3.117   3.175  15.284  1.00  0.00    -0.273 OA
ATOM     11  H2  UNL     1      -5.944   4.646  15.175  1.00  0.00     0.171 HD
BRANCH   9  12
HETATM   12  C5  UNL     1      -5.179   2.052  15.374  1.00  0.00     0.082 A 
HETATM   13  C6  UNL     1      -4.561   0.861  16.025  1.00  0.00     0.019 A 
HETATM   14  C7  UNL     1      -5.527   1.672  16.781  1.00  0.00    -0.005 A 
HETATM   15  C8  UNL     1      -6.933   1.215  17.016  1.00  0.00     0.011 C 
ENDBRANCH   9  12
ENDBRANCH   5   8
BRANCH   7  16
HETATM   16  C10 UNL     1      -3.175   7.665  10.984  1.00  0.00    -0.016 C 
HETATM   17  C11 UNL     1      -4.042   7.097   9.885  1.00  0.00     0.020 C 
HETATM   18  C12 UNL     1      -3.508   9.145  11.106  1.00  0.00     0.020 C 
HETATM   19  C13 UNL     1      -1.753   7.562  10.560  1.00  0.00     0.020 C 
ENDBRANCH   7  16
TORSDOF 3
ENDMDL
