MODEL 1
REMARK VINA RESULT: -7.517328833      0.000      0.000
REMARK  6 active torsions:
REMARK  status: ('A' for Active; 'I' for Inactive)
REMARK    1  A    between atoms: C3_5  and  N2_6 
REMARK    2  A    between atoms: C13_18  and  C14_19 
REMARK    3  A    between atoms: C14_19  and  O1_20 
REMARK    4  A    between atoms: C14_19  and  C15_22 
REMARK       I    between atoms: C15_22  and  N4_24 
REMARK    5  A    between atoms: N4_24  and  C16_26 
REMARK    6  A    between atoms: N5_30  and  C20_31 
ROOT
HETATM    1  C1  UNL     1      27.801  50.835  -4.851  1.00  0.00     0.070 C 
HETATM    2  C2  UNL     1      26.486  51.074  -4.223  1.00  0.00     0.037 A 
HETATM    3  N1  UNL     1      25.457  51.581  -4.965  1.00  0.00    -0.195 N 
ATOM      4  H1  UNL     1      25.611  51.774  -5.955  1.00  0.00     0.184 HD
HETATM    5  C3  UNL     1      24.254  51.834  -4.435  1.00  0.00     0.682 A 
HETATM    6  N3  UNL     1      24.006  51.596  -3.134  1.00  0.00    -0.175 N 
ATOM      7  H3  UNL     1      23.085  51.794  -2.741  1.00  0.00     0.186 HD
HETATM    8  C9  UNL     1      24.982  51.097  -2.356  1.00  0.00     0.137 A 
HETATM    9  C10 UNL     1      26.228  50.829  -2.884  1.00  0.00     0.040 A 
HETATM   10  C11 UNL     1      27.003  50.318  -1.898  1.00  0.00    -0.016 A 
HETATM   11  C12 UNL     1      28.383  49.847  -1.978  1.00  0.00     0.052 C 
HETATM   12  C13 UNL     1      26.212  50.270  -0.708  1.00  0.00     0.082 A 
HETATM   13  N5  UNL     1      25.017  50.744  -1.012  1.00  0.00    -0.323 N 
ENDROOT
BRANCH  12  14
HETATM   14  C14 UNL     1      26.755  49.855   0.561  1.00  0.00     0.162 C 
BRANCH  14  15
HETATM   15  O1  UNL     1      26.513  48.617   0.954  1.00  0.00    -0.354 OA
ATOM     16  H1  UNL     1      26.825  48.360   1.814  1.00  0.00     0.218 HD
ENDBRANCH  14  15
BRANCH  14  17
HETATM   17  C15 UNL     1      27.533  50.563   1.534  1.00  0.00     0.277 C 
HETATM   18  O2  UNL     1      27.008  51.029   2.569  1.00  0.00    -0.265 OA
HETATM   19  N4  UNL     1      28.947  50.758   1.347  1.00  0.00    -0.351 N 
ATOM     20  H4  UNL     1      29.384  50.381   0.506  1.00  0.00     0.163 HD
BRANCH  19  21
HETATM   21  C16 UNL     1      29.765  51.455   2.283  1.00  0.00     0.084 C 
HETATM   22  C17 UNL     1      31.230  51.343   1.909  1.00  0.00     0.025 C 
HETATM   23  C18 UNL     1      31.028  52.593   1.054  1.00  0.00     0.004 C 
HETATM   24  C19 UNL     1      29.909  52.958   2.009  1.00  0.00     0.025 C 
ENDBRANCH  19  21
ENDBRANCH  14  17
ENDBRANCH  12  14
BRANCH  13  25
HETATM   25  C20 UNL     1      23.874  51.029  -0.206  1.00  0.00     0.112 A 
HETATM   26  C21 UNL     1      22.469  50.694  -0.558  1.00  0.00     0.049 A 
HETATM   27  C22 UNL     1      23.167  49.890   0.506  1.00  0.00     0.107 A 
HETATM   28 CL1  UNL     1      23.367  48.197  -0.002  1.00  0.00    -0.123 Cl
ENDBRANCH  13  25
BRANCH   5  29
HETATM   29  N2  UNL     1      23.235  52.357  -5.262  1.00  0.00    -0.218 N 
HETATM   30  C4  UNL     1      22.784  53.733  -5.123  1.00  0.00     0.141 C 
HETATM   31  C5  UNL     1      21.384  53.689  -4.551  1.00  0.00     0.020 C 
HETATM   32  C6  UNL     1      20.553  52.696  -5.324  1.00  0.00     0.003 C 
HETATM   33  C7  UNL     1      21.258  52.240  -6.595  1.00  0.00     0.020 C 
HETATM   34  C8  UNL     1      22.576  51.569  -6.294  1.00  0.00     0.141 C 
ENDBRANCH   5  29
TORSDOF 6
ENDMDL
MODEL 2
REMARK VINA RESULT: -7.396728094      3.023      6.127
REMARK  6 active torsions:
REMARK  status: ('A' for Active; 'I' for Inactive)
REMARK    1  A    between atoms: C3_5  and  N2_6 
REMARK    2  A    between atoms: C13_18  and  C14_19 
REMARK    3  A    between atoms: C14_19  and  O1_20 
REMARK    4  A    between atoms: C14_19  and  C15_22 
REMARK       I    between atoms: C15_22  and  N4_24 
REMARK    5  A    between atoms: N4_24  and  C16_26 
REMARK    6  A    between atoms: N5_30  and  C20_31 
ROOT
HETATM    1  C1  UNL     1      29.519  51.380   0.694  1.00  0.00     0.070 C 
HETATM    2  C2  UNL     1      28.763  51.366  -0.576  1.00  0.00     0.037 A 
HETATM    3  N1  UNL     1      29.367  51.766  -1.734  1.00  0.00    -0.195 N 
ATOM      4  H1  UNL     1      30.345  52.055  -1.707  1.00  0.00     0.184 HD
HETATM    5  C3  UNL     1      28.717  51.790  -2.904  1.00  0.00     0.682 A 
HETATM    6  N3  UNL     1      27.426  51.418  -2.988  1.00  0.00    -0.175 N 
ATOM      7  H3  UNL     1      26.941  51.442  -3.885  1.00  0.00     0.186 HD
HETATM    8  C9  UNL     1      26.781  51.015  -1.879  1.00  0.00     0.137 A 
HETATM    9  C10 UNL     1      27.435  50.982  -0.665  1.00  0.00     0.040 A 
HETATM   10  C11 UNL     1      26.568  50.522   0.269  1.00  0.00    -0.016 A 
HETATM   11  C12 UNL     1      26.806  50.275   1.688  1.00  0.00     0.052 C 
HETATM   12  C13 UNL     1      25.325  50.262  -0.388  1.00  0.00     0.082 A 
HETATM   13  N5  UNL     1      25.483  50.570  -1.663  1.00  0.00    -0.323 N 
ENDROOT
BRANCH  12  14
HETATM   14  C14 UNL     1      24.148  49.839   0.329  1.00  0.00     0.162 C 
BRANCH  14  15
HETATM   15  O1  UNL     1      23.354  50.780   0.809  1.00  0.00    -0.354 OA
ATOM     16  H1  UNL     1      22.845  50.573   1.583  1.00  0.00     0.218 HD
ENDBRANCH  14  15
BRANCH  14  17
HETATM   17  C15 UNL     1      23.654  48.533   0.650  1.00  0.00     0.277 C 
HETATM   18  O2  UNL     1      22.858  47.937  -0.108  1.00  0.00    -0.265 OA
HETATM   19  N4  UNL     1      24.062  47.867   1.860  1.00  0.00    -0.351 N 
ATOM     20  H4  UNL     1      24.712  48.346   2.484  1.00  0.00     0.163 HD
BRANCH  19  21
HETATM   21  C16 UNL     1      23.600  46.570   2.225  1.00  0.00     0.084 C 
HETATM   22  C17 UNL     1      24.149  46.161   3.578  1.00  0.00     0.025 C 
HETATM   23  C18 UNL     1      22.929  46.843   4.194  1.00  0.00     0.004 C 
HETATM   24  C19 UNL     1      22.217  46.550   2.889  1.00  0.00     0.025 C 
ENDBRANCH  19  21
ENDBRANCH  14  17
ENDBRANCH  12  14
BRANCH  13  25
HETATM   25  C20 UNL     1      24.561  50.615  -2.752  1.00  0.00     0.112 A 
HETATM   26  C21 UNL     1      23.213  51.238  -2.712  1.00  0.00     0.049 A 
HETATM   27  C22 UNL     1      24.317  51.934  -3.463  1.00  0.00     0.107 A 
HETATM   28 CL1  UNL     1      24.716  53.494  -2.708  1.00  0.00    -0.123 Cl
ENDBRANCH  13  25
BRANCH   5  29
HETATM   29  N2  UNL     1      29.405  52.213  -4.063  1.00  0.00    -0.218 N 
HETATM   30  C4  UNL     1      28.868  51.962  -5.392  1.00  0.00     0.141 C 
HETATM   31  C5  UNL     1      29.756  50.926  -6.045  1.00  0.00     0.020 C 
HETATM   32  C6  UNL     1      31.201  51.321  -5.877  1.00  0.00     0.003 C 
HETATM   33  C7  UNL     1      31.339  52.747  -5.357  1.00  0.00     0.020 C 
HETATM   34  C8  UNL     1      30.677  52.917  -4.011  1.00  0.00     0.141 C 
ENDBRANCH   5  29
TORSDOF 6
ENDMDL
MODEL 3
REMARK VINA RESULT: -7.106575520      2.897      4.384
REMARK  6 active torsions:
REMARK  status: ('A' for Active; 'I' for Inactive)
REMARK    1  A    between atoms: C3_5  and  N2_6 
REMARK    2  A    between atoms: C13_18  and  C14_19 
REMARK    3  A    between atoms: C14_19  and  O1_20 
REMARK    4  A    between atoms: C14_19  and  C15_22 
REMARK       I    between atoms: C15_22  and  N4_24 
REMARK    5  A    between atoms: N4_24  and  C16_26 
REMARK    6  A    between atoms: N5_30  and  C20_31 
ROOT
HETATM    1  C1  UNL     1      28.632  48.634  -6.471  1.00  0.00     0.070 C 
HETATM    2  C2  UNL     1      27.398  49.381  -6.152  1.00  0.00     0.037 A 
HETATM    3  N1  UNL     1      26.458  49.593  -7.121  1.00  0.00    -0.195 N 
ATOM      4  H1  UNL     1      26.618  49.214  -8.054  1.00  0.00     0.184 HD
HETATM    5  C3  UNL     1      25.335  50.282  -6.885  1.00  0.00     0.682 A 
HETATM    6  N3  UNL     1      25.082  50.800  -5.669  1.00  0.00    -0.175 N 
ATOM      7  H3  UNL     1      24.223  51.324  -5.501  1.00  0.00     0.186 HD
HETATM    8  C9  UNL     1      25.973  50.623  -4.677  1.00  0.00     0.137 A 
HETATM    9  C10 UNL     1      27.135  49.914  -4.901  1.00  0.00     0.040 A 
HETATM   10  C11 UNL     1      27.832  49.869  -3.740  1.00  0.00    -0.016 A 
HETATM   11  C12 UNL     1      29.101  49.202  -3.467  1.00  0.00     0.052 C 
HETATM   12  C13 UNL     1      27.076  50.580  -2.755  1.00  0.00     0.082 A 
HETATM   13  N5  UNL     1      25.979  51.020  -3.345  1.00  0.00    -0.323 N 
ENDROOT
BRANCH  12  14
HETATM   14  C14 UNL     1      27.569  50.801  -1.419  1.00  0.00     0.162 C 
BRANCH  14  15
HETATM   15  O1  UNL     1      28.615  51.597  -1.277  1.00  0.00    -0.354 OA
ATOM     16  H1  UNL     1      29.086  51.560  -0.453  1.00  0.00     0.218 HD
ENDBRANCH  14  15
BRANCH  14  17
HETATM   17  C15 UNL     1      27.131  50.292  -0.153  1.00  0.00     0.277 C 
HETATM   18  O2  UNL     1      27.807  50.469   0.884  1.00  0.00    -0.265 OA
HETATM   19  N4  UNL     1      25.897  49.560  -0.039  1.00  0.00    -0.351 N 
ATOM     20  H4  UNL     1      25.339  49.412  -0.880  1.00  0.00     0.163 HD
BRANCH  19  21
HETATM   21  C16 UNL     1      25.418  49.033   1.195  1.00  0.00     0.084 C 
HETATM   22  C17 UNL     1      23.939  48.715   1.110  1.00  0.00     0.025 C 
HETATM   23  C18 UNL     1      24.344  47.333   0.600  1.00  0.00     0.004 C 
HETATM   24  C19 UNL     1      25.634  47.524   1.370  1.00  0.00     0.025 C 
ENDBRANCH  19  21
ENDBRANCH  14  17
ENDBRANCH  12  14
BRANCH  13  25
HETATM   25  C20 UNL     1      24.928  51.869  -2.886  1.00  0.00     0.112 A 
HETATM   26  C21 UNL     1      24.999  52.761  -1.699  1.00  0.00     0.049 A 
HETATM   27  C22 UNL     1      25.052  53.370  -3.075  1.00  0.00     0.107 A 
HETATM   28 CL1  UNL     1      26.622  54.152  -3.367  1.00  0.00    -0.123 Cl
ENDBRANCH  13  25
BRANCH   5  29
HETATM   29  N2  UNL     1      24.406  50.461  -7.934  1.00  0.00    -0.218 N 
HETATM   30  C4  UNL     1      24.621  49.861  -9.241  1.00  0.00     0.141 C 
HETATM   31  C5  UNL     1      24.926  50.986 -10.205  1.00  0.00     0.020 C 
HETATM   32  C6  UNL     1      23.908  52.085 -10.038  1.00  0.00     0.003 C 
HETATM   33  C7  UNL     1      22.738  51.641  -9.168  1.00  0.00     0.020 C 
HETATM   34  C8  UNL     1      23.189  51.245  -7.783  1.00  0.00     0.141 C 
ENDBRANCH   5  29
TORSDOF 6
ENDMDL
MODEL 4
REMARK VINA RESULT: -7.030786816      2.593      3.894
REMARK  6 active torsions:
REMARK  status: ('A' for Active; 'I' for Inactive)
REMARK    1  A    between atoms: C3_5  and  N2_6 
REMARK    2  A    between atoms: C13_18  and  C14_19 
REMARK    3  A    between atoms: C14_19  and  O1_20 
REMARK    4  A    between atoms: C14_19  and  C15_22 
REMARK       I    between atoms: C15_22  and  N4_24 
REMARK    5  A    between atoms: N4_24  and  C16_26 
REMARK    6  A    between atoms: N5_30  and  C20_31 
ROOT
HETATM    1  C1  UNL     1      28.996  52.271  -2.973  1.00  0.00     0.070 C 
HETATM    2  C2  UNL     1      27.626  51.751  -3.160  1.00  0.00     0.037 A 
HETATM    3  N1  UNL     1      26.977  51.947  -4.346  1.00  0.00    -0.195 N 
ATOM      4  H1  UNL     1      27.459  52.441  -5.097  1.00  0.00     0.184 HD
HETATM    5  C3  UNL     1      25.728  51.512  -4.554  1.00  0.00     0.682 A 
HETATM    6  N3  UNL     1      25.053  50.856  -3.593  1.00  0.00    -0.175 N 
ATOM      7  H3  UNL     1      24.101  50.530  -3.763  1.00  0.00     0.186 HD
HETATM    8  C9  UNL     1      25.643  50.634  -2.405  1.00  0.00     0.137 A 
HETATM    9  C10 UNL     1      26.930  51.074  -2.172  1.00  0.00     0.040 A 
HETATM   10  C11 UNL     1      27.283  50.701  -0.918  1.00  0.00    -0.016 A 
HETATM   11  C12 UNL     1      28.556  50.903  -0.234  1.00  0.00     0.052 C 
HETATM   12  C13 UNL     1      26.171  50.007  -0.346  1.00  0.00     0.082 A 
HETATM   13  N5  UNL     1      25.211  49.988  -1.253  1.00  0.00    -0.323 N 
ENDROOT
BRANCH  12  14
HETATM   14  C14 UNL     1      26.173  49.544   1.019  1.00  0.00     0.162 C 
BRANCH  14  15
HETATM   15  O1  UNL     1      26.409  50.434   1.967  1.00  0.00    -0.354 OA
ATOM     16  H1  UNL     1      27.204  50.332   2.477  1.00  0.00     0.218 HD
ENDBRANCH  14  15
BRANCH  14  17
HETATM   17  C15 UNL     1      25.970  48.239   1.576  1.00  0.00     0.277 C 
HETATM   18  O2  UNL     1      26.009  47.215   0.858  1.00  0.00    -0.265 OA
HETATM   19  N4  UNL     1      25.716  48.069   2.982  1.00  0.00    -0.351 N 
ATOM     20  H4  UNL     1      25.683  48.898   3.575  1.00  0.00     0.163 HD
BRANCH  19  21
HETATM   21  C16 UNL     1      25.508  46.794   3.585  1.00  0.00     0.084 C 
HETATM   22  C17 UNL     1      25.701  46.868   5.086  1.00  0.00     0.025 C 
HETATM   23  C18 UNL     1      24.219  47.229   5.182  1.00  0.00     0.004 C 
HETATM   24  C19 UNL     1      24.040  46.464   3.887  1.00  0.00     0.025 C 
ENDBRANCH  19  21
ENDBRANCH  14  17
ENDBRANCH  12  14
BRANCH  13  25
HETATM   25  C20 UNL     1      23.859  49.534  -1.198  1.00  0.00     0.112 A 
HETATM   26  C21 UNL     1      23.175  49.016   0.016  1.00  0.00     0.049 A 
HETATM   27  C22 UNL     1      22.819  50.387  -0.494  1.00  0.00     0.107 A 
HETATM   28 CL1  UNL     1      23.274  51.643   0.681  1.00  0.00    -0.123 Cl
ENDBRANCH  13  25
BRANCH   5  29
HETATM   29  N2  UNL     1      25.118  51.749  -5.806  1.00  0.00    -0.218 N 
HETATM   30  C4  UNL     1      23.673  51.701  -5.961  1.00  0.00     0.141 C 
HETATM   31  C5  UNL     1      23.351  50.471  -6.780  1.00  0.00     0.020 C 
HETATM   32  C6  UNL     1      24.243  50.425  -7.995  1.00  0.00     0.003 C 
HETATM   33  C7  UNL     1      24.997  51.734  -8.190  1.00  0.00     0.020 C 
HETATM   34  C8  UNL     1      25.881  52.052  -7.008  1.00  0.00     0.141 C 
ENDBRANCH   5  29
TORSDOF 6
ENDMDL
MODEL 5
REMARK VINA RESULT: -6.940744042      2.672      8.366
REMARK  6 active torsions:
REMARK  status: ('A' for Active; 'I' for Inactive)
REMARK    1  A    between atoms: C3_5  and  N2_6 
REMARK    2  A    between atoms: C13_18  and  C14_19 
REMARK    3  A    between atoms: C14_19  and  O1_20 
REMARK    4  A    between atoms: C14_19  and  C15_22 
REMARK       I    between atoms: C15_22  and  N4_24 
REMARK    5  A    between atoms: N4_24  and  C16_26 
REMARK    6  A    between atoms: N5_30  and  C20_31 
ROOT
HETATM    1  C1  UNL     1      24.756  49.404   1.036  1.00  0.00     0.070 C 
HETATM    2  C2  UNL     1      25.949  50.112   0.529  1.00  0.00     0.037 A 
HETATM    3  N1  UNL     1      27.012  50.339   1.357  1.00  0.00    -0.195 N 
ATOM      4  H1  UNL     1      26.971  49.999   2.317  1.00  0.00     0.184 HD
HETATM    5  C3  UNL     1      28.106  50.994   0.948  1.00  0.00     0.682 A 
HETATM    6  N3  UNL     1      28.205  51.462  -0.310  1.00  0.00    -0.175 N 
ATOM      7  H3  UNL     1      29.043  51.960  -0.610  1.00  0.00     0.186 HD
HETATM    8  C9  UNL     1      27.188  51.267  -1.169  1.00  0.00     0.137 A 
HETATM    9  C10 UNL     1      26.054  50.593  -0.767  1.00  0.00     0.040 A 
HETATM   10  C11 UNL     1      25.210  50.519  -1.823  1.00  0.00    -0.016 A 
HETATM   11  C12 UNL     1      23.904  49.870  -1.901  1.00  0.00     0.052 C 
HETATM   12  C13 UNL     1      25.840  51.176  -2.926  1.00  0.00     0.082 A 
HETATM   13  N5  UNL     1      27.013  51.614  -2.503  1.00  0.00    -0.323 N 
ENDROOT
BRANCH  12  14
HETATM   14  C14 UNL     1      25.180  51.359  -4.194  1.00  0.00     0.162 C 
BRANCH  14  15
HETATM   15  O1  UNL     1      25.378  50.441  -5.124  1.00  0.00    -0.354 OA
ATOM     16  H1  UNL     1      25.010  50.602  -5.985  1.00  0.00     0.218 HD
ENDBRANCH  14  15
BRANCH  14  17
HETATM   17  C15 UNL     1      24.316  52.399  -4.670  1.00  0.00     0.277 C 
HETATM   18  O2  UNL     1      24.760  53.539  -4.933  1.00  0.00    -0.265 OA
HETATM   19  N4  UNL     1      22.910  52.160  -4.861  1.00  0.00    -0.351 N 
ATOM     20  H4  UNL     1      22.540  51.233  -4.649  1.00  0.00     0.163 HD
BRANCH  19  21
HETATM   21  C16 UNL     1      22.010  53.160  -5.331  1.00  0.00     0.084 C 
HETATM   22  C17 UNL     1      21.811  53.046  -6.829  1.00  0.00     0.025 C 
HETATM   23  C18 UNL     1      20.674  52.071  -6.527  1.00  0.00     0.004 C 
HETATM   24  C19 UNL     1      20.525  52.792  -5.204  1.00  0.00     0.025 C 
ENDBRANCH  19  21
ENDBRANCH  14  17
ENDBRANCH  12  14
BRANCH  13  25
HETATM   25  C20 UNL     1      28.008  52.422  -3.129  1.00  0.00     0.112 A 
HETATM   26  C21 UNL     1      29.476  52.267  -2.957  1.00  0.00     0.049 A 
HETATM   27  C22 UNL     1      28.844  51.832  -4.252  1.00  0.00     0.107 A 
HETATM   28 CL1  UNL     1      29.000  50.076  -4.481  1.00  0.00    -0.123 Cl
ENDBRANCH  13  25
BRANCH   5  29
HETATM   29  N2  UNL     1      29.168  51.192   1.858  1.00  0.00    -0.218 N 
HETATM   30  C4  UNL     1      28.924  51.301   3.288  1.00  0.00     0.141 C 
HETATM   31  C5  UNL     1      29.197  52.736   3.680  1.00  0.00     0.020 C 
HETATM   32  C6  UNL     1      30.519  53.175   3.104  1.00  0.00     0.003 C 
HETATM   33  C7  UNL     1      31.308  51.999   2.543  1.00  0.00     0.020 C 
HETATM   34  C8  UNL     1      30.557  51.299   1.436  1.00  0.00     0.141 C 
ENDBRANCH   5  29
TORSDOF 6
ENDMDL
