MODEL 1
REMARK VINA RESULT: -8.611924249      0.000      0.000
REMARK  6 active torsions:
REMARK  status: ('A' for Active; 'I' for Inactive)
REMARK    1  A    between atoms: N1_2  and  C3_4 
REMARK    2  A    between atoms: C4_5  and  C5_7 
REMARK    3  A    between atoms: C9_11  and  N2_12 
REMARK    4  A    between atoms: N2_12  and  C10_14 
REMARK    5  A    between atoms: C11_17  and  N4_18 
REMARK    6  A    between atoms: C18_27  and  N6_28 
ROOT
HETATM    1  C10 UNL     1      27.849  50.529   1.403  1.00  0.00     0.711 A 
HETATM    2  N3  UNL     1      27.880  50.566   0.060  1.00  0.00    -0.021 N 
ATOM      3  H3  UNL     1      27.157  50.094  -0.482  1.00  0.00     0.203 HD
HETATM    4  C11 UNL     1      28.866  51.228  -0.567  1.00  0.00     0.709 A 
HETATM    5  N5  UNL     1      29.804  51.842   0.158  1.00  0.00    -0.021 N 
ATOM      6  H5  UNL     1      30.546  52.341  -0.331  1.00  0.00     0.203 HD
HETATM    7  C18 UNL     1      29.817  51.835   1.498  1.00  0.00     0.709 A 
HETATM    8  N7  UNL     1      28.810  51.157   2.104  1.00  0.00    -0.021 N 
ATOM      9  H7  UNL     1      28.781  51.123   3.123  1.00  0.00     0.203 HD
ENDROOT
BRANCH   1  10
HETATM   10  N2  UNL     1      26.917  49.901   2.049  1.00  0.00    -0.191 N 
ATOM     11  H2  UNL     1      26.990  49.807   3.063  1.00  0.00     0.184 HD
BRANCH  10  12
HETATM   12  C9  UNL     1      25.791  49.338   1.378  1.00  0.00     0.050 A 
HETATM   13  C8  UNL     1      25.584  47.981   1.487  1.00  0.00     0.030 A 
HETATM   14  C7  UNL     1      24.511  47.395   0.856  1.00  0.00     0.003 A 
HETATM   15  C6  UNL     1      23.650  48.218   0.112  1.00  0.00     0.014 A 
HETATM   16  C5  UNL     1      23.800  49.563  -0.032  1.00  0.00     0.006 A 
HETATM   17  C23 UNL     1      24.922  50.098   0.640  1.00  0.00     0.044 A 
BRANCH  16  18
HETATM   18  C4  UNL     1      22.958  50.474  -0.776  1.00  0.00     0.141 C 
HETATM   19  C3  UNL     1      23.255  51.244  -1.756  1.00  0.00     0.128 C 
HETATM   20  F1  UNL     1      21.607  50.541  -0.378  1.00  0.00    -0.204 F 
BRANCH  19  21
HETATM   21  N1  UNL     1      24.426  51.515  -2.476  1.00  0.00    -0.396 N 
HETATM   22  C1  UNL     1      24.681  50.802  -3.710  1.00  0.00     0.148 C 
HETATM   23  C2  UNL     1      25.376  52.523  -2.057  1.00  0.00     0.148 C 
ENDBRANCH  19  21
ENDBRANCH  16  18
ENDBRANCH  10  12
ENDBRANCH   1  10
BRANCH   4  24
HETATM   24  N4  UNL     1      28.890  51.263  -1.979  1.00  0.00    -0.217 N 
HETATM   25  C12 UNL     1      29.590  52.372  -2.544  1.00  0.00     0.141 C 
HETATM   26  C13 UNL     1      28.926  52.956  -3.759  1.00  0.00     0.020 C 
HETATM   27  C14 UNL     1      28.237  51.960  -4.625  1.00  0.00     0.002 C 
HETATM   28  C15 UNL     1      29.058  50.719  -4.874  1.00  0.00     0.002 C 
HETATM   29  C16 UNL     1      28.961  49.700  -3.789  1.00  0.00     0.020 C 
HETATM   30  C17 UNL     1      28.184  50.139  -2.591  1.00  0.00     0.141 C 
ENDBRANCH   4  24
BRANCH   7  31
HETATM   31  N6  UNL     1      30.814  52.487   2.267  1.00  0.00    -0.217 N 
HETATM   32  C19 UNL     1      30.616  53.700   3.032  1.00  0.00     0.141 C 
HETATM   33  C20 UNL     1      31.348  53.354   4.325  1.00  0.00     0.022 C 
HETATM   34  C21 UNL     1      32.627  52.731   3.767  1.00  0.00     0.022 C 
HETATM   35  C22 UNL     1      32.192  52.109   2.456  1.00  0.00     0.141 C 
ENDBRANCH   7  31
TORSDOF 6
ENDMDL
MODEL 2
REMARK VINA RESULT: -8.333536591      2.288      5.219
REMARK  6 active torsions:
REMARK  status: ('A' for Active; 'I' for Inactive)
REMARK    1  A    between atoms: N1_2  and  C3_4 
REMARK    2  A    between atoms: C4_5  and  C5_7 
REMARK    3  A    between atoms: C9_11  and  N2_12 
REMARK    4  A    between atoms: N2_12  and  C10_14 
REMARK    5  A    between atoms: C11_17  and  N4_18 
REMARK    6  A    between atoms: C18_27  and  N6_28 
ROOT
HETATM    1  C10 UNL     1      28.543  50.840  -1.154  1.00  0.00     0.711 A 
HETATM    2  N3  UNL     1      27.345  50.236  -1.053  1.00  0.00    -0.021 N 
ATOM      3  H3  UNL     1      26.877  49.888  -1.889  1.00  0.00     0.203 HD
HETATM    4  C11 UNL     1      26.769  50.093   0.151  1.00  0.00     0.709 A 
HETATM    5  N5  UNL     1      27.398  50.554   1.234  1.00  0.00    -0.021 N 
ATOM      6  H5  UNL     1      26.949  50.438   2.142  1.00  0.00     0.203 HD
HETATM    7  C18 UNL     1      28.591  51.163   1.187  1.00  0.00     0.709 A 
HETATM    8  N7  UNL     1      29.149  51.295  -0.043  1.00  0.00    -0.021 N 
ATOM      9  H7  UNL     1      30.056  51.754  -0.127  1.00  0.00     0.203 HD
ENDROOT
BRANCH   1  10
HETATM   10  N2  UNL     1      29.135  51.001  -2.296  1.00  0.00    -0.191 N 
ATOM     11  H2  UNL     1      30.022  51.504  -2.330  1.00  0.00     0.184 HD
BRANCH  10  12
HETATM   12  C9  UNL     1      28.576  50.492  -3.506  1.00  0.00     0.050 A 
HETATM   13  C8  UNL     1      28.815  49.174  -3.825  1.00  0.00     0.030 A 
HETATM   14  C7  UNL     1      28.296  48.641  -4.983  1.00  0.00     0.003 A 
HETATM   15  C6  UNL     1      27.527  49.476  -5.810  1.00  0.00     0.014 A 
HETATM   16  C5  UNL     1      27.255  50.784  -5.549  1.00  0.00     0.006 A 
HETATM   17  C23 UNL     1      27.819  51.266  -4.346  1.00  0.00     0.044 A 
BRANCH  16  18
HETATM   18  C4  UNL     1      26.474  51.702  -6.347  1.00  0.00     0.141 C 
HETATM   19  C3  UNL     1      25.204  51.863  -6.396  1.00  0.00     0.128 C 
HETATM   20  F1  UNL     1      27.198  52.556  -7.206  1.00  0.00    -0.204 F 
BRANCH  19  21
HETATM   21  N1  UNL     1      24.110  51.271  -5.752  1.00  0.00    -0.396 N 
HETATM   22  C1  UNL     1      23.178  50.476  -6.525  1.00  0.00     0.148 C 
HETATM   23  C2  UNL     1      23.899  51.380  -4.325  1.00  0.00     0.148 C 
ENDBRANCH  19  21
ENDBRANCH  16  18
ENDBRANCH  10  12
ENDBRANCH   1  10
BRANCH   4  24
HETATM   24  N4  UNL     1      25.512  49.457   0.247  1.00  0.00    -0.217 N 
HETATM   25  C12 UNL     1      24.556  49.858  -0.736  1.00  0.00     0.141 C 
HETATM   26  C13 UNL     1      23.157  49.997  -0.203  1.00  0.00     0.020 C 
HETATM   27  C14 UNL     1      22.801  49.020   0.863  1.00  0.00     0.002 C 
HETATM   28  C15 UNL     1      23.230  47.609   0.543  1.00  0.00     0.002 C 
HETATM   29  C16 UNL     1      24.652  47.316   0.883  1.00  0.00     0.020 C 
HETATM   30  C17 UNL     1      25.438  48.499   1.348  1.00  0.00     0.141 C 
ENDBRANCH   4  24
BRANCH   7  31
HETATM   31  N6  UNL     1      29.257  51.653   2.339  1.00  0.00    -0.217 N 
HETATM   32  C19 UNL     1      30.598  52.199   2.357  1.00  0.00     0.141 C 
HETATM   33  C20 UNL     1      30.405  53.420   3.251  1.00  0.00     0.022 C 
HETATM   34  C21 UNL     1      29.564  52.817   4.375  1.00  0.00     0.022 C 
HETATM   35  C22 UNL     1      28.775  51.718   3.696  1.00  0.00     0.141 C 
ENDBRANCH   7  31
TORSDOF 6
ENDMDL
MODEL 3
REMARK VINA RESULT: -8.329533323      2.253      6.368
REMARK  6 active torsions:
REMARK  status: ('A' for Active; 'I' for Inactive)
REMARK    1  A    between atoms: N1_2  and  C3_4 
REMARK    2  A    between atoms: C4_5  and  C5_7 
REMARK    3  A    between atoms: C9_11  and  N2_12 
REMARK    4  A    between atoms: N2_12  and  C10_14 
REMARK    5  A    between atoms: C11_17  and  N4_18 
REMARK    6  A    between atoms: C18_27  and  N6_28 
ROOT
HETATM    1  C10 UNL     1      25.157  50.419  -0.228  1.00  0.00     0.711 A 
HETATM    2  N3  UNL     1      26.295  50.971   0.230  1.00  0.00    -0.021 N 
ATOM      3  H3  UNL     1      26.674  51.806  -0.216  1.00  0.00     0.203 HD
HETATM    4  C11 UNL     1      26.929  50.421   1.278  1.00  0.00     0.709 A 
HETATM    5  N5  UNL     1      26.416  49.329   1.851  1.00  0.00    -0.021 N 
ATOM      6  H5  UNL     1      26.908  48.923   2.646  1.00  0.00     0.203 HD
HETATM    7  C18 UNL     1      25.287  48.742   1.432  1.00  0.00     0.709 A 
HETATM    8  N7  UNL     1      24.669  49.319   0.371  1.00  0.00    -0.021 N 
ATOM      9  H7  UNL     1      23.807  48.904   0.017  1.00  0.00     0.203 HD
ENDROOT
BRANCH   1  10
HETATM   10  N2  UNL     1      24.513  50.916  -1.237  1.00  0.00    -0.191 N 
ATOM     11  H2  UNL     1      23.640  51.418  -1.072  1.00  0.00     0.184 HD
BRANCH  10  12
HETATM   12  C9  UNL     1      24.995  50.780  -2.573  1.00  0.00     0.050 A 
HETATM   13  C8  UNL     1      24.135  51.079  -3.606  1.00  0.00     0.030 A 
HETATM   14  C7  UNL     1      24.557  50.961  -4.910  1.00  0.00     0.003 A 
HETATM   15  C6  UNL     1      25.874  50.534  -5.143  1.00  0.00     0.014 A 
HETATM   16  C5  UNL     1      26.771  50.224  -4.167  1.00  0.00     0.006 A 
HETATM   17  C23 UNL     1      26.271  50.366  -2.853  1.00  0.00     0.044 A 
BRANCH  16  18
HETATM   18  C4  UNL     1      28.138  49.782  -4.328  1.00  0.00     0.141 C 
HETATM   19  C3  UNL     1      29.222  50.466  -4.337  1.00  0.00     0.128 C 
HETATM   20  F1  UNL     1      28.329  48.395  -4.503  1.00  0.00    -0.204 F 
BRANCH  19  21
HETATM   21  N1  UNL     1      29.529  51.826  -4.206  1.00  0.00    -0.396 N 
HETATM   22  C1  UNL     1      29.745  52.622  -5.396  1.00  0.00     0.148 C 
HETATM   23  C2  UNL     1      29.591  52.485  -2.919  1.00  0.00     0.148 C 
ENDBRANCH  19  21
ENDBRANCH  16  18
ENDBRANCH  10  12
ENDBRANCH   1  10
BRANCH   4  24
HETATM   24  N4  UNL     1      28.122  51.008   1.753  1.00  0.00    -0.217 N 
HETATM   25  C12 UNL     1      28.252  51.047   3.175  1.00  0.00     0.141 C 
HETATM   26  C13 UNL     1      28.860  52.319   3.697  1.00  0.00     0.020 C 
HETATM   27  C14 UNL     1      29.900  52.915   2.813  1.00  0.00     0.002 C 
HETATM   28  C15 UNL     1      30.884  51.900   2.285  1.00  0.00     0.002 C 
HETATM   29  C16 UNL     1      30.411  51.169   1.074  1.00  0.00     0.020 C 
HETATM   30  C17 UNL     1      29.001  51.467   0.679  1.00  0.00     0.141 C 
ENDBRANCH   4  24
BRANCH   7  31
HETATM   31  N6  UNL     1      24.745  47.582   2.042  1.00  0.00    -0.217 N 
HETATM   32  C19 UNL     1      25.267  46.945   3.232  1.00  0.00     0.141 C 
HETATM   33  C20 UNL     1      23.981  46.657   3.999  1.00  0.00     0.022 C 
HETATM   34  C21 UNL     1      23.103  46.100   2.879  1.00  0.00     0.022 C 
HETATM   35  C22 UNL     1      23.600  46.806   1.635  1.00  0.00     0.141 C 
ENDBRANCH   7  31
TORSDOF 6
ENDMDL
MODEL 4
REMARK VINA RESULT: -8.326171054      0.558      4.906
REMARK  6 active torsions:
REMARK  status: ('A' for Active; 'I' for Inactive)
REMARK    1  A    between atoms: N1_2  and  C3_4 
REMARK    2  A    between atoms: C4_5  and  C5_7 
REMARK    3  A    between atoms: C9_11  and  N2_12 
REMARK    4  A    between atoms: N2_12  and  C10_14 
REMARK    5  A    between atoms: C11_17  and  N4_18 
REMARK    6  A    between atoms: C18_27  and  N6_28 
ROOT
HETATM    1  C10 UNL     1      27.795  50.528   1.548  1.00  0.00     0.711 A 
HETATM    2  N3  UNL     1      28.749  51.178   2.237  1.00  0.00    -0.021 N 
ATOM      3  H3  UNL     1      28.716  51.202   3.256  1.00  0.00     0.203 HD
HETATM    4  C11 UNL     1      29.744  51.796   1.581  1.00  0.00     0.709 A 
HETATM    5  N5  UNL     1      29.770  51.753   0.247  1.00  0.00    -0.021 N 
ATOM      6  H5  UNL     1      30.532  52.226  -0.238  1.00  0.00     0.203 HD
HETATM    7  C18 UNL     1      28.845  51.119  -0.486  1.00  0.00     0.709 A 
HETATM    8  N7  UNL     1      27.851  50.505   0.204  1.00  0.00    -0.021 N 
ATOM      9  H7  UNL     1      27.124  50.011  -0.313  1.00  0.00     0.203 HD
ENDROOT
BRANCH   1  10
HETATM   10  N2  UNL     1      26.816  49.919   2.140  1.00  0.00    -0.191 N 
ATOM     11  H2  UNL     1      26.818  49.846   3.158  1.00  0.00     0.184 HD
BRANCH  10  12
HETATM   12  C9  UNL     1      25.735  49.349   1.404  1.00  0.00     0.050 A 
HETATM   13  C8  UNL     1      25.607  47.977   1.400  1.00  0.00     0.030 A 
HETATM   14  C7  UNL     1      24.579  47.384   0.703  1.00  0.00     0.003 A 
HETATM   15  C6  UNL     1      23.682  48.214   0.012  1.00  0.00     0.014 A 
HETATM   16  C5  UNL     1      23.755  49.573  -0.021  1.00  0.00     0.006 A 
HETATM   17  C23 UNL     1      24.834  50.115   0.714  1.00  0.00     0.044 A 
BRANCH  16  18
HETATM   18  C4  UNL     1      22.872  50.492  -0.705  1.00  0.00     0.141 C 
HETATM   19  C3  UNL     1      23.108  51.261  -1.702  1.00  0.00     0.128 C 
HETATM   20  F1  UNL     1      21.551  50.568  -0.217  1.00  0.00    -0.204 F 
BRANCH  19  21
HETATM   21  N1  UNL     1      24.230  51.525  -2.498  1.00  0.00    -0.396 N 
HETATM   22  C1  UNL     1      24.311  50.946  -3.824  1.00  0.00     0.148 C 
HETATM   23  C2  UNL     1      25.298  52.400  -2.066  1.00  0.00     0.148 C 
ENDBRANCH  19  21
ENDBRANCH  16  18
ENDBRANCH  10  12
ENDBRANCH   1  10
BRANCH   4  24
HETATM   24  N4  UNL     1      30.741  52.476   2.314  1.00  0.00    -0.217 N 
HETATM   25  C12 UNL     1      32.082  52.205   1.904  1.00  0.00     0.141 C 
HETATM   26  C13 UNL     1      33.054  52.081   3.043  1.00  0.00     0.020 C 
HETATM   27  C14 UNL     1      32.769  52.976   4.200  1.00  0.00     0.002 C 
HETATM   28  C15 UNL     1      32.436  54.389   3.790  1.00  0.00     0.002 C 
HETATM   29  C16 UNL     1      31.008  54.588   3.407  1.00  0.00     0.020 C 
HETATM   30  C17 UNL     1      30.194  53.336   3.362  1.00  0.00     0.141 C 
ENDBRANCH   4  24
BRANCH   7  31
HETATM   31  N6  UNL     1      28.875  51.075  -1.903  1.00  0.00    -0.217 N 
HETATM   32  C19 UNL     1      28.785  49.871  -2.702  1.00  0.00     0.141 C 
HETATM   33  C20 UNL     1      27.817  50.315  -3.793  1.00  0.00     0.022 C 
HETATM   34  C21 UNL     1      28.388  51.691  -4.134  1.00  0.00     0.022 C 
HETATM   35  C22 UNL     1      28.996  52.170  -2.833  1.00  0.00     0.141 C 
ENDBRANCH   7  31
TORSDOF 6
ENDMDL
MODEL 5
REMARK VINA RESULT: -8.268330305      2.352      5.285
REMARK  6 active torsions:
REMARK  status: ('A' for Active; 'I' for Inactive)
REMARK    1  A    between atoms: N1_2  and  C3_4 
REMARK    2  A    between atoms: C4_5  and  C5_7 
REMARK    3  A    between atoms: C9_11  and  N2_12 
REMARK    4  A    between atoms: N2_12  and  C10_14 
REMARK    5  A    between atoms: C11_17  and  N4_18 
REMARK    6  A    between atoms: C18_27  and  N6_28 
ROOT
HETATM    1  C10 UNL     1      28.338  50.759  -1.222  1.00  0.00     0.711 A 
HETATM    2  N3  UNL     1      27.157  50.138  -1.060  1.00  0.00    -0.021 N 
ATOM      3  H3  UNL     1      26.651  49.783  -1.871  1.00  0.00     0.203 HD
HETATM    4  C11 UNL     1      26.646  49.985   0.173  1.00  0.00     0.709 A 
HETATM    5  N5  UNL     1      27.323  50.456   1.222  1.00  0.00    -0.021 N 
ATOM      6  H5  UNL     1      26.924  50.332   2.152  1.00  0.00     0.203 HD
HETATM    7  C18 UNL     1      28.503  51.082   1.114  1.00  0.00     0.709 A 
HETATM    8  N7  UNL     1      28.995  51.223  -0.143  1.00  0.00    -0.021 N 
ATOM      9  H7  UNL     1      29.889  51.695  -0.273  1.00  0.00     0.203 HD
ENDROOT
BRANCH   1  10
HETATM   10  N2  UNL     1      28.868  50.929  -2.392  1.00  0.00    -0.191 N 
ATOM     11  H2  UNL     1      29.715  51.492  -2.479  1.00  0.00     0.184 HD
BRANCH  10  12
HETATM   12  C9  UNL     1      28.296  50.349  -3.564  1.00  0.00     0.050 A 
HETATM   13  C8  UNL     1      28.988  49.336  -4.189  1.00  0.00     0.030 A 
HETATM   14  C7  UNL     1      28.473  48.748  -5.322  1.00  0.00     0.003 A 
HETATM   15  C6  UNL     1      27.239  49.210  -5.805  1.00  0.00     0.014 A 
HETATM   16  C5  UNL     1      26.508  50.206  -5.232  1.00  0.00     0.006 A 
HETATM   17  C23 UNL     1      27.094  50.765  -4.075  1.00  0.00     0.044 A 
BRANCH  16  18
HETATM   18  C4  UNL     1      25.234  50.733  -5.668  1.00  0.00     0.141 C 
HETATM   19  C3  UNL     1      24.829  51.015  -6.851  1.00  0.00     0.128 C 
HETATM   20  F1  UNL     1      24.282  50.981  -4.658  1.00  0.00    -0.204 F 
BRANCH  19  21
HETATM   21  N1  UNL     1      25.396  50.942  -8.130  1.00  0.00    -0.396 N 
HETATM   22  C1  UNL     1      24.971  49.893  -9.034  1.00  0.00     0.148 C 
HETATM   23  C2  UNL     1      26.362  51.908  -8.606  1.00  0.00     0.148 C 
ENDBRANCH  19  21
ENDBRANCH  16  18
ENDBRANCH  10  12
ENDBRANCH   1  10
BRANCH   4  24
HETATM   24  N4  UNL     1      25.405  49.331   0.332  1.00  0.00    -0.217 N 
HETATM   25  C12 UNL     1      24.391  49.724  -0.593  1.00  0.00     0.141 C 
HETATM   26  C13 UNL     1      23.022  49.841   0.016  1.00  0.00     0.020 C 
HETATM   27  C14 UNL     1      22.739  48.851   1.093  1.00  0.00     0.002 C 
HETATM   28  C15 UNL     1      23.169  47.449   0.740  1.00  0.00     0.002 C 
HETATM   29  C16 UNL     1      24.612  47.174   1.000  1.00  0.00     0.020 C 
HETATM   30  C17 UNL     1      25.405  48.365   1.430  1.00  0.00     0.141 C 
ENDBRANCH   4  24
BRANCH   7  31
HETATM   31  N6  UNL     1      29.221  51.581   2.231  1.00  0.00    -0.217 N 
HETATM   32  C19 UNL     1      30.589  52.053   2.198  1.00  0.00     0.141 C 
HETATM   33  C20 UNL     1      30.483  53.318   3.043  1.00  0.00     0.022 C 
HETATM   34  C21 UNL     1      29.636  52.809   4.209  1.00  0.00     0.022 C 
HETATM   35  C22 UNL     1      28.774  51.727   3.593  1.00  0.00     0.141 C 
ENDBRANCH   7  31
TORSDOF 6
ENDMDL
