MODEL 1
REMARK VINA RESULT: -7.747188899      0.000      0.000
REMARK  6 active torsions:
REMARK  status: ('A' for Active; 'I' for Inactive)
REMARK    1  A    between atoms: N1_2  and  O1_3 
REMARK    2  A    between atoms: N1_2  and  C2_5 
REMARK    3  A    between atoms: C5_9  and  O2_11 
REMARK    4  A    between atoms: O2_11  and  C7_12 
REMARK    5  A    between atoms: C10_15  and  N2_16 
REMARK    6  A    between atoms: C20_30  and  C21_31 
ROOT
HETATM    1  O2  UNL     1      24.089  52.575  -2.808  1.00  0.00    -0.325 OA
ENDROOT
BRANCH   1   2
HETATM    2  C5  UNL     1      24.551  52.475  -4.114  1.00  0.00     0.069 C 
HETATM    3  C4  UNL     1      24.322  51.051  -4.591  1.00  0.00     0.078 C 
HETATM    4  C3  UNL     1      24.809  50.865  -6.009  1.00  0.00    -0.005 C 
HETATM    5  C2  UNL     1      23.969  50.388  -6.884  1.00  0.00     0.212 C 
HETATM    6  C20 UNL     1      26.206  51.250  -6.243  1.00  0.00     0.120 C 
HETATM    7  F1  UNL     1      22.705  50.093  -6.435  1.00  0.00    -0.184 F 
HETATM    8  C19 UNL     1      26.543  52.603  -5.600  1.00  0.00     0.023 C 
HETATM    9  C18 UNL     1      26.040  52.706  -4.184  1.00  0.00     0.039 C 
HETATM   10  C6  UNL     1      23.854  53.449  -5.040  1.00  0.00     0.047 C 
BRANCH   5  11
HETATM   11  N1  UNL     1      24.248  50.151  -8.235  1.00  0.00    -0.239 N 
HETATM   12  C1  UNL     1      23.714  51.108  -9.226  1.00  0.00     0.188 C 
BRANCH  11  13
HETATM   13  O1  UNL     1      24.946  49.145  -8.745  1.00  0.00    -0.286 OA
ATOM     14  H1  UNL     1      25.555  49.386  -9.432  1.00  0.00     0.244 HD
ENDBRANCH  11  13
ENDBRANCH   5  11
BRANCH   6  15
HETATM   15  C21 UNL     1      27.183  50.262  -5.731  1.00  0.00     0.181 C 
HETATM   16  O5  UNL     1      27.045  49.054  -6.026  1.00  0.00    -0.647 OA
HETATM   17  O6  UNL     1      28.268  50.575  -4.927  1.00  0.00    -0.647 OA
ENDBRANCH   6  15
ENDBRANCH   1   2
BRANCH   1  18
HETATM   18  C7  UNL     1      24.121  51.550  -1.851  1.00  0.00     0.142 A 
HETATM   19  C8  UNL     1      25.193  51.409  -1.004  1.00  0.00     0.058 A 
HETATM   20  C9  UNL     1      25.249  50.410  -0.055  1.00  0.00     0.035 A 
HETATM   21  C10 UNL     1      24.192  49.532   0.037  1.00  0.00     0.055 A 
HETATM   22  C17 UNL     1      23.151  49.724  -0.836  1.00  0.00     0.119 A 
HETATM   23  N3  UNL     1      23.100  50.691  -1.753  1.00  0.00    -0.345 N 
ATOM     24  H3  UNL     1      22.292  50.774  -2.371  1.00  0.00     0.167 HD
BRANCH  21  25
HETATM   25  N2  UNL     1      24.156  48.473   0.977  1.00  0.00    -0.289 N 
HETATM   26  C11 UNL     1      22.989  47.986   1.670  1.00  0.00     0.173 C 
HETATM   27  C12 UNL     1      23.509  47.075   2.701  1.00  0.00     0.089 C 
HETATM   28  C13 UNL     1      23.041  45.633   2.625  1.00  0.00     0.040 C 
HETATM   29  C15 UNL     1      22.851  47.129   4.061  1.00  0.00     0.040 C 
HETATM   30  O3  UNL     1      24.887  47.168   2.680  1.00  0.00    -0.291 OA
HETATM   31  C14 UNL     1      23.108  45.621   4.147  1.00  0.00     0.006 C 
HETATM   32  C16 UNL     1      25.252  47.675   1.434  1.00  0.00     0.368 C 
HETATM   33  O4  UNL     1      26.324  47.489   0.802  1.00  0.00    -0.238 OA
ENDBRANCH  21  25
ENDBRANCH   1  18
TORSDOF 6
ENDMDL
MODEL 2
REMARK VINA RESULT: -7.634895121      3.038      9.025
REMARK  6 active torsions:
REMARK  status: ('A' for Active; 'I' for Inactive)
REMARK    1  A    between atoms: N1_2  and  O1_3 
REMARK    2  A    between atoms: N1_2  and  C2_5 
REMARK    3  A    between atoms: C5_9  and  O2_11 
REMARK    4  A    between atoms: O2_11  and  C7_12 
REMARK    5  A    between atoms: C10_15  and  N2_16 
REMARK    6  A    between atoms: C20_30  and  C21_31 
ROOT
HETATM    1  O2  UNL     1      27.842  50.890  -0.681  1.00  0.00    -0.325 OA
ENDROOT
BRANCH   1   2
HETATM    2  C5  UNL     1      26.774  50.599   0.158  1.00  0.00     0.069 C 
HETATM    3  C4  UNL     1      26.254  49.216  -0.196  1.00  0.00     0.078 C 
HETATM    4  C3  UNL     1      25.081  48.834   0.675  1.00  0.00    -0.005 C 
HETATM    5  C2  UNL     1      25.149  47.708   1.329  1.00  0.00     0.212 C 
HETATM    6  C20 UNL     1      23.972  49.795   0.684  1.00  0.00     0.120 C 
HETATM    7  F1  UNL     1      26.291  46.963   1.164  1.00  0.00    -0.184 F 
HETATM    8  C19 UNL     1      24.467  51.240   0.840  1.00  0.00     0.023 C 
HETATM    9  C18 UNL     1      25.625  51.550  -0.072  1.00  0.00     0.039 C 
HETATM   10  C6  UNL     1      27.169  50.644   1.619  1.00  0.00     0.047 C 
BRANCH   5  11
HETATM   11  N1  UNL     1      24.160  47.199   2.178  1.00  0.00    -0.239 N 
HETATM   12  C1  UNL     1      24.550  46.852   3.560  1.00  0.00     0.188 C 
BRANCH  11  13
HETATM   13  O1  UNL     1      22.886  46.979   1.882  1.00  0.00    -0.286 OA
ATOM     14  H1  UNL     1      22.540  46.148   2.185  1.00  0.00     0.244 HD
ENDBRANCH  11  13
ENDBRANCH   5  11
BRANCH   6  15
HETATM   15  C21 UNL     1      23.137  49.743  -0.538  1.00  0.00     0.181 C 
HETATM   16  O5  UNL     1      21.891  49.741  -0.429  1.00  0.00    -0.647 OA
HETATM   17  O6  UNL     1      23.638  49.693  -1.829  1.00  0.00    -0.647 OA
ENDBRANCH   6  15
ENDBRANCH   1   2
BRANCH   1  18
HETATM   18  C7  UNL     1      27.799  50.892  -2.083  1.00  0.00     0.142 A 
HETATM   19  C8  UNL     1      28.447  49.923  -2.810  1.00  0.00     0.058 A 
HETATM   20  C9  UNL     1      28.421  49.903  -4.188  1.00  0.00     0.035 A 
HETATM   21  C10 UNL     1      27.721  50.890  -4.846  1.00  0.00     0.055 A 
HETATM   22  C17 UNL     1      27.095  51.830  -4.065  1.00  0.00     0.119 A 
HETATM   23  N3  UNL     1      27.122  51.847  -2.732  1.00  0.00    -0.345 N 
ATOM     24  H3  UNL     1      26.633  52.577  -2.215  1.00  0.00     0.167 HD
BRANCH  21  25
HETATM   25  N2  UNL     1      27.635  50.957  -6.259  1.00  0.00    -0.289 N 
HETATM   26  C11 UNL     1      28.435  51.788  -7.123  1.00  0.00     0.173 C 
HETATM   27  C12 UNL     1      27.799  51.686  -8.446  1.00  0.00     0.089 C 
HETATM   28  C13 UNL     1      28.660  51.129  -9.567  1.00  0.00     0.040 C 
HETATM   29  C15 UNL     1      27.704  52.954  -9.263  1.00  0.00     0.040 C 
HETATM   30  O3  UNL     1      26.632  50.964  -8.291  1.00  0.00    -0.291 OA
HETATM   31  C14 UNL     1      27.904  52.070 -10.498  1.00  0.00     0.006 C 
HETATM   32  C16 UNL     1      26.751  50.226  -7.114  1.00  0.00     0.368 C 
HETATM   33  O4  UNL     1      26.205  49.131  -6.823  1.00  0.00    -0.238 OA
ENDBRANCH  21  25
ENDBRANCH   1  18
TORSDOF 6
ENDMDL
MODEL 3
REMARK VINA RESULT: -7.621576745      2.589      8.921
REMARK  6 active torsions:
REMARK  status: ('A' for Active; 'I' for Inactive)
REMARK    1  A    between atoms: N1_2  and  O1_3 
REMARK    2  A    between atoms: N1_2  and  C2_5 
REMARK    3  A    between atoms: C5_9  and  O2_11 
REMARK    4  A    between atoms: O2_11  and  C7_12 
REMARK    5  A    between atoms: C10_15  and  N2_16 
REMARK    6  A    between atoms: C20_30  and  C21_31 
ROOT
HETATM    1  O2  UNL     1      27.134  50.531  -1.578  1.00  0.00    -0.325 OA
ENDROOT
BRANCH   1   2
HETATM    2  C5  UNL     1      26.398  50.340  -0.416  1.00  0.00     0.069 C 
HETATM    3  C4  UNL     1      25.863  48.918  -0.422  1.00  0.00     0.078 C 
HETATM    4  C3  UNL     1      25.042  48.639   0.814  1.00  0.00    -0.005 C 
HETATM    5  C2  UNL     1      25.366  47.607   1.541  1.00  0.00     0.212 C 
HETATM    6  C20 UNL     1      23.945  49.582   1.060  1.00  0.00     0.120 C 
HETATM    7  F1  UNL     1      26.435  46.858   1.113  1.00  0.00    -0.184 F 
HETATM    8  C19 UNL     1      24.391  51.040   0.879  1.00  0.00     0.023 C 
HETATM    9  C18 UNL     1      25.189  51.242  -0.382  1.00  0.00     0.039 C 
HETATM   10  C6  UNL     1      27.227  50.575   0.828  1.00  0.00     0.047 C 
BRANCH   5  11
HETATM   11  N1  UNL     1      24.719  47.200   2.714  1.00  0.00    -0.239 N 
HETATM   12  C1  UNL     1      25.500  47.200   3.967  1.00  0.00     0.188 C 
BRANCH  11  13
HETATM   13  O1  UNL     1      23.460  46.800   2.836  1.00  0.00    -0.286 OA
ATOM     14  H1  UNL     1      22.988  46.700   2.018  1.00  0.00     0.244 HD
ENDBRANCH  11  13
ENDBRANCH   5  11
BRANCH   6  15
HETATM   15  C21 UNL     1      22.773  49.366   0.180  1.00  0.00     0.181 C 
HETATM   16  O5  UNL     1      22.089  48.328   0.315  1.00  0.00    -0.647 OA
HETATM   17  O6  UNL     1      22.363  50.245  -0.810  1.00  0.00    -0.647 OA
ENDBRANCH   6  15
ENDBRANCH   1   2
BRANCH   1  18
HETATM   18  C7  UNL     1      26.603  50.624  -2.873  1.00  0.00     0.142 A 
HETATM   19  C8  UNL     1      27.324  50.200  -3.963  1.00  0.00     0.058 A 
HETATM   20  C9  UNL     1      26.825  50.280  -5.246  1.00  0.00     0.035 A 
HETATM   21  C10 UNL     1      25.565  50.804  -5.429  1.00  0.00     0.055 A 
HETATM   22  C17 UNL     1      24.895  51.211  -4.302  1.00  0.00     0.119 A 
HETATM   23  N3  UNL     1      25.380  51.132  -3.062  1.00  0.00    -0.345 N 
ATOM     24  H3  UNL     1      24.825  51.454  -2.270  1.00  0.00     0.167 HD
BRANCH  21  25
HETATM   25  N2  UNL     1      24.966  50.929  -6.706  1.00  0.00    -0.289 N 
HETATM   26  C11 UNL     1      24.660  52.162  -7.388  1.00  0.00     0.173 C 
HETATM   27  C12 UNL     1      23.831  51.768  -8.537  1.00  0.00     0.089 C 
HETATM   28  C13 UNL     1      24.376  52.112  -9.912  1.00  0.00     0.040 C 
HETATM   29  C15 UNL     1      22.654  52.656  -8.874  1.00  0.00     0.040 C 
HETATM   30  O3  UNL     1      23.567  50.417  -8.415  1.00  0.00    -0.291 OA
HETATM   31  C14 UNL     1      22.928  52.312 -10.342  1.00  0.00     0.006 C 
HETATM   32  C16 UNL     1      24.542  49.876  -7.578  1.00  0.00     0.368 C 
HETATM   33  O4  UNL     1      24.987  48.700  -7.560  1.00  0.00    -0.238 OA
ENDBRANCH  21  25
ENDBRANCH   1  18
TORSDOF 6
ENDMDL
MODEL 4
REMARK VINA RESULT: -7.585145532      2.868      8.889
REMARK  6 active torsions:
REMARK  status: ('A' for Active; 'I' for Inactive)
REMARK    1  A    between atoms: N1_2  and  O1_3 
REMARK    2  A    between atoms: N1_2  and  C2_5 
REMARK    3  A    between atoms: C5_9  and  O2_11 
REMARK    4  A    between atoms: O2_11  and  C7_12 
REMARK    5  A    between atoms: C10_15  and  N2_16 
REMARK    6  A    between atoms: C20_30  and  C21_31 
ROOT
HETATM    1  O2  UNL     1      27.815  50.859  -0.789  1.00  0.00    -0.325 OA
ENDROOT
BRANCH   1   2
HETATM    2  C5  UNL     1      26.765  50.587   0.079  1.00  0.00     0.069 C 
HETATM    3  C4  UNL     1      26.235  49.199  -0.236  1.00  0.00     0.078 C 
HETATM    4  C3  UNL     1      25.081  48.837   0.668  1.00  0.00    -0.005 C 
HETATM    5  C2  UNL     1      25.161  47.725   1.342  1.00  0.00     0.212 C 
HETATM    6  C20 UNL     1      23.974  49.801   0.682  1.00  0.00     0.120 C 
HETATM    7  F1  UNL     1      26.297  46.974   1.168  1.00  0.00    -0.184 F 
HETATM    8  C19 UNL     1      24.475  51.248   0.797  1.00  0.00     0.023 C 
HETATM    9  C18 UNL     1      25.614  51.537  -0.145  1.00  0.00     0.039 C 
HETATM   10  C6  UNL     1      27.192  50.661   1.529  1.00  0.00     0.047 C 
BRANCH   5  11
HETATM   11  N1  UNL     1      24.189  47.235   2.223  1.00  0.00    -0.239 N 
HETATM   12  C1  UNL     1      24.617  46.877   3.591  1.00  0.00     0.188 C 
BRANCH  11  13
HETATM   13  O1  UNL     1      22.901  47.043   1.969  1.00  0.00    -0.286 OA
ATOM     14  H1  UNL     1      22.330  47.097   2.725  1.00  0.00     0.244 HD
ENDBRANCH  11  13
ENDBRANCH   5  11
BRANCH   6  15
HETATM   15  C21 UNL     1      23.112  49.727  -0.521  1.00  0.00     0.181 C 
HETATM   16  O5  UNL     1      21.870  49.695  -0.383  1.00  0.00    -0.647 OA
HETATM   17  O6  UNL     1      23.584  49.686  -1.823  1.00  0.00    -0.647 OA
ENDBRANCH   6  15
ENDBRANCH   1   2
BRANCH   1  18
HETATM   18  C7  UNL     1      27.741  50.837  -2.189  1.00  0.00     0.142 A 
HETATM   19  C8  UNL     1      28.386  49.864  -2.915  1.00  0.00     0.058 A 
HETATM   20  C9  UNL     1      28.329  49.820  -4.292  1.00  0.00     0.035 A 
HETATM   21  C10 UNL     1      27.601  50.786  -4.950  1.00  0.00     0.055 A 
HETATM   22  C17 UNL     1      26.980  51.730  -4.171  1.00  0.00     0.119 A 
HETATM   23  N3  UNL     1      27.036  51.770  -2.839  1.00  0.00    -0.345 N 
ATOM     24  H3  UNL     1      26.549  52.503  -2.324  1.00  0.00     0.167 HD
BRANCH  21  25
HETATM   25  N2  UNL     1      27.483  50.827  -6.361  1.00  0.00    -0.289 N 
HETATM   26  C11 UNL     1      26.262  50.988  -7.110  1.00  0.00     0.173 C 
HETATM   27  C12 UNL     1      26.631  50.711  -8.507  1.00  0.00     0.089 C 
HETATM   28  C13 UNL     1      26.411  51.839  -9.500  1.00  0.00     0.040 C 
HETATM   29  C15 UNL     1      25.652  49.907  -9.331  1.00  0.00     0.040 C 
HETATM   30  O3  UNL     1      27.943  50.275  -8.511  1.00  0.00    -0.291 OA
HETATM   31  C14 UNL     1      26.094  50.758 -10.526  1.00  0.00     0.006 C 
HETATM   32  C16 UNL     1      28.532  50.716  -7.327  1.00  0.00     0.368 C 
HETATM   33  O4  UNL     1      29.744  50.977  -7.112  1.00  0.00    -0.238 OA
ENDBRANCH  21  25
ENDBRANCH   1  18
TORSDOF 6
ENDMDL
MODEL 5
REMARK VINA RESULT: -7.577079681      6.224      8.997
REMARK  6 active torsions:
REMARK  status: ('A' for Active; 'I' for Inactive)
REMARK    1  A    between atoms: N1_2  and  O1_3 
REMARK    2  A    between atoms: N1_2  and  C2_5 
REMARK    3  A    between atoms: C5_9  and  O2_11 
REMARK    4  A    between atoms: O2_11  and  C7_12 
REMARK    5  A    between atoms: C10_15  and  N2_16 
REMARK    6  A    between atoms: C20_30  and  C21_31 
ROOT
HETATM    1  O2  UNL     1      27.873  50.295   0.452  1.00  0.00    -0.325 OA
ENDROOT
BRANCH   1   2
HETATM    2  C5  UNL     1      26.526  50.269   0.790  1.00  0.00     0.069 C 
HETATM    3  C4  UNL     1      25.881  49.091   0.081  1.00  0.00     0.078 C 
HETATM    4  C3  UNL     1      24.407  49.003   0.398  1.00  0.00    -0.005 C 
HETATM    5  C2  UNL     1      23.951  47.876   0.866  1.00  0.00     0.212 C 
HETATM    6  C20 UNL     1      23.639  50.226   0.132  1.00  0.00     0.120 C 
HETATM    7  F1  UNL     1      24.859  46.859   1.030  1.00  0.00    -0.184 F 
HETATM    8  C19 UNL     1      24.354  51.478   0.659  1.00  0.00     0.023 C 
HETATM    9  C18 UNL     1      25.815  51.501   0.290  1.00  0.00     0.039 C 
HETATM   10  C6  UNL     1      26.317  50.149   2.285  1.00  0.00     0.047 C 
BRANCH   5  11
HETATM   11  N1  UNL     1      22.619  47.618   1.212  1.00  0.00    -0.239 N 
HETATM   12  C1  UNL     1      22.365  46.840   2.443  1.00  0.00     0.188 C 
BRANCH  11  13
HETATM   13  O1  UNL     1      21.532  47.991   0.550  1.00  0.00    -0.286 OA
ATOM     14  H1  UNL     1      20.730  47.557   0.816  1.00  0.00     0.244 HD
ENDBRANCH  11  13
ENDBRANCH   5  11
BRANCH   6  15
HETATM   15  C21 UNL     1      23.361  50.447  -1.305  1.00  0.00     0.181 C 
HETATM   16  O5  UNL     1      23.650  49.552  -2.130  1.00  0.00    -0.647 OA
HETATM   17  O6  UNL     1      22.793  51.599  -1.827  1.00  0.00    -0.647 OA
ENDBRANCH   6  15
ENDBRANCH   1   2
BRANCH   1  18
HETATM   18  C7  UNL     1      28.847  51.110   1.046  1.00  0.00     0.142 A 
HETATM   19  C8  UNL     1      29.768  51.783   0.280  1.00  0.00     0.058 A 
HETATM   20  C9  UNL     1      30.735  52.591   0.840  1.00  0.00     0.035 A 
HETATM   21  C10 UNL     1      30.770  52.719   2.210  1.00  0.00     0.055 A 
HETATM   22  C17 UNL     1      29.825  52.023   2.921  1.00  0.00     0.119 A 
HETATM   23  N3  UNL     1      28.890  51.243   2.377  1.00  0.00    -0.345 N 
ATOM     24  H3  UNL     1      28.218  50.754   2.968  1.00  0.00     0.167 HD
BRANCH  21  25
HETATM   25  N2  UNL     1      31.725  53.524   2.880  1.00  0.00    -0.289 N 
HETATM   26  C11 UNL     1      31.612  54.936   3.148  1.00  0.00     0.173 C 
HETATM   27  C12 UNL     1      32.944  55.342   3.623  1.00  0.00     0.089 C 
HETATM   28  C13 UNL     1      33.012  55.927   5.022  1.00  0.00     0.040 C 
HETATM   29  C15 UNL     1      33.474  56.670   3.132  1.00  0.00     0.040 C 
HETATM   30  O3  UNL     1      33.784  54.254   3.482  1.00  0.00    -0.291 OA
HETATM   31  C14 UNL     1      34.140  56.811   4.504  1.00  0.00     0.006 C 
HETATM   32  C16 UNL     1      32.984  53.114   3.421  1.00  0.00     0.368 C 
HETATM   33  O4  UNL     1      33.275  51.940   3.765  1.00  0.00    -0.238 OA
ENDBRANCH  21  25
ENDBRANCH   1  18
TORSDOF 6
ENDMDL
