MODEL 1
REMARK VINA RESULT: -8.357754493      0.000      0.000
REMARK  7 active torsions:
REMARK  status: ('A' for Active; 'I' for Inactive)
REMARK    1  A    between atoms: C2_2  and  C3_3 
REMARK    2  A    between atoms: C2_2  and  O2_6 
REMARK    3  A    between atoms: C3_3  and  O1_4 
REMARK    4  A    between atoms: O2_6  and  C4_7 
REMARK    5  A    between atoms: C4_7  and  C5_8 
REMARK    6  A    between atoms: C6_9  and  C7_10 
REMARK    7  A    between atoms: C17_26  and  C18_27 
ROOT
HETATM    1  C5  UNL     1      25.386  49.864   0.424  1.00  0.00     0.008 A 
HETATM    2  C6  UNL     1      24.388  48.923   0.832  1.00  0.00     0.024 A 
HETATM    3  C10 UNL     1      23.194  48.922   0.152  1.00  0.00     0.102 A 
HETATM    4  N2  UNL     1      22.960  49.747  -0.838  1.00  0.00    -0.368 N 
ATOM      5  H2  UNL     1      22.061  49.716  -1.319  1.00  0.00     0.165 HD
HETATM    6  C11 UNL     1      23.912  50.652  -1.236  1.00  0.00     0.017 A 
HETATM    7  C12 UNL     1      25.144  50.731  -0.618  1.00  0.00    -0.022 A 
HETATM    8  C13 UNL     1      26.275  51.574  -0.916  1.00  0.00     0.046 C 
HETATM    9  C14 UNL     1      26.289  52.353  -2.188  1.00  0.00    -0.009 C 
HETATM   10  C15 UNL     1      26.609  51.423  -3.341  1.00  0.00     0.006 C 
HETATM   11  C16 UNL     1      25.257  50.862  -3.681  1.00  0.00     0.018 C 
HETATM   12  C17 UNL     1      24.300  51.967  -3.340  1.00  0.00     0.030 C 
HETATM   13  C22 UNL     1      23.340  51.426  -2.320  1.00  0.00     0.075 C 
HETATM   14  C23 UNL     1      25.072  53.048  -2.607  1.00  0.00     0.023 C 
ENDROOT
BRANCH   1  15
HETATM   15  C4  UNL     1      26.594  49.800   1.222  1.00  0.00     0.148 C 
BRANCH  15  16
HETATM   16  O2  UNL     1      26.714  50.428   2.418  1.00  0.00    -0.355 OA
BRANCH  16  17
HETATM   17  C2  UNL     1      27.780  51.329   2.386  1.00  0.00     0.147 C 
HETATM   18  C1  UNL     1      28.843  50.879   1.395  1.00  0.00     0.042 C 
BRANCH  17  19
HETATM   19  C3  UNL     1      28.389  51.451   3.746  1.00  0.00     0.196 C 
BRANCH  19  20
HETATM   20  O1  UNL     1      27.979  50.326   4.487  1.00  0.00    -0.398 OA
ATOM     21  H1  UNL     1      27.208  50.581   4.980  1.00  0.00     0.209 HD
ENDBRANCH  19  20
ENDBRANCH  17  19
ENDBRANCH  16  17
ENDBRANCH  15  16
ENDBRANCH   1  15
BRANCH   2  22
HETATM   22  C7  UNL     1      24.636  48.006   1.928  1.00  0.00     0.110 A 
HETATM   23  N1  UNL     1      25.776  47.788   2.573  1.00  0.00    -0.342 N 
HETATM   24  C8  UNL     1      25.588  46.854   3.536  1.00  0.00     0.237 A 
ATOM     25  H1  UNL     1      26.661  48.253   2.372  1.00  0.00     0.167 HD
HETATM   26  O3  UNL     1      24.311  46.496   3.478  1.00  0.00    -0.278 OA
HETATM   27  C9  UNL     1      23.719  47.174   2.521  1.00  0.00     0.259 A 
HETATM   28  F1  UNL     1      22.422  47.091   2.156  1.00  0.00    -0.175 F 
ENDBRANCH   2  22
BRANCH  12  29
HETATM   29  C18 UNL     1      23.556  52.474  -4.514  1.00  0.00     0.122 C 
HETATM   30  N3  UNL     1      22.275  52.396  -4.663  1.00  0.00    -0.374 N 
HETATM   31  C19 UNL     1      21.584  52.902  -5.819  1.00  0.00     0.123 C 
ATOM     32  H3  UNL     1      21.727  51.954  -3.925  1.00  0.00     0.161 HD
HETATM   33  C20 UNL     1      22.371  52.856  -7.089  1.00  0.00     0.046 C 
HETATM   34  C21 UNL     1      23.854  52.936  -6.906  1.00  0.00     0.178 C 
HETATM   35  O4  UNL     1      24.243  53.090  -5.558  1.00  0.00    -0.339 OA
ENDBRANCH  12  29
TORSDOF 7
ENDMDL
MODEL 2
REMARK VINA RESULT: -8.280771324      4.252      8.736
REMARK  7 active torsions:
REMARK  status: ('A' for Active; 'I' for Inactive)
REMARK    1  A    between atoms: C2_2  and  C3_3 
REMARK    2  A    between atoms: C2_2  and  O2_6 
REMARK    3  A    between atoms: C3_3  and  O1_4 
REMARK    4  A    between atoms: O2_6  and  C4_7 
REMARK    5  A    between atoms: C4_7  and  C5_8 
REMARK    6  A    between atoms: C6_9  and  C7_10 
REMARK    7  A    between atoms: C17_26  and  C18_27 
ROOT
HETATM    1  C5  UNL     1      28.802  51.268   1.412  1.00  0.00     0.008 A 
HETATM    2  C6  UNL     1      27.633  50.876   2.139  1.00  0.00     0.024 A 
HETATM    3  C10 UNL     1      27.553  51.239   3.463  1.00  0.00     0.102 A 
HETATM    4  N2  UNL     1      28.503  51.922   4.053  1.00  0.00    -0.368 N 
ATOM      5  H2  UNL     1      28.408  52.173   5.037  1.00  0.00     0.165 HD
HETATM    6  C11 UNL     1      29.625  52.302   3.361  1.00  0.00     0.017 A 
HETATM    7  C12 UNL     1      29.801  51.988   2.028  1.00  0.00    -0.022 A 
HETATM    8  C13 UNL     1      30.875  52.330   1.131  1.00  0.00     0.046 C 
HETATM    9  C14 UNL     1      31.883  53.347   1.554  1.00  0.00    -0.009 C 
HETATM   10  C15 UNL     1      31.275  54.730   1.441  1.00  0.00     0.006 C 
HETATM   11  C16 UNL     1      30.559  54.870   2.756  1.00  0.00     0.018 C 
HETATM   12  C17 UNL     1      31.383  54.062   3.715  1.00  0.00     0.030 C 
HETATM   13  C22 UNL     1      30.485  53.006   4.293  1.00  0.00     0.075 C 
HETATM   14  C23 UNL     1      32.416  53.292   2.915  1.00  0.00     0.023 C 
ENDROOT
BRANCH   1  15
HETATM   15  C4  UNL     1      28.798  50.813   0.035  1.00  0.00     0.148 C 
BRANCH  15  16
HETATM   16  O2  UNL     1      28.187  51.502  -0.960  1.00  0.00    -0.355 OA
BRANCH  16  17
HETATM   17  C2  UNL     1      27.661  50.621  -1.906  1.00  0.00     0.147 C 
HETATM   18  C1  UNL     1      28.713  50.235  -2.934  1.00  0.00     0.042 C 
BRANCH  17  19
HETATM   19  C3  UNL     1      26.495  51.248  -2.600  1.00  0.00     0.196 C 
BRANCH  19  20
HETATM   20  O1  UNL     1      25.417  50.346  -2.499  1.00  0.00    -0.398 OA
ATOM     21  H1  UNL     1      24.796  50.720  -1.885  1.00  0.00     0.209 HD
ENDBRANCH  19  20
ENDBRANCH  17  19
ENDBRANCH  16  17
ENDBRANCH  15  16
ENDBRANCH   1  15
BRANCH   2  22
HETATM   22  C7  UNL     1      26.577  50.120   1.497  1.00  0.00     0.110 A 
HETATM   23  N1  UNL     1      26.486  48.804   1.345  1.00  0.00    -0.342 N 
HETATM   24  C8  UNL     1      25.341  48.494   0.691  1.00  0.00     0.237 A 
ATOM     25  H1  UNL     1      27.176  48.127   1.671  1.00  0.00     0.167 HD
HETATM   26  O3  UNL     1      24.721  49.641   0.439  1.00  0.00    -0.278 OA
HETATM   27  C9  UNL     1      25.444  50.631   0.914  1.00  0.00     0.259 A 
HETATM   28  F1  UNL     1      25.147  51.947   0.855  1.00  0.00    -0.175 F 
ENDBRANCH   2  22
BRANCH  12  29
HETATM   29  C18 UNL     1      31.971  54.874   4.802  1.00  0.00     0.122 C 
HETATM   30  N3  UNL     1      31.484  54.972   5.994  1.00  0.00    -0.374 N 
HETATM   31  C19 UNL     1      32.085  55.771   7.029  1.00  0.00     0.123 C 
ATOM     32  H3  UNL     1      30.631  54.456   6.213  1.00  0.00     0.161 HD
HETATM   33  C20 UNL     1      32.806  56.985   6.542  1.00  0.00     0.046 C 
HETATM   34  C21 UNL     1      33.358  56.868   5.155  1.00  0.00     0.178 C 
HETATM   35  O4  UNL     1      33.136  55.603   4.572  1.00  0.00    -0.339 OA
ENDBRANCH  12  29
TORSDOF 7
ENDMDL
MODEL 3
REMARK VINA RESULT: -7.995440151      3.720      8.530
REMARK  7 active torsions:
REMARK  status: ('A' for Active; 'I' for Inactive)
REMARK    1  A    between atoms: C2_2  and  C3_3 
REMARK    2  A    between atoms: C2_2  and  O2_6 
REMARK    3  A    between atoms: C3_3  and  O1_4 
REMARK    4  A    between atoms: O2_6  and  C4_7 
REMARK    5  A    between atoms: C4_7  and  C5_8 
REMARK    6  A    between atoms: C6_9  and  C7_10 
REMARK    7  A    between atoms: C17_26  and  C18_27 
ROOT
HETATM    1  C5  UNL     1      28.188  50.932   0.729  1.00  0.00     0.008 A 
HETATM    2  C6  UNL     1      26.986  50.584   1.422  1.00  0.00     0.024 A 
HETATM    3  C10 UNL     1      26.965  50.745   2.787  1.00  0.00     0.102 A 
HETATM    4  N2  UNL     1      28.001  51.202   3.446  1.00  0.00    -0.368 N 
ATOM      5  H2  UNL     1      27.947  51.308   4.460  1.00  0.00     0.165 HD
HETATM    6  C11 UNL     1      29.157  51.538   2.789  1.00  0.00     0.017 A 
HETATM    7  C12 UNL     1      29.278  51.414   1.419  1.00  0.00    -0.022 A 
HETATM    8  C13 UNL     1      30.380  51.752   0.554  1.00  0.00     0.046 C 
HETATM    9  C14 UNL     1      31.515  52.554   1.098  1.00  0.00    -0.009 C 
HETATM   10  C15 UNL     1      31.091  54.004   1.214  1.00  0.00     0.006 C 
HETATM   11  C16 UNL     1      30.411  54.029   2.555  1.00  0.00     0.018 C 
HETATM   12  C17 UNL     1      31.131  52.984   3.356  1.00  0.00     0.030 C 
HETATM   13  C22 UNL     1      30.109  51.975   3.792  1.00  0.00     0.075 C 
HETATM   14  C23 UNL     1      32.048  52.223   2.419  1.00  0.00     0.023 C 
ENDROOT
BRANCH   1  15
HETATM   15  C4  UNL     1      28.114  50.699  -0.700  1.00  0.00     0.148 C 
BRANCH  15  16
HETATM   16  O2  UNL     1      27.575  51.600  -1.559  1.00  0.00    -0.355 OA
BRANCH  16  17
HETATM   17  C2  UNL     1      27.627  51.112  -2.866  1.00  0.00     0.147 C 
HETATM   18  C1  UNL     1      26.278  50.551  -3.291  1.00  0.00     0.042 C 
BRANCH  17  19
HETATM   19  C3  UNL     1      28.666  50.043  -2.975  1.00  0.00     0.196 C 
BRANCH  19  20
HETATM   20  O1  UNL     1      28.310  49.228  -4.067  1.00  0.00    -0.398 OA
ATOM     21  H1  UNL     1      28.402  48.325  -3.786  1.00  0.00     0.209 HD
ENDBRANCH  19  20
ENDBRANCH  17  19
ENDBRANCH  16  17
ENDBRANCH  15  16
ENDBRANCH   1  15
BRANCH   2  22
HETATM   22  C7  UNL     1      25.834  50.077   0.703  1.00  0.00     0.110 A 
HETATM   23  N1  UNL     1      24.907  50.767   0.048  1.00  0.00    -0.342 N 
HETATM   24  C8  UNL     1      23.998  49.919  -0.491  1.00  0.00     0.237 A 
ATOM     25  H1  UNL     1      24.882  51.783  -0.035  1.00  0.00     0.167 HD
HETATM   26  O3  UNL     1      24.376  48.690  -0.160  1.00  0.00    -0.278 OA
HETATM   27  C9  UNL     1      25.476  48.759   0.556  1.00  0.00     0.259 A 
HETATM   28  F1  UNL     1      26.166  47.723   1.077  1.00  0.00    -0.175 F 
ENDBRANCH   2  22
BRANCH  12  29
HETATM   29  C18 UNL     1      31.830  53.537   4.536  1.00  0.00     0.122 C 
HETATM   30  N3  UNL     1      32.984  53.141   4.961  1.00  0.00    -0.374 N 
HETATM   31  C19 UNL     1      33.636  53.704   6.114  1.00  0.00     0.123 C 
ATOM     32  H3  UNL     1      33.457  52.393   4.453  1.00  0.00     0.161 HD
HETATM   33  C20 UNL     1      32.710  54.198   7.177  1.00  0.00     0.046 C 
HETATM   34  C21 UNL     1      31.370  54.644   6.678  1.00  0.00     0.178 C 
HETATM   35  O4  UNL     1      31.241  54.561   5.276  1.00  0.00    -0.339 OA
ENDBRANCH  12  29
TORSDOF 7
ENDMDL
MODEL 4
REMARK VINA RESULT: -7.962050473      3.754      8.512
REMARK  7 active torsions:
REMARK  status: ('A' for Active; 'I' for Inactive)
REMARK    1  A    between atoms: C2_2  and  C3_3 
REMARK    2  A    between atoms: C2_2  and  O2_6 
REMARK    3  A    between atoms: C3_3  and  O1_4 
REMARK    4  A    between atoms: O2_6  and  C4_7 
REMARK    5  A    between atoms: C4_7  and  C5_8 
REMARK    6  A    between atoms: C6_9  and  C7_10 
REMARK    7  A    between atoms: C17_26  and  C18_27 
ROOT
HETATM    1  C5  UNL     1      25.090  51.258  -4.784  1.00  0.00     0.008 A 
HETATM    2  C6  UNL     1      23.872  51.900  -4.395  1.00  0.00     0.024 A 
HETATM    3  C10 UNL     1      23.710  52.210  -3.065  1.00  0.00     0.102 A 
HETATM    4  N2  UNL     1      24.629  51.936  -2.173  1.00  0.00    -0.368 N 
ATOM      5  H2  UNL     1      24.472  52.182  -1.195  1.00  0.00     0.165 HD
HETATM    6  C11 UNL     1      25.799  51.322  -2.539  1.00  0.00     0.017 A 
HETATM    7  C12 UNL     1      26.059  50.971  -3.849  1.00  0.00    -0.022 A 
HETATM    8  C13 UNL     1      27.231  50.366  -4.429  1.00  0.00     0.046 C 
HETATM    9  C14 UNL     1      28.478  50.263  -3.616  1.00  0.00    -0.009 C 
HETATM   10  C15 UNL     1      29.145  51.622  -3.549  1.00  0.00     0.006 C 
HETATM   11  C16 UNL     1      28.429  52.271  -2.398  1.00  0.00     0.018 C 
HETATM   12  C17 UNL     1      28.074  51.130  -1.490  1.00  0.00     0.030 C 
HETATM   13  C22 UNL     1      26.581  51.134  -1.332  1.00  0.00     0.075 C 
HETATM   14  C23 UNL     1      28.380  49.836  -2.220  1.00  0.00     0.023 C 
ENDROOT
BRANCH   1  15
HETATM   15  C4  UNL     1      25.148  50.952  -6.200  1.00  0.00     0.148 C 
BRANCH  15  16
HETATM   16  O2  UNL     1      24.657  49.798  -6.717  1.00  0.00    -0.355 OA
BRANCH  16  17
HETATM   17  C2  UNL     1      25.178  49.581  -7.994  1.00  0.00     0.147 C 
HETATM   18  C1  UNL     1      26.566  50.191  -8.127  1.00  0.00     0.042 C 
BRANCH  17  19
HETATM   19  C3  UNL     1      24.275  50.175  -9.026  1.00  0.00     0.196 C 
BRANCH  19  20
HETATM   20  O1  UNL     1      24.302  49.320 -10.144  1.00  0.00    -0.398 OA
ATOM     21  H1  UNL     1      24.643  48.483  -9.849  1.00  0.00     0.209 HD
ENDBRANCH  19  20
ENDBRANCH  17  19
ENDBRANCH  16  17
ENDBRANCH  15  16
ENDBRANCH   1  15
BRANCH   2  22
HETATM   22  C7  UNL     1      22.847  52.207  -5.373  1.00  0.00     0.110 A 
HETATM   23  N1  UNL     1      22.067  51.362  -6.036  1.00  0.00    -0.342 N 
HETATM   24  C8  UNL     1      21.238  52.049  -6.859  1.00  0.00     0.237 A 
ATOM     25  H1  UNL     1      22.089  50.346  -5.941  1.00  0.00     0.167 HD
HETATM   26  O3  UNL     1      21.518  53.337  -6.695  1.00  0.00    -0.278 OA
HETATM   27  C9  UNL     1      22.480  53.456  -5.808  1.00  0.00     0.259 A 
HETATM   28  F1  UNL     1      23.038  54.606  -5.373  1.00  0.00    -0.175 F 
ENDBRANCH   2  22
BRANCH  12  29
HETATM   29  C18 UNL     1      28.722  51.220  -0.164  1.00  0.00     0.122 C 
HETATM   30  N3  UNL     1      28.158  50.901   0.954  1.00  0.00    -0.374 N 
HETATM   31  C19 UNL     1      28.820  51.000   2.228  1.00  0.00     0.123 C 
ATOM     32  H3  UNL     1      27.195  50.562   0.933  1.00  0.00     0.161 HD
HETATM   33  C20 UNL     1      29.834  52.094   2.323  1.00  0.00     0.046 C 
HETATM   34  C21 UNL     1      30.474  52.464   1.021  1.00  0.00     0.178 C 
HETATM   35  O4  UNL     1      30.035  51.674  -0.062  1.00  0.00    -0.339 OA
ENDBRANCH  12  29
TORSDOF 7
ENDMDL
MODEL 5
REMARK VINA RESULT: -7.934416329      3.598      8.509
REMARK  7 active torsions:
REMARK  status: ('A' for Active; 'I' for Inactive)
REMARK    1  A    between atoms: C2_2  and  C3_3 
REMARK    2  A    between atoms: C2_2  and  O2_6 
REMARK    3  A    between atoms: C3_3  and  O1_4 
REMARK    4  A    between atoms: O2_6  and  C4_7 
REMARK    5  A    between atoms: C4_7  and  C5_8 
REMARK    6  A    between atoms: C6_9  and  C7_10 
REMARK    7  A    between atoms: C17_26  and  C18_27 
ROOT
HETATM    1  C5  UNL     1      28.162  50.917   0.784  1.00  0.00     0.008 A 
HETATM    2  C6  UNL     1      26.964  50.562   1.482  1.00  0.00     0.024 A 
HETATM    3  C10 UNL     1      26.948  50.723   2.846  1.00  0.00     0.102 A 
HETATM    4  N2  UNL     1      27.983  51.186   3.502  1.00  0.00    -0.368 N 
ATOM      5  H2  UNL     1      27.933  51.292   4.516  1.00  0.00     0.165 HD
HETATM    6  C11 UNL     1      29.134  51.530   2.840  1.00  0.00     0.017 A 
HETATM    7  C12 UNL     1      29.251  51.407   1.470  1.00  0.00    -0.022 A 
HETATM    8  C13 UNL     1      30.348  51.751   0.600  1.00  0.00     0.046 C 
HETATM    9  C14 UNL     1      31.479  52.561   1.139  1.00  0.00    -0.009 C 
HETATM   10  C15 UNL     1      31.047  54.008   1.257  1.00  0.00     0.006 C 
HETATM   11  C16 UNL     1      30.372  54.029   2.601  1.00  0.00     0.018 C 
HETATM   12  C17 UNL     1      31.102  52.988   3.399  1.00  0.00     0.030 C 
HETATM   13  C22 UNL     1      30.088  51.973   3.839  1.00  0.00     0.075 C 
HETATM   14  C23 UNL     1      32.020  52.232   2.458  1.00  0.00     0.023 C 
ENDROOT
BRANCH   1  15
HETATM   15  C4  UNL     1      28.083  50.684  -0.644  1.00  0.00     0.148 C 
BRANCH  15  16
HETATM   16  O2  UNL     1      27.462  51.542  -1.491  1.00  0.00    -0.355 OA
BRANCH  16  17
HETATM   17  C2  UNL     1      27.001  50.860  -2.619  1.00  0.00     0.147 C 
HETATM   18  C1  UNL     1      28.154  50.489  -3.539  1.00  0.00     0.042 C 
BRANCH  17  19
HETATM   19  C3  UNL     1      26.022  51.707  -3.366  1.00  0.00     0.196 C 
BRANCH  19  20
HETATM   20  O1  UNL     1      25.338  52.490  -2.416  1.00  0.00    -0.398 OA
ATOM     21  H1  UNL     1      25.022  53.265  -2.866  1.00  0.00     0.209 HD
ENDBRANCH  19  20
ENDBRANCH  17  19
ENDBRANCH  16  17
ENDBRANCH  15  16
ENDBRANCH   1  15
BRANCH   2  22
HETATM   22  C7  UNL     1      25.813  50.047   0.767  1.00  0.00     0.110 A 
HETATM   23  N1  UNL     1      24.858  50.733   0.149  1.00  0.00    -0.342 N 
HETATM   24  C8  UNL     1      23.960  49.879  -0.401  1.00  0.00     0.237 A 
ATOM     25  H1  UNL     1      24.807  51.750   0.096  1.00  0.00     0.167 HD
HETATM   26  O3  UNL     1      24.374  48.651  -0.112  1.00  0.00    -0.278 OA
HETATM   27  C9  UNL     1      25.484  48.726   0.588  1.00  0.00     0.259 A 
HETATM   28  F1  UNL     1      26.209  47.692   1.066  1.00  0.00    -0.175 F 
ENDBRANCH   2  22
BRANCH  12  29
HETATM   29  C18 UNL     1      31.802  53.546   4.577  1.00  0.00     0.122 C 
HETATM   30  N3  UNL     1      32.968  53.170   4.986  1.00  0.00    -0.374 N 
HETATM   31  C19 UNL     1      33.621  53.736   6.137  1.00  0.00     0.123 C 
ATOM     32  H3  UNL     1      33.451  52.435   4.467  1.00  0.00     0.161 HD
HETATM   33  C20 UNL     1      32.696  54.203   7.213  1.00  0.00     0.046 C 
HETATM   34  C21 UNL     1      31.343  54.626   6.732  1.00  0.00     0.178 C 
HETATM   35  O4  UNL     1      31.200  54.551   5.330  1.00  0.00    -0.339 OA
ENDBRANCH  12  29
TORSDOF 7
ENDMDL
