MODEL 1
REMARK VINA RESULT: -7.737081469      0.000      0.000
REMARK  6 active torsions:
REMARK  status: ('A' for Active; 'I' for Inactive)
REMARK    1  A    between atoms: C3_3  and  C5_5 
REMARK    2  A    between atoms: C5_5  and  O1_6 
REMARK    3  A    between atoms: O1_6  and  C6_7 
REMARK    4  A    between atoms: C7_8  and  O2_9 
REMARK    5  A    between atoms: O2_9  and  C8_10 
REMARK    6  A    between atoms: C12_15  and  N1_16 
ROOT
HETATM    1  C6  UNL     1      26.491  52.305  -3.824  1.00  0.00     0.181 C 
HETATM    2  C7  UNL     1      27.222  53.562  -4.245  1.00  0.00     0.163 C 
HETATM    3  C10 UNL     1      26.364  54.695  -3.887  1.00  0.00     0.037 C 
HETATM    4  C11 UNL     1      25.192  54.063  -3.112  1.00  0.00     0.031 C 
HETATM    5  C12 UNL     1      25.799  52.802  -2.548  1.00  0.00     0.127 C 
ENDROOT
BRANCH   5   6
HETATM    6  N1  UNL     1      24.848  51.968  -1.948  1.00  0.00    -0.291 N 
HETATM    7  C13 UNL     1      23.532  51.923  -2.323  1.00  0.00     0.330 A 
HETATM    8  O4  UNL     1      23.026  52.662  -3.180  1.00  0.00    -0.246 OA
HETATM    9  N2  UNL     1      22.711  51.048  -1.746  1.00  0.00    -0.274 N 
HETATM   10  C14 UNL     1      23.065  50.184  -0.807  1.00  0.00     0.265 A 
ATOM     11  H2  UNL     1      21.737  51.043  -2.050  1.00  0.00     0.173 HD
HETATM   12  O5  UNL     1      22.298  49.361  -0.265  1.00  0.00    -0.267 OA
HETATM   13  C15 UNL     1      24.395  50.232  -0.424  1.00  0.00     0.098 A 
HETATM   14  C16 UNL     1      24.833  49.370   0.585  1.00  0.00     0.134 A 
HETATM   15  C20 UNL     1      25.317  51.106  -0.964  1.00  0.00     0.058 A 
HETATM   16  F1  UNL     1      23.945  48.504   1.136  1.00  0.00    -0.205 F 
HETATM   17  C17 UNL     1      26.130  49.384   1.034  1.00  0.00     0.043 A 
HETATM   18  C18 UNL     1      27.022  50.267   0.481  1.00  0.00     0.005 A 
HETATM   19  C19 UNL     1      26.620  51.129  -0.517  1.00  0.00     0.031 A 
ENDBRANCH   5   6
BRANCH   1  20
HETATM   20  O1  UNL     1      25.756  51.617  -4.659  1.00  0.00    -0.341 OA
BRANCH  20  21
HETATM   21  C5  UNL     1      25.819  50.773  -5.753  1.00  0.00     0.076 C 
HETATM   22  C21 UNL     1      24.771  50.384  -6.431  1.00  0.00    -0.054 C 
HETATM   23  C22 UNL     1      23.353  50.800  -6.095  1.00  0.00     0.046 C 
HETATM   24  C23 UNL     1      24.829  49.516  -7.619  1.00  0.00     0.046 C 
BRANCH  21  25
HETATM   25  C3  UNL     1      27.187  50.339  -6.118  1.00  0.00    -0.033 C 
HETATM   26  C2  UNL     1      27.717  49.343  -5.363  1.00  0.00    -0.022 C 
HETATM   27  C1  UNL     1      29.052  48.777  -5.571  1.00  0.00     0.036 C 
HETATM   28  C4  UNL     1      28.053  50.814  -7.169  1.00  0.00     0.050 C 
ENDBRANCH  21  25
ENDBRANCH  20  21
ENDBRANCH   1  20
BRANCH   2  29
HETATM   29  O2  UNL     1      28.377  53.626  -3.394  1.00  0.00    -0.314 OA
BRANCH  29  30
HETATM   30  C8  UNL     1      29.345  52.688  -3.287  1.00  0.00     0.255 C 
HETATM   31  C9  UNL     1      30.147  52.370  -4.501  1.00  0.00     0.126 C 
HETATM   32  O3  UNL     1      29.555  52.119  -2.209  1.00  0.00    -0.266 OA
ENDBRANCH  29  30
ENDBRANCH   2  29
TORSDOF 6
ENDMDL
MODEL 2
REMARK VINA RESULT: -7.454870941      1.478      2.706
REMARK  6 active torsions:
REMARK  status: ('A' for Active; 'I' for Inactive)
REMARK    1  A    between atoms: C3_3  and  C5_5 
REMARK    2  A    between atoms: C5_5  and  O1_6 
REMARK    3  A    between atoms: O1_6  and  C6_7 
REMARK    4  A    between atoms: C7_8  and  O2_9 
REMARK    5  A    between atoms: O2_9  and  C8_10 
REMARK    6  A    between atoms: C12_15  and  N1_16 
ROOT
HETATM    1  C6  UNL     1      26.700  50.674  -2.859  1.00  0.00     0.181 C 
HETATM    2  C7  UNL     1      27.872  51.608  -3.071  1.00  0.00     0.163 C 
HETATM    3  C10 UNL     1      27.447  52.936  -2.618  1.00  0.00     0.037 C 
HETATM    4  C11 UNL     1      26.056  52.705  -1.998  1.00  0.00     0.031 C 
HETATM    5  C12 UNL     1      26.110  51.260  -1.570  1.00  0.00     0.127 C 
ENDROOT
BRANCH   5   6
HETATM    6  N1  UNL     1      24.868  50.779  -1.137  1.00  0.00    -0.291 N 
HETATM    7  C13 UNL     1      23.668  51.260  -1.588  1.00  0.00     0.330 A 
HETATM    8  O4  UNL     1      23.549  52.215  -2.370  1.00  0.00    -0.246 OA
HETATM    9  N2  UNL     1      22.534  50.696  -1.177  1.00  0.00    -0.274 N 
HETATM   10  C14 UNL     1      22.459  49.674  -0.339  1.00  0.00     0.265 A 
ATOM     11  H2  UNL     1      21.659  51.080  -1.533  1.00  0.00     0.173 HD
HETATM   12  O5  UNL     1      21.398  49.141   0.048  1.00  0.00    -0.267 OA
HETATM   13  C15 UNL     1      23.673  49.190   0.122  1.00  0.00     0.098 A 
HETATM   14  C16 UNL     1      23.668  48.131   1.034  1.00  0.00     0.134 A 
HETATM   15  C20 UNL     1      24.896  49.712  -0.248  1.00  0.00     0.058 A 
HETATM   16  F1  UNL     1      22.478  47.603   1.418  1.00  0.00    -0.205 F 
HETATM   17  C17 UNL     1      24.832  47.622   1.554  1.00  0.00     0.043 A 
HETATM   18  C18 UNL     1      26.032  48.165   1.171  1.00  0.00     0.005 A 
HETATM   19  C19 UNL     1      26.069  49.209   0.272  1.00  0.00     0.031 A 
ENDBRANCH   5   6
BRANCH   1  20
HETATM   20  O1  UNL     1      25.853  50.393  -3.816  1.00  0.00    -0.341 OA
BRANCH  20  21
HETATM   21  C5  UNL     1      25.656  50.490  -5.182  1.00  0.00     0.076 C 
HETATM   22  C21 UNL     1      26.411  49.893  -6.067  1.00  0.00    -0.054 C 
HETATM   23  C22 UNL     1      27.603  49.028  -5.708  1.00  0.00     0.046 C 
HETATM   24  C23 UNL     1      26.190  49.958  -7.522  1.00  0.00     0.046 C 
BRANCH  21  25
HETATM   25  C3  UNL     1      24.502  51.326  -5.581  1.00  0.00    -0.033 C 
HETATM   26  C2  UNL     1      24.694  52.670  -5.533  1.00  0.00    -0.022 C 
HETATM   27  C1  UNL     1      23.676  53.658  -5.892  1.00  0.00     0.036 C 
HETATM   28  C4  UNL     1      23.187  50.930  -6.021  1.00  0.00     0.050 C 
ENDBRANCH  21  25
ENDBRANCH  20  21
ENDBRANCH   1  20
BRANCH   2  29
HETATM   29  O2  UNL     1      28.882  51.156  -2.156  1.00  0.00    -0.314 OA
BRANCH  29  30
HETATM   30  C8  UNL     1      29.612  51.932  -1.324  1.00  0.00     0.255 C 
HETATM   31  C9  UNL     1      29.476  51.708   0.142  1.00  0.00     0.126 C 
HETATM   32  O3  UNL     1      30.373  52.798  -1.775  1.00  0.00    -0.266 OA
ENDBRANCH  29  30
ENDBRANCH   2  29
TORSDOF 6
ENDMDL
MODEL 3
REMARK VINA RESULT: -7.430840862      0.763      2.148
REMARK  6 active torsions:
REMARK  status: ('A' for Active; 'I' for Inactive)
REMARK    1  A    between atoms: C3_3  and  C5_5 
REMARK    2  A    between atoms: C5_5  and  O1_6 
REMARK    3  A    between atoms: O1_6  and  C6_7 
REMARK    4  A    between atoms: C7_8  and  O2_9 
REMARK    5  A    between atoms: O2_9  and  C8_10 
REMARK    6  A    between atoms: C12_15  and  N1_16 
ROOT
HETATM    1  C6  UNL     1      26.389  52.074  -3.779  1.00  0.00     0.181 C 
HETATM    2  C7  UNL     1      27.086  53.322  -4.277  1.00  0.00     0.163 C 
HETATM    3  C10 UNL     1      26.203  54.453  -3.975  1.00  0.00     0.037 C 
HETATM    4  C11 UNL     1      25.054  53.838  -3.153  1.00  0.00     0.031 C 
HETATM    5  C12 UNL     1      25.697  52.626  -2.525  1.00  0.00     0.127 C 
ENDROOT
BRANCH   5   6
HETATM    6  N1  UNL     1      24.772  51.804  -1.869  1.00  0.00    -0.291 N 
HETATM    7  C13 UNL     1      23.445  51.739  -2.200  1.00  0.00     0.330 A 
HETATM    8  O4  UNL     1      22.906  52.448  -3.062  1.00  0.00    -0.246 OA
HETATM    9  N2  UNL     1      22.649  50.877  -1.570  1.00  0.00    -0.274 N 
HETATM   10  C14 UNL     1      23.040  50.046  -0.617  1.00  0.00     0.265 A 
ATOM     11  H2  UNL     1      21.667  50.856  -1.842  1.00  0.00     0.173 HD
HETATM   12  O5  UNL     1      22.298  49.234  -0.025  1.00  0.00    -0.267 OA
HETATM   13  C15 UNL     1      24.382  50.114  -0.279  1.00  0.00     0.098 A 
HETATM   14  C16 UNL     1      24.858  49.287   0.742  1.00  0.00     0.134 A 
HETATM   15  C20 UNL     1      25.279  50.977  -0.875  1.00  0.00     0.058 A 
HETATM   16  F1  UNL     1      23.995  48.432   1.348  1.00  0.00    -0.205 F 
HETATM   17  C17 UNL     1      26.169  49.323   1.148  1.00  0.00     0.043 A 
HETATM   18  C18 UNL     1      27.036  50.194   0.539  1.00  0.00     0.005 A 
HETATM   19  C19 UNL     1      26.596  51.022  -0.471  1.00  0.00     0.031 A 
ENDBRANCH   5   6
BRANCH   1  20
HETATM   20  O1  UNL     1      25.663  51.322  -4.565  1.00  0.00    -0.341 OA
BRANCH  20  21
HETATM   21  C5  UNL     1      25.377  51.065  -5.894  1.00  0.00     0.076 C 
HETATM   22  C21 UNL     1      26.044  50.213  -6.628  1.00  0.00    -0.054 C 
HETATM   23  C22 UNL     1      27.222  49.407  -6.117  1.00  0.00     0.046 C 
HETATM   24  C23 UNL     1      25.727  49.903  -8.032  1.00  0.00     0.046 C 
BRANCH  21  25
HETATM   25  C3  UNL     1      24.233  51.831  -6.438  1.00  0.00    -0.033 C 
HETATM   26  C2  UNL     1      23.013  51.246  -6.319  1.00  0.00    -0.022 C 
HETATM   27  C1  UNL     1      21.765  51.848  -6.792  1.00  0.00     0.036 C 
HETATM   28  C4  UNL     1      24.213  53.123  -7.080  1.00  0.00     0.050 C 
ENDBRANCH  21  25
ENDBRANCH  20  21
ENDBRANCH   1  20
BRANCH   2  29
HETATM   29  O2  UNL     1      28.246  53.462  -3.443  1.00  0.00    -0.314 OA
BRANCH  29  30
HETATM   30  C8  UNL     1      29.257  52.572  -3.323  1.00  0.00     0.255 C 
HETATM   31  C9  UNL     1      29.986  52.172  -4.559  1.00  0.00     0.126 C 
HETATM   32  O3  UNL     1      29.564  52.112  -2.216  1.00  0.00    -0.266 OA
ENDBRANCH  29  30
ENDBRANCH   2  29
TORSDOF 6
ENDMDL
MODEL 4
REMARK VINA RESULT: -7.356429554      1.018      1.104
REMARK  6 active torsions:
REMARK  status: ('A' for Active; 'I' for Inactive)
REMARK    1  A    between atoms: C3_3  and  C5_5 
REMARK    2  A    between atoms: C5_5  and  O1_6 
REMARK    3  A    between atoms: O1_6  and  C6_7 
REMARK    4  A    between atoms: C7_8  and  O2_9 
REMARK    5  A    between atoms: O2_9  and  C8_10 
REMARK    6  A    between atoms: C12_15  and  N1_16 
ROOT
HETATM    1  C6  UNL     1      26.604  53.110  -4.189  1.00  0.00     0.181 C 
HETATM    2  C7  UNL     1      27.120  54.502  -4.489  1.00  0.00     0.163 C 
HETATM    3  C10 UNL     1      26.107  55.446  -4.008  1.00  0.00     0.037 C 
HETATM    4  C11 UNL     1      25.069  54.565  -3.286  1.00  0.00     0.031 C 
HETATM    5  C12 UNL     1      25.880  53.366  -2.860  1.00  0.00     0.127 C 
ENDROOT
BRANCH   5   6
HETATM    6  N1  UNL     1      25.087  52.338  -2.335  1.00  0.00    -0.291 N 
HETATM    7  C13 UNL     1      23.780  52.132  -2.687  1.00  0.00     0.330 A 
HETATM    8  O4  UNL     1      23.137  52.871  -3.448  1.00  0.00    -0.246 OA
HETATM    9  N2  UNL     1      23.119  51.086  -2.192  1.00  0.00    -0.274 N 
HETATM   10  C14 UNL     1      23.633  50.194  -1.361  1.00  0.00     0.265 A 
ATOM     11  H2  UNL     1      22.147  50.964  -2.476  1.00  0.00     0.173 HD
HETATM   12  O5  UNL     1      23.018  49.211  -0.896  1.00  0.00    -0.267 OA
HETATM   13  C15 UNL     1      24.954  50.404  -1.001  1.00  0.00     0.098 A 
HETATM   14  C16 UNL     1      25.552  49.518  -0.100  1.00  0.00     0.134 A 
HETATM   15  C20 UNL     1      25.715  51.460  -1.461  1.00  0.00     0.058 A 
HETATM   16  F1  UNL     1      24.824  48.474   0.371  1.00  0.00    -0.205 F 
HETATM   17  C17 UNL     1      26.847  49.683   0.322  1.00  0.00     0.043 A 
HETATM   18  C18 UNL     1      27.576  50.745  -0.149  1.00  0.00     0.005 A 
HETATM   19  C19 UNL     1      27.015  51.635  -1.039  1.00  0.00     0.031 A 
ENDBRANCH   5   6
BRANCH   1  20
HETATM   20  O1  UNL     1      25.960  52.401  -5.079  1.00  0.00    -0.341 OA
BRANCH  20  21
HETATM   21  C5  UNL     1      25.985  51.200  -5.765  1.00  0.00     0.076 C 
HETATM   22  C21 UNL     1      24.985  50.751  -6.478  1.00  0.00    -0.054 C 
HETATM   23  C22 UNL     1      23.669  51.487  -6.635  1.00  0.00     0.046 C 
HETATM   24  C23 UNL     1      25.011  49.492  -7.241  1.00  0.00     0.046 C 
BRANCH  21  25
HETATM   25  C3  UNL     1      27.252  50.444  -5.639  1.00  0.00    -0.033 C 
HETATM   26  C2  UNL     1      27.458  49.818  -4.452  1.00  0.00    -0.022 C 
HETATM   27  C1  UNL     1      28.645  49.021  -4.139  1.00  0.00     0.036 C 
HETATM   28  C4  UNL     1      28.314  50.264  -6.598  1.00  0.00     0.050 C 
ENDBRANCH  21  25
ENDBRANCH  20  21
ENDBRANCH   1  20
BRANCH   2  29
HETATM   29  O2  UNL     1      28.274  54.663  -3.650  1.00  0.00    -0.314 OA
BRANCH  29  30
HETATM   30  C8  UNL     1      29.498  54.131  -3.865  1.00  0.00     0.255 C 
HETATM   31  C9  UNL     1      29.909  52.964  -3.035  1.00  0.00     0.126 C 
HETATM   32  O3  UNL     1      30.247  54.602  -4.730  1.00  0.00    -0.266 OA
ENDBRANCH  29  30
ENDBRANCH   2  29
TORSDOF 6
ENDMDL
MODEL 5
REMARK VINA RESULT: -6.937259597      2.756      5.676
REMARK  6 active torsions:
REMARK  status: ('A' for Active; 'I' for Inactive)
REMARK    1  A    between atoms: C3_3  and  C5_5 
REMARK    2  A    between atoms: C5_5  and  O1_6 
REMARK    3  A    between atoms: O1_6  and  C6_7 
REMARK    4  A    between atoms: C7_8  and  O2_9 
REMARK    5  A    between atoms: O2_9  and  C8_10 
REMARK    6  A    between atoms: C12_15  and  N1_16 
ROOT
HETATM    1  C6  UNL     1      27.065  51.191  -2.083  1.00  0.00     0.181 C 
HETATM    2  C7  UNL     1      28.377  50.567  -1.658  1.00  0.00     0.163 C 
HETATM    3  C10 UNL     1      28.894  49.830  -2.815  1.00  0.00     0.037 C 
HETATM    4  C11 UNL     1      27.923  50.177  -3.959  1.00  0.00     0.031 C 
HETATM    5  C12 UNL     1      27.380  51.523  -3.548  1.00  0.00     0.127 C 
ENDROOT
BRANCH   5   6
HETATM    6  N1  UNL     1      26.327  51.953  -4.366  1.00  0.00    -0.291 N 
HETATM    7  C13 UNL     1      25.638  51.127  -5.213  1.00  0.00     0.330 A 
HETATM    8  O4  UNL     1      25.915  49.933  -5.403  1.00  0.00    -0.246 OA
HETATM    9  N2  UNL     1      24.603  51.604  -5.903  1.00  0.00    -0.274 N 
HETATM   10  C14 UNL     1      24.163  52.850  -5.840  1.00  0.00     0.265 A 
ATOM     11  H2  UNL     1      24.114  50.961  -6.525  1.00  0.00     0.173 HD
HETATM   12  O5  UNL     1      23.192  53.301  -6.483  1.00  0.00    -0.267 OA
HETATM   13  C15 UNL     1      24.863  53.687  -4.986  1.00  0.00     0.098 A 
HETATM   14  C16 UNL     1      24.473  55.026  -4.893  1.00  0.00     0.134 A 
HETATM   15  C20 UNL     1      25.947  53.282  -4.234  1.00  0.00     0.058 A 
HETATM   16  F1  UNL     1      23.412  55.451  -5.625  1.00  0.00    -0.205 F 
HETATM   17  C17 UNL     1      25.138  55.917  -4.088  1.00  0.00     0.043 A 
HETATM   18  C18 UNL     1      26.216  55.486  -3.357  1.00  0.00     0.005 A 
HETATM   19  C19 UNL     1      26.624  54.171  -3.427  1.00  0.00     0.031 A 
ENDBRANCH   5   6
BRANCH   1  20
HETATM   20  O1  UNL     1      25.914  50.617  -1.847  1.00  0.00    -0.341 OA
BRANCH  20  21
HETATM   21  C5  UNL     1      24.919  50.483  -0.895  1.00  0.00     0.076 C 
HETATM   22  C21 UNL     1      23.690  50.894  -1.068  1.00  0.00    -0.054 C 
HETATM   23  C22 UNL     1      23.203  51.579  -2.330  1.00  0.00     0.046 C 
HETATM   24  C23 UNL     1      22.613  50.725  -0.078  1.00  0.00     0.046 C 
BRANCH  21  25
HETATM   25  C3  UNL     1      25.348  49.820   0.357  1.00  0.00    -0.033 C 
HETATM   26  C2  UNL     1      25.068  48.495   0.457  1.00  0.00    -0.022 C 
HETATM   27  C1  UNL     1      25.416  47.668   1.613  1.00  0.00     0.036 C 
HETATM   28  C4  UNL     1      26.031  50.371   1.502  1.00  0.00     0.050 C 
ENDBRANCH  21  25
ENDBRANCH  20  21
ENDBRANCH   1  20
BRANCH   2  29
HETATM   29  O2  UNL     1      29.264  51.673  -1.435  1.00  0.00    -0.314 OA
BRANCH  29  30
HETATM   30  C8  UNL     1      29.906  51.963  -0.281  1.00  0.00     0.255 C 
HETATM   31  C9  UNL     1      29.493  51.237   0.951  1.00  0.00     0.126 C 
HETATM   32  O3  UNL     1      30.813  52.805  -0.259  1.00  0.00    -0.266 OA
ENDBRANCH  29  30
ENDBRANCH   2  29
TORSDOF 6
ENDMDL
