MODEL 1
REMARK VINA RESULT: -4.417797995      0.000      0.000
REMARK  2 active torsions:
REMARK  status: ('A' for Active; 'I' for Inactive)
REMARK    1  A    between atoms: C1_2  and  C2_4 
REMARK    2  A    between atoms: N3_10  and  N4_11 
ROOT
HETATM    1  C2  UNL     1      -3.891 -22.666  13.117  1.00  0.00     0.390 C 
HETATM    2  N2  UNL     1      -4.478 -23.894  12.548  1.00  0.00    -0.043 N 
ATOM      3  H21 UNL     1      -5.481 -23.980  12.708  1.00  0.00     0.280 HD
ATOM      4  H22 UNL     1      -4.203 -24.745  13.040  1.00  0.00     0.280 HD
HETATM    5  C3  UNL     1      -4.111 -23.889  11.149  1.00  0.00     0.257 C 
HETATM    6  C4  UNL     1      -2.968 -22.875  11.011  1.00  0.00     0.172 C 
HETATM    7  N3  UNL     1      -2.712 -22.551  12.357  1.00  0.00    -0.294 N 
ENDROOT
BRANCH   1   8
HETATM    8  C1  UNL     1      -4.888 -21.617  12.969  1.00  0.00     0.282 C 
HETATM    9  N1  UNL     1      -6.265 -21.967  12.973  1.00  0.00    -0.059 NA
HETATM   10  O1  UNL     1      -4.613 -20.398  12.836  1.00  0.00    -0.272 OA
ENDBRANCH   1   8
BRANCH   7  11
HETATM   11  N4  UNL     1      -1.815 -21.586  12.645  1.00  0.00    -0.345 N 
ATOM     12  H42 UNL     1      -1.500 -21.469  13.608  1.00  0.00     0.176 HD
ATOM     13  H41 UNL     1      -1.051 -21.390  11.999  1.00  0.00     0.176 HD
ENDBRANCH   7  11
TORSDOF 2
ENDMDL
MODEL 2
REMARK VINA RESULT: -4.172181412      1.094      1.094
REMARK  2 active torsions:
REMARK  status: ('A' for Active; 'I' for Inactive)
REMARK    1  A    between atoms: C1_2  and  C2_4 
REMARK    2  A    between atoms: N3_10  and  N4_11 
ROOT
HETATM    1  C2  UNL     1      -3.981 -22.815  13.091  1.00  0.00     0.390 C 
HETATM    2  N2  UNL     1      -4.499 -24.017  12.410  1.00  0.00    -0.043 N 
ATOM      3  H21 UNL     1      -5.488 -24.194  12.588  1.00  0.00     0.280 HD
ATOM      4  H22 UNL     1      -4.148 -24.892  12.801  1.00  0.00     0.280 HD
HETATM    5  C3  UNL     1      -4.184 -23.838  11.010  1.00  0.00     0.257 C 
HETATM    6  C4  UNL     1      -3.121 -22.733  10.951  1.00  0.00     0.172 C 
HETATM    7  N3  UNL     1      -2.841 -22.534  12.316  1.00  0.00    -0.294 N 
ENDROOT
BRANCH   1   8
HETATM    8  C1  UNL     1      -5.055 -21.834  13.084  1.00  0.00     0.282 C 
HETATM    9  N1  UNL     1      -4.733 -20.458  12.927  1.00  0.00    -0.059 NA
HETATM   10  O1  UNL     1      -6.273 -22.120  13.209  1.00  0.00    -0.272 OA
ENDBRANCH   1   8
BRANCH   7  11
HETATM   11  N4  UNL     1      -2.006 -21.540  12.681  1.00  0.00    -0.345 N 
ATOM     12  H42 UNL     1      -2.064 -21.161  13.626  1.00  0.00     0.176 HD
ATOM     13  H41 UNL     1      -1.037 -21.546  12.364  1.00  0.00     0.176 HD
ENDBRANCH   7  11
TORSDOF 2
ENDMDL
MODEL 3
REMARK VINA RESULT: -3.804176172      1.773      2.451
REMARK  2 active torsions:
REMARK  status: ('A' for Active; 'I' for Inactive)
REMARK    1  A    between atoms: C1_2  and  C2_4 
REMARK    2  A    between atoms: N3_10  and  N4_11 
ROOT
HETATM    1  C2  UNL     1      -4.258 -21.763  12.271  1.00  0.00     0.390 C 
HETATM    2  N2  UNL     1      -2.847 -21.515  12.622  1.00  0.00    -0.043 N 
ATOM      3  H21 UNL     1      -2.724 -21.062  13.527  1.00  0.00     0.280 HD
ATOM      4  H22 UNL     1      -2.408 -20.785  12.060  1.00  0.00     0.280 HD
HETATM    5  C3  UNL     1      -2.190 -22.800  12.521  1.00  0.00     0.257 C 
HETATM    6  C4  UNL     1      -3.133 -23.699  11.712  1.00  0.00     0.172 C 
HETATM    7  N3  UNL     1      -4.125 -22.784  11.312  1.00  0.00    -0.294 N 
ENDROOT
BRANCH   1   8
HETATM    8  C1  UNL     1      -4.947 -22.093  13.509  1.00  0.00     0.282 C 
HETATM    9  N1  UNL     1      -4.994 -21.129  14.552  1.00  0.00    -0.059 NA
HETATM   10  O1  UNL     1      -5.516 -23.192  13.727  1.00  0.00    -0.272 OA
ENDBRANCH   1   8
BRANCH   7  11
HETATM   11  N4  UNL     1      -5.210 -23.234  10.650  1.00  0.00    -0.345 N 
ATOM     12  H42 UNL     1      -6.135 -23.103  11.059  1.00  0.00     0.176 HD
ATOM     13  H41 UNL     1      -5.260 -23.149   9.635  1.00  0.00     0.176 HD
ENDBRANCH   7  11
TORSDOF 2
ENDMDL
MODEL 4
REMARK VINA RESULT: -3.670676151      1.817      2.456
REMARK  2 active torsions:
REMARK  status: ('A' for Active; 'I' for Inactive)
REMARK    1  A    between atoms: C1_2  and  C2_4 
REMARK    2  A    between atoms: N3_10  and  N4_11 
ROOT
HETATM    1  C2  UNL     1      -4.219 -22.478  11.520  1.00  0.00     0.390 C 
HETATM    2  N2  UNL     1      -3.351 -21.371  11.964  1.00  0.00    -0.043 N 
ATOM      3  H21 UNL     1      -3.836 -20.669  12.521  1.00  0.00     0.280 HD
ATOM      4  H22 UNL     1      -3.062 -20.749  11.208  1.00  0.00     0.280 HD
HETATM    5  C3  UNL     1      -2.245 -21.998  12.654  1.00  0.00     0.257 C 
HETATM    6  C4  UNL     1      -2.267 -23.476  12.243  1.00  0.00     0.172 C 
HETATM    7  N3  UNL     1      -3.268 -23.480  11.253  1.00  0.00    -0.294 N 
ENDROOT
BRANCH   1   8
HETATM    8  C1  UNL     1      -5.168 -22.725  12.595  1.00  0.00     0.282 C 
HETATM    9  N1  UNL     1      -6.234 -21.808  12.800  1.00  0.00    -0.059 NA
HETATM   10  O1  UNL     1      -5.111 -23.711  13.372  1.00  0.00    -0.272 OA
ENDBRANCH   1   8
BRANCH   7  11
HETATM   11  N4  UNL     1      -3.657 -24.652  10.712  1.00  0.00    -0.345 N 
ATOM     12  H42 UNL     1      -4.580 -25.025  10.936  1.00  0.00     0.176 HD
ATOM     13  H41 UNL     1      -3.413 -24.874   9.747  1.00  0.00     0.176 HD
ENDBRANCH   7  11
TORSDOF 2
ENDMDL
MODEL 5
REMARK VINA RESULT: -3.542676013      1.487      2.254
REMARK  2 active torsions:
REMARK  status: ('A' for Active; 'I' for Inactive)
REMARK    1  A    between atoms: C1_2  and  C2_4 
REMARK    2  A    between atoms: N3_10  and  N4_11 
ROOT
HETATM    1  C2  UNL     1      -4.153 -21.694  12.237  1.00  0.00     0.390 C 
HETATM    2  N2  UNL     1      -2.741 -21.469  12.600  1.00  0.00    -0.043 N 
ATOM      3  H21 UNL     1      -2.619 -20.996  13.495  1.00  0.00     0.280 HD
ATOM      4  H22 UNL     1      -2.278 -20.763  12.026  1.00  0.00     0.280 HD
HETATM    5  C3  UNL     1      -2.112 -22.770  12.540  1.00  0.00     0.257 C 
HETATM    6  C4  UNL     1      -3.065 -23.668  11.741  1.00  0.00     0.172 C 
HETATM    7  N3  UNL     1      -4.031 -22.742  11.306  1.00  0.00    -0.294 N 
ENDROOT
BRANCH   1   8
HETATM    8  C1  UNL     1      -4.864 -21.978  13.474  1.00  0.00     0.282 C 
HETATM    9  N1  UNL     1      -5.484 -23.246  13.640  1.00  0.00    -0.059 NA
HETATM   10  O1  UNL     1      -4.972 -21.165  14.427  1.00  0.00    -0.272 OA
ENDBRANCH   1   8
BRANCH   7  11
HETATM   11  N4  UNL     1      -5.117 -23.183  10.641  1.00  0.00    -0.345 N 
ATOM     12  H42 UNL     1      -6.037 -22.816  10.886  1.00  0.00     0.176 HD
ATOM     13  H41 UNL     1      -5.065 -23.359   9.638  1.00  0.00     0.176 HD
ENDBRANCH   7  11
TORSDOF 2
ENDMDL
