MODEL 1
REMARK VINA RESULT: -6.271196715      0.000      0.000
REMARK  4 active torsions:
REMARK  status: ('A' for Active; 'I' for Inactive)
REMARK       I    between atoms: C1_4  and  N3_6 
REMARK    1  A    between atoms: N3_6  and  N4_8 
REMARK    2  A    between atoms: N4_8  and  C2_10 
REMARK    3  A    between atoms: N5_11  and  N6_13 
REMARK    4  A    between atoms: N6_13  and  O1_15 
ROOT
HETATM    1  N4  UNL     1      -5.475 -22.574  13.113  1.00  0.00    -0.292 N 
ATOM      2  H4  UNL     1      -6.234 -23.158  13.464  1.00  0.00     0.187 HD
ENDROOT
BRANCH   1   3
HETATM    3  N3  UNL     1      -5.240 -22.557  11.743  1.00  0.00    -0.273 N 
HETATM    4  C1  UNL     1      -4.067 -23.078  11.155  1.00  0.00     0.200 C 
HETATM    5  N1  UNL     1      -3.227 -22.281  10.615  1.00  0.00    -0.372 N 
HETATM    6  N2  UNL     1      -3.823 -24.471  11.166  1.00  0.00    -0.062 NA
ATOM      7  H12 UNL     1      -2.379 -22.658  10.191  1.00  0.00     0.158 HD
ATOM      8  H11 UNL     1      -3.403 -21.276  10.608  1.00  0.00     0.158 HD
ATOM      9  H3  UNL     1      -5.948 -22.147  11.133  1.00  0.00     0.189 HD
ENDBRANCH   1   3
BRANCH   1  10
HETATM   10  C2  UNL     1      -4.715 -21.824  14.051  1.00  0.00     0.215 C 
HETATM   11  N5  UNL     1      -5.338 -21.129  14.939  1.00  0.00    -0.276 N 
ATOM     12  H5  UNL     1      -6.358 -21.128  14.958  1.00  0.00     0.189 HD
BRANCH  11  13
HETATM   13  N6  UNL     1      -4.628 -20.380  15.876  1.00  0.00    -0.209 N 
ATOM     14  H6  UNL     1      -3.649 -20.599  16.062  1.00  0.00     0.215 HD
BRANCH  13  15
HETATM   15  O1  UNL     1      -5.187 -19.433  16.495  1.00  0.00    -0.274 OA
ATOM     16  H1  UNL     1      -4.880 -19.172  17.356  1.00  0.00     0.246 HD
ENDBRANCH  13  15
ENDBRANCH  11  13
ENDBRANCH   1  10
TORSDOF 4
ENDMDL
MODEL 2
REMARK VINA RESULT: -6.218610357      3.414      5.153
REMARK  4 active torsions:
REMARK  status: ('A' for Active; 'I' for Inactive)
REMARK       I    between atoms: C1_4  and  N3_6 
REMARK    1  A    between atoms: N3_6  and  N4_8 
REMARK    2  A    between atoms: N4_8  and  C2_10 
REMARK    3  A    between atoms: N5_11  and  N6_13 
REMARK    4  A    between atoms: N6_13  and  O1_15 
ROOT
HETATM    1  N4  UNL     1      -2.762 -21.885  12.349  1.00  0.00    -0.292 N 
ATOM      2  H4  UNL     1      -2.036 -21.320  12.788  1.00  0.00     0.187 HD
ENDROOT
BRANCH   1   3
HETATM    3  N3  UNL     1      -4.039 -21.344  12.237  1.00  0.00    -0.273 N 
HETATM    4  C1  UNL     1      -5.073 -21.614  13.159  1.00  0.00     0.200 C 
HETATM    5  N1  UNL     1      -6.081 -22.307  12.786  1.00  0.00    -0.372 N 
HETATM    6  N2  UNL     1      -4.995 -21.123  14.482  1.00  0.00    -0.062 NA
ATOM      7  H12 UNL     1      -6.828 -22.502  13.453  1.00  0.00     0.158 HD
ATOM      8  H11 UNL     1      -6.137 -22.662  11.831  1.00  0.00     0.158 HD
ATOM      9  H3  UNL     1      -4.237 -20.723  11.452  1.00  0.00     0.189 HD
ENDBRANCH   1   3
BRANCH   1  10
HETATM   10  C2  UNL     1      -2.415 -23.183  11.884  1.00  0.00     0.215 C 
HETATM   11  N5  UNL     1      -3.103 -23.704  10.928  1.00  0.00    -0.276 N 
ATOM     12  H5  UNL     1      -3.879 -23.183  10.521  1.00  0.00     0.189 HD
BRANCH  11  13
HETATM   13  N6  UNL     1      -2.794 -24.975  10.446  1.00  0.00    -0.209 N 
ATOM     14  H6  UNL     1      -2.202 -25.595  10.998  1.00  0.00     0.215 HD
BRANCH  13  15
HETATM   15  O1  UNL     1      -3.241 -25.363   9.331  1.00  0.00    -0.274 OA
ATOM     16  H1  UNL     1      -2.872 -25.030   8.522  1.00  0.00     0.246 HD
ENDBRANCH  13  15
ENDBRANCH  11  13
ENDBRANCH   1  10
TORSDOF 4
ENDMDL
MODEL 3
REMARK VINA RESULT: -6.073738645      3.578      5.442
REMARK  4 active torsions:
REMARK  status: ('A' for Active; 'I' for Inactive)
REMARK       I    between atoms: C1_4  and  N3_6 
REMARK    1  A    between atoms: N3_6  and  N4_8 
REMARK    2  A    between atoms: N4_8  and  C2_10 
REMARK    3  A    between atoms: N5_11  and  N6_13 
REMARK    4  A    between atoms: N6_13  and  O1_15 
ROOT
HETATM    1  N4  UNL     1      -3.172 -22.362  12.050  1.00  0.00    -0.292 N 
ATOM      2  H4  UNL     1      -3.162 -21.417  11.668  1.00  0.00     0.187 HD
ENDROOT
BRANCH   1   3
HETATM    3  N3  UNL     1      -3.876 -22.587  13.229  1.00  0.00    -0.273 N 
HETATM    4  C1  UNL     1      -5.014 -21.839  13.601  1.00  0.00     0.200 C 
HETATM    5  N1  UNL     1      -4.945 -21.048  14.603  1.00  0.00    -0.372 N 
HETATM    6  N2  UNL     1      -6.219 -21.964  12.873  1.00  0.00    -0.062 NA
ATOM      7  H12 UNL     1      -5.767 -20.507  14.872  1.00  0.00     0.158 HD
ATOM      8  H11 UNL     1      -4.075 -20.958  15.128  1.00  0.00     0.158 HD
ATOM      9  H3  UNL     1      -3.555 -23.328  13.853  1.00  0.00     0.189 HD
ENDBRANCH   1   3
BRANCH   1  10
HETATM   10  C2  UNL     1      -2.466 -23.378  11.351  1.00  0.00     0.215 C 
HETATM   11  N5  UNL     1      -3.136 -24.266  10.703  1.00  0.00    -0.276 N 
ATOM     12  H5  UNL     1      -4.156 -24.228  10.700  1.00  0.00     0.189 HD
BRANCH  11  13
HETATM   13  N6  UNL     1      -2.480 -25.279  10.005  1.00  0.00    -0.209 N 
ATOM     14  H6  UNL     1      -1.582 -25.625  10.342  1.00  0.00     0.215 HD
BRANCH  13  15
HETATM   15  O1  UNL     1      -2.989 -25.770   8.960  1.00  0.00    -0.274 OA
ATOM     16  H1  UNL     1      -3.004 -26.710   8.827  1.00  0.00     0.246 HD
ENDBRANCH  13  15
ENDBRANCH  11  13
ENDBRANCH   1  10
TORSDOF 4
ENDMDL
MODEL 4
REMARK VINA RESULT: -5.674519344      5.085      7.084
REMARK  4 active torsions:
REMARK  status: ('A' for Active; 'I' for Inactive)
REMARK       I    between atoms: C1_4  and  N3_6 
REMARK    1  A    between atoms: N3_6  and  N4_8 
REMARK    2  A    between atoms: N4_8  and  C2_10 
REMARK    3  A    between atoms: N5_11  and  N6_13 
REMARK    4  A    between atoms: N6_13  and  O1_15 
ROOT
HETATM    1  N4  UNL     1      -2.132 -25.327   9.935  1.00  0.00    -0.292 N 
ATOM      2  H4  UNL     1      -3.035 -25.558   9.521  1.00  0.00     0.187 HD
ENDROOT
BRANCH   1   3
HETATM    3  N3  UNL     1      -2.057 -24.219  10.772  1.00  0.00    -0.273 N 
HETATM    4  C1  UNL     1      -3.189 -23.471  11.163  1.00  0.00     0.200 C 
HETATM    5  N1  UNL     1      -3.330 -22.275  10.733  1.00  0.00    -0.372 N 
HETATM    6  N2  UNL     1      -4.156 -24.038  12.023  1.00  0.00    -0.062 NA
ATOM      7  H12 UNL     1      -4.148 -21.735  11.015  1.00  0.00     0.158 HD
ATOM      8  H11 UNL     1      -2.632 -21.866  10.112  1.00  0.00     0.158 HD
ATOM      9  H3  UNL     1      -1.142 -23.934  11.121  1.00  0.00     0.189 HD
ENDBRANCH   1   3
BRANCH   1  10
HETATM   10  C2  UNL     1      -1.019 -26.154   9.625  1.00  0.00     0.215 C 
HETATM   11  N5  UNL     1      -1.017 -27.373  10.040  1.00  0.00    -0.276 N 
ATOM     12  H5  UNL     1      -1.808 -27.726  10.579  1.00  0.00     0.189 HD
BRANCH  11  13
HETATM   13  N6  UNL     1       0.057 -28.216   9.756  1.00  0.00    -0.209 N 
ATOM     14  H6  UNL     1      -0.041 -28.936   9.042  1.00  0.00     0.215 HD
BRANCH  13  15
HETATM   15  O1  UNL     1       1.149 -28.093  10.378  1.00  0.00    -0.274 OA
ATOM     16  H1  UNL     1       1.849 -28.721  10.250  1.00  0.00     0.246 HD
ENDBRANCH  13  15
ENDBRANCH  11  13
ENDBRANCH   1  10
TORSDOF 4
ENDMDL
MODEL 5
REMARK VINA RESULT: -5.652713824      3.998      5.847
REMARK  4 active torsions:
REMARK  status: ('A' for Active; 'I' for Inactive)
REMARK       I    between atoms: C1_4  and  N3_6 
REMARK    1  A    between atoms: N3_6  and  N4_8 
REMARK    2  A    between atoms: N4_8  and  C2_10 
REMARK    3  A    between atoms: N5_11  and  N6_13 
REMARK    4  A    between atoms: N6_13  and  O1_15 
ROOT
HETATM    1  N4  UNL     1      -4.023 -23.574  11.414  1.00  0.00    -0.292 N 
ATOM      2  H4  UNL     1      -4.672 -23.213  10.716  1.00  0.00     0.187 HD
ENDROOT
BRANCH   1   3
HETATM    3  N3  UNL     1      -4.359 -23.442  12.757  1.00  0.00    -0.273 N 
HETATM    4  C1  UNL     1      -4.962 -22.282  13.289  1.00  0.00     0.200 C 
HETATM    5  N1  UNL     1      -4.299 -21.541  14.093  1.00  0.00    -0.372 N 
HETATM    6  N2  UNL     1      -6.288 -21.942  12.937  1.00  0.00    -0.062 NA
ATOM      7  H12 UNL     1      -4.734 -20.703  14.477  1.00  0.00     0.158 HD
ATOM      8  H11 UNL     1      -3.342 -21.787  14.347  1.00  0.00     0.158 HD
ATOM      9  H3  UNL     1      -4.162 -24.219  13.387  1.00  0.00     0.189 HD
ENDBRANCH   1   3
BRANCH   1  10
HETATM   10  C2  UNL     1      -2.822 -24.186  10.962  1.00  0.00     0.215 C 
HETATM   11  N5  UNL     1      -2.899 -25.153  10.114  1.00  0.00    -0.276 N 
ATOM     12  H5  UNL     1      -3.812 -25.463   9.782  1.00  0.00     0.189 HD
BRANCH  11  13
HETATM   13  N6  UNL     1      -1.744 -25.778   9.648  1.00  0.00    -0.209 N 
ATOM     14  H6  UNL     1      -0.830 -25.442   9.949  1.00  0.00     0.215 HD
BRANCH  13  15
HETATM   15  O1  UNL     1      -1.822 -26.758   8.856  1.00  0.00    -0.274 OA
ATOM     16  H1  UNL     1      -2.414 -27.479   9.037  1.00  0.00     0.246 HD
ENDBRANCH  13  15
ENDBRANCH  11  13
ENDBRANCH   1  10
TORSDOF 4
ENDMDL
