MODEL 1
REMARK VINA RESULT: -5.281648234      0.000      0.000
REMARK  2 active torsions:
REMARK  status: ('A' for Active; 'I' for Inactive)
REMARK    1  A    between atoms: N1_1  and  N2_4 
REMARK       I    between atoms: N2_4  and  C1_6 
REMARK    2  A    between atoms: C1_6  and  C2_8 
ROOT
HETATM    1  C2  UNL     1      -3.730 -22.462  12.045  1.00  0.00     0.474 C 
HETATM    2  N3  UNL     1      -3.681 -22.572  13.494  1.00  0.00    -0.035 N 
ATOM      3  H31 UNL     1      -2.773 -22.385  13.919  1.00  0.00     0.280 HD
ATOM      4  H32 UNL     1      -3.757 -23.518  13.867  1.00  0.00     0.280 HD
HETATM    5  C3  UNL     1      -4.757 -21.655  13.868  1.00  0.00     0.262 C 
HETATM    6  C4  UNL     1      -5.831 -22.047  12.857  1.00  0.00     0.262 C 
HETATM    7  N4  UNL     1      -5.132 -22.739  11.786  1.00  0.00    -0.035 N 
ATOM      8  H41 UNL     1      -5.357 -23.730  11.710  1.00  0.00     0.280 HD
ATOM      9  H42 UNL     1      -5.443 -22.483  10.849  1.00  0.00     0.280 HD
ENDROOT
BRANCH   1  10
HETATM   10  C1  UNL     1      -2.827 -23.433  11.393  1.00  0.00     0.294 C 
HETATM   11  N2  UNL     1      -3.394 -24.433  10.563  1.00  0.00    -0.273 N 
ATOM     12  H2  UNL     1      -4.405 -24.458  10.435  1.00  0.00     0.189 HD
HETATM   13  O1  UNL     1      -1.608 -23.370  11.574  1.00  0.00    -0.267 OA
BRANCH  11  14
HETATM   14  N1  UNL     1      -2.601 -25.384   9.913  1.00  0.00    -0.343 N 
ATOM     15  H12 UNL     1      -2.571 -25.371   8.893  1.00  0.00     0.176 HD
ATOM     16  H11 UNL     1      -2.062 -26.077  10.433  1.00  0.00     0.176 HD
ENDBRANCH  11  14
ENDBRANCH   1  10
TORSDOF 2
ENDMDL
MODEL 2
REMARK VINA RESULT: -5.205114539      1.244      1.244
REMARK  2 active torsions:
REMARK  status: ('A' for Active; 'I' for Inactive)
REMARK    1  A    between atoms: N1_1  and  N2_4 
REMARK       I    between atoms: N2_4  and  C1_6 
REMARK    2  A    between atoms: C1_6  and  C2_8 
ROOT
HETATM    1  C2  UNL     1      -3.740 -22.681  11.949  1.00  0.00     0.474 C 
HETATM    2  N3  UNL     1      -3.624 -22.906  13.380  1.00  0.00    -0.035 N 
ATOM      3  H31 UNL     1      -2.671 -22.963  13.741  1.00  0.00     0.280 HD
ATOM      4  H32 UNL     1      -3.895 -23.834  13.704  1.00  0.00     0.280 HD
HETATM    5  C3  UNL     1      -4.429 -21.796  13.891  1.00  0.00     0.262 C 
HETATM    6  C4  UNL     1      -5.629 -21.857  12.949  1.00  0.00     0.262 C 
HETATM    7  N4  UNL     1      -5.182 -22.609  11.788  1.00  0.00    -0.035 N 
ATOM      8  H41 UNL     1      -5.637 -23.514  11.674  1.00  0.00     0.280 HD
ATOM      9  H42 UNL     1      -5.485 -22.220  10.895  1.00  0.00     0.280 HD
ENDROOT
BRANCH   1  10
HETATM   10  C1  UNL     1      -3.134 -23.782  11.173  1.00  0.00     0.294 C 
HETATM   11  N2  UNL     1      -1.768 -23.680  10.806  1.00  0.00    -0.273 N 
ATOM     12  H2  UNL     1      -1.239 -22.853  11.084  1.00  0.00     0.189 HD
HETATM   13  O1  UNL     1      -3.808 -24.765  10.853  1.00  0.00    -0.267 OA
BRANCH  11  14
HETATM   14  N1  UNL     1      -1.128 -24.683  10.072  1.00  0.00    -0.343 N 
ATOM     15  H12 UNL     1      -0.609 -24.412   9.236  1.00  0.00     0.176 HD
ATOM     16  H11 UNL     1      -1.170 -25.663  10.354  1.00  0.00     0.176 HD
ENDBRANCH  11  14
ENDBRANCH   1  10
TORSDOF 2
ENDMDL
MODEL 3
REMARK VINA RESULT: -5.119130368      0.898      1.040
REMARK  2 active torsions:
REMARK  status: ('A' for Active; 'I' for Inactive)
REMARK    1  A    between atoms: N1_1  and  N2_4 
REMARK       I    between atoms: N2_4  and  C1_6 
REMARK    2  A    between atoms: C1_6  and  C2_8 
ROOT
HETATM    1  C2  UNL     1      -4.002 -22.905  11.801  1.00  0.00     0.474 C 
HETATM    2  N3  UNL     1      -3.613 -21.528  12.055  1.00  0.00    -0.035 N 
ATOM      3  H31 UNL     1      -3.337 -20.989  11.233  1.00  0.00     0.280 HD
ATOM      4  H32 UNL     1      -2.726 -21.402  12.542  1.00  0.00     0.280 HD
HETATM    5  C3  UNL     1      -4.799 -21.042  12.761  1.00  0.00     0.262 C 
HETATM    6  C4  UNL     1      -5.067 -22.210  13.706  1.00  0.00     0.262 C 
HETATM    7  N4  UNL     1      -4.367 -23.349  13.135  1.00  0.00    -0.035 N 
ATOM      8  H41 UNL     1      -3.583 -23.682  13.695  1.00  0.00     0.280 HD
ATOM      9  H42 UNL     1      -4.896 -24.220  13.157  1.00  0.00     0.280 HD
ENDROOT
BRANCH   1  10
HETATM   10  C1  UNL     1      -2.891 -23.688  11.223  1.00  0.00     0.294 C 
HETATM   11  N2  UNL     1      -3.202 -24.780  10.374  1.00  0.00    -0.273 N 
ATOM     12  H2  UNL     1      -4.179 -24.999  10.184  1.00  0.00     0.189 HD
HETATM   13  O1  UNL     1      -1.720 -23.393  11.479  1.00  0.00    -0.267 OA
BRANCH  11  14
HETATM   14  N1  UNL     1      -2.202 -25.565   9.792  1.00  0.00    -0.343 N 
ATOM     15  H12 UNL     1      -1.734 -25.208   8.958  1.00  0.00     0.176 HD
ATOM     16  H11 UNL     1      -1.938 -26.471  10.180  1.00  0.00     0.176 HD
ENDBRANCH  11  14
ENDBRANCH   1  10
TORSDOF 2
ENDMDL
MODEL 4
REMARK VINA RESULT: -5.015727252      2.398      4.235
REMARK  2 active torsions:
REMARK  status: ('A' for Active; 'I' for Inactive)
REMARK    1  A    between atoms: N1_1  and  N2_4 
REMARK       I    between atoms: N2_4  and  C1_6 
REMARK    2  A    between atoms: C1_6  and  C2_8 
ROOT
HETATM    1  C2  UNL     1      -4.218 -22.722  12.864  1.00  0.00     0.474 C 
HETATM    2  N3  UNL     1      -2.970 -22.112  12.438  1.00  0.00    -0.035 N 
ATOM      3  H31 UNL     1      -2.317 -21.875  13.185  1.00  0.00     0.280 HD
ATOM      4  H32 UNL     1      -3.043 -21.159  12.081  1.00  0.00     0.280 HD
HETATM    5  C3  UNL     1      -2.498 -23.112  11.480  1.00  0.00     0.262 C 
HETATM    6  C4  UNL     1      -3.789 -23.414  10.723  1.00  0.00     0.262 C 
HETATM    7  N4  UNL     1      -4.868 -22.964  11.588  1.00  0.00    -0.035 N 
ATOM      8  H41 UNL     1      -5.390 -22.167  11.226  1.00  0.00     0.280 HD
ATOM      9  H42 UNL     1      -5.661 -23.603  11.636  1.00  0.00     0.280 HD
ENDROOT
BRANCH   1  10
HETATM   10  C1  UNL     1      -4.996 -21.819  13.738  1.00  0.00     0.294 C 
HETATM   11  N2  UNL     1      -4.352 -21.246  14.864  1.00  0.00    -0.273 N 
ATOM     12  H2  UNL     1      -3.373 -21.470  15.043  1.00  0.00     0.189 HD
HETATM   13  O1  UNL     1      -6.179 -21.574  13.487  1.00  0.00    -0.267 OA
BRANCH  11  14
HETATM   14  N1  UNL     1      -5.025 -20.382  15.734  1.00  0.00    -0.343 N 
ATOM     15  H12 UNL     1      -4.483 -19.664  16.214  1.00  0.00     0.176 HD
ATOM     16  H11 UNL     1      -6.030 -20.458  15.892  1.00  0.00     0.176 HD
ENDBRANCH  11  14
ENDBRANCH   1  10
TORSDOF 2
ENDMDL
MODEL 5
REMARK VINA RESULT: -4.950790432      2.316      4.274
REMARK  2 active torsions:
REMARK  status: ('A' for Active; 'I' for Inactive)
REMARK    1  A    between atoms: N1_1  and  N2_4 
REMARK       I    between atoms: N2_4  and  C1_6 
REMARK    2  A    between atoms: C1_6  and  C2_8 
ROOT
HETATM    1  C2  UNL     1      -4.309 -22.445  12.172  1.00  0.00     0.474 C 
HETATM    2  N3  UNL     1      -4.252 -23.894  12.264  1.00  0.00    -0.035 N 
ATOM      3  H31 UNL     1      -5.150 -24.375  12.209  1.00  0.00     0.280 HD
ATOM      4  H32 UNL     1      -4.009 -24.269  13.181  1.00  0.00     0.280 HD
HETATM    5  C3  UNL     1      -3.308 -24.193  11.187  1.00  0.00     0.262 C 
HETATM    6  C4  UNL     1      -2.250 -23.120  11.429  1.00  0.00     0.262 C 
HETATM    7  N4  UNL     1      -2.899 -22.100  12.236  1.00  0.00    -0.035 N 
ATOM      8  H41 UNL     1      -2.531 -22.017  13.183  1.00  0.00     0.280 HD
ATOM      9  H42 UNL     1      -2.689 -21.143  11.952  1.00  0.00     0.280 HD
ENDROOT
BRANCH   1  10
HETATM   10  C1  UNL     1      -5.091 -21.858  13.280  1.00  0.00     0.294 C 
HETATM   11  N2  UNL     1      -4.401 -21.142  14.290  1.00  0.00    -0.273 N 
ATOM     12  H2  UNL     1      -3.387 -21.048  14.229  1.00  0.00     0.189 HD
HETATM   13  O1  UNL     1      -6.316 -21.994  13.319  1.00  0.00    -0.267 OA
BRANCH  11  14
HETATM   14  N1  UNL     1      -5.075 -20.559  15.367  1.00  0.00    -0.343 N 
ATOM     15  H12 UNL     1      -4.841 -19.598  15.620  1.00  0.00     0.176 HD
ATOM     16  H11 UNL     1      -5.784 -21.069  15.894  1.00  0.00     0.176 HD
ENDBRANCH  11  14
ENDBRANCH   1  10
TORSDOF 2
ENDMDL
