MODEL 1
REMARK VINA RESULT: -6.343663260      0.000      0.000
REMARK  8 active torsions:
REMARK  status: ('A' for Active; 'I' for Inactive)
REMARK    1  A    between atoms: C2_2  and  C3_3 
REMARK    2  A    between atoms: C3_3  and  C4_4 
REMARK    3  A    between atoms: C4_4  and  N1_5 
REMARK    4  A    between atoms: N1_5  and  O1_6 
REMARK    5  A    between atoms: N1_5  and  C5_8 
REMARK    6  A    between atoms: C5_8  and  N2_9 
REMARK    7  A    between atoms: N2_9  and  C6_12 
REMARK    8  A    between atoms: C6_12  and  C7_13 
ROOT
HETATM    1  N2  UNL     1      -2.476  -3.342  17.714  1.00  0.00    -0.058 N 
ATOM      2  H21 UNL     1      -2.335  -2.351  17.909  1.00  0.00     0.279 HD
ATOM      3  H22 UNL     1      -1.546  -3.690  17.949  1.00  0.00     0.279 HD
ENDROOT
BRANCH   1   4
HETATM    4  C5  UNL     1      -2.775  -3.560  16.310  1.00  0.00     0.352 C 
BRANCH   4   5
HETATM    5  N1  UNL     1      -1.582  -3.458  15.492  1.00  0.00    -0.174 NA
BRANCH   5   6
HETATM    6  C4  UNL     1      -1.611  -4.396  14.386  1.00  0.00     0.126 C 
BRANCH   6   7
HETATM    7  C3  UNL     1      -0.638  -5.549  14.624  1.00  0.00     0.043 C 
BRANCH   7   8
HETATM    8  C2  UNL     1      -1.423  -6.652  15.265  1.00  0.00    -0.036 C 
HETATM    9  C1  UNL     1      -1.477  -6.802  16.582  1.00  0.00     0.007 C 
ENDBRANCH   7   8
ENDBRANCH   6   7
ENDBRANCH   5   6
BRANCH   5  10
HETATM   10  O1  UNL     1      -1.496  -2.208  14.991  1.00  0.00    -0.311 OA
ATOM     11  H1  UNL     1      -2.311  -2.003  14.548  1.00  0.00     0.237 HD
ENDBRANCH   5  10
ENDBRANCH   4   5
ENDBRANCH   1   4
BRANCH   1  12
HETATM   12  C6  UNL     1      -3.467  -3.899  18.580  1.00  0.00     0.275 C 
BRANCH  12  13
HETATM   13  C7  UNL     1      -3.693  -3.105  19.801  1.00  0.00     0.001 A 
HETATM   14  C8  UNL     1      -2.709  -2.578  20.611  1.00  0.00     0.117 A 
HETATM   15  N3  UNL     1      -3.314  -1.919  21.623  1.00  0.00    -0.310 N 
HETATM   16  N4  UNL     1      -4.629  -1.990  21.511  1.00  0.00    -0.308 N 
ATOM     17  H3  UNL     1      -2.823  -1.432  22.373  1.00  0.00     0.186 HD
HETATM   18  C9  UNL     1      -5.608  -1.398  22.420  1.00  0.00     0.177 C 
HETATM   19  C10 UNL     1      -4.881  -2.711  20.403  1.00  0.00     0.119 A 
ENDBRANCH  12  13
ENDBRANCH   1  12
TORSDOF 8
ENDMDL
MODEL 2
REMARK VINA RESULT: -6.092997284      2.020      6.774
REMARK  8 active torsions:
REMARK  status: ('A' for Active; 'I' for Inactive)
REMARK    1  A    between atoms: C2_2  and  C3_3 
REMARK    2  A    between atoms: C3_3  and  C4_4 
REMARK    3  A    between atoms: C4_4  and  N1_5 
REMARK    4  A    between atoms: N1_5  and  O1_6 
REMARK    5  A    between atoms: N1_5  and  C5_8 
REMARK    6  A    between atoms: C5_8  and  N2_9 
REMARK    7  A    between atoms: N2_9  and  C6_12 
REMARK    8  A    between atoms: C6_12  and  C7_13 
ROOT
HETATM    1  N2  UNL     1      -2.370  -3.265  18.136  1.00  0.00    -0.058 N 
ATOM      2  H21 UNL     1      -1.473  -3.599  18.488  1.00  0.00     0.279 HD
ATOM      3  H22 UNL     1      -2.037  -2.577  17.461  1.00  0.00     0.279 HD
ENDROOT
BRANCH   1   4
HETATM    4  C5  UNL     1      -3.140  -2.631  19.190  1.00  0.00     0.352 C 
BRANCH   4   5
HETATM    5  N1  UNL     1      -4.536  -3.020  19.137  1.00  0.00    -0.174 NA
BRANCH   5   6
HETATM    6  C4  UNL     1      -5.023  -3.442  20.436  1.00  0.00     0.126 C 
BRANCH   6   7
HETATM    7  C3  UNL     1      -4.007  -3.118  21.530  1.00  0.00     0.043 C 
BRANCH   7   8
HETATM    8  C2  UNL     1      -4.706  -2.243  22.524  1.00  0.00    -0.036 C 
HETATM    9  C1  UNL     1      -5.560  -1.300  22.149  1.00  0.00     0.007 C 
ENDBRANCH   7   8
ENDBRANCH   6   7
ENDBRANCH   5   6
BRANCH   5  10
HETATM   10  O1  UNL     1      -5.273  -1.968  18.723  1.00  0.00    -0.311 OA
ATOM     11  H1  UNL     1      -4.806  -1.530  18.021  1.00  0.00     0.237 HD
ENDBRANCH   5  10
ENDBRANCH   4   5
ENDBRANCH   1   4
BRANCH   1  12
HETATM   12  C6  UNL     1      -3.089  -4.316  17.486  1.00  0.00     0.275 C 
BRANCH  12  13
HETATM   13  C7  UNL     1      -2.349  -4.928  16.368  1.00  0.00     0.001 A 
HETATM   14  C8  UNL     1      -1.936  -6.241  16.300  1.00  0.00     0.117 A 
HETATM   15  N3  UNL     1      -1.294  -6.414  15.124  1.00  0.00    -0.310 N 
HETATM   16  N4  UNL     1      -1.271  -5.289  14.431  1.00  0.00    -0.308 N 
ATOM     17  H3  UNL     1      -0.883  -7.294  14.812  1.00  0.00     0.186 HD
HETATM   18  C9  UNL     1      -0.664  -5.095  13.116  1.00  0.00     0.177 C 
HETATM   19  C10 UNL     1      -1.911  -4.367  15.174  1.00  0.00     0.119 A 
ENDBRANCH  12  13
ENDBRANCH   1  12
TORSDOF 8
ENDMDL
MODEL 3
REMARK VINA RESULT: -6.086157666      1.680      2.289
REMARK  8 active torsions:
REMARK  status: ('A' for Active; 'I' for Inactive)
REMARK    1  A    between atoms: C2_2  and  C3_3 
REMARK    2  A    between atoms: C3_3  and  C4_4 
REMARK    3  A    between atoms: C4_4  and  N1_5 
REMARK    4  A    between atoms: N1_5  and  O1_6 
REMARK    5  A    between atoms: N1_5  and  C5_8 
REMARK    6  A    between atoms: C5_8  and  N2_9 
REMARK    7  A    between atoms: N2_9  and  C6_12 
REMARK    8  A    between atoms: C6_12  and  C7_13 
ROOT
HETATM    1  N2  UNL     1      -2.034  -2.742  18.928  1.00  0.00    -0.058 N 
ATOM      2  H21 UNL     1      -1.263  -2.114  18.700  1.00  0.00     0.279 HD
ATOM      3  H22 UNL     1      -1.500  -3.530  19.296  1.00  0.00     0.279 HD
ENDROOT
BRANCH   1   4
HETATM    4  C5  UNL     1      -2.769  -3.122  17.736  1.00  0.00     0.352 C 
BRANCH   4   5
HETATM    5  N1  UNL     1      -1.879  -3.579  16.686  1.00  0.00    -0.174 NA
BRANCH   5   6
HETATM    6  C4  UNL     1      -2.368  -4.794  16.063  1.00  0.00     0.126 C 
BRANCH   6   7
HETATM    7  C3  UNL     1      -1.293  -5.879  16.068  1.00  0.00     0.043 C 
BRANCH   7   8
HETATM    8  C2  UNL     1      -1.005  -6.209  14.635  1.00  0.00    -0.036 C 
HETATM    9  C1  UNL     1      -0.868  -5.266  13.712  1.00  0.00     0.007 C 
ENDBRANCH   7   8
ENDBRANCH   6   7
ENDBRANCH   5   6
BRANCH   5  10
HETATM   10  O1  UNL     1      -1.781  -2.622  15.740  1.00  0.00    -0.311 OA
ATOM     11  H1  UNL     1      -1.890  -1.775  16.156  1.00  0.00     0.237 HD
ENDBRANCH   5  10
ENDBRANCH   4   5
ENDBRANCH   1   4
BRANCH   1  12
HETATM   12  C6  UNL     1      -2.875  -2.176  19.936  1.00  0.00     0.275 C 
BRANCH  12  13
HETATM   13  C7  UNL     1      -3.855  -3.130  20.485  1.00  0.00     0.001 A 
HETATM   14  C8  UNL     1      -4.240  -3.217  21.806  1.00  0.00     0.117 A 
HETATM   15  N3  UNL     1      -5.152  -4.209  21.908  1.00  0.00    -0.310 N 
HETATM   16  N4  UNL     1      -5.376  -4.765  20.729  1.00  0.00    -0.308 N 
ATOM     17  H3  UNL     1      -5.606  -4.492  22.776  1.00  0.00     0.186 HD
HETATM   18  C9  UNL     1      -6.297  -5.865  20.453  1.00  0.00     0.177 C 
HETATM   19  C10 UNL     1      -4.593  -4.119  19.846  1.00  0.00     0.119 A 
ENDBRANCH  12  13
ENDBRANCH   1  12
TORSDOF 8
ENDMDL
MODEL 4
REMARK VINA RESULT: -5.895151600      1.499      1.929
REMARK  8 active torsions:
REMARK  status: ('A' for Active; 'I' for Inactive)
REMARK    1  A    between atoms: C2_2  and  C3_3 
REMARK    2  A    between atoms: C3_3  and  C4_4 
REMARK    3  A    between atoms: C4_4  and  N1_5 
REMARK    4  A    between atoms: N1_5  and  O1_6 
REMARK    5  A    between atoms: N1_5  and  C5_8 
REMARK    6  A    between atoms: C5_8  and  N2_9 
REMARK    7  A    between atoms: N2_9  and  C6_12 
REMARK    8  A    between atoms: C6_12  and  C7_13 
ROOT
HETATM    1  N2  UNL     1      -2.010  -3.163  16.408  1.00  0.00    -0.058 N 
ATOM      2  H21 UNL     1      -1.914  -2.150  16.340  1.00  0.00     0.279 HD
ATOM      3  H22 UNL     1      -1.203  -3.366  16.999  1.00  0.00     0.279 HD
ENDROOT
BRANCH   1   4
HETATM    4  C5  UNL     1      -1.873  -3.789  15.106  1.00  0.00     0.352 C 
BRANCH   4   5
HETATM    5  N1  UNL     1      -0.827  -4.794  15.107  1.00  0.00    -0.174 NA
BRANCH   5   6
HETATM    6  C4  UNL     1      -1.376  -6.135  15.157  1.00  0.00     0.126 C 
BRANCH   6   7
HETATM    7  C3  UNL     1      -1.326  -6.691  16.579  1.00  0.00     0.043 C 
BRANCH   7   8
HETATM    8  C2  UNL     1      -2.743  -6.800  17.051  1.00  0.00    -0.036 C 
HETATM    9  C1  UNL     1      -3.070  -7.489  18.136  1.00  0.00     0.007 C 
ENDBRANCH   7   8
ENDBRANCH   6   7
ENDBRANCH   5   6
BRANCH   5  10
HETATM   10  O1  UNL     1      -0.096  -4.672  13.979  1.00  0.00    -0.311 OA
ATOM     11  H1  UNL     1       0.820  -4.795  14.199  1.00  0.00     0.237 HD
ENDBRANCH   5  10
ENDBRANCH   4   5
ENDBRANCH   1   4
BRANCH   1  12
HETATM   12  C6  UNL     1      -3.229  -3.519  17.064  1.00  0.00     0.275 C 
BRANCH  12  13
HETATM   13  C7  UNL     1      -3.195  -3.305  18.521  1.00  0.00     0.001 A 
HETATM   14  C8  UNL     1      -2.178  -2.691  19.221  1.00  0.00     0.117 A 
HETATM   15  N3  UNL     1      -2.517  -2.686  20.529  1.00  0.00    -0.310 N 
HETATM   16  N4  UNL     1      -3.694  -3.260  20.711  1.00  0.00    -0.308 N 
ATOM     17  H3  UNL     1      -1.943  -2.293  21.274  1.00  0.00     0.186 HD
HETATM   18  C9  UNL     1      -4.381  -3.437  21.989  1.00  0.00     0.177 C 
HETATM   19  C10 UNL     1      -4.126  -3.645  19.496  1.00  0.00     0.119 A 
ENDBRANCH  12  13
ENDBRANCH   1  12
TORSDOF 8
ENDMDL
MODEL 5
REMARK VINA RESULT: -5.882654082      1.040      1.371
REMARK  8 active torsions:
REMARK  status: ('A' for Active; 'I' for Inactive)
REMARK    1  A    between atoms: C2_2  and  C3_3 
REMARK    2  A    between atoms: C3_3  and  C4_4 
REMARK    3  A    between atoms: C4_4  and  N1_5 
REMARK    4  A    between atoms: N1_5  and  O1_6 
REMARK    5  A    between atoms: N1_5  and  C5_8 
REMARK    6  A    between atoms: C5_8  and  N2_9 
REMARK    7  A    between atoms: N2_9  and  C6_12 
REMARK    8  A    between atoms: C6_12  and  C7_13 
ROOT
HETATM    1  N2  UNL     1      -2.385  -3.214  17.228  1.00  0.00    -0.058 N 
ATOM      2  H21 UNL     1      -2.312  -2.200  17.304  1.00  0.00     0.279 HD
ATOM      3  H22 UNL     1      -1.487  -3.476  17.635  1.00  0.00     0.279 HD
ENDROOT
BRANCH   1   4
HETATM    4  C5  UNL     1      -2.468  -3.629  15.839  1.00  0.00     0.352 C 
BRANCH   4   5
HETATM    5  N1  UNL     1      -1.357  -4.485  15.473  1.00  0.00    -0.174 NA
BRANCH   5   6
HETATM    6  C4  UNL     1      -1.765  -5.872  15.363  1.00  0.00     0.126 C 
BRANCH   6   7
HETATM    7  C3  UNL     1      -1.383  -6.655  16.617  1.00  0.00     0.043 C 
BRANCH   7   8
HETATM    8  C2  UNL     1      -2.662  -7.029  17.300  1.00  0.00    -0.036 C 
HETATM    9  C1  UNL     1      -2.702  -7.941  18.263  1.00  0.00     0.007 C 
ENDBRANCH   7   8
ENDBRANCH   6   7
ENDBRANCH   5   6
BRANCH   5  10
HETATM   10  O1  UNL     1      -0.865  -4.087  14.281  1.00  0.00    -0.311 OA
ATOM     11  H1  UNL     1       0.065  -4.277  14.260  1.00  0.00     0.237 HD
ENDBRANCH   5  10
ENDBRANCH   4   5
ENDBRANCH   1   4
BRANCH   1  12
HETATM   12  C6  UNL     1      -3.469  -3.711  18.016  1.00  0.00     0.275 C 
BRANCH  12  13
HETATM   13  C7  UNL     1      -3.631  -3.008  19.301  1.00  0.00     0.001 A 
HETATM   14  C8  UNL     1      -2.623  -2.394  20.014  1.00  0.00     0.117 A 
HETATM   15  N3  UNL     1      -3.168  -1.865  21.131  1.00  0.00    -0.310 N 
HETATM   16  N4  UNL     1      -4.468  -2.101  21.177  1.00  0.00    -0.308 N 
ATOM     17  H3  UNL     1      -2.647  -1.352  21.843  1.00  0.00     0.186 HD
HETATM   18  C9  UNL     1      -5.386  -1.681  22.234  1.00  0.00     0.177 C 
HETATM   19  C10 UNL     1      -4.771  -2.798  20.067  1.00  0.00     0.119 A 
ENDBRANCH  12  13
ENDBRANCH   1  12
TORSDOF 8
ENDMDL
