MODEL 1
REMARK VINA RESULT: -5.761889092      0.000      0.000
REMARK  7 active torsions:
REMARK  status: ('A' for Active; 'I' for Inactive)
REMARK    1  A    between atoms: C2_2  and  C3_3 
REMARK    2  A    between atoms: C2_2  and  N3_11 
REMARK    3  A    between atoms: C3_3  and  C4_4 
REMARK    4  A    between atoms: N3_11  and  C8_13 
REMARK    5  A    between atoms: C8_13  and  C9_14 
REMARK    6  A    between atoms: C9_14  and  N4_15 
REMARK    7  A    between atoms: N4_15  and  C10_17 
ROOT
HETATM    1  C1  UNL     1      -4.835  -4.304  19.610  1.00  0.00     0.063 C 
HETATM    2  C2  UNL     1      -3.476  -3.888  19.141  1.00  0.00    -0.013 C 
ENDROOT
BRANCH   2   3
HETATM    3  C3  UNL     1      -3.597  -3.364  17.713  1.00  0.00     0.110 C 
BRANCH   3   4
HETATM    4  C4  UNL     1      -2.788  -4.239  16.795  1.00  0.00     0.032 A 
HETATM    5  C5  UNL     1      -2.548  -5.601  16.968  1.00  0.00     0.045 A 
HETATM    6  C6  UNL     1      -1.780  -6.001  15.901  1.00  0.00     0.111 A 
HETATM    7  N1  UNL     1      -1.553  -4.943  15.107  1.00  0.00    -0.308 N 
HETATM    8  C7  UNL     1      -0.773  -4.949  13.863  1.00  0.00     0.177 C 
HETATM    9  N2  UNL     1      -2.163  -3.911  15.660  1.00  0.00    -0.303 N 
ATOM     10  H2  UNL     1      -2.157  -2.971  15.266  1.00  0.00     0.186 HD
ENDBRANCH   3   4
ENDBRANCH   2   3
BRANCH   2  11
HETATM   11  N3  UNL     1      -2.641  -3.172  19.973  1.00  0.00    -0.375 N 
ATOM     12  H3  UNL     1      -1.666  -3.468  20.000  1.00  0.00     0.164 HD
BRANCH  11  13
HETATM   13  C8  UNL     1      -2.981  -2.096  20.776  1.00  0.00     0.080 C 
BRANCH  13  14
HETATM   14  C9  UNL     1      -3.179  -2.430  22.230  1.00  0.00     0.166 C 
BRANCH  14  15
HETATM   15  N4  UNL     1      -4.567  -2.385  22.650  1.00  0.00    -0.363 N 
ATOM     16  H4  UNL     1      -4.932  -3.124  23.250  1.00  0.00     0.162 HD
BRANCH  15  17
HETATM   17  C10 UNL     1      -5.413  -1.351  22.249  1.00  0.00     0.348 C 
HETATM   18  O1  UNL     1      -6.008  -1.377  21.158  1.00  0.00    -0.284 OA
ENDBRANCH  15  17
ENDBRANCH  14  15
ENDBRANCH  13  14
ENDBRANCH  11  13
ENDBRANCH   2  11
TORSDOF 7
ENDMDL
MODEL 2
REMARK VINA RESULT: -5.686940502      2.531      3.713
REMARK  7 active torsions:
REMARK  status: ('A' for Active; 'I' for Inactive)
REMARK    1  A    between atoms: C2_2  and  C3_3 
REMARK    2  A    between atoms: C2_2  and  N3_11 
REMARK    3  A    between atoms: C3_3  and  C4_4 
REMARK    4  A    between atoms: N3_11  and  C8_13 
REMARK    5  A    between atoms: C8_13  and  C9_14 
REMARK    6  A    between atoms: C9_14  and  N4_15 
REMARK    7  A    between atoms: N4_15  and  C10_17 
ROOT
HETATM    1  C1  UNL     1      -2.493  -3.812  15.331  1.00  0.00     0.063 C 
HETATM    2  C2  UNL     1      -2.127  -4.450  16.634  1.00  0.00    -0.013 C 
ENDROOT
BRANCH   2   3
HETATM    3  C3  UNL     1      -1.454  -5.789  16.344  1.00  0.00     0.110 C 
BRANCH   3   4
HETATM    4  C4  UNL     1      -2.012  -6.835  17.270  1.00  0.00     0.032 A 
HETATM    5  C5  UNL     1      -3.311  -6.867  17.776  1.00  0.00     0.045 A 
HETATM    6  C6  UNL     1      -3.396  -7.990  18.564  1.00  0.00     0.111 A 
HETATM    7  N1  UNL     1      -2.212  -8.622  18.548  1.00  0.00    -0.308 N 
HETATM    8  C7  UNL     1      -1.888  -9.863  19.265  1.00  0.00     0.177 C 
HETATM    9  N2  UNL     1      -1.411  -7.916  17.773  1.00  0.00    -0.303 N 
ATOM     10  H2  UNL     1      -0.441  -8.168  17.581  1.00  0.00     0.186 HD
ENDBRANCH   3   4
ENDBRANCH   2   3
BRANCH   2  11
HETATM   11  N3  UNL     1      -1.561  -3.700  17.643  1.00  0.00    -0.375 N 
ATOM     12  H3  UNL     1      -0.549  -3.776  17.751  1.00  0.00     0.164 HD
BRANCH  11  13
HETATM   13  C8  UNL     1      -2.213  -2.855  18.525  1.00  0.00     0.080 C 
BRANCH  13  14
HETATM   14  C9  UNL     1      -3.580  -3.320  18.951  1.00  0.00     0.166 C 
BRANCH  14  15
HETATM   15  N4  UNL     1      -3.727  -3.444  20.389  1.00  0.00    -0.363 N 
ATOM     16  H4  UNL     1      -3.105  -4.067  20.903  1.00  0.00     0.162 HD
BRANCH  15  17
HETATM   17  C10 UNL     1      -4.703  -2.728  21.083  1.00  0.00     0.348 C 
HETATM   18  O1  UNL     1      -5.421  -1.885  20.519  1.00  0.00    -0.284 OA
ENDBRANCH  15  17
ENDBRANCH  14  15
ENDBRANCH  13  14
ENDBRANCH  11  13
ENDBRANCH   2  11
TORSDOF 7
ENDMDL
MODEL 3
REMARK VINA RESULT: -5.685314045      2.638      4.435
REMARK  7 active torsions:
REMARK  status: ('A' for Active; 'I' for Inactive)
REMARK    1  A    between atoms: C2_2  and  C3_3 
REMARK    2  A    between atoms: C2_2  and  N3_11 
REMARK    3  A    between atoms: C3_3  and  C4_4 
REMARK    4  A    between atoms: N3_11  and  C8_13 
REMARK    5  A    between atoms: C8_13  and  C9_14 
REMARK    6  A    between atoms: C9_14  and  N4_15 
REMARK    7  A    between atoms: N4_15  and  C10_17 
ROOT
HETATM    1  C1  UNL     1      -1.688  -5.695  14.231  1.00  0.00     0.063 C 
HETATM    2  C2  UNL     1      -1.892  -5.424  15.689  1.00  0.00    -0.013 C 
ENDROOT
BRANCH   2   3
HETATM    3  C3  UNL     1      -0.937  -6.311  16.483  1.00  0.00     0.110 C 
BRANCH   3   4
HETATM    4  C4  UNL     1      -1.734  -7.222  17.375  1.00  0.00     0.032 A 
HETATM    5  C5  UNL     1      -3.094  -7.099  17.662  1.00  0.00     0.045 A 
HETATM    6  C6  UNL     1      -3.411  -8.140  18.501  1.00  0.00     0.111 A 
HETATM    7  N1  UNL     1      -2.309  -8.871  18.724  1.00  0.00    -0.308 N 
HETATM    8  C7  UNL     1      -2.225 -10.070  19.569  1.00  0.00     0.177 C 
HETATM    9  N2  UNL     1      -1.329  -8.306  18.045  1.00  0.00    -0.303 N 
ATOM     10  H2  UNL     1      -0.372  -8.656  18.032  1.00  0.00     0.186 HD
ENDBRANCH   3   4
ENDBRANCH   2   3
BRANCH   2  11
HETATM   11  N3  UNL     1      -2.027  -4.130  16.144  1.00  0.00    -0.375 N 
ATOM     12  H3  UNL     1      -1.196  -3.541  16.092  1.00  0.00     0.164 HD
BRANCH  11  13
HETATM   13  C8  UNL     1      -3.168  -3.541  16.664  1.00  0.00     0.080 C 
BRANCH  13  14
HETATM   14  C9  UNL     1      -3.244  -3.530  18.167  1.00  0.00     0.166 C 
BRANCH  14  15
HETATM   15  N4  UNL     1      -4.304  -2.687  18.687  1.00  0.00    -0.363 N 
ATOM     16  H4  UNL     1      -4.731  -1.989  18.078  1.00  0.00     0.162 HD
BRANCH  15  17
HETATM   17  C10 UNL     1      -4.751  -2.811  20.002  1.00  0.00     0.348 C 
HETATM   18  O1  UNL     1      -5.420  -1.920  20.552  1.00  0.00    -0.284 OA
ENDBRANCH  15  17
ENDBRANCH  14  15
ENDBRANCH  13  14
ENDBRANCH  11  13
ENDBRANCH   2  11
TORSDOF 7
ENDMDL
MODEL 4
REMARK VINA RESULT: -5.655629148      2.870      6.746
REMARK  7 active torsions:
REMARK  status: ('A' for Active; 'I' for Inactive)
REMARK    1  A    between atoms: C2_2  and  C3_3 
REMARK    2  A    between atoms: C2_2  and  N3_11 
REMARK    3  A    between atoms: C3_3  and  C4_4 
REMARK    4  A    between atoms: N3_11  and  C8_13 
REMARK    5  A    between atoms: C8_13  and  C9_14 
REMARK    6  A    between atoms: C9_14  and  N4_15 
REMARK    7  A    between atoms: N4_15  and  C10_17 
ROOT
HETATM    1  C1  UNL     1      -2.029  -2.869  15.862  1.00  0.00     0.063 C 
HETATM    2  C2  UNL     1      -2.045  -3.795  17.038  1.00  0.00    -0.013 C 
ENDROOT
BRANCH   2   3
HETATM    3  C3  UNL     1      -3.466  -3.848  17.591  1.00  0.00     0.110 C 
BRANCH   3   4
HETATM    4  C4  UNL     1      -3.503  -3.156  18.927  1.00  0.00     0.032 A 
HETATM    5  C5  UNL     1      -2.424  -2.535  19.554  1.00  0.00     0.045 A 
HETATM    6  C6  UNL     1      -2.901  -2.028  20.738  1.00  0.00     0.111 A 
HETATM    7  N1  UNL     1      -4.207  -2.317  20.842  1.00  0.00    -0.308 N 
HETATM    8  C7  UNL     1      -5.086  -1.953  21.962  1.00  0.00     0.177 C 
HETATM    9  N2  UNL     1      -4.539  -2.986  19.754  1.00  0.00    -0.303 N 
ATOM     10  H2  UNL     1      -5.479  -3.334  19.567  1.00  0.00     0.186 HD
ENDBRANCH   3   4
ENDBRANCH   2   3
BRANCH   2  11
HETATM   11  N3  UNL     1      -1.377  -5.000  16.984  1.00  0.00    -0.375 N 
ATOM     12  H3  UNL     1      -0.402  -4.991  17.284  1.00  0.00     0.164 HD
BRANCH  11  13
HETATM   13  C8  UNL     1      -1.884  -6.221  16.570  1.00  0.00     0.080 C 
BRANCH  13  14
HETATM   14  C9  UNL     1      -1.316  -6.732  15.273  1.00  0.00     0.166 C 
BRANCH  14  15
HETATM   15  N4  UNL     1      -1.643  -5.900  14.131  1.00  0.00    -0.363 N 
ATOM     16  H4  UNL     1      -2.578  -5.950  13.727  1.00  0.00     0.162 HD
BRANCH  15  17
HETATM   17  C10 UNL     1      -0.705  -5.031  13.573  1.00  0.00     0.348 C 
HETATM   18  O1  UNL     1       0.363  -4.764  14.149  1.00  0.00    -0.284 OA
ENDBRANCH  15  17
ENDBRANCH  14  15
ENDBRANCH  13  14
ENDBRANCH  11  13
ENDBRANCH   2  11
TORSDOF 7
ENDMDL
MODEL 5
REMARK VINA RESULT: -5.650477191      3.417      5.862
REMARK  7 active torsions:
REMARK  status: ('A' for Active; 'I' for Inactive)
REMARK    1  A    between atoms: C2_2  and  C3_3 
REMARK    2  A    between atoms: C2_2  and  N3_11 
REMARK    3  A    between atoms: C3_3  and  C4_4 
REMARK    4  A    between atoms: N3_11  and  C8_13 
REMARK    5  A    between atoms: C8_13  and  C9_14 
REMARK    6  A    between atoms: C9_14  and  N4_15 
REMARK    7  A    between atoms: N4_15  and  C10_17 
ROOT
HETATM    1  C1  UNL     1      -0.908  -5.693  14.870  1.00  0.00     0.063 C 
HETATM    2  C2  UNL     1      -1.780  -5.485  16.068  1.00  0.00    -0.013 C 
ENDROOT
BRANCH   2   3
HETATM    3  C3  UNL     1      -2.435  -4.111  15.957  1.00  0.00     0.110 C 
BRANCH   3   4
HETATM    4  C4  UNL     1      -2.619  -3.537  17.335  1.00  0.00     0.032 A 
HETATM    5  C5  UNL     1      -1.634  -2.907  18.094  1.00  0.00     0.045 A 
HETATM    6  C6  UNL     1      -2.232  -2.529  19.273  1.00  0.00     0.111 A 
HETATM    7  N1  UNL     1      -3.520  -2.905  19.247  1.00  0.00    -0.308 N 
HETATM    8  C7  UNL     1      -4.503  -2.689  20.317  1.00  0.00     0.177 C 
HETATM    9  N2  UNL     1      -3.723  -3.500  18.087  1.00  0.00    -0.303 N 
ATOM     10  H2  UNL     1      -4.621  -3.886  17.797  1.00  0.00     0.186 HD
ENDBRANCH   3   4
ENDBRANCH   2   3
BRANCH   2  11
HETATM   11  N3  UNL     1      -2.594  -6.501  16.522  1.00  0.00    -0.375 N 
ATOM     12  H3  UNL     1      -3.372  -6.764  15.918  1.00  0.00     0.164 HD
BRANCH  11  13
HETATM   13  C8  UNL     1      -2.470  -7.206  17.709  1.00  0.00     0.080 C 
BRANCH  13  14
HETATM   14  C9  UNL     1      -3.774  -7.614  18.338  1.00  0.00     0.166 C 
BRANCH  14  15
HETATM   15  N4  UNL     1      -3.980  -9.050  18.363  1.00  0.00    -0.363 N 
ATOM     16  H4  UNL     1      -4.404  -9.508  17.556  1.00  0.00     0.162 HD
BRANCH  15  17
HETATM   17  C10 UNL     1      -3.611  -9.818  19.468  1.00  0.00     0.348 C 
HETATM   18  O1  UNL     1      -4.440 -10.183  20.318  1.00  0.00    -0.284 OA
ENDBRANCH  15  17
ENDBRANCH  14  15
ENDBRANCH  13  14
ENDBRANCH  11  13
ENDBRANCH   2  11
TORSDOF 7
ENDMDL
