MODEL 1
REMARK VINA RESULT: -5.128349522      0.000      0.000
REMARK  8 active torsions:
REMARK  status: ('A' for Active; 'I' for Inactive)
REMARK    1  A    between atoms: N2_4  and  C1_6 
REMARK    2  A    between atoms: C1_6  and  N3_7 
REMARK    3  A    between atoms: N3_7  and  C2_10 
REMARK    4  A    between atoms: C3_11  and  C4_12 
REMARK    5  A    between atoms: C4_12  and  N4_13 
REMARK    6  A    between atoms: C7_20  and  N6_21 
REMARK    7  A    between atoms: N6_21  and  C8_22 
REMARK    8  A    between atoms: C8_22  and  O1_23 
ROOT
HETATM    1  C2  UNL     1      -3.109  -3.094  18.998  1.00  0.00     0.229 C 
HETATM    2  C3  UNL     1      -2.902  -2.841  20.502  1.00  0.00     0.039 C 
HETATM    3  C5  UNL     1      -3.814  -3.914  21.124  1.00  0.00     0.011 C 
HETATM    4  C6  UNL     1      -4.919  -4.013  20.081  1.00  0.00     0.042 C 
HETATM    5  C7  UNL     1      -4.067  -4.200  18.822  1.00  0.00     0.196 C 
ENDROOT
BRANCH   1   6
HETATM    6  N3  UNL     1      -1.920  -3.066  18.240  1.00  0.00    -0.051 N 
ATOM      7  H32 UNL     1      -1.256  -3.765  18.572  1.00  0.00     0.279 HD
ATOM      8  H31 UNL     1      -1.380  -2.222  18.435  1.00  0.00     0.279 HD
BRANCH   6   9
HETATM    9  C1  UNL     1      -2.161  -3.210  16.838  1.00  0.00     0.371 C 
BRANCH   9  10
HETATM   10  N2  UNL     1      -1.682  -4.466  16.307  1.00  0.00    -0.318 N 
HETATM   11  N1  UNL     1      -0.761  -5.027  16.960  1.00  0.00    -0.348 N 
ATOM     12  H12 UNL     1      -0.386  -4.606  17.810  1.00  0.00     0.176 HD
ATOM     13  H11 UNL     1      -0.423  -5.913  16.585  1.00  0.00     0.176 HD
ATOM     14  H2  UNL     1      -2.067  -4.875  15.456  1.00  0.00     0.181 HD
ENDBRANCH   9  10
ENDBRANCH   6   9
ENDBRANCH   1   6
BRANCH   2  15
HETATM   15  C4  UNL     1      -3.514  -1.508  20.902  1.00  0.00     0.145 C 
BRANCH  15  16
HETATM   16  N4  UNL     1      -4.165  -1.556  22.190  1.00  0.00    -0.343 N 
HETATM   17  N5  UNL     1      -5.320  -1.190  22.366  1.00  0.00    -0.349 N 
ATOM     18  H52 UNL     1      -5.831  -0.839  21.556  1.00  0.00     0.176 HD
ATOM     19  H51 UNL     1      -5.781  -1.223  23.275  1.00  0.00     0.176 HD
ATOM     20  H4  UNL     1      -3.640  -1.910  22.990  1.00  0.00     0.179 HD
ENDBRANCH  15  16
ENDBRANCH   2  15
BRANCH   5  21
HETATM   21  N6  UNL     1      -3.763  -5.484  18.530  1.00  0.00    -0.429 NA
BRANCH  21  22
HETATM   22  C8  UNL     1      -3.492  -6.760  18.210  1.00  0.00     0.309 C 
BRANCH  22  23
HETATM   23  O1  UNL     1      -3.004  -7.213  17.058  1.00  0.00    -0.346 OA
ATOM     24  H1  UNL     1      -3.489  -7.625  16.352  1.00  0.00     0.219 HD
ENDBRANCH  22  23
ENDBRANCH  21  22
ENDBRANCH   5  21
TORSDOF 8
ENDMDL
MODEL 2
REMARK VINA RESULT: -4.939189344      2.276      5.407
REMARK  8 active torsions:
REMARK  status: ('A' for Active; 'I' for Inactive)
REMARK    1  A    between atoms: N2_4  and  C1_6 
REMARK    2  A    between atoms: C1_6  and  N3_7 
REMARK    3  A    between atoms: N3_7  and  C2_10 
REMARK    4  A    between atoms: C3_11  and  C4_12 
REMARK    5  A    between atoms: C4_12  and  N4_13 
REMARK    6  A    between atoms: C7_20  and  N6_21 
REMARK    7  A    between atoms: N6_21  and  C8_22 
REMARK    8  A    between atoms: C8_22  and  O1_23 
ROOT
HETATM    1  C2  UNL     1      -2.457  -4.421  16.788  1.00  0.00     0.229 C 
HETATM    2  C3  UNL     1      -2.338  -4.503  15.256  1.00  0.00     0.039 C 
HETATM    3  C5  UNL     1      -2.004  -5.991  15.052  1.00  0.00     0.011 C 
HETATM    4  C6  UNL     1      -1.218  -6.301  16.319  1.00  0.00     0.042 C 
HETATM    5  C7  UNL     1      -2.191  -5.750  17.365  1.00  0.00     0.196 C 
ENDROOT
BRANCH   1   6
HETATM    6  N3  UNL     1      -3.559  -3.664  17.241  1.00  0.00    -0.051 N 
ATOM      7  H32 UNL     1      -4.439  -4.127  17.015  1.00  0.00     0.279 HD
ATOM      8  H31 UNL     1      -3.673  -2.815  16.688  1.00  0.00     0.279 HD
BRANCH   6   9
HETATM    9  C1  UNL     1      -3.479  -3.364  18.637  1.00  0.00     0.371 C 
BRANCH   9  10
HETATM   10  N2  UNL     1      -2.295  -2.613  18.987  1.00  0.00    -0.318 N 
HETATM   11  N1  UNL     1      -1.941  -2.669  20.195  1.00  0.00    -0.348 N 
ATOM     12  H12 UNL     1      -2.469  -3.217  20.874  1.00  0.00     0.176 HD
ATOM     13  H11 UNL     1      -1.105  -2.139  20.442  1.00  0.00     0.176 HD
ATOM     14  H2  UNL     1      -1.776  -2.070  18.296  1.00  0.00     0.181 HD
ENDBRANCH   9  10
ENDBRANCH   6   9
ENDBRANCH   1   6
BRANCH   2  15
HETATM   15  C4  UNL     1      -1.111  -3.743  14.779  1.00  0.00     0.145 C 
BRANCH  15  16
HETATM   16  N4  UNL     1      -0.303  -4.507  13.858  1.00  0.00    -0.343 N 
HETATM   17  N5  UNL     1      -0.472  -4.480  12.645  1.00  0.00    -0.349 N 
ATOM     18  H52 UNL     1      -1.220  -3.887  12.287  1.00  0.00     0.176 HD
ATOM     19  H51 UNL     1       0.098  -5.019  11.994  1.00  0.00     0.176 HD
ATOM     20  H4  UNL     1       0.441  -5.095  14.233  1.00  0.00     0.179 HD
ENDBRANCH  15  16
ENDBRANCH   2  15
BRANCH   5  21
HETATM   21  N6  UNL     1      -3.116  -6.635  17.798  1.00  0.00    -0.429 NA
BRANCH  21  22
HETATM   22  C8  UNL     1      -4.025  -7.504  18.270  1.00  0.00     0.309 C 
BRANCH  22  23
HETATM   23  O1  UNL     1      -4.617  -8.489  17.600  1.00  0.00    -0.346 OA
ATOM     24  H1  UNL     1      -4.232  -9.318  17.339  1.00  0.00     0.219 HD
ENDBRANCH  22  23
ENDBRANCH  21  22
ENDBRANCH   5  21
TORSDOF 8
ENDMDL
MODEL 3
REMARK VINA RESULT: -4.905043942      2.301      4.797
REMARK  8 active torsions:
REMARK  status: ('A' for Active; 'I' for Inactive)
REMARK    1  A    between atoms: N2_4  and  C1_6 
REMARK    2  A    between atoms: C1_6  and  N3_7 
REMARK    3  A    between atoms: N3_7  and  C2_10 
REMARK    4  A    between atoms: C3_11  and  C4_12 
REMARK    5  A    between atoms: C4_12  and  N4_13 
REMARK    6  A    between atoms: C7_20  and  N6_21 
REMARK    7  A    between atoms: N6_21  and  C8_22 
REMARK    8  A    between atoms: C8_22  and  O1_23 
ROOT
HETATM    1  C2  UNL     1      -2.532  -4.424  16.758  1.00  0.00     0.229 C 
HETATM    2  C3  UNL     1      -2.563  -4.383  15.219  1.00  0.00     0.039 C 
HETATM    3  C5  UNL     1      -2.111  -5.810  14.863  1.00  0.00     0.011 C 
HETATM    4  C6  UNL     1      -1.173  -6.128  16.020  1.00  0.00     0.042 C 
HETATM    5  C7  UNL     1      -2.082  -5.757  17.196  1.00  0.00     0.196 C 
ENDROOT
BRANCH   1   6
HETATM    6  N3  UNL     1      -3.648  -3.820  17.373  1.00  0.00    -0.051 N 
ATOM      7  H32 UNL     1      -4.486  -4.391  17.254  1.00  0.00     0.279 HD
ATOM      8  H31 UNL     1      -3.943  -2.987  16.863  1.00  0.00     0.279 HD
BRANCH   6   9
HETATM    9  C1  UNL     1      -3.418  -3.524  18.753  1.00  0.00     0.371 C 
BRANCH   9  10
HETATM   10  N2  UNL     1      -2.328  -2.598  18.959  1.00  0.00    -0.318 N 
HETATM   11  N1  UNL     1      -1.774  -2.638  20.090  1.00  0.00    -0.348 N 
ATOM     12  H12 UNL     1      -2.089  -3.292  20.808  1.00  0.00     0.176 HD
ATOM     13  H11 UNL     1      -1.004  -1.985  20.235  1.00  0.00     0.176 HD
ATOM     14  H2  UNL     1      -2.024  -1.951  18.231  1.00  0.00     0.181 HD
ENDBRANCH   9  10
ENDBRANCH   6   9
ENDBRANCH   1   6
BRANCH   2  15
HETATM   15  C4  UNL     1      -1.469  -3.468  14.693  1.00  0.00     0.145 C 
BRANCH  15  16
HETATM   16  N4  UNL     1      -1.388  -2.220  15.416  1.00  0.00    -0.343 N 
HETATM   17  N5  UNL     1      -1.392  -1.129  14.862  1.00  0.00    -0.349 N 
ATOM     18  H52 UNL     1      -1.457  -1.117  13.844  1.00  0.00     0.176 HD
ATOM     19  H51 UNL     1      -1.335  -0.247  15.372  1.00  0.00     0.176 HD
ATOM     20  H4  UNL     1      -1.324  -2.250  16.434  1.00  0.00     0.179 HD
ENDBRANCH  15  16
ENDBRANCH   2  15
BRANCH   5  21
HETATM   21  N6  UNL     1      -2.869  -6.761  17.640  1.00  0.00    -0.429 NA
BRANCH  21  22
HETATM   22  C8  UNL     1      -3.643  -7.748  18.123  1.00  0.00     0.309 C 
BRANCH  22  23
HETATM   23  O1  UNL     1      -4.708  -8.292  17.539  1.00  0.00    -0.346 OA
ATOM     24  H1  UNL     1      -4.743  -9.113  17.063  1.00  0.00     0.219 HD
ENDBRANCH  22  23
ENDBRANCH  21  22
ENDBRANCH   5  21
TORSDOF 8
ENDMDL
MODEL 4
REMARK VINA RESULT: -4.862501789      2.274      2.874
REMARK  8 active torsions:
REMARK  status: ('A' for Active; 'I' for Inactive)
REMARK    1  A    between atoms: N2_4  and  C1_6 
REMARK    2  A    between atoms: C1_6  and  N3_7 
REMARK    3  A    between atoms: N3_7  and  C2_10 
REMARK    4  A    between atoms: C3_11  and  C4_12 
REMARK    5  A    between atoms: C4_12  and  N4_13 
REMARK    6  A    between atoms: C7_20  and  N6_21 
REMARK    7  A    between atoms: N6_21  and  C8_22 
REMARK    8  A    between atoms: C8_22  and  O1_23 
ROOT
HETATM    1  C2  UNL     1      -3.951  -3.893  19.331  1.00  0.00     0.229 C 
HETATM    2  C3  UNL     1      -2.964  -3.318  20.363  1.00  0.00     0.039 C 
HETATM    3  C5  UNL     1      -3.879  -3.108  21.582  1.00  0.00     0.011 C 
HETATM    4  C6  UNL     1      -5.208  -2.791  20.911  1.00  0.00     0.042 C 
HETATM    5  C7  UNL     1      -5.292  -3.970  19.937  1.00  0.00     0.196 C 
ENDROOT
BRANCH   1   6
HETATM    6  N3  UNL     1      -3.446  -4.987  18.598  1.00  0.00    -0.051 N 
ATOM      7  H32 UNL     1      -4.127  -5.745  18.555  1.00  0.00     0.279 HD
ATOM      8  H31 UNL     1      -2.703  -5.462  19.111  1.00  0.00     0.279 HD
BRANCH   6   9
HETATM    9  C1  UNL     1      -3.008  -4.613  17.289  1.00  0.00     0.371 C 
BRANCH   9  10
HETATM   10  N2  UNL     1      -2.143  -5.596  16.679  1.00  0.00    -0.318 N 
HETATM   11  N1  UNL     1      -0.912  -5.325  16.677  1.00  0.00    -0.348 N 
ATOM     12  H12 UNL     1      -0.563  -4.457  17.086  1.00  0.00     0.176 HD
ATOM     13  H11 UNL     1      -0.302  -6.019  16.246  1.00  0.00     0.176 HD
ATOM     14  H2  UNL     1      -2.507  -6.459  16.274  1.00  0.00     0.181 HD
ENDBRANCH   9  10
ENDBRANCH   6   9
ENDBRANCH   1   6
BRANCH   2  15
HETATM   15  C4  UNL     1      -2.517  -1.925  19.946  1.00  0.00     0.145 C 
BRANCH  15  16
HETATM   16  N4  UNL     1      -1.706  -1.932  18.751  1.00  0.00    -0.343 N 
HETATM   17  N5  UNL     1      -0.678  -2.589  18.649  1.00  0.00    -0.349 N 
ATOM     18  H52 UNL     1      -0.396  -3.151  19.452  1.00  0.00     0.176 HD
ATOM     19  H51 UNL     1      -0.105  -2.594  17.805  1.00  0.00     0.176 HD
ATOM     20  H4  UNL     1      -2.003  -1.365  17.958  1.00  0.00     0.179 HD
ENDBRANCH  15  16
ENDBRANCH   2  15
BRANCH   5  21
HETATM   21  N6  UNL     1      -5.881  -5.077  20.440  1.00  0.00    -0.429 NA
BRANCH  21  22
HETATM   22  C8  UNL     1      -6.493  -6.179  20.904  1.00  0.00     0.309 C 
BRANCH  22  23
HETATM   23  O1  UNL     1      -6.147  -7.444  20.681  1.00  0.00    -0.346 OA
ATOM     24  H1  UNL     1      -5.277  -7.821  20.748  1.00  0.00     0.219 HD
ENDBRANCH  22  23
ENDBRANCH  21  22
ENDBRANCH   5  21
TORSDOF 8
ENDMDL
MODEL 5
REMARK VINA RESULT: -4.785255517      0.886      1.035
REMARK  8 active torsions:
REMARK  status: ('A' for Active; 'I' for Inactive)
REMARK    1  A    between atoms: N2_4  and  C1_6 
REMARK    2  A    between atoms: C1_6  and  N3_7 
REMARK    3  A    between atoms: N3_7  and  C2_10 
REMARK    4  A    between atoms: C3_11  and  C4_12 
REMARK    5  A    between atoms: C4_12  and  N4_13 
REMARK    6  A    between atoms: C7_20  and  N6_21 
REMARK    7  A    between atoms: N6_21  and  C8_22 
REMARK    8  A    between atoms: C8_22  and  O1_23 
ROOT
HETATM    1  C2  UNL     1      -2.932  -2.867  19.374  1.00  0.00     0.229 C 
HETATM    2  C3  UNL     1      -3.066  -2.858  20.908  1.00  0.00     0.039 C 
HETATM    3  C5  UNL     1      -4.155  -3.923  21.128  1.00  0.00     0.011 C 
HETATM    4  C6  UNL     1      -4.992  -3.765  19.866  1.00  0.00     0.042 C 
HETATM    5  C7  UNL     1      -3.883  -3.842  18.812  1.00  0.00     0.196 C 
ENDROOT
BRANCH   1   6
HETATM    6  N3  UNL     1      -1.599  -2.837  18.912  1.00  0.00    -0.051 N 
ATOM      7  H32 UNL     1      -1.193  -3.772  18.903  1.00  0.00     0.279 HD
ATOM      8  H31 UNL     1      -0.984  -2.396  19.596  1.00  0.00     0.279 HD
BRANCH   6   9
HETATM    9  C1  UNL     1      -1.479  -2.210  17.632  1.00  0.00     0.371 C 
BRANCH   9  10
HETATM   10  N2  UNL     1      -1.766  -3.104  16.535  1.00  0.00    -0.318 N 
HETATM   11  N1  UNL     1      -1.676  -2.609  15.379  1.00  0.00    -0.348 N 
ATOM     12  H12 UNL     1      -1.415  -1.632  15.244  1.00  0.00     0.176 HD
ATOM     13  H11 UNL     1      -1.879  -3.241  14.605  1.00  0.00     0.176 HD
ATOM     14  H2  UNL     1      -2.025  -4.079  16.686  1.00  0.00     0.181 HD
ENDBRANCH   9  10
ENDBRANCH   6   9
ENDBRANCH   1   6
BRANCH   2  15
HETATM   15  C4  UNL     1      -3.679  -1.548  21.377  1.00  0.00     0.145 C 
BRANCH  15  16
HETATM   16  N4  UNL     1      -4.597  -1.723  22.477  1.00  0.00    -0.343 N 
HETATM   17  N5  UNL     1      -5.603  -1.039  22.619  1.00  0.00    -0.349 N 
ATOM     18  H52 UNL     1      -5.786  -0.319  21.920  1.00  0.00     0.176 HD
ATOM     19  H51 UNL     1      -6.251  -1.162  23.397  1.00  0.00     0.176 HD
ATOM     20  H4  UNL     1      -4.399  -2.447  23.167  1.00  0.00     0.179 HD
ENDBRANCH  15  16
ENDBRANCH   2  15
BRANCH   5  21
HETATM   21  N6  UNL     1      -3.592  -5.091  18.388  1.00  0.00    -0.429 NA
BRANCH  21  22
HETATM   22  C8  UNL     1      -3.339  -6.348  17.986  1.00  0.00     0.309 C 
BRANCH  22  23
HETATM   23  O1  UNL     1      -2.903  -6.737  16.791  1.00  0.00    -0.346 OA
ATOM     24  H1  UNL     1      -2.573  -6.183  16.093  1.00  0.00     0.219 HD
ENDBRANCH  22  23
ENDBRANCH  21  22
ENDBRANCH   5  21
TORSDOF 8
ENDMDL
