MODEL 1
REMARK VINA RESULT: -5.906531586      0.000      0.000
REMARK  7 active torsions:
REMARK  status: ('A' for Active; 'I' for Inactive)
REMARK    1  A    between atoms: N1_2  and  C2_4 
REMARK    2  A    between atoms: C2_4  and  C3_5 
REMARK    3  A    between atoms: C3_5  and  N2_6 
REMARK    4  A    between atoms: C4_8  and  N3_9 
REMARK    5  A    between atoms: N3_9  and  C5_11 
REMARK    6  A    between atoms: C5_11  and  C6_12 
REMARK    7  A    between atoms: C6_12  and  N4_13 
ROOT
HETATM    1  N3  UNL     1      -2.365  -3.416  17.402  1.00  0.00    -0.385 N 
ATOM      2  H3  UNL     1      -1.413  -3.147  17.651  1.00  0.00     0.160 HD
ENDROOT
BRANCH   1   3
HETATM    3  C4  UNL     1      -2.683  -3.766  16.081  1.00  0.00     0.171 C 
HETATM    4  N2  UNL     1      -2.241  -4.874  15.550  1.00  0.00    -0.385 N 
ATOM      5  H2  UNL     1      -2.491  -5.095  14.587  1.00  0.00     0.160 HD
BRANCH   4   6
HETATM    6  C3  UNL     1      -1.414  -5.790  16.278  1.00  0.00     0.139 C 
BRANCH   6   7
HETATM    7  C2  UNL     1      -2.262  -6.829  17.024  1.00  0.00     0.137 C 
BRANCH   7   8
HETATM    8  N1  UNL     1      -1.395  -7.758  17.690  1.00  0.00    -0.406 N 
HETATM    9  C1  UNL     1      -1.826  -8.663  18.473  1.00  0.00     0.112 C 
ATOM     10  H1  UNL     1      -0.390  -7.690  17.529  1.00  0.00     0.158 HD
ENDBRANCH   7   8
ENDBRANCH   6   7
ENDBRANCH   4   6
ENDBRANCH   1   3
BRANCH   1  11
HETATM   11  C5  UNL     1      -3.409  -3.443  18.412  1.00  0.00     0.148 C 
BRANCH  11  12
HETATM   12  C6  UNL     1      -2.929  -2.637  19.588  1.00  0.00     0.259 C 
BRANCH  12  13
HETATM   13  N4  UNL     1      -3.681  -2.900  20.793  1.00  0.00    -0.032 N 
HETATM   14  C7  UNL     1      -3.154  -2.550  22.069  1.00  0.00     0.468 C 
HETATM   15  N5  UNL     1      -4.273  -2.131  22.898  1.00  0.00    -0.049 N 
HETATM   16  C8  UNL     1      -5.188  -1.584  21.923  1.00  0.00     0.269 C 
ATOM     17  H52 UNL     1      -4.664  -2.861  23.494  1.00  0.00     0.279 HD
ATOM     18  H51 UNL     1      -4.031  -1.502  23.663  1.00  0.00     0.279 HD
HETATM   19  C9  UNL     1      -5.052  -2.470  20.734  1.00  0.00     0.244 A 
HETATM   20  C10 UNL     1      -4.739  -3.877  20.786  1.00  0.00     0.275 A 
ENDBRANCH  12  13
ENDBRANCH  11  12
ENDBRANCH   1  11
TORSDOF 7
ENDMDL
MODEL 2
REMARK VINA RESULT: -5.817217357      1.444      2.095
REMARK  7 active torsions:
REMARK  status: ('A' for Active; 'I' for Inactive)
REMARK    1  A    between atoms: N1_2  and  C2_4 
REMARK    2  A    between atoms: C2_4  and  C3_5 
REMARK    3  A    between atoms: C3_5  and  N2_6 
REMARK    4  A    between atoms: C4_8  and  N3_9 
REMARK    5  A    between atoms: N3_9  and  C5_11 
REMARK    6  A    between atoms: C5_11  and  C6_12 
REMARK    7  A    between atoms: C6_12  and  N4_13 
ROOT
HETATM    1  N3  UNL     1      -3.380  -3.407  17.202  1.00  0.00    -0.385 N 
ATOM      2  H3  UNL     1      -3.844  -3.590  16.313  1.00  0.00     0.160 HD
ENDROOT
BRANCH   1   3
HETATM    3  C4  UNL     1      -1.990  -3.553  17.322  1.00  0.00     0.171 C 
HETATM    4  N2  UNL     1      -1.396  -4.666  16.983  1.00  0.00    -0.385 N 
ATOM      5  H2  UNL     1      -0.384  -4.736  17.085  1.00  0.00     0.160 HD
BRANCH   4   6
HETATM    6  C3  UNL     1      -2.120  -5.791  16.473  1.00  0.00     0.139 C 
BRANCH   6   7
HETATM    7  C2  UNL     1      -1.403  -6.412  15.268  1.00  0.00     0.137 C 
BRANCH   7   8
HETATM    8  N1  UNL     1      -0.487  -5.454  14.717  1.00  0.00    -0.406 N 
HETATM    9  C1  UNL     1      -0.704  -4.843  13.623  1.00  0.00     0.112 C 
ATOM     10  H1  UNL     1       0.376  -5.255  15.224  1.00  0.00     0.158 HD
ENDBRANCH   7   8
ENDBRANCH   6   7
ENDBRANCH   4   6
ENDBRANCH   1   3
BRANCH   1  11
HETATM   11  C5  UNL     1      -4.150  -2.990  18.362  1.00  0.00     0.148 C 
BRANCH  11  12
HETATM   12  C6  UNL     1      -3.183  -2.741  19.487  1.00  0.00     0.259 C 
BRANCH  12  13
HETATM   13  N4  UNL     1      -3.772  -2.956  20.789  1.00  0.00    -0.032 N 
HETATM   14  C7  UNL     1      -3.094  -2.538  21.970  1.00  0.00     0.468 C 
HETATM   15  N5  UNL     1      -4.106  -2.095  22.915  1.00  0.00    -0.049 N 
HETATM   16  C8  UNL     1      -5.148  -1.607  22.041  1.00  0.00     0.269 C 
ATOM     17  H52 UNL     1      -4.405  -2.800  23.589  1.00  0.00     0.279 HD
ATOM     18  H51 UNL     1      -3.781  -1.426  23.613  1.00  0.00     0.279 HD
HETATM   19  C9  UNL     1      -5.147  -2.548  20.886  1.00  0.00     0.244 A 
HETATM   20  C10 UNL     1      -4.803  -3.947  20.962  1.00  0.00     0.275 A 
ENDBRANCH  12  13
ENDBRANCH  11  12
ENDBRANCH   1  11
TORSDOF 7
ENDMDL
MODEL 3
REMARK VINA RESULT: -5.604165914      1.682      2.480
REMARK  7 active torsions:
REMARK  status: ('A' for Active; 'I' for Inactive)
REMARK    1  A    between atoms: N1_2  and  C2_4 
REMARK    2  A    between atoms: C2_4  and  C3_5 
REMARK    3  A    between atoms: C3_5  and  N2_6 
REMARK    4  A    between atoms: C4_8  and  N3_9 
REMARK    5  A    between atoms: N3_9  and  C5_11 
REMARK    6  A    between atoms: C5_11  and  C6_12 
REMARK    7  A    between atoms: C6_12  and  N4_13 
ROOT
HETATM    1  N3  UNL     1      -3.367  -3.392  17.453  1.00  0.00    -0.385 N 
ATOM      2  H3  UNL     1      -3.913  -3.039  16.667  1.00  0.00     0.160 HD
ENDROOT
BRANCH   1   3
HETATM    3  C4  UNL     1      -1.969  -3.469  17.371  1.00  0.00     0.171 C 
HETATM    4  N2  UNL     1      -1.377  -4.530  16.891  1.00  0.00    -0.385 N 
ATOM      5  H2  UNL     1      -0.359  -4.550  16.848  1.00  0.00     0.160 HD
BRANCH   4   6
HETATM    6  C3  UNL     1      -2.113  -5.666  16.424  1.00  0.00     0.139 C 
BRANCH   6   7
HETATM    7  C2  UNL     1      -1.367  -6.381  15.290  1.00  0.00     0.137 C 
BRANCH   7   8
HETATM    8  N1  UNL     1      -0.464  -5.459  14.661  1.00  0.00    -0.406 N 
HETATM    9  C1  UNL     1      -0.735  -4.866  13.569  1.00  0.00     0.112 C 
ATOM     10  H1  UNL     1       0.433  -5.272  15.110  1.00  0.00     0.158 HD
ENDBRANCH   7   8
ENDBRANCH   6   7
ENDBRANCH   4   6
ENDBRANCH   1   3
BRANCH   1  11
HETATM   11  C5  UNL     1      -4.029  -3.823  18.673  1.00  0.00     0.148 C 
BRANCH  11  12
HETATM   12  C6  UNL     1      -4.738  -2.630  19.254  1.00  0.00     0.259 C 
BRANCH  12  13
HETATM   13  N4  UNL     1      -4.781  -2.652  20.698  1.00  0.00    -0.032 N 
HETATM   14  C7  UNL     1      -4.754  -3.887  21.406  1.00  0.00     0.468 C 
HETATM   15  N5  UNL     1      -4.003  -3.666  22.631  1.00  0.00    -0.049 N 
HETATM   16  C8  UNL     1      -3.077  -2.628  22.239  1.00  0.00     0.269 C 
ATOM     17  H52 UNL     1      -4.569  -3.450  23.451  1.00  0.00     0.279 HD
ATOM     18  H51 UNL     1      -3.571  -4.500  23.029  1.00  0.00     0.279 HD
HETATM   19  C9  UNL     1      -3.858  -1.747  21.327  1.00  0.00     0.244 A 
HETATM   20  C10 UNL     1      -5.277  -1.511  21.424  1.00  0.00     0.275 A 
ENDBRANCH  12  13
ENDBRANCH  11  12
ENDBRANCH   1  11
TORSDOF 7
ENDMDL
MODEL 4
REMARK VINA RESULT: -5.571715950      1.048      1.489
REMARK  7 active torsions:
REMARK  status: ('A' for Active; 'I' for Inactive)
REMARK    1  A    between atoms: N1_2  and  C2_4 
REMARK    2  A    between atoms: C2_4  and  C3_5 
REMARK    3  A    between atoms: C3_5  and  N2_6 
REMARK    4  A    between atoms: C4_8  and  N3_9 
REMARK    5  A    between atoms: N3_9  and  C5_11 
REMARK    6  A    between atoms: C5_11  and  C6_12 
REMARK    7  A    between atoms: C6_12  and  N4_13 
ROOT
HETATM    1  N3  UNL     1      -3.429  -3.408  17.403  1.00  0.00    -0.385 N 
ATOM      2  H3  UNL     1      -4.069  -3.108  16.668  1.00  0.00     0.160 HD
ENDROOT
BRANCH   1   3
HETATM    3  C4  UNL     1      -2.046  -3.439  17.173  1.00  0.00     0.171 C 
HETATM    4  N2  UNL     1      -1.471  -4.491  16.654  1.00  0.00    -0.385 N 
ATOM      5  H2  UNL     1      -0.463  -4.478  16.502  1.00  0.00     0.160 HD
BRANCH   4   6
HETATM    6  C3  UNL     1      -2.210  -5.663  16.293  1.00  0.00     0.139 C 
BRANCH   6   7
HETATM    7  C2  UNL     1      -1.406  -6.937  16.580  1.00  0.00     0.137 C 
BRANCH   7   8
HETATM    8  N1  UNL     1      -1.911  -7.558  17.772  1.00  0.00    -0.406 N 
HETATM    9  C1  UNL     1      -1.368  -8.580  18.300  1.00  0.00     0.112 C 
ATOM     10  H1  UNL     1      -2.741  -7.162  18.214  1.00  0.00     0.158 HD
ENDBRANCH   7   8
ENDBRANCH   6   7
ENDBRANCH   4   6
ENDBRANCH   1   3
BRANCH   1  11
HETATM   11  C5  UNL     1      -3.939  -3.808  18.704  1.00  0.00     0.148 C 
BRANCH  11  12
HETATM   12  C6  UNL     1      -4.717  -2.650  19.266  1.00  0.00     0.259 C 
BRANCH  12  13
HETATM   13  N4  UNL     1      -4.775  -2.661  20.709  1.00  0.00    -0.032 N 
HETATM   14  C7  UNL     1      -4.736  -3.891  21.428  1.00  0.00     0.468 C 
HETATM   15  N5  UNL     1      -4.001  -3.648  22.659  1.00  0.00    -0.049 N 
HETATM   16  C8  UNL     1      -3.088  -2.598  22.268  1.00  0.00     0.269 C 
ATOM     17  H52 UNL     1      -4.580  -3.434  23.471  1.00  0.00     0.279 HD
ATOM     18  H51 UNL     1      -3.561  -4.472  23.067  1.00  0.00     0.279 HD
HETATM   19  C9  UNL     1      -3.873  -1.737  21.340  1.00  0.00     0.244 A 
HETATM   20  C10 UNL     1      -5.297  -1.523  21.421  1.00  0.00     0.275 A 
ENDBRANCH  12  13
ENDBRANCH  11  12
ENDBRANCH   1  11
TORSDOF 7
ENDMDL
MODEL 5
REMARK VINA RESULT: -5.420615208      1.584      6.579
REMARK  7 active torsions:
REMARK  status: ('A' for Active; 'I' for Inactive)
REMARK    1  A    between atoms: N1_2  and  C2_4 
REMARK    2  A    between atoms: C2_4  and  C3_5 
REMARK    3  A    between atoms: C3_5  and  N2_6 
REMARK    4  A    between atoms: C4_8  and  N3_9 
REMARK    5  A    between atoms: N3_9  and  C5_11 
REMARK    6  A    between atoms: C5_11  and  C6_12 
REMARK    7  A    between atoms: C6_12  and  N4_13 
ROOT
HETATM    1  N3  UNL     1      -3.211  -2.503  18.751  1.00  0.00    -0.385 N 
ATOM      2  H3  UNL     1      -3.695  -1.646  18.483  1.00  0.00     0.160 HD
ENDROOT
BRANCH   1   3
HETATM    3  C4  UNL     1      -2.441  -2.547  19.923  1.00  0.00     0.171 C 
HETATM    4  N2  UNL     1      -2.880  -3.149  20.997  1.00  0.00    -0.385 N 
ATOM      5  H2  UNL     1      -2.293  -3.160  21.830  1.00  0.00     0.160 HD
BRANCH   4   6
HETATM    6  C3  UNL     1      -4.157  -3.794  21.040  1.00  0.00     0.139 C 
BRANCH   6   7
HETATM    7  C2  UNL     1      -4.916  -3.435  22.324  1.00  0.00     0.137 C 
BRANCH   7   8
HETATM    8  N1  UNL     1      -4.757  -2.034  22.592  1.00  0.00    -0.406 N 
HETATM    9  C1  UNL     1      -5.603  -1.160  22.219  1.00  0.00     0.112 C 
ATOM     10  H1  UNL     1      -3.930  -1.725  23.104  1.00  0.00     0.158 HD
ENDBRANCH   7   8
ENDBRANCH   6   7
ENDBRANCH   4   6
ENDBRANCH   1   3
BRANCH   1  11
HETATM   11  C5  UNL     1      -3.308  -3.693  17.923  1.00  0.00     0.148 C 
BRANCH  11  12
HETATM   12  C6  UNL     1      -2.072  -3.758  17.069  1.00  0.00     0.259 C 
BRANCH  12  13
HETATM   13  N4  UNL     1      -2.143  -4.786  16.056  1.00  0.00    -0.032 N 
HETATM   14  C7  UNL     1      -2.416  -4.450  14.699  1.00  0.00     0.468 C 
HETATM   15  N5  UNL     1      -1.654  -5.367  13.867  1.00  0.00    -0.049 N 
HETATM   16  C8  UNL     1      -0.506  -5.652  14.696  1.00  0.00     0.269 C 
ATOM     17  H52 UNL     1      -2.169  -6.187  13.547  1.00  0.00     0.279 HD
ATOM     18  H51 UNL     1      -1.435  -5.020  12.933  1.00  0.00     0.279 HD
HETATM   19  C9  UNL     1      -1.045  -5.713  16.083  1.00  0.00     0.244 A 
HETATM   20  C10 UNL     1      -2.373  -6.157  16.433  1.00  0.00     0.275 A 
ENDBRANCH  12  13
ENDBRANCH  11  12
ENDBRANCH   1  11
TORSDOF 7
ENDMDL
