MODEL 1
REMARK VINA RESULT: -8.492573635      0.000      0.000
REMARK  11 active torsions:
REMARK  status: ('A' for Active; 'I' for Inactive)
REMARK    1  A    between atoms: C2_2  and  N1_3 
REMARK    2  A    between atoms: N1_3  and  C3_4 
REMARK    3  A    between atoms: N1_3  and  C5_6 
REMARK    4  A    between atoms: C5_6  and  C6_7 
REMARK    5  A    between atoms: C6_7  and  N2_8 
REMARK    6  A    between atoms: C6_7  and  C8_12 
REMARK    7  A    between atoms: C9_15  and  C10_16 
REMARK       I    between atoms: C10_16  and  N5_18 
REMARK    8  A    between atoms: N5_18  and  N6_20 
REMARK       I    between atoms: N6_20  and  C11_22 
REMARK    9  A    between atoms: C11_22  and  C12_24 
REMARK   10  A    between atoms: C20_36  and  N10_37 
REMARK   11  A    between atoms: C21_42  and  C22_43 
ROOT
HETATM    1  N2  UNL     1       2.623   4.933  38.538  1.00  0.00    -0.290 N 
ATOM      2  H2  UNL     1       2.848   5.436  37.680  1.00  0.00     0.178 HD
HETATM    3  C7  UNL     1       2.468   5.640  39.733  1.00  0.00     0.182 C 
HETATM    4  N3  UNL     1       2.353   6.245  40.709  1.00  0.00    -0.172 NA
ENDROOT
BRANCH   1   5
HETATM    5  C6  UNL     1       2.471   3.520  38.503  1.00  0.00     0.085 C 
BRANCH   5   6
HETATM    6  C5  UNL     1       1.503   2.969  37.539  1.00  0.00     0.118 C 
BRANCH   6   7
HETATM    7  N1  UNL     1       0.209   2.704  37.956  1.00  0.00    -0.389 N 
BRANCH   7   8
HETATM    8  C2  UNL     1      -0.531   1.642  37.373  1.00  0.00     0.118 C 
HETATM    9  C1  UNL     1      -0.167   1.535  35.860  1.00  0.00     0.026 C 
ENDBRANCH   7   8
BRANCH   7  10
HETATM   10  C3  UNL     1      -0.043   2.835  39.361  1.00  0.00     0.118 C 
HETATM   11  C4  UNL     1      -0.937   4.037  39.689  1.00  0.00     0.026 C 
ENDBRANCH   7  10
ENDBRANCH   6   7
ENDBRANCH   5   6
BRANCH   5  12
HETATM   12  C8  UNL     1       3.641   2.704  38.891  1.00  0.00     0.086 A 
HETATM   13  N4  UNL     1       3.713   2.022  40.087  1.00  0.00    -0.345 N 
HETATM   14  C9  UNL     1       4.788   1.424  40.567  1.00  0.00     0.147 A 
ATOM     15  H4  UNL     1       2.863   1.975  40.649  1.00  0.00     0.166 HD
HETATM   16  C20 UNL     1       5.960   1.467  39.820  1.00  0.00     0.132 A 
HETATM   17  N11 UNL     1       5.938   2.103  38.667  1.00  0.00    -0.341 N 
HETATM   18  C21 UNL     1       4.804   2.728  38.171  1.00  0.00     0.054 A 
ATOM     19  H11 UNL     1       6.793   2.138  38.114  1.00  0.00     0.167 HD
BRANCH  14  20
HETATM   20  C10 UNL     1       4.821   0.668  41.814  1.00  0.00     0.290 C 
HETATM   21  O1  UNL     1       5.055   1.243  42.905  1.00  0.00    -0.264 OA
HETATM   22  N5  UNL     1       4.603  -0.733  41.866  1.00  0.00    -0.262 N 
ATOM     23  H5  UNL     1       4.447  -1.210  40.978  1.00  0.00     0.190 HD
BRANCH  22  24
HETATM   24  N6  UNL     1       4.583  -1.510  43.008  1.00  0.00    -0.265 N 
HETATM   25  C11 UNL     1       5.808  -1.936  43.628  1.00  0.00     0.266 C 
HETATM   26  O2  UNL     1       6.903  -1.568  43.102  1.00  0.00    -0.269 OA
ATOM     27  H6  UNL     1       3.689  -1.785  43.416  1.00  0.00     0.190 HD
BRANCH  25  28
HETATM   28  C12 UNL     1       5.765  -2.779  44.832  1.00  0.00     0.190 C 
HETATM   29  C13 UNL     1       4.376  -2.895  45.305  1.00  0.00     0.087 C 
HETATM   30  N7  UNL     1       3.284  -3.010  45.672  1.00  0.00    -0.195 NA
HETATM   31  C14 UNL     1       6.629  -2.154  45.922  1.00  0.00     0.063 C 
HETATM   32  C15 UNL     1       6.738  -3.359  46.869  1.00  0.00     0.132 C 
HETATM   33  N8  UNL     1       6.956  -4.444  45.917  1.00  0.00    -0.343 N 
HETATM   34  C16 UNL     1       7.497  -5.651  45.766  1.00  0.00     0.116 A 
HETATM   35  C19 UNL     1       6.400  -4.095  44.712  1.00  0.00     0.116 A 
HETATM   36  C17 UNL     1       7.299  -6.096  44.476  1.00  0.00     0.022 A 
HETATM   37  C18 UNL     1       7.794  -7.413  43.999  1.00  0.00     0.069 C 
HETATM   38  N9  UNL     1       6.623  -5.123  43.851  1.00  0.00    -0.346 N 
ATOM     39  H9  UNL     1       6.322  -5.148  42.876  1.00  0.00     0.167 HD
ENDBRANCH  25  28
ENDBRANCH  22  24
ENDBRANCH  14  20
BRANCH  16  40
HETATM   40  N10 UNL     1       7.062   0.901  40.182  1.00  0.00    -0.383 N 
ATOM     41 2H10 UNL     1       7.270   0.847  41.178  1.00  0.00     0.157 HD
ATOM     42 1H10 UNL     1       7.745   0.520  39.526  1.00  0.00     0.157 HD
ENDBRANCH  16  40
BRANCH  18  43
HETATM   43  C22 UNL     1       4.917   3.304  36.844  1.00  0.00     0.174 C 
HETATM   44 CL1  UNL     1       4.367   2.434  35.440  1.00  0.00    -0.124 Cl
ENDBRANCH  18  43
ENDBRANCH   5  12
ENDBRANCH   1   5
TORSDOF 11
ENDMDL
MODEL 2
REMARK VINA RESULT: -8.487206340      0.381      1.187
REMARK  11 active torsions:
REMARK  status: ('A' for Active; 'I' for Inactive)
REMARK    1  A    between atoms: C2_2  and  N1_3 
REMARK    2  A    between atoms: N1_3  and  C3_4 
REMARK    3  A    between atoms: N1_3  and  C5_6 
REMARK    4  A    between atoms: C5_6  and  C6_7 
REMARK    5  A    between atoms: C6_7  and  N2_8 
REMARK    6  A    between atoms: C6_7  and  C8_12 
REMARK    7  A    between atoms: C9_15  and  C10_16 
REMARK       I    between atoms: C10_16  and  N5_18 
REMARK    8  A    between atoms: N5_18  and  N6_20 
REMARK       I    between atoms: N6_20  and  C11_22 
REMARK    9  A    between atoms: C11_22  and  C12_24 
REMARK   10  A    between atoms: C20_36  and  N10_37 
REMARK   11  A    between atoms: C21_42  and  C22_43 
ROOT
HETATM    1  N2  UNL     1       2.675   4.902  38.750  1.00  0.00    -0.290 N 
ATOM      2  H2  UNL     1       2.960   5.303  37.857  1.00  0.00     0.178 HD
HETATM    3  C7  UNL     1       2.485   5.738  39.854  1.00  0.00     0.182 C 
HETATM    4  N3  UNL     1       2.342   6.447  40.753  1.00  0.00    -0.172 NA
ENDROOT
BRANCH   1   5
HETATM    5  C6  UNL     1       2.475   3.499  38.857  1.00  0.00     0.085 C 
BRANCH   5   6
HETATM    6  C5  UNL     1       1.399   2.906  38.045  1.00  0.00     0.118 C 
BRANCH   6   7
HETATM    7  N1  UNL     1       0.271   2.408  38.676  1.00  0.00    -0.389 N 
BRANCH   7   8
HETATM    8  C2  UNL     1      -0.438   3.204  39.614  1.00  0.00     0.118 C 
HETATM    9  C1  UNL     1      -0.976   4.481  38.898  1.00  0.00     0.026 C 
ENDBRANCH   7   8
BRANCH   7  10
HETATM   10  C3  UNL     1      -0.603   1.608  37.870  1.00  0.00     0.118 C 
HETATM   11  C4  UNL     1      -0.231   1.644  36.382  1.00  0.00     0.026 C 
ENDBRANCH   7  10
ENDBRANCH   6   7
ENDBRANCH   5   6
BRANCH   5  12
HETATM   12  C8  UNL     1       3.651   2.672  39.201  1.00  0.00     0.086 A 
HETATM   13  N4  UNL     1       3.768   2.001  40.399  1.00  0.00    -0.345 N 
HETATM   14  C9  UNL     1       4.856   1.395  40.838  1.00  0.00     0.147 A 
ATOM     15  H4  UNL     1       2.943   1.969  40.999  1.00  0.00     0.166 HD
HETATM   16  C20 UNL     1       5.995   1.417  40.039  1.00  0.00     0.132 A 
HETATM   17  N11 UNL     1       5.929   2.042  38.883  1.00  0.00    -0.341 N 
HETATM   18  C21 UNL     1       4.782   2.676  38.431  1.00  0.00     0.054 A 
ATOM     19  H11 UNL     1       6.760   2.061  38.292  1.00  0.00     0.167 HD
BRANCH  14  20
HETATM   20  C10 UNL     1       4.936   0.650  42.089  1.00  0.00     0.290 C 
HETATM   21  O1  UNL     1       5.399   1.186  43.125  1.00  0.00    -0.264 OA
HETATM   22  N5  UNL     1       4.510  -0.699  42.206  1.00  0.00    -0.262 N 
ATOM     23  H5  UNL     1       4.164  -1.150  41.359  1.00  0.00     0.190 HD
BRANCH  22  24
HETATM   24  N6  UNL     1       4.520  -1.457  43.362  1.00  0.00    -0.265 N 
HETATM   25  C11 UNL     1       5.728  -2.090  43.814  1.00  0.00     0.266 C 
HETATM   26  O2  UNL     1       6.783  -1.922  43.128  1.00  0.00    -0.269 OA
ATOM     27  H6  UNL     1       3.660  -1.569  43.899  1.00  0.00     0.190 HD
BRANCH  25  28
HETATM   28  C12 UNL     1       5.714  -2.908  45.035  1.00  0.00     0.190 C 
HETATM   29  C13 UNL     1       4.324  -3.102  45.483  1.00  0.00     0.087 C 
HETATM   30  N7  UNL     1       3.234  -3.278  45.831  1.00  0.00    -0.195 NA
HETATM   31  C14 UNL     1       6.514  -2.207  46.128  1.00  0.00     0.063 C 
HETATM   32  C15 UNL     1       6.678  -3.382  47.103  1.00  0.00     0.132 C 
HETATM   33  N8  UNL     1       6.983  -4.471  46.181  1.00  0.00    -0.343 N 
HETATM   34  C16 UNL     1       7.602  -5.645  46.067  1.00  0.00     0.116 A 
HETATM   35  C19 UNL     1       6.431  -4.184  44.957  1.00  0.00     0.116 A 
HETATM   36  C17 UNL     1       7.459  -6.128  44.783  1.00  0.00     0.022 A 
HETATM   37  C18 UNL     1       8.046  -7.422  44.346  1.00  0.00     0.069 C 
HETATM   38  N9  UNL     1       6.737  -5.213  44.124  1.00  0.00    -0.346 N 
ATOM     39  H9  UNL     1       6.458  -5.278  43.144  1.00  0.00     0.167 HD
ENDBRANCH  25  28
ENDBRANCH  22  24
ENDBRANCH  14  20
BRANCH  16  40
HETATM   40  N10 UNL     1       7.106   0.841  40.358  1.00  0.00    -0.383 N 
ATOM     41 2H10 UNL     1       7.299   0.684  41.347  1.00  0.00     0.157 HD
ATOM     42 1H10 UNL     1       7.808   0.550  39.678  1.00  0.00     0.157 HD
ENDBRANCH  16  40
BRANCH  18  43
HETATM   43  C22 UNL     1       4.844   3.239  37.094  1.00  0.00     0.174 C 
HETATM   44 CL1  UNL     1       4.312   2.322  35.712  1.00  0.00    -0.124 Cl
ENDBRANCH  18  43
ENDBRANCH   5  12
ENDBRANCH   1   5
TORSDOF 11
ENDMDL
MODEL 3
REMARK VINA RESULT: -8.472400422      1.291      2.622
REMARK  11 active torsions:
REMARK  status: ('A' for Active; 'I' for Inactive)
REMARK    1  A    between atoms: C2_2  and  N1_3 
REMARK    2  A    between atoms: N1_3  and  C3_4 
REMARK    3  A    between atoms: N1_3  and  C5_6 
REMARK    4  A    between atoms: C5_6  and  C6_7 
REMARK    5  A    between atoms: C6_7  and  N2_8 
REMARK    6  A    between atoms: C6_7  and  C8_12 
REMARK    7  A    between atoms: C9_15  and  C10_16 
REMARK       I    between atoms: C10_16  and  N5_18 
REMARK    8  A    between atoms: N5_18  and  N6_20 
REMARK       I    between atoms: N6_20  and  C11_22 
REMARK    9  A    between atoms: C11_22  and  C12_24 
REMARK   10  A    between atoms: C20_36  and  N10_37 
REMARK   11  A    between atoms: C21_42  and  C22_43 
ROOT
HETATM    1  N2  UNL     1       0.770   2.647  37.147  1.00  0.00    -0.290 N 
ATOM      2  H2  UNL     1       0.588   2.496  36.155  1.00  0.00     0.178 HD
HETATM    3  C7  UNL     1      -0.067   2.061  38.099  1.00  0.00     0.182 C 
HETATM    4  N3  UNL     1      -0.777   1.573  38.868  1.00  0.00    -0.172 NA
ENDROOT
BRANCH   1   5
HETATM    5  C6  UNL     1       1.873   3.451  37.542  1.00  0.00     0.085 C 
BRANCH   5   6
HETATM    6  C5  UNL     1       1.572   4.723  38.223  1.00  0.00     0.118 C 
BRANCH   6   7
HETATM    7  N1  UNL     1       2.615   5.504  38.688  1.00  0.00    -0.389 N 
BRANCH   7   8
HETATM    8  C2  UNL     1       3.324   6.359  37.804  1.00  0.00     0.118 C 
HETATM    9  C1  UNL     1       3.049   7.843  38.196  1.00  0.00     0.026 C 
ENDBRANCH   7   8
BRANCH   7  10
HETATM   10  C3  UNL     1       2.438   6.090  39.985  1.00  0.00     0.118 C 
HETATM   11  C4  UNL     1       1.347   5.388  40.804  1.00  0.00     0.026 C 
ENDBRANCH   7  10
ENDBRANCH   6   7
ENDBRANCH   5   6
BRANCH   5  12
HETATM   12  C8  UNL     1       3.141   2.756  37.850  1.00  0.00     0.086 A 
HETATM   13  N4  UNL     1       3.438   2.263  39.102  1.00  0.00    -0.345 N 
HETATM   14  C9  UNL     1       4.612   1.793  39.484  1.00  0.00     0.147 A 
ATOM     15  H4  UNL     1       2.688   2.261  39.793  1.00  0.00     0.166 HD
HETATM   16  C20 UNL     1       5.652   1.779  38.561  1.00  0.00     0.132 A 
HETATM   17  N11 UNL     1       5.414   2.236  37.350  1.00  0.00    -0.341 N 
HETATM   18  C21 UNL     1       4.179   2.727  36.958  1.00  0.00     0.054 A 
ATOM     19  H11 UNL     1       6.172   2.227  36.668  1.00  0.00     0.167 HD
BRANCH  14  20
HETATM   20  C10 UNL     1       4.884   1.233  40.802  1.00  0.00     0.290 C 
HETATM   21  O1  UNL     1       5.685   1.800  41.587  1.00  0.00    -0.264 OA
HETATM   22  N5  UNL     1       4.280   0.036  41.266  1.00  0.00    -0.262 N 
ATOM     23  H5  UNL     1       3.655  -0.447  40.619  1.00  0.00     0.190 HD
BRANCH  22  24
HETATM   24  N6  UNL     1       4.459  -0.537  42.511  1.00  0.00    -0.265 N 
HETATM   25  C11 UNL     1       4.820  -1.922  42.637  1.00  0.00     0.266 C 
HETATM   26  O2  UNL     1       4.979  -2.597  41.574  1.00  0.00    -0.269 OA
ATOM     27  H6  UNL     1       4.333   0.031  43.349  1.00  0.00     0.190 HD
BRANCH  25  28
HETATM   28  C12 UNL     1       4.987  -2.517  43.971  1.00  0.00     0.190 C 
HETATM   29  C13 UNL     1       3.671  -2.659  44.617  1.00  0.00     0.087 C 
HETATM   30  N7  UNL     1       2.639  -2.794  45.124  1.00  0.00    -0.195 NA
HETATM   31  C14 UNL     1       5.883  -1.620  44.820  1.00  0.00     0.063 C 
HETATM   32  C15 UNL     1       6.212  -2.605  45.952  1.00  0.00     0.132 C 
HETATM   33  N8  UNL     1       6.450  -3.830  45.196  1.00  0.00    -0.343 N 
HETATM   34  C16 UNL     1       7.099  -4.993  45.206  1.00  0.00     0.116 A 
HETATM   35  C19 UNL     1       5.743  -3.772  44.021  1.00  0.00     0.116 A 
HETATM   36  C17 UNL     1       6.823  -5.695  44.052  1.00  0.00     0.022 A 
HETATM   37  C18 UNL     1       7.407  -7.032  43.770  1.00  0.00     0.069 C 
HETATM   38  N9  UNL     1       5.989  -4.923  43.342  1.00  0.00    -0.346 N 
ATOM     39  H9  UNL     1       5.598  -5.163  42.431  1.00  0.00     0.167 HD
ENDBRANCH  25  28
ENDBRANCH  22  24
ENDBRANCH  14  20
BRANCH  16  40
HETATM   40  N10 UNL     1       6.833   1.325  38.819  1.00  0.00    -0.383 N 
ATOM     41 2H10 UNL     1       7.505   1.954  39.257  1.00  0.00     0.157 HD
ATOM     42 1H10 UNL     1       7.137   0.377  38.594  1.00  0.00     0.157 HD
ENDBRANCH  16  40
BRANCH  18  43
HETATM   43  C22 UNL     1       4.051   3.105  35.563  1.00  0.00     0.174 C 
HETATM   44 CL1  UNL     1       3.695   1.915  34.342  1.00  0.00    -0.124 Cl
ENDBRANCH  18  43
ENDBRANCH   5  12
ENDBRANCH   1   5
TORSDOF 11
ENDMDL
MODEL 4
REMARK VINA RESULT: -8.444268366      1.244      2.452
REMARK  11 active torsions:
REMARK  status: ('A' for Active; 'I' for Inactive)
REMARK    1  A    between atoms: C2_2  and  N1_3 
REMARK    2  A    between atoms: N1_3  and  C3_4 
REMARK    3  A    between atoms: N1_3  and  C5_6 
REMARK    4  A    between atoms: C5_6  and  C6_7 
REMARK    5  A    between atoms: C6_7  and  N2_8 
REMARK    6  A    between atoms: C6_7  and  C8_12 
REMARK    7  A    between atoms: C9_15  and  C10_16 
REMARK       I    between atoms: C10_16  and  N5_18 
REMARK    8  A    between atoms: N5_18  and  N6_20 
REMARK       I    between atoms: N6_20  and  C11_22 
REMARK    9  A    between atoms: C11_22  and  C12_24 
REMARK   10  A    between atoms: C20_36  and  N10_37 
REMARK   11  A    between atoms: C21_42  and  C22_43 
ROOT
HETATM    1  N2  UNL     1       0.773   2.684  37.480  1.00  0.00    -0.290 N 
ATOM      2  H2  UNL     1       0.757   2.603  36.463  1.00  0.00     0.178 HD
HETATM    3  C7  UNL     1      -0.220   2.058  38.237  1.00  0.00     0.182 C 
HETATM    4  N3  UNL     1      -1.055   1.539  38.842  1.00  0.00    -0.172 NA
ENDROOT
BRANCH   1   5
HETATM    5  C6  UNL     1       1.805   3.433  38.108  1.00  0.00     0.085 C 
BRANCH   5   6
HETATM    6  C5  UNL     1       1.395   4.511  39.024  1.00  0.00     0.118 C 
BRANCH   6   7
HETATM    7  N1  UNL     1       1.258   5.799  38.535  1.00  0.00    -0.389 N 
BRANCH   7   8
HETATM    8  C2  UNL     1      -0.012   6.433  38.524  1.00  0.00     0.118 C 
HETATM    9  C1  UNL     1      -1.036   5.539  39.289  1.00  0.00     0.026 C 
ENDBRANCH   7   8
BRANCH   7  10
HETATM   10  C3  UNL     1       2.319   6.711  38.848  1.00  0.00     0.118 C 
HETATM   11  C4  UNL     1       3.449   6.679  37.810  1.00  0.00     0.026 C 
ENDBRANCH   7  10
ENDBRANCH   6   7
ENDBRANCH   5   6
BRANCH   5  12
HETATM   12  C8  UNL     1       3.094   2.747  38.339  1.00  0.00     0.086 A 
HETATM   13  N4  UNL     1       3.440   2.197  39.555  1.00  0.00    -0.345 N 
HETATM   14  C9  UNL     1       4.633   1.729  39.875  1.00  0.00     0.147 A 
ATOM     15  H4  UNL     1       2.712   2.146  40.268  1.00  0.00     0.166 HD
HETATM   16  C20 UNL     1       5.643   1.781  38.921  1.00  0.00     0.132 A 
HETATM   17  N11 UNL     1       5.358   2.293  37.742  1.00  0.00    -0.341 N 
HETATM   18  C21 UNL     1       4.102   2.781  37.415  1.00  0.00     0.054 A 
ATOM     19  H11 UNL     1       6.094   2.333  37.038  1.00  0.00     0.167 HD
BRANCH  14  20
HETATM   20  C10 UNL     1       4.957   1.108  41.154  1.00  0.00     0.290 C 
HETATM   21  O1  UNL     1       5.849   1.592  41.893  1.00  0.00    -0.264 OA
HETATM   22  N5  UNL     1       4.302  -0.059  41.627  1.00  0.00    -0.262 N 
ATOM     23  H5  UNL     1       3.601  -0.476  41.014  1.00  0.00     0.190 HD
BRANCH  22  24
HETATM   24  N6  UNL     1       4.528  -0.683  42.839  1.00  0.00    -0.265 N 
HETATM   25  C11 UNL     1       4.870  -2.078  42.895  1.00  0.00     0.266 C 
HETATM   26  O2  UNL     1       4.967  -2.712  41.800  1.00  0.00    -0.269 OA
ATOM     27  H6  UNL     1       4.451  -0.147  43.704  1.00  0.00     0.190 HD
BRANCH  25  28
HETATM   28  C12 UNL     1       5.086  -2.728  44.195  1.00  0.00     0.190 C 
HETATM   29  C13 UNL     1       3.795  -2.900  44.882  1.00  0.00     0.087 C 
HETATM   30  N7  UNL     1       2.783  -3.060  45.421  1.00  0.00    -0.195 NA
HETATM   31  C14 UNL     1       6.011  -1.865  45.048  1.00  0.00     0.063 C 
HETATM   32  C15 UNL     1       6.384  -2.895  46.125  1.00  0.00     0.132 C 
HETATM   33  N8  UNL     1       6.595  -4.087  45.309  1.00  0.00    -0.343 N 
HETATM   34  C16 UNL     1       7.246  -5.247  45.246  1.00  0.00     0.116 A 
HETATM   35  C19 UNL     1       5.845  -3.981  44.165  1.00  0.00     0.116 A 
HETATM   36  C17 UNL     1       6.929  -5.900  44.074  1.00  0.00     0.022 A 
HETATM   37  C18 UNL     1       7.504  -7.223  43.715  1.00  0.00     0.069 C 
HETATM   38  N9  UNL     1       6.068  -5.102  43.429  1.00  0.00    -0.346 N 
ATOM     39  H9  UNL     1       5.644  -5.305  42.524  1.00  0.00     0.167 HD
ENDBRANCH  25  28
ENDBRANCH  22  24
ENDBRANCH  14  20
BRANCH  16  40
HETATM   40  N10 UNL     1       6.839   1.335  39.118  1.00  0.00    -0.383 N 
ATOM     41 2H10 UNL     1       7.314   1.600  39.980  1.00  0.00     0.157 HD
ATOM     42 1H10 UNL     1       7.341   0.747  38.452  1.00  0.00     0.157 HD
ENDBRANCH  16  40
BRANCH  18  43
HETATM   43  C22 UNL     1       3.923   3.226  36.045  1.00  0.00     0.174 C 
HETATM   44 CL1  UNL     1       3.745   2.080  34.748  1.00  0.00    -0.124 Cl
ENDBRANCH  18  43
ENDBRANCH   5  12
ENDBRANCH   1   5
TORSDOF 11
ENDMDL
MODEL 5
REMARK VINA RESULT: -8.368641372      1.092      2.466
REMARK  11 active torsions:
REMARK  status: ('A' for Active; 'I' for Inactive)
REMARK    1  A    between atoms: C2_2  and  N1_3 
REMARK    2  A    between atoms: N1_3  and  C3_4 
REMARK    3  A    between atoms: N1_3  and  C5_6 
REMARK    4  A    between atoms: C5_6  and  C6_7 
REMARK    5  A    between atoms: C6_7  and  N2_8 
REMARK    6  A    between atoms: C6_7  and  C8_12 
REMARK    7  A    between atoms: C9_15  and  C10_16 
REMARK       I    between atoms: C10_16  and  N5_18 
REMARK    8  A    between atoms: N5_18  and  N6_20 
REMARK       I    between atoms: N6_20  and  C11_22 
REMARK    9  A    between atoms: C11_22  and  C12_24 
REMARK   10  A    between atoms: C20_36  and  N10_37 
REMARK   11  A    between atoms: C21_42  and  C22_43 
ROOT
HETATM    1  N2  UNL     1       1.378   2.704  38.607  1.00  0.00    -0.290 N 
ATOM      2  H2  UNL     1       0.756   2.151  39.196  1.00  0.00     0.178 HD
HETATM    3  C7  UNL     1       1.144   2.776  37.231  1.00  0.00     0.182 C 
HETATM    4  N3  UNL     1       0.934   2.814  36.097  1.00  0.00    -0.172 NA
ENDROOT
BRANCH   1   5
HETATM    5  C6  UNL     1       2.474   3.392  39.195  1.00  0.00     0.085 C 
BRANCH   5   6
HETATM    6  C5  UNL     1       2.171   4.606  39.971  1.00  0.00     0.118 C 
BRANCH   6   7
HETATM    7  N1  UNL     1       2.673   5.824  39.544  1.00  0.00    -0.389 N 
BRANCH   7   8
HETATM    8  C2  UNL     1       2.706   6.144  38.161  1.00  0.00     0.118 C 
HETATM    9  C1  UNL     1       3.467   7.491  37.965  1.00  0.00     0.026 C 
ENDBRANCH   7   8
BRANCH   7  10
HETATM   10  C3  UNL     1       2.353   6.961  40.357  1.00  0.00     0.118 C 
HETATM   11  C4  UNL     1       1.260   6.657  41.390  1.00  0.00     0.026 C 
ENDBRANCH   7  10
ENDBRANCH   6   7
ENDBRANCH   5   6
BRANCH   5  12
HETATM   12  C8  UNL     1       3.662   2.589  39.555  1.00  0.00     0.086 A 
HETATM   13  N4  UNL     1       3.767   1.901  40.745  1.00  0.00    -0.345 N 
HETATM   14  C9  UNL     1       4.859   1.315  41.200  1.00  0.00     0.147 A 
ATOM     15  H4  UNL     1       2.929   1.840  41.324  1.00  0.00     0.166 HD
HETATM   16  C20 UNL     1       6.015   1.378  40.430  1.00  0.00     0.132 A 
HETATM   17  N11 UNL     1       5.962   2.020  39.282  1.00  0.00    -0.341 N 
HETATM   18  C21 UNL     1       4.811   2.633  38.813  1.00  0.00     0.054 A 
ATOM     19  H11 UNL     1       6.806   2.069  38.712  1.00  0.00     0.167 HD
BRANCH  14  20
HETATM   20  C10 UNL     1       4.927   0.552  42.442  1.00  0.00     0.290 C 
HETATM   21  O1  UNL     1       5.374   1.077  43.492  1.00  0.00    -0.264 OA
HETATM   22  N5  UNL     1       4.508  -0.800  42.534  1.00  0.00    -0.262 N 
ATOM     23  H5  UNL     1       4.177  -1.241  41.675  1.00  0.00     0.190 HD
BRANCH  22  24
HETATM   24  N6  UNL     1       4.508  -1.575  43.678  1.00  0.00    -0.265 N 
HETATM   25  C11 UNL     1       5.693  -2.278  44.089  1.00  0.00     0.266 C 
HETATM   26  O2  UNL     1       6.736  -2.157  43.376  1.00  0.00    -0.269 OA
ATOM     27  H6  UNL     1       3.658  -1.648  44.238  1.00  0.00     0.190 HD
BRANCH  25  28
HETATM   28  C12 UNL     1       5.667  -3.113  45.298  1.00  0.00     0.190 C 
HETATM   29  C13 UNL     1       4.271  -3.345  45.709  1.00  0.00     0.087 C 
HETATM   30  N7  UNL     1       3.178  -3.550  46.027  1.00  0.00    -0.195 NA
HETATM   31  C14 UNL     1       6.423  -2.408  46.420  1.00  0.00     0.063 C 
HETATM   32  C15 UNL     1       6.590  -3.593  47.384  1.00  0.00     0.132 C 
HETATM   33  N8  UNL     1       6.943  -4.662  46.455  1.00  0.00    -0.343 N 
HETATM   34  C16 UNL     1       7.592  -5.819  46.342  1.00  0.00     0.116 A 
HETATM   35  C19 UNL     1       6.415  -4.371  45.222  1.00  0.00     0.116 A 
HETATM   36  C17 UNL     1       7.492  -6.289  45.050  1.00  0.00     0.022 A 
HETATM   37  C18 UNL     1       8.119  -7.563  44.611  1.00  0.00     0.069 C 
HETATM   38  N9  UNL     1       6.765  -5.382  44.384  1.00  0.00    -0.346 N 
ATOM     39  H9  UNL     1       6.513  -5.440  43.397  1.00  0.00     0.167 HD
ENDBRANCH  25  28
ENDBRANCH  22  24
ENDBRANCH  14  20
BRANCH  16  40
HETATM   40  N10 UNL     1       7.132   0.825  40.767  1.00  0.00    -0.383 N 
ATOM     41 2H10 UNL     1       7.103   0.043  41.421  1.00  0.00     0.157 HD
ATOM     42 1H10 UNL     1       8.043   1.137  40.430  1.00  0.00     0.157 HD
ENDBRANCH  16  40
BRANCH  18  43
HETATM   43  C22 UNL     1       4.890   3.218  37.487  1.00  0.00     0.174 C 
HETATM   44 CL1  UNL     1       4.503   2.282  36.071  1.00  0.00    -0.124 Cl
ENDBRANCH  18  43
ENDBRANCH   5  12
ENDBRANCH   1   5
TORSDOF 11
ENDMDL
