MODEL 1
REMARK VINA RESULT: -9.216795122      0.000      0.000
REMARK  11 active torsions:
REMARK  status: ('A' for Active; 'I' for Inactive)
REMARK    1  A    between atoms: C3_5  and  N2_6 
REMARK    2  A    between atoms: C10_15  and  N4_16 
REMARK    3  A    between atoms: N4_16  and  C11_18 
REMARK    4  A    between atoms: C11_18  and  C12_19 
REMARK    5  A    between atoms: C12_19  and  N5_20 
REMARK    6  A    between atoms: N5_20  and  C14_22 
REMARK    7  A    between atoms: C14_22  and  C15_23 
REMARK    8  A    between atoms: C15_23  and  C16_24 
REMARK    9  A    between atoms: C16_24  and  N6_25 
REMARK   10  A    between atoms: N6_25  and  C17_27 
REMARK   11  A    between atoms: C22_43  and  N12_44 
ROOT
HETATM    1  C12 UNL     1       5.180  -4.756  48.722  1.00  0.00     0.291 C 
ENDROOT
BRANCH   1   2
HETATM    2  C11 UNL     1       6.667  -4.824  48.736  1.00  0.00     0.150 C 
BRANCH   2   3
HETATM    3  N4  UNL     1       7.237  -4.133  47.624  1.00  0.00    -0.384 N 
ATOM      4  H4  UNL     1       7.918  -3.408  47.849  1.00  0.00     0.159 HD
BRANCH   3   5
HETATM    5  C10 UNL     1       6.975  -4.331  46.242  1.00  0.00     0.106 A 
HETATM    6  C9  UNL     1       6.276  -3.381  45.540  1.00  0.00     0.189 A 
HETATM    7  C3  UNL     1       5.962  -3.515  44.181  1.00  0.00     0.145 A 
HETATM    8  F1  UNL     1       5.797  -2.226  46.110  1.00  0.00    -0.200 F 
HETATM    9  N1  UNL     1       6.390  -4.655  43.576  1.00  0.00    -0.342 N 
HETATM   10  C2  UNL     1       7.065  -5.594  44.218  1.00  0.00     0.042 A 
ATOM     11  H1  UNL     1       6.182  -4.792  42.587  1.00  0.00     0.167 HD
HETATM   12  C1  UNL     1       7.498  -6.811  43.490  1.00  0.00     0.071 C 
HETATM   13  C22 UNL     1       7.377  -5.466  45.558  1.00  0.00     0.154 A 
BRANCH   7  14
HETATM   14  N2  UNL     1       5.241  -2.530  43.476  1.00  0.00    -0.361 N 
HETATM   15  C4  UNL     1       5.902  -1.407  42.852  1.00  0.00     0.154 C 
HETATM   16  C5  UNL     1       4.973  -0.185  42.984  1.00  0.00     0.291 C 
HETATM   17  N3  UNL     1       4.143  -0.309  44.151  1.00  0.00     0.087 N 
HETATM   18  C6  UNL     1       3.389   0.916  44.324  1.00  0.00     0.310 C 
HETATM   19  C7  UNL     1       3.258  -1.429  44.167  1.00  0.00     0.291 C 
HETATM   20  C8  UNL     1       3.808  -2.609  43.368  1.00  0.00     0.154 C 
ENDBRANCH   7  14
BRANCH  13  21
HETATM   21  N12 UNL     1       8.091  -6.495  46.210  1.00  0.00    -0.111 N 
HETATM   22  O1  UNL     1       7.553  -7.603  46.343  1.00  0.00    -0.532 OA
HETATM   23  O2  UNL     1       9.342  -6.289  46.687  1.00  0.00    -0.532 OA
ENDBRANCH  13  21
ENDBRANCH   3   5
ENDBRANCH   2   3
ENDBRANCH   1   2
BRANCH   1  24
HETATM   24  N5  UNL     1       4.569  -5.945  49.316  1.00  0.00     0.085 N 
HETATM   25  C13 UNL     1       5.152  -6.186  50.628  1.00  0.00     0.309 C 
BRANCH  24  26
HETATM   26  C14 UNL     1       4.740  -7.129  48.505  1.00  0.00     0.273 C 
BRANCH  26  27
HETATM   27  C15 UNL     1       3.819  -8.239  48.891  1.00  0.00     0.050 C 
BRANCH  27  28
HETATM   28  C16 UNL     1       3.295  -8.992  47.676  1.00  0.00     0.140 C 
BRANCH  28  29
HETATM   29  N6  UNL     1       1.933  -9.416  47.899  1.00  0.00    -0.226 N 
ATOM     30  H6  UNL     1       1.179  -8.928  47.416  1.00  0.00     0.177 HD
BRANCH  29  31
HETATM   31  C17 UNL     1       1.638 -10.389  48.688  1.00  0.00     0.681 A 
HETATM   32  N7  UNL     1       2.292 -11.580  48.568  1.00  0.00    -0.175 N 
HETATM   33  C18 UNL     1       2.046 -12.629  49.347  1.00  0.00     0.145 A 
ATOM     34  H7  UNL     1       3.006 -11.671  47.845  1.00  0.00     0.186 HD
HETATM   35  N8  UNL     1       2.659 -13.762  49.243  1.00  0.00    -0.383 N 
HETATM   36  C19 UNL     1       1.080 -12.537  50.341  1.00  0.00     0.122 A 
ATOM     37  H82 UNL     1       3.368 -13.829  48.513  1.00  0.00     0.157 HD
ATOM     38  H81 UNL     1       2.471 -14.566  49.841  1.00  0.00     0.157 HD
HETATM   39  N9  UNL     1       0.642 -13.418  51.247  1.00  0.00    -0.346 N 
HETATM   40  C21 UNL     1       0.409 -11.340  50.475  1.00  0.00     0.152 A 
HETATM   41  C20 UNL     1      -0.315 -12.766  51.958  1.00  0.00     0.182 A 
ATOM     42  H9  UNL     1       0.959 -14.379  51.377  1.00  0.00     0.167 HD
HETATM   43  N10 UNL     1      -0.454 -11.505  51.488  1.00  0.00    -0.336 N 
ATOM     44  H10 UNL     1      -1.103 -10.803  51.843  1.00  0.00     0.168 HD
HETATM   45  N11 UNL     1       0.704 -10.319  49.658  1.00  0.00    -0.174 N 
ATOM     46  H11 UNL     1       0.194  -9.444  49.777  1.00  0.00     0.186 HD
ENDBRANCH  29  31
ENDBRANCH  28  29
ENDBRANCH  27  28
ENDBRANCH  26  27
ENDBRANCH  24  26
ENDBRANCH   1  24
TORSDOF 11
ENDMDL
MODEL 2
REMARK VINA RESULT: -8.844714839      6.159      8.956
REMARK  11 active torsions:
REMARK  status: ('A' for Active; 'I' for Inactive)
REMARK    1  A    between atoms: C3_5  and  N2_6 
REMARK    2  A    between atoms: C10_15  and  N4_16 
REMARK    3  A    between atoms: N4_16  and  C11_18 
REMARK    4  A    between atoms: C11_18  and  C12_19 
REMARK    5  A    between atoms: C12_19  and  N5_20 
REMARK    6  A    between atoms: N5_20  and  C14_22 
REMARK    7  A    between atoms: C14_22  and  C15_23 
REMARK    8  A    between atoms: C15_23  and  C16_24 
REMARK    9  A    between atoms: C16_24  and  N6_25 
REMARK   10  A    between atoms: N6_25  and  C17_27 
REMARK   11  A    between atoms: C22_43  and  N12_44 
ROOT
HETATM    1  C12 UNL     1       3.369  -0.934  43.070  1.00  0.00     0.291 C 
ENDROOT
BRANCH   1   2
HETATM    2  C11 UNL     1       2.738   0.329  42.598  1.00  0.00     0.150 C 
BRANCH   2   3
HETATM    3  N4  UNL     1       3.715   1.297  42.217  1.00  0.00    -0.384 N 
ATOM      4  H4  UNL     1       4.105   1.860  42.974  1.00  0.00     0.159 HD
BRANCH   3   5
HETATM    5  C10 UNL     1       4.213   1.575  40.916  1.00  0.00     0.106 A 
HETATM    6  C9  UNL     1       3.377   2.109  39.969  1.00  0.00     0.189 A 
HETATM    7  C3  UNL     1       3.790   2.391  38.659  1.00  0.00     0.145 A 
HETATM    8  F1  UNL     1       2.052   2.391  40.206  1.00  0.00    -0.200 F 
HETATM    9  N1  UNL     1       5.085   2.105  38.364  1.00  0.00    -0.342 N 
HETATM   10  C2  UNL     1       5.922   1.589  39.250  1.00  0.00     0.042 A 
ATOM     11  H1  UNL     1       5.426   2.295  37.422  1.00  0.00     0.167 HD
HETATM   12  C1  UNL     1       7.322   1.303  38.853  1.00  0.00     0.071 C 
HETATM   13  C22 UNL     1       5.519   1.310  40.541  1.00  0.00     0.154 A 
BRANCH   7  14
HETATM   14  N2  UNL     1       2.916   2.937  37.697  1.00  0.00    -0.361 N 
HETATM   15  C4  UNL     1       1.513   2.592  37.665  1.00  0.00     0.154 C 
HETATM   16  C5  UNL     1       1.075   2.552  36.188  1.00  0.00     0.291 C 
HETATM   17  N3  UNL     1       2.187   2.214  35.344  1.00  0.00     0.087 N 
HETATM   18  C6  UNL     1       1.713   2.044  33.985  1.00  0.00     0.310 C 
HETATM   19  C7  UNL     1       3.282   3.129  35.363  1.00  0.00     0.291 C 
HETATM   20  C8  UNL     1       3.404   3.855  36.702  1.00  0.00     0.154 C 
ENDBRANCH   7  14
BRANCH  13  21
HETATM   21  N12 UNL     1       6.440   0.751  41.454  1.00  0.00    -0.111 N 
HETATM   22  O1  UNL     1       6.466  -0.480  41.598  1.00  0.00    -0.532 OA
HETATM   23  O2  UNL     1       7.285   1.532  42.167  1.00  0.00    -0.532 OA
ENDBRANCH  13  21
ENDBRANCH   3   5
ENDBRANCH   2   3
ENDBRANCH   1   2
BRANCH   1  24
HETATM   24  N5  UNL     1       3.581  -0.937  44.517  1.00  0.00     0.085 N 
HETATM   25  C13 UNL     1       5.005  -1.051  44.798  1.00  0.00     0.309 C 
BRANCH  24  26
HETATM   26  C14 UNL     1       2.887  -2.014  45.184  1.00  0.00     0.273 C 
BRANCH  26  27
HETATM   27  C15 UNL     1       2.209  -2.948  44.238  1.00  0.00     0.050 C 
BRANCH  27  28
HETATM   28  C16 UNL     1       2.802  -4.349  44.296  1.00  0.00     0.140 C 
BRANCH  28  29
HETATM   29  N6  UNL     1       4.048  -4.397  43.567  1.00  0.00    -0.226 N 
ATOM     30  H6  UNL     1       4.060  -4.096  42.593  1.00  0.00     0.177 HD
BRANCH  29  31
HETATM   31  C17 UNL     1       5.142  -4.806  44.106  1.00  0.00     0.681 A 
HETATM   32  N7  UNL     1       6.020  -5.552  43.375  1.00  0.00    -0.175 N 
HETATM   33  C18 UNL     1       7.171  -6.007  43.861  1.00  0.00     0.145 A 
ATOM     34  H7  UNL     1       5.781  -5.771  42.408  1.00  0.00     0.186 HD
HETATM   35  N8  UNL     1       8.010  -6.714  43.178  1.00  0.00    -0.383 N 
HETATM   36  C19 UNL     1       7.524  -5.725  45.173  1.00  0.00     0.122 A 
ATOM     37  H82 UNL     1       7.750  -6.921  42.214  1.00  0.00     0.157 HD
ATOM     38  H81 UNL     1       8.893  -7.063  43.550  1.00  0.00     0.157 HD
HETATM   39  N9  UNL     1       8.599  -6.049  45.900  1.00  0.00    -0.346 N 
HETATM   40  C21 UNL     1       6.648  -4.972  45.926  1.00  0.00     0.152 A 
HETATM   41  C20 UNL     1       8.395  -5.492  47.123  1.00  0.00     0.182 A 
ATOM     42  H9  UNL     1       9.404  -6.599  45.600  1.00  0.00     0.167 HD
HETATM   43  N10 UNL     1       7.211  -4.840  47.136  1.00  0.00    -0.336 N 
ATOM     44  H10 UNL     1       6.815  -4.334  47.929  1.00  0.00     0.168 HD
HETATM   45  N11 UNL     1       5.503  -4.542  45.379  1.00  0.00    -0.174 N 
ATOM     46  H11 UNL     1       4.871  -3.987  45.956  1.00  0.00     0.186 HD
ENDBRANCH  29  31
ENDBRANCH  28  29
ENDBRANCH  27  28
ENDBRANCH  26  27
ENDBRANCH  24  26
ENDBRANCH   1  24
TORSDOF 11
ENDMDL
MODEL 3
REMARK VINA RESULT: -8.824487829      1.316      1.977
REMARK  11 active torsions:
REMARK  status: ('A' for Active; 'I' for Inactive)
REMARK    1  A    between atoms: C3_5  and  N2_6 
REMARK    2  A    between atoms: C10_15  and  N4_16 
REMARK    3  A    between atoms: N4_16  and  C11_18 
REMARK    4  A    between atoms: C11_18  and  C12_19 
REMARK    5  A    between atoms: C12_19  and  N5_20 
REMARK    6  A    between atoms: N5_20  and  C14_22 
REMARK    7  A    between atoms: C14_22  and  C15_23 
REMARK    8  A    between atoms: C15_23  and  C16_24 
REMARK    9  A    between atoms: C16_24  and  N6_25 
REMARK   10  A    between atoms: N6_25  and  C17_27 
REMARK   11  A    between atoms: C22_43  and  N12_44 
ROOT
HETATM    1  C12 UNL     1       5.363  -4.188  48.529  1.00  0.00     0.291 C 
ENDROOT
BRANCH   1   2
HETATM    2  C11 UNL     1       6.806  -3.988  48.839  1.00  0.00     0.150 C 
BRANCH   2   3
HETATM    3  N4  UNL     1       7.592  -3.884  47.652  1.00  0.00    -0.384 N 
ATOM      4  H4  UNL     1       8.567  -3.616  47.783  1.00  0.00     0.159 HD
BRANCH   3   5
HETATM    5  C10 UNL     1       7.184  -4.108  46.309  1.00  0.00     0.106 A 
HETATM    6  C9  UNL     1       6.454  -3.149  45.653  1.00  0.00     0.189 A 
HETATM    7  C3  UNL     1       6.000  -3.306  44.335  1.00  0.00     0.145 A 
HETATM    8  F1  UNL     1       6.078  -1.961  46.232  1.00  0.00    -0.200 F 
HETATM    9  N1  UNL     1       6.322  -4.477  43.726  1.00  0.00    -0.342 N 
HETATM   10  C2  UNL     1       7.024  -5.426  44.325  1.00  0.00     0.042 A 
ATOM     11  H1  UNL     1       6.011  -4.632  42.767  1.00  0.00     0.167 HD
HETATM   12  C1  UNL     1       7.336  -6.677  43.594  1.00  0.00     0.071 C 
HETATM   13  C22 UNL     1       7.473  -5.275  45.623  1.00  0.00     0.154 A 
BRANCH   7  14
HETATM   14  N2  UNL     1       5.248  -2.312  43.677  1.00  0.00    -0.361 N 
HETATM   15  C4  UNL     1       5.878  -1.158  43.078  1.00  0.00     0.154 C 
HETATM   16  C5  UNL     1       4.930   0.043  43.267  1.00  0.00     0.291 C 
HETATM   17  N3  UNL     1       4.126  -0.133  44.444  1.00  0.00     0.087 N 
HETATM   18  C6  UNL     1       3.354   1.071  44.672  1.00  0.00     0.310 C 
HETATM   19  C7  UNL     1       3.261  -1.269  44.440  1.00  0.00     0.291 C 
HETATM   20  C8  UNL     1       3.815  -2.413  43.594  1.00  0.00     0.154 C 
ENDBRANCH   7  14
BRANCH  13  21
HETATM   21  N12 UNL     1       8.211  -6.314  46.231  1.00  0.00    -0.111 N 
HETATM   22  O1  UNL     1       9.327  -6.056  46.704  1.00  0.00    -0.532 OA
HETATM   23  O2  UNL     1       7.721  -7.574  46.304  1.00  0.00    -0.532 OA
ENDBRANCH  13  21
ENDBRANCH   3   5
ENDBRANCH   2   3
ENDBRANCH   1   2
BRANCH   1  24
HETATM   24  N5  UNL     1       4.810  -5.358  49.209  1.00  0.00     0.085 N 
HETATM   25  C13 UNL     1       5.410  -5.480  50.530  1.00  0.00     0.309 C 
BRANCH  24  26
HETATM   26  C14 UNL     1       5.031  -6.587  48.482  1.00  0.00     0.273 C 
BRANCH  26  27
HETATM   27  C15 UNL     1       4.484  -6.551  47.093  1.00  0.00     0.050 C 
BRANCH  27  28
HETATM   28  C16 UNL     1       4.074  -7.934  46.607  1.00  0.00     0.140 C 
BRANCH  28  29
HETATM   29  N6  UNL     1       3.746  -8.783  47.728  1.00  0.00    -0.226 N 
ATOM     30  H6  UNL     1       4.493  -9.083  48.355  1.00  0.00     0.177 HD
BRANCH  29  31
HETATM   31  C17 UNL     1       2.543  -9.173  47.963  1.00  0.00     0.681 A 
HETATM   32  N7  UNL     1       2.318 -10.434  48.434  1.00  0.00    -0.175 N 
HETATM   33  C18 UNL     1       1.106 -10.906  48.703  1.00  0.00     0.145 A 
ATOM     34  H7  UNL     1       3.121 -11.043  48.587  1.00  0.00     0.186 HD
HETATM   35  N8  UNL     1       0.882 -12.099  49.149  1.00  0.00    -0.383 N 
HETATM   36  C19 UNL     1      -0.007 -10.100  48.506  1.00  0.00     0.122 A 
ATOM     37  H82 UNL     1       1.699 -12.690  49.294  1.00  0.00     0.157 HD
ATOM     38  H81 UNL     1      -0.049 -12.461  49.356  1.00  0.00     0.157 HD
HETATM   39  N9  UNL     1      -1.314 -10.317  48.693  1.00  0.00    -0.346 N 
HETATM   40  C21 UNL     1       0.201  -8.823  48.031  1.00  0.00     0.152 A 
HETATM   41  C20 UNL     1      -1.931  -9.162  48.331  1.00  0.00     0.182 A 
ATOM     42  H9  UNL     1      -1.755 -11.170  49.035  1.00  0.00     0.167 HD
HETATM   43  N10 UNL     1      -1.010  -8.257  47.929  1.00  0.00    -0.336 N 
ATOM     44  H10 UNL     1      -1.204  -7.309  47.606  1.00  0.00     0.168 HD
HETATM   45  N11 UNL     1       1.449  -8.405  47.778  1.00  0.00    -0.174 N 
ATOM     46  H11 UNL     1       1.578  -7.456  47.427  1.00  0.00     0.186 HD
ENDBRANCH  29  31
ENDBRANCH  28  29
ENDBRANCH  27  28
ENDBRANCH  26  27
ENDBRANCH  24  26
ENDBRANCH   1  24
TORSDOF 11
ENDMDL
MODEL 4
REMARK VINA RESULT: -8.777693958      5.800     13.193
REMARK  11 active torsions:
REMARK  status: ('A' for Active; 'I' for Inactive)
REMARK    1  A    between atoms: C3_5  and  N2_6 
REMARK    2  A    between atoms: C10_15  and  N4_16 
REMARK    3  A    between atoms: N4_16  and  C11_18 
REMARK    4  A    between atoms: C11_18  and  C12_19 
REMARK    5  A    between atoms: C12_19  and  N5_20 
REMARK    6  A    between atoms: N5_20  and  C14_22 
REMARK    7  A    between atoms: C14_22  and  C15_23 
REMARK    8  A    between atoms: C15_23  and  C16_24 
REMARK    9  A    between atoms: C16_24  and  N6_25 
REMARK   10  A    between atoms: N6_25  and  C17_27 
REMARK   11  A    between atoms: C22_43  and  N12_44 
ROOT
HETATM    1  C12 UNL     1       6.069   0.405  41.073  1.00  0.00     0.291 C 
ENDROOT
BRANCH   1   2
HETATM    2  C11 UNL     1       5.528  -0.906  41.524  1.00  0.00     0.150 C 
BRANCH   2   3
HETATM    3  N4  UNL     1       6.279  -1.441  42.615  1.00  0.00    -0.384 N 
ATOM      4  H4  UNL     1       7.285  -1.519  42.468  1.00  0.00     0.159 HD
BRANCH   3   5
HETATM    5  C10 UNL     1       5.799  -1.877  43.879  1.00  0.00     0.106 A 
HETATM    6  C9  UNL     1       5.573  -3.212  44.095  1.00  0.00     0.189 A 
HETATM    7  C3  UNL     1       5.081  -3.716  45.308  1.00  0.00     0.145 A 
HETATM    8  F1  UNL     1       5.779  -4.176  43.137  1.00  0.00    -0.200 F 
HETATM    9  N1  UNL     1       4.834  -2.799  46.281  1.00  0.00    -0.342 N 
HETATM   10  C2  UNL     1       5.039  -1.503  46.111  1.00  0.00     0.042 A 
ATOM     11  H1  UNL     1       4.476  -3.123  47.179  1.00  0.00     0.167 HD
HETATM   12  C1  UNL     1       4.745  -0.564  47.220  1.00  0.00     0.071 C 
HETATM   13  C22 UNL     1       5.523  -1.003  44.917  1.00  0.00     0.154 A 
BRANCH   7  14
HETATM   14  N2  UNL     1       4.851  -5.091  45.512  1.00  0.00    -0.361 N 
HETATM   15  C4  UNL     1       3.516  -5.622  45.664  1.00  0.00     0.154 C 
HETATM   16  C5  UNL     1       3.586  -6.779  46.681  1.00  0.00     0.291 C 
HETATM   17  N3  UNL     1       4.668  -6.572  47.602  1.00  0.00     0.087 N 
HETATM   18  C6  UNL     1       4.617  -7.595  48.627  1.00  0.00     0.310 C 
HETATM   19  C7  UNL     1       5.974  -6.529  47.026  1.00  0.00     0.291 C 
HETATM   20  C8  UNL     1       5.953  -6.014  45.588  1.00  0.00     0.154 C 
ENDBRANCH   7  14
BRANCH  13  21
HETATM   21  N12 UNL     1       5.720   0.387  44.771  1.00  0.00    -0.111 N 
HETATM   22  O1  UNL     1       4.742   1.106  44.520  1.00  0.00    -0.532 OA
HETATM   23  O2  UNL     1       6.949   0.941  44.900  1.00  0.00    -0.532 OA
ENDBRANCH  13  21
ENDBRANCH   3   5
ENDBRANCH   2   3
ENDBRANCH   1   2
BRANCH   1  24
HETATM   24  N5  UNL     1       5.055   1.458  41.098  1.00  0.00     0.085 N 
HETATM   25  C13 UNL     1       3.731   0.858  41.021  1.00  0.00     0.309 C 
BRANCH  24  26
HETATM   26  C14 UNL     1       5.201   2.404  40.016  1.00  0.00     0.273 C 
BRANCH  26  27
HETATM   27  C15 UNL     1       5.829   1.810  38.800  1.00  0.00     0.050 C 
BRANCH  27  28
HETATM   28  C16 UNL     1       6.193   2.870  37.770  1.00  0.00     0.140 C 
BRANCH  28  29
HETATM   29  N6  UNL     1       5.014   3.601  37.365  1.00  0.00    -0.226 N 
ATOM     30  H6  UNL     1       4.868   4.542  37.731  1.00  0.00     0.177 HD
BRANCH  29  31
HETATM   31  C17 UNL     1       4.143   3.104  36.559  1.00  0.00     0.681 A 
HETATM   32  N7  UNL     1       2.837   3.018  36.942  1.00  0.00    -0.175 N 
HETATM   33  C18 UNL     1       1.880   2.521  36.165  1.00  0.00     0.145 A 
ATOM     34  H7  UNL     1       2.582   3.353  37.871  1.00  0.00     0.186 HD
HETATM   35  N8  UNL     1       0.640   2.435  36.517  1.00  0.00    -0.383 N 
HETATM   36  C19 UNL     1       2.196   2.059  34.894  1.00  0.00     0.122 A 
ATOM     37  H82 UNL     1       0.408   2.775  37.450  1.00  0.00     0.157 HD
ATOM     38  H81 UNL     1      -0.095   2.054  35.921  1.00  0.00     0.157 HD
HETATM   39  N9  UNL     1       1.446   1.523  33.925  1.00  0.00    -0.346 N 
HETATM   40  C21 UNL     1       3.512   2.138  34.491  1.00  0.00     0.152 A 
HETATM   41  C20 UNL     1       2.302   1.264  32.902  1.00  0.00     0.182 A 
ATOM     42  H9  UNL     1       0.442   1.346  33.948  1.00  0.00     0.167 HD
HETATM   43  N10 UNL     1       3.555   1.638  33.248  1.00  0.00    -0.336 N 
ATOM     44  H10 UNL     1       4.387   1.554  32.664  1.00  0.00     0.168 HD
HETATM   45  N11 UNL     1       4.431   2.650  35.322  1.00  0.00    -0.174 N 
ATOM     46  H11 UNL     1       5.398   2.698  35.001  1.00  0.00     0.186 HD
ENDBRANCH  29  31
ENDBRANCH  28  29
ENDBRANCH  27  28
ENDBRANCH  26  27
ENDBRANCH  24  26
ENDBRANCH   1  24
TORSDOF 11
ENDMDL
MODEL 5
REMARK VINA RESULT: -8.763329578      3.541      4.421
REMARK  11 active torsions:
REMARK  status: ('A' for Active; 'I' for Inactive)
REMARK    1  A    between atoms: C3_5  and  N2_6 
REMARK    2  A    between atoms: C10_15  and  N4_16 
REMARK    3  A    between atoms: N4_16  and  C11_18 
REMARK    4  A    between atoms: C11_18  and  C12_19 
REMARK    5  A    between atoms: C12_19  and  N5_20 
REMARK    6  A    between atoms: N5_20  and  C14_22 
REMARK    7  A    between atoms: C14_22  and  C15_23 
REMARK    8  A    between atoms: C15_23  and  C16_24 
REMARK    9  A    between atoms: C16_24  and  N6_25 
REMARK   10  A    between atoms: N6_25  and  C17_27 
REMARK   11  A    between atoms: C22_43  and  N12_44 
ROOT
HETATM    1  C12 UNL     1       5.622  -3.980  49.326  1.00  0.00     0.291 C 
ENDROOT
BRANCH   1   2
HETATM    2  C11 UNL     1       6.869  -4.662  48.881  1.00  0.00     0.150 C 
BRANCH   2   3
HETATM    3  N4  UNL     1       7.431  -4.034  47.728  1.00  0.00    -0.384 N 
ATOM      4  H4  UNL     1       8.182  -3.367  47.904  1.00  0.00     0.159 HD
BRANCH   3   5
HETATM    5  C10 UNL     1       7.075  -4.224  46.366  1.00  0.00     0.106 A 
HETATM    6  C9  UNL     1       6.337  -3.266  45.718  1.00  0.00     0.189 A 
HETATM    7  C3  UNL     1       5.931  -3.391  44.381  1.00  0.00     0.145 A 
HETATM    8  F1  UNL     1       5.905  -2.110  46.324  1.00  0.00    -0.200 F 
HETATM    9  N1  UNL     1       6.310  -4.530  43.744  1.00  0.00    -0.342 N 
HETATM   10  C2  UNL     1       7.021  -5.477  44.335  1.00  0.00     0.042 A 
ATOM     11  H1  UNL     1       6.036  -4.660  42.771  1.00  0.00     0.167 HD
HETATM   12  C1  UNL     1       7.396  -6.692  43.574  1.00  0.00     0.071 C 
HETATM   13  C22 UNL     1       7.423  -5.357  45.651  1.00  0.00     0.154 A 
BRANCH   7  14
HETATM   14  N2  UNL     1       5.170  -2.398  43.732  1.00  0.00    -0.361 N 
HETATM   15  C4  UNL     1       5.794  -1.259  43.097  1.00  0.00     0.154 C 
HETATM   16  C5  UNL     1       4.865  -0.045  43.297  1.00  0.00     0.291 C 
HETATM   17  N3  UNL     1       4.095  -0.196  44.501  1.00  0.00     0.087 N 
HETATM   18  C6  UNL     1       3.343   1.020  44.734  1.00  0.00     0.310 C 
HETATM   19  C7  UNL     1       3.219  -1.322  44.539  1.00  0.00     0.291 C 
HETATM   20  C8  UNL     1       3.735  -2.484  43.693  1.00  0.00     0.154 C 
ENDBRANCH   7  14
BRANCH  13  21
HETATM   21  N12 UNL     1       8.173  -6.394  46.249  1.00  0.00    -0.111 N 
HETATM   22  O1  UNL     1       7.661  -7.517  46.353  1.00  0.00    -0.532 OA
HETATM   23  O2  UNL     1       9.429  -6.179  46.706  1.00  0.00    -0.532 OA
ENDBRANCH  13  21
ENDBRANCH   3   5
ENDBRANCH   2   3
ENDBRANCH   1   2
BRANCH   1  24
HETATM   24  N5  UNL     1       4.795  -4.840  50.171  1.00  0.00     0.085 N 
HETATM   25  C13 UNL     1       4.892  -4.399  51.555  1.00  0.00     0.309 C 
BRANCH  24  26
HETATM   26  C14 UNL     1       5.175  -6.232  50.098  1.00  0.00     0.273 C 
BRANCH  26  27
HETATM   27  C15 UNL     1       4.134  -7.090  49.459  1.00  0.00     0.050 C 
BRANCH  27  28
HETATM   28  C16 UNL     1       4.657  -7.785  48.210  1.00  0.00     0.140 C 
BRANCH  28  29
HETATM   29  N6  UNL     1       4.697  -6.860  47.101  1.00  0.00    -0.226 N 
ATOM     30  H6  UNL     1       5.601  -6.613  46.698  1.00  0.00     0.177 HD
BRANCH  29  31
HETATM   31  C17 UNL     1       3.631  -6.339  46.605  1.00  0.00     0.681 A 
HETATM   32  N7  UNL     1       2.964  -6.982  45.604  1.00  0.00    -0.175 N 
HETATM   33  C18 UNL     1       1.856  -6.508  45.044  1.00  0.00     0.145 A 
ATOM     34  H7  UNL     1       3.334  -7.871  45.269  1.00  0.00     0.186 HD
HETATM   35  N8  UNL     1       1.215  -7.109  44.096  1.00  0.00    -0.383 N 
HETATM   36  C19 UNL     1       1.327  -5.300  45.479  1.00  0.00     0.122 A 
ATOM     37  H82 UNL     1       1.604  -7.996  43.777  1.00  0.00     0.157 HD
ATOM     38  H81 UNL     1       0.365  -6.745  43.666  1.00  0.00     0.157 HD
HETATM   39  N9  UNL     1       0.247  -4.607  45.100  1.00  0.00    -0.346 N 
HETATM   40  C21 UNL     1       1.989  -4.636  46.490  1.00  0.00     0.152 A 
HETATM   41  C20 UNL     1       0.231  -3.497  45.883  1.00  0.00     0.182 A 
ATOM     42  H9  UNL     1      -0.425  -4.860  44.375  1.00  0.00     0.167 HD
HETATM   43  N10 UNL     1       1.289  -3.516  46.725  1.00  0.00    -0.336 N 
ATOM     44  H10 UNL     1       1.515  -2.803  47.419  1.00  0.00     0.168 HD
HETATM   45  N11 UNL     1       3.102  -5.166  47.014  1.00  0.00    -0.174 N 
ATOM     46  H11 UNL     1       3.575  -4.657  47.760  1.00  0.00     0.186 HD
ENDBRANCH  29  31
ENDBRANCH  28  29
ENDBRANCH  27  28
ENDBRANCH  26  27
ENDBRANCH  24  26
ENDBRANCH   1  24
TORSDOF 11
ENDMDL
