MODEL 1
REMARK VINA RESULT: -7.897214112      0.000      0.000
REMARK  11 active torsions:
REMARK  status: ('A' for Active; 'I' for Inactive)
REMARK    1  A    between atoms: C2_2  and  N1_3 
REMARK       I    between atoms: N1_3  and  C3_5 
REMARK       I    between atoms: C3_5  and  N2_7 
REMARK    2  A    between atoms: N2_7  and  S1_9 
REMARK    3  A    between atoms: S1_9  and  C4_11 
REMARK    4  A    between atoms: C4_11  and  C5_12 
REMARK    5  A    between atoms: C4_11  and  C11_27 
REMARK    6  A    between atoms: C7_17  and  N4_18 
REMARK       I    between atoms: N4_18  and  C8_20 
REMARK    7  A    between atoms: C13_29  and  C14_30 
REMARK    8  A    between atoms: C14_30  and  N7_32 
REMARK    9  A    between atoms: N7_32  and  C15_35 
REMARK   10  A    between atoms: C15_35  and  C16_36 
REMARK   11  A    between atoms: C16_36  and  O5_37 
ROOT
HETATM    1  C4  UNL     1       4.648   1.286  41.655  1.00  0.00     0.208 C 
ENDROOT
BRANCH   1   2
HETATM    2  S1  UNL     1       5.993   0.112  41.434  1.00  0.00     0.135 S 
HETATM    3  O2  UNL     1       7.252   0.793  40.927  1.00  0.00    -0.234 OA
BRANCH   2   4
HETATM    4  N2  UNL     1       6.390  -0.647  42.955  1.00  0.00    -0.257 N 
HETATM    5  C3  UNL     1       5.917  -1.956  43.265  1.00  0.00     0.327 C 
HETATM    6  N1  UNL     1       6.282  -2.503  44.523  1.00  0.00    -0.343 N 
HETATM    7  O1  UNL     1       5.196  -2.603  42.441  1.00  0.00    -0.246 OA
ATOM      8  H1  UNL     1       6.861  -1.974  45.174  1.00  0.00     0.164 HD
ATOM      9  H2  UNL     1       6.969  -0.147  43.631  1.00  0.00     0.181 HD
BRANCH   6  10
HETATM   10  C2  UNL     1       5.811  -3.830  44.857  1.00  0.00     0.120 C 
HETATM   11  C1  UNL     1       6.873  -4.870  44.512  1.00  0.00     0.026 C 
ENDBRANCH   6  10
ENDBRANCH   2   4
ENDBRANCH   1   2
BRANCH   1  12
HETATM   12  C5  UNL     1       3.530   0.570  42.319  1.00  0.00     0.108 A 
HETATM   13  N3  UNL     1       3.096  -0.622  41.917  1.00  0.00    -0.310 N 
HETATM   14  C6  UNL     1       2.065  -1.224  42.569  1.00  0.00     0.277 A 
ATOM     15  H3  UNL     1       3.536  -1.083  41.121  1.00  0.00     0.170 HD
HETATM   16  O3  UNL     1       1.640  -2.341  42.211  1.00  0.00    -0.266 OA
HETATM   17  C7  UNL     1       1.451  -0.627  43.647  1.00  0.00     0.145 A 
HETATM   18  C10 UNL     1       1.915   0.603  44.046  1.00  0.00     0.150 A 
HETATM   19  N5  UNL     1       1.292   1.242  45.151  1.00  0.00    -0.080 NA
HETATM   20  N6  UNL     1       2.928   1.155  43.377  1.00  0.00    -0.331 N 
ATOM     21  H6  UNL     1       3.267   2.068  43.681  1.00  0.00     0.168 HD
BRANCH  17  22
HETATM   22  N4  UNL     1       0.388  -1.276  44.305  1.00  0.00    -0.320 N 
HETATM   23  C8  UNL     1       0.608  -2.164  45.383  1.00  0.00     0.218 C 
HETATM   24  C9  UNL     1      -0.472  -2.865  46.101  1.00  0.00     0.117 C 
HETATM   25  O4  UNL     1       1.794  -2.372  45.759  1.00  0.00    -0.274 OA
ATOM     26  H4  UNL     1      -0.568  -1.101  43.995  1.00  0.00     0.169 HD
ENDBRANCH  17  22
ENDBRANCH   1  12
BRANCH   1  27
HETATM   27  C11 UNL     1       4.231   1.857  40.330  1.00  0.00     0.008 A 
HETATM   28  C12 UNL     1       4.872   1.758  39.124  1.00  0.00     0.028 A 
HETATM   29  C13 UNL     1       4.308   2.357  38.068  1.00  0.00     0.010 A 
HETATM   30  C18 UNL     1       3.130   3.026  38.286  1.00  0.00     0.061 A 
HETATM   31  S2  UNL     1       2.854   2.789  39.955  1.00  0.00    -0.104 SA
BRANCH  29  32
HETATM   32  C14 UNL     1       4.917   2.314  36.697  1.00  0.00     0.401 C 
HETATM   33  F1  UNL     1       6.228   2.711  36.794  1.00  0.00    -0.214 F 
BRANCH  32  34
HETATM   34  N7  UNL     1       4.174   3.245  35.848  1.00  0.00    -0.038 N 
ATOM     35  H72 UNL     1       3.438   3.713  36.378  1.00  0.00     0.281 HD
ATOM     36  H71 UNL     1       4.746   4.053  35.606  1.00  0.00     0.281 HD
BRANCH  34  37
HETATM   37  C15 UNL     1       3.639   2.623  34.669  1.00  0.00     0.262 C 
BRANCH  37  38
HETATM   38  C16 UNL     1       2.151   2.618  34.702  1.00  0.00     0.194 C 
BRANCH  38  39
HETATM   39  O5  UNL     1       1.673   2.697  33.373  1.00  0.00    -0.394 OA
HETATM   40  C17 UNL     1       2.231   1.640  32.678  1.00  0.00     0.201 C 
ENDBRANCH  38  39
ENDBRANCH  37  38
ENDBRANCH  34  37
ENDBRANCH  32  34
ENDBRANCH  29  32
ENDBRANCH   1  27
TORSDOF 11
ENDMDL
MODEL 2
REMARK VINA RESULT: -7.856888497      4.336      9.234
REMARK  11 active torsions:
REMARK  status: ('A' for Active; 'I' for Inactive)
REMARK    1  A    between atoms: C2_2  and  N1_3 
REMARK       I    between atoms: N1_3  and  C3_5 
REMARK       I    between atoms: C3_5  and  N2_7 
REMARK    2  A    between atoms: N2_7  and  S1_9 
REMARK    3  A    between atoms: S1_9  and  C4_11 
REMARK    4  A    between atoms: C4_11  and  C5_12 
REMARK    5  A    between atoms: C4_11  and  C11_27 
REMARK    6  A    between atoms: C7_17  and  N4_18 
REMARK       I    between atoms: N4_18  and  C8_20 
REMARK    7  A    between atoms: C13_29  and  C14_30 
REMARK    8  A    between atoms: C14_30  and  N7_32 
REMARK    9  A    between atoms: N7_32  and  C15_35 
REMARK   10  A    between atoms: C15_35  and  C16_36 
REMARK   11  A    between atoms: C16_36  and  O5_37 
ROOT
HETATM    1  C4  UNL     1       4.643  -0.725  45.864  1.00  0.00     0.208 C 
ENDROOT
BRANCH   1   2
HETATM    2  S1  UNL     1       2.887  -0.338  45.795  1.00  0.00     0.135 S 
HETATM    3  O2  UNL     1       2.338   0.015  47.166  1.00  0.00    -0.234 OA
BRANCH   2   4
HETATM    4  N2  UNL     1       2.612   1.038  44.756  1.00  0.00    -0.257 N 
HETATM    5  C3  UNL     1       2.138   0.864  43.422  1.00  0.00     0.327 C 
HETATM    6  N1  UNL     1       1.941   2.032  42.640  1.00  0.00    -0.343 N 
HETATM    7  O1  UNL     1       1.904  -0.297  42.958  1.00  0.00    -0.246 OA
ATOM      8  H1  UNL     1       2.133   2.956  43.025  1.00  0.00     0.164 HD
ATOM      9  H2  UNL     1       2.793   1.979  45.108  1.00  0.00     0.181 HD
BRANCH   6  10
HETATM   10  C2  UNL     1       1.462   1.877  41.283  1.00  0.00     0.120 C 
HETATM   11  C1  UNL     1       1.638   3.181  40.509  1.00  0.00     0.026 C 
ENDBRANCH   6  10
ENDBRANCH   2   4
ENDBRANCH   1   2
BRANCH   1  12
HETATM   12  C5  UNL     1       5.217  -0.456  44.522  1.00  0.00     0.108 A 
HETATM   13  N3  UNL     1       4.874  -1.146  43.438  1.00  0.00    -0.310 N 
HETATM   14  C6  UNL     1       5.439  -0.849  42.237  1.00  0.00     0.277 A 
ATOM     15  H3  UNL     1       4.187  -1.897  43.508  1.00  0.00     0.170 HD
HETATM   16  O3  UNL     1       5.133  -1.482  41.206  1.00  0.00    -0.266 OA
HETATM   17  C7  UNL     1       6.368   0.158  42.111  1.00  0.00     0.145 A 
HETATM   18  C10 UNL     1       6.709   0.859  43.243  1.00  0.00     0.150 A 
HETATM   19  N5  UNL     1       7.672   1.898  43.139  1.00  0.00    -0.080 NA
HETATM   20  N6  UNL     1       6.129   0.533  44.399  1.00  0.00    -0.331 N 
ATOM     21  H6  UNL     1       6.386   1.059  45.234  1.00  0.00     0.168 HD
BRANCH  17  22
HETATM   22  N4  UNL     1       6.935   0.446  40.854  1.00  0.00    -0.320 N 
HETATM   23  C8  UNL     1       6.368   1.404  39.982  1.00  0.00     0.218 C 
HETATM   24  C9  UNL     1       6.925   1.737  38.658  1.00  0.00     0.117 C 
HETATM   25  O4  UNL     1       5.327   2.013  40.351  1.00  0.00    -0.274 OA
ATOM     26  H4  UNL     1       7.777  -0.051  40.564  1.00  0.00     0.169 HD
ENDBRANCH  17  22
ENDBRANCH   1  12
BRANCH   1  27
HETATM   27  C11 UNL     1       4.846  -2.155  46.277  1.00  0.00     0.008 A 
HETATM   28  C12 UNL     1       6.024  -2.812  46.512  1.00  0.00     0.028 A 
HETATM   29  C13 UNL     1       5.959  -4.100  46.870  1.00  0.00     0.010 A 
HETATM   30  C18 UNL     1       4.709  -4.657  46.971  1.00  0.00     0.061 A 
HETATM   31  S2  UNL     1       3.674  -3.359  46.564  1.00  0.00    -0.104 SA
BRANCH  29  32
HETATM   32  C14 UNL     1       7.183  -4.920  47.155  1.00  0.00     0.401 C 
HETATM   33  F1  UNL     1       7.982  -4.217  48.023  1.00  0.00    -0.214 F 
BRANCH  32  34
HETATM   34  N7  UNL     1       7.884  -5.132  45.889  1.00  0.00    -0.038 N 
ATOM     35  H72 UNL     1       7.925  -4.269  45.346  1.00  0.00     0.281 HD
ATOM     36  H71 UNL     1       8.881  -5.279  46.045  1.00  0.00     0.281 HD
BRANCH  34  37
HETATM   37  C15 UNL     1       7.323  -6.200  45.109  1.00  0.00     0.262 C 
BRANCH  37  38
HETATM   38  C16 UNL     1       8.052  -7.473  45.355  1.00  0.00     0.194 C 
BRANCH  38  39
HETATM   39  O5  UNL     1       8.878  -7.739  44.237  1.00  0.00    -0.394 OA
HETATM   40  C17 UNL     1       8.194  -7.312  43.115  1.00  0.00     0.201 C 
ENDBRANCH  38  39
ENDBRANCH  37  38
ENDBRANCH  34  37
ENDBRANCH  32  34
ENDBRANCH  29  32
ENDBRANCH   1  27
TORSDOF 11
ENDMDL
MODEL 3
REMARK VINA RESULT: -7.789757494      4.612      9.193
REMARK  11 active torsions:
REMARK  status: ('A' for Active; 'I' for Inactive)
REMARK    1  A    between atoms: C2_2  and  N1_3 
REMARK       I    between atoms: N1_3  and  C3_5 
REMARK       I    between atoms: C3_5  and  N2_7 
REMARK    2  A    between atoms: N2_7  and  S1_9 
REMARK    3  A    between atoms: S1_9  and  C4_11 
REMARK    4  A    between atoms: C4_11  and  C5_12 
REMARK    5  A    between atoms: C4_11  and  C11_27 
REMARK    6  A    between atoms: C7_17  and  N4_18 
REMARK       I    between atoms: N4_18  and  C8_20 
REMARK    7  A    between atoms: C13_29  and  C14_30 
REMARK    8  A    between atoms: C14_30  and  N7_32 
REMARK    9  A    between atoms: N7_32  and  C15_35 
REMARK   10  A    between atoms: C15_35  and  C16_36 
REMARK   11  A    between atoms: C16_36  and  O5_37 
ROOT
HETATM    1  C4  UNL     1       4.018  -1.705  46.041  1.00  0.00     0.208 C 
ENDROOT
BRANCH   1   2
HETATM    2  S1  UNL     1       2.464  -2.482  45.573  1.00  0.00     0.135 S 
HETATM    3  O2  UNL     1       1.784  -1.734  44.439  1.00  0.00    -0.234 OA
BRANCH   2   4
HETATM    4  N2  UNL     1       2.746  -4.114  45.021  1.00  0.00    -0.257 N 
HETATM    5  C3  UNL     1       2.452  -5.230  45.860  1.00  0.00     0.327 C 
HETATM    6  N1  UNL     1       2.711  -6.525  45.341  1.00  0.00    -0.343 N 
HETATM    7  O1  UNL     1       1.979  -5.063  47.029  1.00  0.00    -0.246 OA
ATOM      8  H1  UNL     1       3.091  -6.644  44.402  1.00  0.00     0.164 HD
ATOM      9  H2  UNL     1       3.124  -4.272  44.087  1.00  0.00     0.181 HD
BRANCH   6  10
HETATM   10  C2  UNL     1       2.422  -7.671  46.176  1.00  0.00     0.120 C 
HETATM   11  C1  UNL     1       3.682  -8.507  46.380  1.00  0.00     0.026 C 
ENDBRANCH   6  10
ENDBRANCH   2   4
ENDBRANCH   1   2
BRANCH   1  12
HETATM   12  C5  UNL     1       4.715  -1.303  44.794  1.00  0.00     0.108 A 
HETATM   13  N3  UNL     1       4.522  -1.918  43.629  1.00  0.00    -0.310 N 
HETATM   14  C6  UNL     1       5.194  -1.500  42.522  1.00  0.00     0.277 A 
ATOM     15  H3  UNL     1       3.872  -2.700  43.567  1.00  0.00     0.170 HD
HETATM   16  O3  UNL     1       5.031  -2.060  41.420  1.00  0.00    -0.266 OA
HETATM   17  C7  UNL     1       6.078  -0.446  42.575  1.00  0.00     0.145 A 
HETATM   18  C10 UNL     1       6.262   0.174  43.787  1.00  0.00     0.150 A 
HETATM   19  N5  UNL     1       7.176   1.259  43.867  1.00  0.00    -0.080 NA
HETATM   20  N6  UNL     1       5.582  -0.269  44.845  1.00  0.00    -0.331 N 
ATOM     21  H6  UNL     1       5.723   0.198  45.740  1.00  0.00     0.168 HD
BRANCH  17  22
HETATM   22  N4  UNL     1       6.757  -0.034  41.411  1.00  0.00    -0.320 N 
HETATM   23  C8  UNL     1       6.215   0.934  40.534  1.00  0.00     0.218 C 
HETATM   24  C9  UNL     1       6.888   1.396  39.307  1.00  0.00     0.117 C 
HETATM   25  O4  UNL     1       5.091   1.436  40.812  1.00  0.00    -0.274 OA
ATOM     26  H4  UNL     1       7.665  -0.444  41.196  1.00  0.00     0.169 HD
ENDBRANCH  17  22
ENDBRANCH   1  12
BRANCH   1  27
HETATM   27  C11 UNL     1       4.849  -2.652  46.860  1.00  0.00     0.008 A 
HETATM   28  C12 UNL     1       5.828  -3.509  46.432  1.00  0.00     0.028 A 
HETATM   29  C13 UNL     1       6.437  -4.267  47.352  1.00  0.00     0.010 A 
HETATM   30  C18 UNL     1       6.026  -4.121  48.653  1.00  0.00     0.061 A 
HETATM   31  S2  UNL     1       4.806  -2.930  48.540  1.00  0.00    -0.104 SA
BRANCH  29  32
HETATM   32  C14 UNL     1       7.525  -5.241  47.002  1.00  0.00     0.401 C 
HETATM   33  F1  UNL     1       8.084  -4.853  45.809  1.00  0.00    -0.214 F 
BRANCH  32  34
HETATM   34  N7  UNL     1       6.914  -6.562  46.862  1.00  0.00    -0.038 N 
ATOM     35  H72 UNL     1       7.342  -7.231  47.502  1.00  0.00     0.281 HD
ATOM     36  H71 UNL     1       5.963  -6.564  47.231  1.00  0.00     0.281 HD
BRANCH  34  37
HETATM   37  C15 UNL     1       6.942  -7.053  45.513  1.00  0.00     0.262 C 
BRANCH  37  38
HETATM   38  C16 UNL     1       7.981  -8.107  45.356  1.00  0.00     0.194 C 
BRANCH  38  39
HETATM   39  O5  UNL     1       8.798  -7.769  44.251  1.00  0.00    -0.394 OA
HETATM   40  C17 UNL     1       7.965  -7.271  43.266  1.00  0.00     0.201 C 
ENDBRANCH  38  39
ENDBRANCH  37  38
ENDBRANCH  34  37
ENDBRANCH  32  34
ENDBRANCH  29  32
ENDBRANCH   1  27
TORSDOF 11
ENDMDL
MODEL 4
REMARK VINA RESULT: -7.689813894      4.109      8.302
REMARK  11 active torsions:
REMARK  status: ('A' for Active; 'I' for Inactive)
REMARK    1  A    between atoms: C2_2  and  N1_3 
REMARK       I    between atoms: N1_3  and  C3_5 
REMARK       I    between atoms: C3_5  and  N2_7 
REMARK    2  A    between atoms: N2_7  and  S1_9 
REMARK    3  A    between atoms: S1_9  and  C4_11 
REMARK    4  A    between atoms: C4_11  and  C5_12 
REMARK    5  A    between atoms: C4_11  and  C11_27 
REMARK    6  A    between atoms: C7_17  and  N4_18 
REMARK       I    between atoms: N4_18  and  C8_20 
REMARK    7  A    between atoms: C13_29  and  C14_30 
REMARK    8  A    between atoms: C14_30  and  N7_32 
REMARK    9  A    between atoms: N7_32  and  C15_35 
REMARK   10  A    between atoms: C15_35  and  C16_36 
REMARK   11  A    between atoms: C16_36  and  O5_37 
ROOT
HETATM    1  C4  UNL     1       5.202  -2.401  43.778  1.00  0.00     0.208 C 
ENDROOT
BRANCH   1   2
HETATM    2  S1  UNL     1       5.863  -0.791  43.321  1.00  0.00     0.135 S 
HETATM    3  O2  UNL     1       7.345  -0.685  43.634  1.00  0.00    -0.234 OA
BRANCH   2   4
HETATM    4  N2  UNL     1       5.674  -0.523  41.606  1.00  0.00    -0.257 N 
HETATM    5  C3  UNL     1       5.865   0.773  41.044  1.00  0.00     0.327 C 
HETATM    6  N1  UNL     1       5.691   0.909  39.642  1.00  0.00    -0.343 N 
HETATM    7  O1  UNL     1       6.177   1.765  41.776  1.00  0.00    -0.246 OA
ATOM      8  H1  UNL     1       5.440   0.106  39.066  1.00  0.00     0.164 HD
ATOM      9  H2  UNL     1       5.424  -1.304  41.000  1.00  0.00     0.181 HD
BRANCH   6  10
HETATM   10  C2  UNL     1       5.879   2.217  39.050  1.00  0.00     0.120 C 
HETATM   11  C1  UNL     1       7.068   2.198  38.094  1.00  0.00     0.026 C 
ENDBRANCH   6  10
ENDBRANCH   2   4
ENDBRANCH   1   2
BRANCH   1  12
HETATM   12  C5  UNL     1       3.738  -2.252  43.963  1.00  0.00     0.108 A 
HETATM   13  N3  UNL     1       3.107  -1.089  43.817  1.00  0.00    -0.310 N 
HETATM   14  C6  UNL     1       1.761  -1.019  44.003  1.00  0.00     0.277 A 
ATOM     15  H3  UNL     1       3.632  -0.251  43.567  1.00  0.00     0.170 HD
HETATM   16  O3  UNL     1       1.147   0.059  43.873  1.00  0.00    -0.266 OA
HETATM   17  C7  UNL     1       1.025  -2.132  44.341  1.00  0.00     0.145 A 
HETATM   18  C10 UNL     1       1.696  -3.323  44.485  1.00  0.00     0.150 A 
HETATM   19  N5  UNL     1       0.958  -4.483  44.842  1.00  0.00    -0.080 NA
HETATM   20  N6  UNL     1       3.015  -3.343  44.293  1.00  0.00    -0.331 N 
ATOM     21  H6  UNL     1       3.505  -4.231  44.402  1.00  0.00     0.168 HD
BRANCH  17  22
HETATM   22  N4  UNL     1      -0.369  -2.031  44.523  1.00  0.00    -0.320 N 
HETATM   23  C8  UNL     1      -0.939  -1.782  45.792  1.00  0.00     0.218 C 
HETATM   24  C9  UNL     1      -2.389  -1.669  46.031  1.00  0.00     0.117 C 
HETATM   25  O4  UNL     1      -0.169  -1.648  46.783  1.00  0.00    -0.274 OA
ATOM     26  H4  UNL     1      -0.983  -2.140  43.717  1.00  0.00     0.169 HD
ENDBRANCH  17  22
ENDBRANCH   1  12
BRANCH   1  27
HETATM   27  C11 UNL     1       5.871  -2.904  45.025  1.00  0.00     0.008 A 
HETATM   28  C12 UNL     1       6.515  -4.097  45.221  1.00  0.00     0.028 A 
HETATM   29  C13 UNL     1       7.037  -4.331  46.432  1.00  0.00     0.010 A 
HETATM   30  C18 UNL     1       6.879  -3.352  47.379  1.00  0.00     0.061 A 
HETATM   31  S2  UNL     1       6.011  -2.141  46.543  1.00  0.00    -0.104 SA
BRANCH  29  32
HETATM   32  C14 UNL     1       7.766  -5.601  46.762  1.00  0.00     0.401 C 
HETATM   33  F1  UNL     1       8.699  -5.323  47.731  1.00  0.00    -0.214 F 
BRANCH  32  34
HETATM   34  N7  UNL     1       8.431  -6.064  45.545  1.00  0.00    -0.038 N 
ATOM     35  H72 UNL     1       8.150  -5.504  44.740  1.00  0.00     0.281 HD
ATOM     36  H71 UNL     1       9.425  -5.839  45.565  1.00  0.00     0.281 HD
BRANCH  34  37
HETATM   37  C15 UNL     1       8.226  -7.463  45.292  1.00  0.00     0.262 C 
BRANCH  37  38
HETATM   38  C16 UNL     1       7.258  -7.663  44.179  1.00  0.00     0.194 C 
BRANCH  38  39
HETATM   39  O5  UNL     1       7.452  -6.634  43.227  1.00  0.00    -0.394 OA
HETATM   40  C17 UNL     1       8.116  -7.195  42.152  1.00  0.00     0.201 C 
ENDBRANCH  38  39
ENDBRANCH  37  38
ENDBRANCH  34  37
ENDBRANCH  32  34
ENDBRANCH  29  32
ENDBRANCH   1  27
TORSDOF 11
ENDMDL
MODEL 5
REMARK VINA RESULT: -7.652983385      3.703      6.357
REMARK  11 active torsions:
REMARK  status: ('A' for Active; 'I' for Inactive)
REMARK    1  A    between atoms: C2_2  and  N1_3 
REMARK       I    between atoms: N1_3  and  C3_5 
REMARK       I    between atoms: C3_5  and  N2_7 
REMARK    2  A    between atoms: N2_7  and  S1_9 
REMARK    3  A    between atoms: S1_9  and  C4_11 
REMARK    4  A    between atoms: C4_11  and  C5_12 
REMARK    5  A    between atoms: C4_11  and  C11_27 
REMARK    6  A    between atoms: C7_17  and  N4_18 
REMARK       I    between atoms: N4_18  and  C8_20 
REMARK    7  A    between atoms: C13_29  and  C14_30 
REMARK    8  A    between atoms: C14_30  and  N7_32 
REMARK    9  A    between atoms: N7_32  and  C15_35 
REMARK   10  A    between atoms: C15_35  and  C16_36 
REMARK   11  A    between atoms: C16_36  and  O5_37 
ROOT
HETATM    1  C4  UNL     1       0.661   3.041  38.976  1.00  0.00     0.208 C 
ENDROOT
BRANCH   1   2
HETATM    2  S1  UNL     1       0.979   4.802  39.160  1.00  0.00     0.135 S 
HETATM    3  O2  UNL     1       0.282   5.612  38.081  1.00  0.00    -0.234 OA
BRANCH   2   4
HETATM    4  N2  UNL     1       0.384   5.367  40.700  1.00  0.00    -0.257 N 
HETATM    5  C3  UNL     1       1.131   6.303  41.474  1.00  0.00     0.327 C 
HETATM    6  N1  UNL     1       0.580   6.712  42.717  1.00  0.00    -0.343 N 
HETATM    7  O1  UNL     1       2.248   6.750  41.061  1.00  0.00    -0.246 OA
ATOM      8  H1  UNL     1      -0.316   6.346  43.036  1.00  0.00     0.164 HD
ATOM      9  H2  UNL     1      -0.510   5.023  41.051  1.00  0.00     0.181 HD
BRANCH   6  10
HETATM   10  C2  UNL     1       1.323   7.661  43.518  1.00  0.00     0.120 C 
HETATM   11  C1  UNL     1       1.526   7.115  44.929  1.00  0.00     0.026 C 
ENDBRANCH   6  10
ENDBRANCH   2   4
ENDBRANCH   1   2
BRANCH   1  12
HETATM   12  C5  UNL     1       1.635   2.315  39.828  1.00  0.00     0.108 A 
HETATM   13  N3  UNL     1       2.912   2.675  39.932  1.00  0.00    -0.310 N 
HETATM   14  C6  UNL     1       3.755   1.966  40.730  1.00  0.00     0.277 A 
ATOM     15  H3  UNL     1       3.258   3.483  39.413  1.00  0.00     0.170 HD
HETATM   16  O3  UNL     1       4.955   2.284  40.844  1.00  0.00    -0.266 OA
HETATM   17  C7  UNL     1       3.317   0.873  41.443  1.00  0.00     0.145 A 
HETATM   18  C10 UNL     1       1.995   0.518  41.322  1.00  0.00     0.150 A 
HETATM   19  N5  UNL     1       1.522  -0.612  42.041  1.00  0.00    -0.080 NA
HETATM   20  N6  UNL     1       1.206   1.243  40.527  1.00  0.00    -0.331 N 
ATOM     21  H6  UNL     1       0.226   0.974  40.444  1.00  0.00     0.168 HD
BRANCH  17  22
HETATM   22  N4  UNL     1       4.211   0.159  42.265  1.00  0.00    -0.320 N 
HETATM   23  C8  UNL     1       4.358   0.454  43.640  1.00  0.00     0.218 C 
HETATM   24  C9  UNL     1       5.281  -0.265  44.537  1.00  0.00     0.117 C 
HETATM   25  O4  UNL     1       3.663   1.383  44.134  1.00  0.00    -0.274 OA
ATOM     26  H4  UNL     1       4.769  -0.591  41.856  1.00  0.00     0.169 HD
ENDBRANCH  17  22
ENDBRANCH   1  12
BRANCH   1  27
HETATM   27  C11 UNL     1       0.777   2.638  37.533  1.00  0.00     0.008 A 
HETATM   28  C12 UNL     1       1.818   2.860  36.671  1.00  0.00     0.028 A 
HETATM   29  C13 UNL     1       1.696   2.406  35.418  1.00  0.00     0.010 A 
HETATM   30  C18 UNL     1       0.531   1.754  35.101  1.00  0.00     0.061 A 
HETATM   31  S2  UNL     1      -0.347   1.798  36.566  1.00  0.00    -0.104 SA
BRANCH  29  32
HETATM   32  C14 UNL     1       2.771   2.590  34.387  1.00  0.00     0.401 C 
HETATM   33  F1  UNL     1       3.110   1.355  33.891  1.00  0.00    -0.214 F 
BRANCH  32  34
HETATM   34  N7  UNL     1       3.925   3.198  35.048  1.00  0.00    -0.038 N 
ATOM     35  H72 UNL     1       4.372   3.886  34.441  1.00  0.00     0.281 HD
ATOM     36  H71 UNL     1       3.628   3.812  35.806  1.00  0.00     0.281 HD
BRANCH  34  37
HETATM   37  C15 UNL     1       4.878   2.231  35.515  1.00  0.00     0.262 C 
BRANCH  37  38
HETATM   38  C16 UNL     1       5.327   2.555  36.896  1.00  0.00     0.194 C 
BRANCH  38  39
HETATM   39  O5  UNL     1       6.742   2.535  36.923  1.00  0.00    -0.394 OA
HETATM   40  C17 UNL     1       7.117   1.755  38.001  1.00  0.00     0.201 C 
ENDBRANCH  38  39
ENDBRANCH  37  38
ENDBRANCH  34  37
ENDBRANCH  32  34
ENDBRANCH  29  32
ENDBRANCH   1  27
TORSDOF 11
ENDMDL
