MODEL 1
REMARK VINA RESULT: -8.291758606      0.000      0.000
REMARK  15 active torsions:
REMARK  status: ('A' for Active; 'I' for Inactive)
REMARK    1  A    between atoms: C6_10  and  O2_11 
REMARK    2  A    between atoms: O2_11  and  C7_12 
REMARK    3  A    between atoms: C8_13  and  O3_14 
REMARK    4  A    between atoms: C9_16  and  O4_17 
REMARK    5  A    between atoms: C10_19  and  O5_20 
REMARK    6  A    between atoms: C11_22  and  C12_23 
REMARK    7  A    between atoms: C13_24  and  C14_25 
REMARK    8  A    between atoms: C14_25  and  C15_26 
REMARK    9  A    between atoms: C14_25  and  O7_30 
REMARK   10  A    between atoms: C15_26  and  O6_27 
REMARK   11  A    between atoms: O6_27  and  C16_28 
REMARK   12  A    between atoms: O7_30  and  C17_31 
REMARK   13  A    between atoms: C17_31  and  C19_33 
REMARK   14  A    between atoms: C20_34  and  C21_35 
REMARK   15  A    between atoms: C24_38  and  O8_39 
ROOT
HETATM    1  C7  UNL     1       4.814  -0.652  43.438  1.00  0.00     0.166 C 
HETATM    2  C8  UNL     1       5.188   0.114  44.707  1.00  0.00     0.179 C 
HETATM    3  C9  UNL     1       6.445   0.832  44.355  1.00  0.00     0.178 C 
HETATM    4  C10 UNL     1       6.658   0.624  42.872  1.00  0.00     0.159 C 
HETATM    5  C11 UNL     1       5.203   0.396  42.429  1.00  0.00     0.071 C 
ENDROOT
BRANCH   5   6
HETATM    6  C12 UNL     1       5.114   0.007  41.028  1.00  0.00    -0.018 C 
HETATM    7  C13 UNL     1       4.758   0.764  40.013  1.00  0.00     0.003 C 
BRANCH   7   8
HETATM    8  C14 UNL     1       4.366   2.223  40.148  1.00  0.00     0.169 C 
BRANCH   8   9
HETATM    9  C15 UNL     1       2.867   2.240  40.075  1.00  0.00     0.211 C 
BRANCH   9  10
HETATM   10  O6  UNL     1       2.141   2.602  41.123  1.00  0.00    -0.349 OA
BRANCH  10  11
HETATM   11  C16 UNL     1       1.875   1.849  42.190  1.00  0.00     0.218 C 
HETATM   12 CL1  UNL     1       1.586   0.133  42.003  1.00  0.00    -0.071 Cl
ENDBRANCH  10  11
ENDBRANCH   9  10
ENDBRANCH   8   9
BRANCH   8  13
HETATM   13  O7  UNL     1       4.992   2.975  39.189  1.00  0.00    -0.371 OA
BRANCH  13  14
HETATM   14  C17 UNL     1       5.355   2.424  38.015  1.00  0.00     0.141 C 
HETATM   15  C18 UNL     1       6.821   2.776  37.774  1.00  0.00     0.044 C 
BRANCH  14  16
HETATM   16  C19 UNL     1       4.581   3.051  36.896  1.00  0.00     0.004 C 
HETATM   17  C20 UNL     1       3.861   2.354  36.051  1.00  0.00    -0.002 C 
BRANCH  17  18
HETATM   18  C21 UNL     1       3.131   3.041  34.979  1.00  0.00    -0.005 C 
HETATM   19  C22 UNL     1       2.605   2.372  33.967  1.00  0.00    -0.031 C 
HETATM   20  C23 UNL     1       2.740   0.880  33.883  1.00  0.00     0.036 C 
ENDBRANCH  17  18
ENDBRANCH  14  16
ENDBRANCH  13  14
ENDBRANCH   8  13
ENDBRANCH   7   8
ENDBRANCH   5   6
BRANCH   1  21
HETATM   21  O2  UNL     1       5.592  -1.750  43.236  1.00  0.00    -0.350 OA
BRANCH  21  22
HETATM   22  C6  UNL     1       5.489  -2.753  44.163  1.00  0.00     0.295 C 
HETATM   23  O1  UNL     1       6.707  -2.711  44.897  1.00  0.00    -0.332 OA
HETATM   24  C5  UNL     1       6.521  -2.859  46.247  1.00  0.00     0.403 C 
HETATM   25  N1  UNL     1       6.731  -4.215  46.708  1.00  0.00    -0.046 N 
HETATM   26  C3  UNL     1       5.805  -5.145  46.070  1.00  0.00     0.215 C 
ATOM     27  H12 UNL     1       6.680  -4.277  47.725  1.00  0.00     0.280 HD
ATOM     28  H11 UNL     1       7.700  -4.507  46.580  1.00  0.00     0.280 HD
HETATM   29  C2  UNL     1       6.034  -5.058  44.611  1.00  0.00    -0.026 C 
HETATM   30  C4  UNL     1       5.999  -6.509  46.646  1.00  0.00     0.045 C 
HETATM   31  C1  UNL     1       6.925  -5.910  44.138  1.00  0.00     0.019 C 
HETATM   32  C24 UNL     1       5.404  -4.150  43.618  1.00  0.00     0.203 C 
BRANCH  32  33
HETATM   33  O8  UNL     1       4.076  -4.565  43.439  1.00  0.00    -0.386 OA
ATOM     34  H8  UNL     1       3.646  -4.539  44.286  1.00  0.00     0.210 HD
ENDBRANCH  32  33
ENDBRANCH  21  22
ENDBRANCH   1  21
BRANCH   4  35
HETATM   35  O5  UNL     1       7.201   1.734  42.250  1.00  0.00    -0.392 OA
ATOM     36  H5  UNL     1       6.930   1.815  41.344  1.00  0.00     0.210 HD
ENDBRANCH   4  35
BRANCH   2  37
HETATM   37  O3  UNL     1       4.148   1.009  44.941  1.00  0.00    -0.390 OA
ATOM     38  H3  UNL     1       3.878   1.330  44.088  1.00  0.00     0.210 HD
ENDBRANCH   2  37
BRANCH   3  39
HETATM   39  O4  UNL     1       7.540   0.469  45.107  1.00  0.00    -0.390 OA
ATOM     40  H4  UNL     1       7.946   1.184  45.584  1.00  0.00     0.210 HD
ENDBRANCH   3  39
TORSDOF 15
ENDMDL
MODEL 2
REMARK VINA RESULT: -8.256713514      1.824      2.471
REMARK  15 active torsions:
REMARK  status: ('A' for Active; 'I' for Inactive)
REMARK    1  A    between atoms: C6_10  and  O2_11 
REMARK    2  A    between atoms: O2_11  and  C7_12 
REMARK    3  A    between atoms: C8_13  and  O3_14 
REMARK    4  A    between atoms: C9_16  and  O4_17 
REMARK    5  A    between atoms: C10_19  and  O5_20 
REMARK    6  A    between atoms: C11_22  and  C12_23 
REMARK    7  A    between atoms: C13_24  and  C14_25 
REMARK    8  A    between atoms: C14_25  and  C15_26 
REMARK    9  A    between atoms: C14_25  and  O7_30 
REMARK   10  A    between atoms: C15_26  and  O6_27 
REMARK   11  A    between atoms: O6_27  and  C16_28 
REMARK   12  A    between atoms: O7_30  and  C17_31 
REMARK   13  A    between atoms: C17_31  and  C19_33 
REMARK   14  A    between atoms: C20_34  and  C21_35 
REMARK   15  A    between atoms: C24_38  and  O8_39 
ROOT
HETATM    1  C7  UNL     1       5.187  -0.965  44.403  1.00  0.00     0.166 C 
HETATM    2  C8  UNL     1       5.813   0.090  45.315  1.00  0.00     0.179 C 
HETATM    3  C9  UNL     1       6.715   0.870  44.424  1.00  0.00     0.178 C 
HETATM    4  C10 UNL     1       6.452   0.386  43.015  1.00  0.00     0.159 C 
HETATM    5  C11 UNL     1       5.004  -0.111  43.176  1.00  0.00     0.071 C 
ENDROOT
BRANCH   5   6
HETATM    6  C12 UNL     1       4.526  -0.793  41.981  1.00  0.00    -0.018 C 
HETATM    7  C13 UNL     1       3.642  -0.350  41.113  1.00  0.00     0.003 C 
BRANCH   7   8
HETATM    8  C14 UNL     1       2.954   0.996  41.225  1.00  0.00     0.169 C 
BRANCH   8   9
HETATM    9  C15 UNL     1       1.589   0.700  41.776  1.00  0.00     0.211 C 
BRANCH   9  10
HETATM   10  O6  UNL     1       1.289  -0.509  42.229  1.00  0.00    -0.349 OA
BRANCH  10  11
HETATM   11  C16 UNL     1       1.107  -0.844  43.506  1.00  0.00     0.218 C 
HETATM   12 CL1  UNL     1       1.481   0.301  44.776  1.00  0.00    -0.071 Cl
ENDBRANCH  10  11
ENDBRANCH   9  10
ENDBRANCH   8   9
BRANCH   8  13
HETATM   13  O7  UNL     1       2.952   1.633  40.012  1.00  0.00    -0.371 OA
BRANCH  13  14
HETATM   14  C17 UNL     1       3.187   2.957  39.932  1.00  0.00     0.141 C 
HETATM   15  C18 UNL     1       1.970   3.603  39.275  1.00  0.00     0.044 C 
BRANCH  14  16
HETATM   16  C19 UNL     1       4.346   3.216  39.019  1.00  0.00     0.004 C 
HETATM   17  C20 UNL     1       4.901   2.279  38.290  1.00  0.00    -0.002 C 
BRANCH  17  18
HETATM   18  C21 UNL     1       6.035   2.611  37.419  1.00  0.00    -0.005 C 
HETATM   19  C22 UNL     1       7.233   2.088  37.620  1.00  0.00    -0.031 C 
HETATM   20  C23 UNL     1       7.470   1.133  38.753  1.00  0.00     0.036 C 
ENDBRANCH  17  18
ENDBRANCH  14  16
ENDBRANCH  13  14
ENDBRANCH   8  13
ENDBRANCH   7   8
ENDBRANCH   5   6
BRANCH   1  21
HETATM   21  O2  UNL     1       6.047  -1.974  44.098  1.00  0.00    -0.350 OA
BRANCH  21  22
HETATM   22  C6  UNL     1       5.804  -3.186  44.687  1.00  0.00     0.295 C 
HETATM   23  O1  UNL     1       6.922  -3.420  45.537  1.00  0.00    -0.332 OA
HETATM   24  C5  UNL     1       6.565  -3.924  46.761  1.00  0.00     0.403 C 
HETATM   25  N1  UNL     1       6.682  -5.364  46.843  1.00  0.00    -0.046 N 
HETATM   26  C3  UNL     1       5.820  -6.026  45.869  1.00  0.00     0.215 C 
ATOM     27  H12 UNL     1       6.503  -5.700  47.789  1.00  0.00     0.280 HD
ATOM     28  H11 UNL     1       7.652  -5.665  46.749  1.00  0.00     0.280 HD
HETATM   29  C2  UNL     1       6.231  -5.553  44.528  1.00  0.00    -0.026 C 
HETATM   30  C4  UNL     1       5.906  -7.505  46.057  1.00  0.00     0.045 C 
HETATM   31  C1  UNL     1       7.152  -6.293  43.939  1.00  0.00     0.019 C 
HETATM   32  C24 UNL     1       5.752  -4.371  43.766  1.00  0.00     0.203 C 
BRANCH  32  33
HETATM   33  O8  UNL     1       4.448  -4.642  43.329  1.00  0.00    -0.386 OA
ATOM     34  H8  UNL     1       4.437  -4.572  42.382  1.00  0.00     0.210 HD
ENDBRANCH  32  33
ENDBRANCH  21  22
ENDBRANCH   1  21
BRANCH   4  35
HETATM   35  O5  UNL     1       6.530   1.400  42.078  1.00  0.00    -0.392 OA
ATOM     36  H5  UNL     1       5.716   1.525  41.605  1.00  0.00     0.210 HD
ENDBRANCH   4  35
BRANCH   2  37
HETATM   37  O3  UNL     1       4.760   0.877  45.777  1.00  0.00    -0.390 OA
ATOM     38  H3  UNL     1       5.077   1.310  46.560  1.00  0.00     0.210 HD
ENDBRANCH   2  37
BRANCH   3  39
HETATM   39  O4  UNL     1       8.047   0.813  44.767  1.00  0.00    -0.390 OA
ATOM     40  H4  UNL     1       8.515   1.634  44.669  1.00  0.00     0.210 HD
ENDBRANCH   3  39
TORSDOF 15
ENDMDL
MODEL 3
REMARK VINA RESULT: -8.212144328      1.106      1.228
REMARK  15 active torsions:
REMARK  status: ('A' for Active; 'I' for Inactive)
REMARK    1  A    between atoms: C6_10  and  O2_11 
REMARK    2  A    between atoms: O2_11  and  C7_12 
REMARK    3  A    between atoms: C8_13  and  O3_14 
REMARK    4  A    between atoms: C9_16  and  O4_17 
REMARK    5  A    between atoms: C10_19  and  O5_20 
REMARK    6  A    between atoms: C11_22  and  C12_23 
REMARK    7  A    between atoms: C13_24  and  C14_25 
REMARK    8  A    between atoms: C14_25  and  C15_26 
REMARK    9  A    between atoms: C14_25  and  O7_30 
REMARK   10  A    between atoms: C15_26  and  O6_27 
REMARK   11  A    between atoms: O6_27  and  C16_28 
REMARK   12  A    between atoms: O7_30  and  C17_31 
REMARK   13  A    between atoms: C17_31  and  C19_33 
REMARK   14  A    between atoms: C20_34  and  C21_35 
REMARK   15  A    between atoms: C24_38  and  O8_39 
ROOT
HETATM    1  C7  UNL     1       4.811  -0.554  43.475  1.00  0.00     0.166 C 
HETATM    2  C8  UNL     1       5.352   0.192  44.694  1.00  0.00     0.179 C 
HETATM    3  C9  UNL     1       6.618   0.815  44.222  1.00  0.00     0.178 C 
HETATM    4  C10 UNL     1       6.682   0.582  42.729  1.00  0.00     0.159 C 
HETATM    5  C11 UNL     1       5.180   0.455  42.420  1.00  0.00     0.071 C 
ENDROOT
BRANCH   5   6
HETATM    6  C12 UNL     1       4.939   0.062  41.039  1.00  0.00    -0.018 C 
HETATM    7  C13 UNL     1       4.609   0.846  40.035  1.00  0.00     0.003 C 
BRANCH   7   8
HETATM    8  C14 UNL     1       4.422   2.345  40.164  1.00  0.00     0.169 C 
BRANCH   8   9
HETATM    9  C15 UNL     1       2.938   2.554  40.255  1.00  0.00     0.211 C 
BRANCH   9  10
HETATM   10  O6  UNL     1       2.146   2.243  39.239  1.00  0.00    -0.349 OA
BRANCH  10  11
HETATM   11  C16 UNL     1       1.378   3.091  38.556  1.00  0.00     0.218 C 
HETATM   12 CL1  UNL     1       0.603   2.575  37.074  1.00  0.00    -0.071 Cl
ENDBRANCH  10  11
ENDBRANCH   9  10
ENDBRANCH   8   9
BRANCH   8  13
HETATM   13  O7  UNL     1       5.026   2.993  39.119  1.00  0.00    -0.371 OA
BRANCH  13  14
HETATM   14  C17 UNL     1       5.345   2.327  37.993  1.00  0.00     0.141 C 
HETATM   15  C18 UNL     1       6.841   2.518  37.752  1.00  0.00     0.044 C 
BRANCH  14  16
HETATM   16  C19 UNL     1       4.648   2.943  36.819  1.00  0.00     0.004 C 
HETATM   17  C20 UNL     1       4.073   2.233  35.879  1.00  0.00    -0.002 C 
BRANCH  17  18
HETATM   18  C21 UNL     1       3.409   2.911  34.759  1.00  0.00    -0.005 C 
HETATM   19  C22 UNL     1       2.754   2.229  33.834  1.00  0.00    -0.031 C 
HETATM   20  C23 UNL     1       2.670   0.733  33.902  1.00  0.00     0.036 C 
ENDBRANCH  17  18
ENDBRANCH  14  16
ENDBRANCH  13  14
ENDBRANCH   8  13
ENDBRANCH   7   8
ENDBRANCH   5   6
BRANCH   1  21
HETATM   21  O2  UNL     1       5.488  -1.707  43.220  1.00  0.00    -0.350 OA
BRANCH  21  22
HETATM   22  C6  UNL     1       5.353  -2.713  44.139  1.00  0.00     0.295 C 
HETATM   23  O1  UNL     1       6.545  -2.672  44.917  1.00  0.00    -0.332 OA
HETATM   24  C5  UNL     1       6.310  -2.825  46.259  1.00  0.00     0.403 C 
HETATM   25  N1  UNL     1       6.505  -4.183  46.722  1.00  0.00    -0.046 N 
HETATM   26  C3  UNL     1       5.604  -5.111  46.049  1.00  0.00     0.215 C 
ATOM     27  H12 UNL     1       6.418  -4.247  47.736  1.00  0.00     0.280 HD
ATOM     28  H11 UNL     1       7.479  -4.473  46.628  1.00  0.00     0.280 HD
HETATM   29  C2  UNL     1       5.884  -5.019  44.599  1.00  0.00    -0.026 C 
HETATM   30  C4  UNL     1       5.779  -6.477  46.627  1.00  0.00     0.045 C 
HETATM   31  C1  UNL     1       6.793  -5.869  44.155  1.00  0.00     0.019 C 
HETATM   32  C24 UNL     1       5.289  -4.109  43.587  1.00  0.00     0.203 C 
BRANCH  32  33
HETATM   33  O8  UNL     1       3.969  -4.524  43.360  1.00  0.00    -0.386 OA
ATOM     34  H8  UNL     1       3.392  -3.926  43.820  1.00  0.00     0.210 HD
ENDBRANCH  32  33
ENDBRANCH  21  22
ENDBRANCH   1  21
BRANCH   4  35
HETATM   35  O5  UNL     1       7.244   1.645  42.045  1.00  0.00    -0.392 OA
ATOM     36  H5  UNL     1       6.595   2.267  41.739  1.00  0.00     0.210 HD
ENDBRANCH   4  35
BRANCH   2  37
HETATM   37  O3  UNL     1       4.402   1.162  45.008  1.00  0.00    -0.390 OA
ATOM     38  H3  UNL     1       4.715   1.594  45.794  1.00  0.00     0.210 HD
ENDBRANCH   2  37
BRANCH   3  39
HETATM   39  O4  UNL     1       7.749   0.381  44.878  1.00  0.00    -0.390 OA
ATOM     40  H4  UNL     1       8.385   1.062  45.061  1.00  0.00     0.210 HD
ENDBRANCH   3  39
TORSDOF 15
ENDMDL
MODEL 4
REMARK VINA RESULT: -8.129441208      2.020      2.312
REMARK  15 active torsions:
REMARK  status: ('A' for Active; 'I' for Inactive)
REMARK    1  A    between atoms: C6_10  and  O2_11 
REMARK    2  A    between atoms: O2_11  and  C7_12 
REMARK    3  A    between atoms: C8_13  and  O3_14 
REMARK    4  A    between atoms: C9_16  and  O4_17 
REMARK    5  A    between atoms: C10_19  and  O5_20 
REMARK    6  A    between atoms: C11_22  and  C12_23 
REMARK    7  A    between atoms: C13_24  and  C14_25 
REMARK    8  A    between atoms: C14_25  and  C15_26 
REMARK    9  A    between atoms: C14_25  and  O7_30 
REMARK   10  A    between atoms: C15_26  and  O6_27 
REMARK   11  A    between atoms: O6_27  and  C16_28 
REMARK   12  A    between atoms: O7_30  and  C17_31 
REMARK   13  A    between atoms: C17_31  and  C19_33 
REMARK   14  A    between atoms: C20_34  and  C21_35 
REMARK   15  A    between atoms: C24_38  and  O8_39 
ROOT
HETATM    1  C7  UNL     1       4.726  -0.257  43.900  1.00  0.00     0.166 C 
HETATM    2  C8  UNL     1       5.526   0.531  44.937  1.00  0.00     0.179 C 
HETATM    3  C9  UNL     1       6.770   0.933  44.226  1.00  0.00     0.178 C 
HETATM    4  C10 UNL     1       6.582   0.545  42.776  1.00  0.00     0.159 C 
HETATM    5  C11 UNL     1       5.046   0.586  42.693  1.00  0.00     0.071 C 
ENDROOT
BRANCH   5   6
HETATM    6  C12 UNL     1       4.555   0.092  41.414  1.00  0.00    -0.018 C 
HETATM    7  C13 UNL     1       4.255   0.804  40.349  1.00  0.00     0.003 C 
BRANCH   7   8
HETATM    8  C14 UNL     1       4.377   2.314  40.284  1.00  0.00     0.169 C 
BRANCH   8   9
HETATM    9  C15 UNL     1       3.030   2.802  39.837  1.00  0.00     0.211 C 
BRANCH   9  10
HETATM   10  O6  UNL     1       2.866   4.047  39.413  1.00  0.00    -0.349 OA
BRANCH  10  11
HETATM   11  C16 UNL     1       2.151   4.427  38.354  1.00  0.00     0.218 C 
HETATM   12 CL1  UNL     1       1.136   3.270  37.521  1.00  0.00    -0.071 Cl
ENDBRANCH  10  11
ENDBRANCH   9  10
ENDBRANCH   8   9
BRANCH   8  13
HETATM   13  O7  UNL     1       5.414   2.673  39.464  1.00  0.00    -0.371 OA
BRANCH  13  14
HETATM   14  C17 UNL     1       5.753   1.905  38.410  1.00  0.00     0.141 C 
HETATM   15  C18 UNL     1       7.277   1.839  38.359  1.00  0.00     0.044 C 
BRANCH  14  16
HETATM   16  C19 UNL     1       5.316   2.564  37.137  1.00  0.00     0.004 C 
HETATM   17  C20 UNL     1       4.323   2.117  36.409  1.00  0.00    -0.002 C 
BRANCH  17  18
HETATM   18  C21 UNL     1       3.955   2.818  35.173  1.00  0.00    -0.005 C 
HETATM   19  C22 UNL     1       3.353   2.187  34.178  1.00  0.00    -0.031 C 
HETATM   20  C23 UNL     1       3.028   0.726  34.284  1.00  0.00     0.036 C 
ENDBRANCH  17  18
ENDBRANCH  14  16
ENDBRANCH  13  14
ENDBRANCH   8  13
ENDBRANCH   7   8
ENDBRANCH   5   6
BRANCH   1  21
HETATM   21  O2  UNL     1       5.220  -1.508  43.692  1.00  0.00    -0.350 OA
BRANCH  21  22
HETATM   22  C6  UNL     1       4.318  -2.537  43.729  1.00  0.00     0.295 C 
HETATM   23  O1  UNL     1       3.472  -2.254  44.838  1.00  0.00    -0.332 OA
HETATM   24  C5  UNL     1       2.148  -2.482  44.569  1.00  0.00     0.403 C 
HETATM   25  N1  UNL     1       1.684  -3.773  45.030  1.00  0.00    -0.046 N 
HETATM   26  C3  UNL     1       2.416  -4.862  44.391  1.00  0.00     0.215 C 
ATOM     27  H12 UNL     1       0.677  -3.875  44.903  1.00  0.00     0.280 HD
ATOM     28  H11 UNL     1       1.723  -3.842  46.047  1.00  0.00     0.280 HD
HETATM   29  C2  UNL     1       3.846  -4.682  44.724  1.00  0.00    -0.026 C 
HETATM   30  C4  UNL     1       1.839  -6.168  44.828  1.00  0.00     0.045 C 
HETATM   31  C1  UNL     1       4.243  -5.304  45.819  1.00  0.00     0.019 C 
HETATM   32  C24 UNL     1       4.884  -3.902  44.001  1.00  0.00     0.203 C 
BRANCH  32  33
HETATM   33  O8  UNL     1       5.191  -4.590  42.819  1.00  0.00    -0.386 OA
ATOM     34  H8  UNL     1       5.776  -4.043  42.307  1.00  0.00     0.210 HD
ENDBRANCH  32  33
ENDBRANCH  21  22
ENDBRANCH   1  21
BRANCH   4  35
HETATM   35  O5  UNL     1       7.152   1.453  41.902  1.00  0.00    -0.392 OA
ATOM     36  H5  UNL     1       6.797   2.328  42.000  1.00  0.00     0.210 HD
ENDBRANCH   4  35
BRANCH   2  37
HETATM   37  O3  UNL     1       4.752   1.642  45.262  1.00  0.00    -0.390 OA
ATOM     38  H3  UNL     1       3.851   1.395  45.093  1.00  0.00     0.210 HD
ENDBRANCH   2  37
BRANCH   3  39
HETATM   39  O4  UNL     1       7.929   0.422  44.767  1.00  0.00    -0.390 OA
ATOM     40  H4  UNL     1       8.486  -0.035  44.148  1.00  0.00     0.210 HD
ENDBRANCH   3  39
TORSDOF 15
ENDMDL
MODEL 5
REMARK VINA RESULT: -8.127375733      1.739      3.120
REMARK  15 active torsions:
REMARK  status: ('A' for Active; 'I' for Inactive)
REMARK    1  A    between atoms: C6_10  and  O2_11 
REMARK    2  A    between atoms: O2_11  and  C7_12 
REMARK    3  A    between atoms: C8_13  and  O3_14 
REMARK    4  A    between atoms: C9_16  and  O4_17 
REMARK    5  A    between atoms: C10_19  and  O5_20 
REMARK    6  A    between atoms: C11_22  and  C12_23 
REMARK    7  A    between atoms: C13_24  and  C14_25 
REMARK    8  A    between atoms: C14_25  and  C15_26 
REMARK    9  A    between atoms: C14_25  and  O7_30 
REMARK   10  A    between atoms: C15_26  and  O6_27 
REMARK   11  A    between atoms: O6_27  and  C16_28 
REMARK   12  A    between atoms: O7_30  and  C17_31 
REMARK   13  A    between atoms: C17_31  and  C19_33 
REMARK   14  A    between atoms: C20_34  and  C21_35 
REMARK   15  A    between atoms: C24_38  and  O8_39 
ROOT
HETATM    1  C7  UNL     1       5.389  -0.895  44.420  1.00  0.00     0.166 C 
HETATM    2  C8  UNL     1       5.972   0.318  45.147  1.00  0.00     0.179 C 
HETATM    3  C9  UNL     1       6.939   0.906  44.180  1.00  0.00     0.178 C 
HETATM    4  C10 UNL     1       6.757   0.156  42.878  1.00  0.00     0.159 C 
HETATM    5  C11 UNL     1       5.296  -0.297  43.041  1.00  0.00     0.071 C 
ENDROOT
BRANCH   5   6
HETATM    6  C12 UNL     1       4.883  -1.199  41.974  1.00  0.00    -0.018 C 
HETATM    7  C13 UNL     1       3.661  -1.396  41.527  1.00  0.00     0.003 C 
BRANCH   7   8
HETATM    8  C14 UNL     1       2.440  -0.685  42.077  1.00  0.00     0.169 C 
BRANCH   8   9
HETATM    9  C15 UNL     1       1.637  -1.751  42.766  1.00  0.00     0.211 C 
BRANCH   9  10
HETATM   10  O6  UNL     1       2.211  -2.588  43.618  1.00  0.00    -0.349 OA
BRANCH  10  11
HETATM   11  C16 UNL     1       2.173  -2.501  44.948  1.00  0.00     0.218 C 
HETATM   12 CL1  UNL     1       2.015  -0.938  45.720  1.00  0.00    -0.071 Cl
ENDBRANCH  10  11
ENDBRANCH   9  10
ENDBRANCH   8   9
BRANCH   8  13
HETATM   13  O7  UNL     1       1.776  -0.032  41.072  1.00  0.00    -0.371 OA
BRANCH  13  14
HETATM   14  C17 UNL     1       1.717   1.313  41.051  1.00  0.00     0.141 C 
HETATM   15  C18 UNL     1       0.874   1.719  39.844  1.00  0.00     0.044 C 
BRANCH  14  16
HETATM   16  C19 UNL     1       3.084   1.881  40.820  1.00  0.00     0.004 C 
HETATM   17  C20 UNL     1       3.636   1.945  39.633  1.00  0.00    -0.002 C 
BRANCH  17  18
HETATM   18  C21 UNL     1       4.981   2.516  39.488  1.00  0.00    -0.005 C 
HETATM   19  C22 UNL     1       5.498   2.763  38.295  1.00  0.00    -0.031 C 
HETATM   20  C23 UNL     1       4.720   2.464  37.048  1.00  0.00     0.036 C 
ENDBRANCH  17  18
ENDBRANCH  14  16
ENDBRANCH  13  14
ENDBRANCH   8  13
ENDBRANCH   7   8
ENDBRANCH   5   6
BRANCH   1  21
HETATM   21  O2  UNL     1       6.252  -1.946  44.373  1.00  0.00    -0.350 OA
BRANCH  21  22
HETATM   22  C6  UNL     1       5.811  -3.126  44.910  1.00  0.00     0.295 C 
HETATM   23  O1  UNL     1       6.727  -3.426  45.957  1.00  0.00    -0.332 OA
HETATM   24  C5  UNL     1       6.108  -3.880  47.093  1.00  0.00     0.403 C 
HETATM   25  N1  UNL     1       6.098  -5.324  47.200  1.00  0.00    -0.046 N 
HETATM   26  C3  UNL     1       5.388  -5.937  46.083  1.00  0.00     0.215 C 
ATOM     27  H12 UNL     1       5.718  -5.629  48.097  1.00  0.00     0.280 HD
ATOM     28  H11 UNL     1       7.042  -5.698  47.293  1.00  0.00     0.280 HD
HETATM   29  C2  UNL     1       6.080  -5.521  44.843  1.00  0.00    -0.026 C 
HETATM   30  C4  UNL     1       5.325  -7.415  46.289  1.00  0.00     0.045 C 
HETATM   31  C1  UNL     1       7.038  -6.336  44.442  1.00  0.00     0.019 C 
HETATM   32  C24 UNL     1       5.845  -4.320  44.000  1.00  0.00     0.203 C 
BRANCH  32  33
HETATM   33  O8  UNL     1       4.630  -4.501  43.324  1.00  0.00    -0.386 OA
ATOM     34  H8  UNL     1       4.726  -4.140  42.450  1.00  0.00     0.210 HD
ENDBRANCH  32  33
ENDBRANCH  21  22
ENDBRANCH   1  21
BRANCH   4  35
HETATM   35  O5  UNL     1       6.908   0.967  41.769  1.00  0.00    -0.392 OA
ATOM     36  H5  UNL     1       6.113   1.033  41.253  1.00  0.00     0.210 HD
ENDBRANCH   4  35
BRANCH   2  37
HETATM   37  O3  UNL     1       4.904   1.181  45.377  1.00  0.00    -0.390 OA
ATOM     38  H3  UNL     1       5.218   1.831  45.995  1.00  0.00     0.210 HD
ENDBRANCH   2  37
BRANCH   3  39
HETATM   39  O4  UNL     1       8.246   0.915  44.612  1.00  0.00    -0.390 OA
ATOM     40  H4  UNL     1       8.883   1.122  43.938  1.00  0.00     0.210 HD
ENDBRANCH   3  39
TORSDOF 15
ENDMDL
