MODEL 1
REMARK VINA RESULT: -8.058853479      0.000      0.000
REMARK  12 active torsions:
REMARK  status: ('A' for Active; 'I' for Inactive)
REMARK    1  A    between atoms: O1_2  and  C2_3 
REMARK    2  A    between atoms: C4_5  and  C5_6 
REMARK       I    between atoms: C5_6  and  N1_8 
REMARK    3  A    between atoms: N1_8  and  C6_10 
REMARK    4  A    between atoms: C6_10  and  C7_11 
REMARK    5  A    between atoms: C8_14  and  O4_15 
REMARK    6  A    between atoms: O4_15  and  C9_16 
REMARK    7  A    between atoms: C9_16  and  C10_17 
REMARK    8  A    between atoms: C10_17  and  C11_18 
REMARK    9  A    between atoms: C15_23  and  O5_24 
REMARK   10  A    between atoms: C16_26  and  N3_27 
REMARK   11  A    between atoms: N3_27  and  C17_28 
REMARK   12  A    between atoms: C18_31  and  N5_32 
ROOT
HETATM    1  C17 UNL     1       4.309   0.956  40.708  1.00  0.00     0.218 A 
HETATM    2  N4  UNL     1       3.006   1.366  40.635  1.00  0.00    -0.163 N 
ATOM      3  H4  UNL     1       2.344   0.961  41.297  1.00  0.00     0.187 HD
HETATM    4  C18 UNL     1       2.538   2.256  39.763  1.00  0.00     0.683 A 
HETATM    5  N6  UNL     1       3.428   2.775  38.901  1.00  0.00    -0.177 N 
ATOM      6  H6  UNL     1       3.099   3.460  38.221  1.00  0.00     0.185 HD
HETATM    7  C21 UNL     1       4.728   2.439  38.890  1.00  0.00     0.157 A 
HETATM    8  N7  UNL     1       5.614   3.026  37.953  1.00  0.00    -0.080 NA
HETATM    9  C22 UNL     1       5.200   1.525  39.790  1.00  0.00     0.144 A 
HETATM   10  C23 UNL     1       6.592   1.152  39.794  1.00  0.00     0.108 C 
HETATM   11  N8  UNL     1       7.720   0.855  39.813  1.00  0.00    -0.191 NA
ENDROOT
BRANCH   1  12
HETATM   12  N3  UNL     1       4.669   0.168  41.496  1.00  0.00    -0.379 NA
BRANCH  12  13
HETATM   13  C16 UNL     1       5.072  -0.721  42.391  1.00  0.00     0.178 A 
HETATM   14  C2  UNL     1       6.150  -0.496  43.240  1.00  0.00     0.113 A 
HETATM   15  C3  UNL     1       6.504  -1.442  44.140  1.00  0.00     0.060 A 
HETATM   16  C4  UNL     1       5.832  -2.688  44.282  1.00  0.00     0.071 A 
HETATM   17  C8  UNL     1       4.769  -2.875  43.413  1.00  0.00     0.121 A 
HETATM   18  C15 UNL     1       4.375  -1.950  42.497  1.00  0.00     0.144 A 
BRANCH  14  19
HETATM   19  O1  UNL     1       6.800   0.724  43.091  1.00  0.00    -0.352 OA
HETATM   20  C1  UNL     1       7.539   1.190  44.205  1.00  0.00     0.210 C 
ENDBRANCH  14  19
BRANCH  16  21
HETATM   21  C5  UNL     1       6.230  -3.497  45.390  1.00  0.00     0.255 C 
HETATM   22  O2  UNL     1       6.113  -2.997  46.583  1.00  0.00    -0.268 OA
HETATM   23  N1  UNL     1       6.752  -4.782  45.392  1.00  0.00    -0.348 N 
ATOM     24  H1  UNL     1       6.869  -5.280  44.509  1.00  0.00     0.163 HD
BRANCH  23  25
HETATM   25  C6  UNL     1       7.140  -5.440  46.658  1.00  0.00     0.222 C 
BRANCH  25  26
HETATM   26  C7  UNL     1       8.312  -6.279  46.387  1.00  0.00     0.248 C 
HETATM   27  N2  UNL     1       8.182  -7.447  45.598  1.00  0.00    -0.061 NA
HETATM   28  O3  UNL     1       9.429  -5.972  46.846  1.00  0.00    -0.275 OA
ENDBRANCH  25  26
ENDBRANCH  23  25
ENDBRANCH  16  21
BRANCH  17  29
HETATM   29  O4  UNL     1       4.126  -4.117  43.540  1.00  0.00    -0.347 OA
BRANCH  29  30
HETATM   30  C9  UNL     1       2.949  -4.307  44.241  1.00  0.00     0.179 C 
BRANCH  30  31
HETATM   31  C10 UNL     1       2.394  -3.419  45.232  1.00  0.00     0.070 C 
BRANCH  31  32
HETATM   32  C11 UNL     1       1.616  -2.214  44.829  1.00  0.00     0.109 A 
HETATM   33  F1  UNL     1       0.807  -2.263  43.737  1.00  0.00    -0.242 F 
HETATM   34  C12 UNL     1       0.917  -1.492  46.009  1.00  0.00     0.051 A 
HETATM   35  C13 UNL     1       2.038  -0.857  45.265  1.00  0.00     0.024 A 
HETATM   36  C14 UNL     1       3.302  -0.646  46.042  1.00  0.00     0.013 C 
ENDBRANCH  31  32
ENDBRANCH  30  31
ENDBRANCH  29  30
ENDBRANCH  17  29
BRANCH  18  37
HETATM   37  O5  UNL     1       3.298  -2.146  41.635  1.00  0.00    -0.355 OA
ATOM     38  H5  UNL     1       2.523  -1.596  41.642  1.00  0.00     0.218 HD
ENDBRANCH  18  37
ENDBRANCH  12  13
ENDBRANCH   1  12
BRANCH   4  39
HETATM   39  N5  UNL     1       1.157   2.647  39.734  1.00  0.00    -0.226 N 
HETATM   40  C19 UNL     1       0.130   1.848  39.136  1.00  0.00     0.168 C 
HETATM   41  C20 UNL     1       0.807   3.910  40.342  1.00  0.00     0.168 C 
ENDBRANCH   4  39
TORSDOF 12
ENDMDL
MODEL 2
REMARK VINA RESULT: -7.990978634      1.255      2.552
REMARK  12 active torsions:
REMARK  status: ('A' for Active; 'I' for Inactive)
REMARK    1  A    between atoms: O1_2  and  C2_3 
REMARK    2  A    between atoms: C4_5  and  C5_6 
REMARK       I    between atoms: C5_6  and  N1_8 
REMARK    3  A    between atoms: N1_8  and  C6_10 
REMARK    4  A    between atoms: C6_10  and  C7_11 
REMARK    5  A    between atoms: C8_14  and  O4_15 
REMARK    6  A    between atoms: O4_15  and  C9_16 
REMARK    7  A    between atoms: C9_16  and  C10_17 
REMARK    8  A    between atoms: C10_17  and  C11_18 
REMARK    9  A    between atoms: C15_23  and  O5_24 
REMARK   10  A    between atoms: C16_26  and  N3_27 
REMARK   11  A    between atoms: N3_27  and  C17_28 
REMARK   12  A    between atoms: C18_31  and  N5_32 
ROOT
HETATM    1  C17 UNL     1       4.182   0.687  41.055  1.00  0.00     0.218 A 
HETATM    2  N4  UNL     1       4.860   1.025  39.915  1.00  0.00    -0.163 N 
ATOM      3  H4  UNL     1       5.706   0.498  39.694  1.00  0.00     0.187 HD
HETATM    4  C18 UNL     1       4.499   1.989  39.073  1.00  0.00     0.683 A 
HETATM    5  N6  UNL     1       3.384   2.669  39.385  1.00  0.00    -0.177 N 
ATOM      6  H6  UNL     1       3.081   3.415  38.759  1.00  0.00     0.185 HD
HETATM    7  C21 UNL     1       2.647   2.418  40.479  1.00  0.00     0.157 A 
HETATM    8  N7  UNL     1       1.478   3.174  40.749  1.00  0.00    -0.080 NA
HETATM    9  C22 UNL     1       3.026   1.424  41.338  1.00  0.00     0.144 A 
HETATM   10  C23 UNL     1       2.247   1.138  42.517  1.00  0.00     0.108 C 
HETATM   11  N8  UNL     1       1.615   0.892  43.466  1.00  0.00    -0.191 NA
ENDROOT
BRANCH   1  12
HETATM   12  N3  UNL     1       4.545  -0.171  41.762  1.00  0.00    -0.379 NA
BRANCH  12  13
HETATM   13  C16 UNL     1       4.961  -1.142  42.561  1.00  0.00     0.178 A 
HETATM   14  C2  UNL     1       6.158  -1.075  43.265  1.00  0.00     0.113 A 
HETATM   15  C3  UNL     1       6.520  -2.097  44.073  1.00  0.00     0.060 A 
HETATM   16  C4  UNL     1       5.740  -3.272  44.258  1.00  0.00     0.071 A 
HETATM   17  C8  UNL     1       4.558  -3.303  43.534  1.00  0.00     0.121 A 
HETATM   18  C15 UNL     1       4.153  -2.295  42.714  1.00  0.00     0.144 A 
BRANCH  14  19
HETATM   19  O1  UNL     1       6.914   0.078  43.075  1.00  0.00    -0.352 OA
HETATM   20  C1  UNL     1       7.092   0.914  44.204  1.00  0.00     0.210 C 
ENDBRANCH  14  19
BRANCH  16  21
HETATM   21  C5  UNL     1       6.187  -4.174  45.271  1.00  0.00     0.255 C 
HETATM   22  O2  UNL     1       6.471  -3.685  46.440  1.00  0.00    -0.268 OA
HETATM   23  N1  UNL     1       6.383  -5.545  45.197  1.00  0.00    -0.348 N 
ATOM     24  H1  UNL     1       6.172  -6.038  44.330  1.00  0.00     0.163 HD
BRANCH  23  25
HETATM   25  C6  UNL     1       6.893  -6.302  46.361  1.00  0.00     0.222 C 
BRANCH  25  26
HETATM   26  C7  UNL     1       8.290  -6.655  46.090  1.00  0.00     0.248 C 
HETATM   27  N2  UNL     1       9.329  -6.091  46.867  1.00  0.00    -0.061 NA
HETATM   28  O3  UNL     1       8.573  -7.454  45.176  1.00  0.00    -0.275 OA
ENDBRANCH  25  26
ENDBRANCH  23  25
ENDBRANCH  16  21
BRANCH  17  29
HETATM   29  O4  UNL     1       3.805  -4.476  43.700  1.00  0.00    -0.347 OA
BRANCH  29  30
HETATM   30  C9  UNL     1       2.680  -4.561  44.499  1.00  0.00     0.179 C 
BRANCH  30  31
HETATM   31  C10 UNL     1       2.402  -3.766  45.669  1.00  0.00     0.070 C 
BRANCH  31  32
HETATM   32  C11 UNL     1       1.782  -2.417  45.546  1.00  0.00     0.109 A 
HETATM   33  F1  UNL     1       0.874  -2.175  44.563  1.00  0.00    -0.242 F 
HETATM   34  C12 UNL     1       1.316  -1.811  46.894  1.00  0.00     0.051 A 
HETATM   35  C13 UNL     1       2.445  -1.220  46.127  1.00  0.00     0.024 A 
HETATM   36  C14 UNL     1       3.795  -1.313  46.771  1.00  0.00     0.013 C 
ENDBRANCH  31  32
ENDBRANCH  30  31
ENDBRANCH  29  30
ENDBRANCH  17  29
BRANCH  18  37
HETATM   37  O5  UNL     1       2.958  -2.334  41.999  1.00  0.00    -0.355 OA
ATOM     38  H5  UNL     1       2.513  -3.145  41.780  1.00  0.00     0.218 HD
ENDBRANCH  18  37
ENDBRANCH  12  13
ENDBRANCH   1  12
BRANCH   4  39
HETATM   39  N5  UNL     1       5.253   2.298  37.891  1.00  0.00    -0.226 N 
HETATM   40  C19 UNL     1       6.680   2.423  37.885  1.00  0.00     0.168 C 
HETATM   41  C20 UNL     1       4.520   2.488  36.661  1.00  0.00     0.168 C 
ENDBRANCH   4  39
TORSDOF 12
ENDMDL
MODEL 3
REMARK VINA RESULT: -7.952393290      0.964      1.216
REMARK  12 active torsions:
REMARK  status: ('A' for Active; 'I' for Inactive)
REMARK    1  A    between atoms: O1_2  and  C2_3 
REMARK    2  A    between atoms: C4_5  and  C5_6 
REMARK       I    between atoms: C5_6  and  N1_8 
REMARK    3  A    between atoms: N1_8  and  C6_10 
REMARK    4  A    between atoms: C6_10  and  C7_11 
REMARK    5  A    between atoms: C8_14  and  O4_15 
REMARK    6  A    between atoms: O4_15  and  C9_16 
REMARK    7  A    between atoms: C9_16  and  C10_17 
REMARK    8  A    between atoms: C10_17  and  C11_18 
REMARK    9  A    between atoms: C15_23  and  O5_24 
REMARK   10  A    between atoms: C16_26  and  N3_27 
REMARK   11  A    between atoms: N3_27  and  C17_28 
REMARK   12  A    between atoms: C18_31  and  N5_32 
ROOT
HETATM    1  C17 UNL     1       4.226   1.218  40.558  1.00  0.00     0.218 A 
HETATM    2  N4  UNL     1       2.922   1.618  40.457  1.00  0.00    -0.163 N 
ATOM      3  H4  UNL     1       2.263   1.262  41.150  1.00  0.00     0.187 HD
HETATM    4  C18 UNL     1       2.448   2.438  39.523  1.00  0.00     0.683 A 
HETATM    5  N6  UNL     1       3.334   2.894  38.622  1.00  0.00    -0.177 N 
ATOM      6  H6  UNL     1       3.002   3.525  37.893  1.00  0.00     0.185 HD
HETATM    7  C21 UNL     1       4.635   2.562  38.632  1.00  0.00     0.157 A 
HETATM    8  N7  UNL     1       5.517   3.079  37.650  1.00  0.00    -0.080 NA
HETATM    9  C22 UNL     1       5.113   1.719  39.596  1.00  0.00     0.144 A 
HETATM   10  C23 UNL     1       6.506   1.351  39.624  1.00  0.00     0.108 C 
HETATM   11  N8  UNL     1       7.635   1.059  39.662  1.00  0.00    -0.191 NA
ENDROOT
BRANCH   1  12
HETATM   12  N3  UNL     1       4.590   0.493  41.401  1.00  0.00    -0.379 NA
BRANCH  12  13
HETATM   13  C16 UNL     1       4.998  -0.332  42.353  1.00  0.00     0.178 A 
HETATM   14  C2  UNL     1       6.058  -0.035  43.202  1.00  0.00     0.113 A 
HETATM   15  C3  UNL     1       6.418  -0.918  44.161  1.00  0.00     0.060 A 
HETATM   16  C4  UNL     1       5.769  -2.167  44.369  1.00  0.00     0.071 A 
HETATM   17  C8  UNL     1       4.723  -2.428  43.498  1.00  0.00     0.121 A 
HETATM   18  C15 UNL     1       4.325  -1.567  42.522  1.00  0.00     0.144 A 
BRANCH  14  19
HETATM   19  O1  UNL     1       6.686   1.188  42.989  1.00  0.00    -0.352 OA
HETATM   20  C1  UNL     1       7.760   1.509  43.854  1.00  0.00     0.210 C 
ENDBRANCH  14  19
BRANCH  16  21
HETATM   21  C5  UNL     1       6.166  -2.901  45.528  1.00  0.00     0.255 C 
HETATM   22  O2  UNL     1       6.037  -2.327  46.686  1.00  0.00    -0.268 OA
HETATM   23  N1  UNL     1       6.699  -4.178  45.615  1.00  0.00    -0.348 N 
ATOM     24  H1  UNL     1       6.826  -4.730  44.767  1.00  0.00     0.163 HD
BRANCH  23  25
HETATM   25  C6  UNL     1       7.084  -4.751  46.923  1.00  0.00     0.222 C 
BRANCH  25  26
HETATM   26  C7  UNL     1       7.828  -5.989  46.670  1.00  0.00     0.248 C 
HETATM   27  N2  UNL     1       9.236  -6.011  46.801  1.00  0.00    -0.061 NA
HETATM   28  O3  UNL     1       7.227  -7.030  46.341  1.00  0.00    -0.275 OA
ENDBRANCH  25  26
ENDBRANCH  23  25
ENDBRANCH  16  21
BRANCH  17  29
HETATM   29  O4  UNL     1       4.104  -3.673  43.690  1.00  0.00    -0.347 OA
BRANCH  29  30
HETATM   30  C9  UNL     1       3.041  -3.880  44.551  1.00  0.00     0.179 C 
BRANCH  30  31
HETATM   31  C10 UNL     1       1.773  -3.194  44.521  1.00  0.00     0.070 C 
BRANCH  31  32
HETATM   32  C11 UNL     1       1.632  -1.826  45.095  1.00  0.00     0.109 A 
HETATM   33  F1  UNL     1       2.665  -1.267  45.779  1.00  0.00    -0.242 F 
HETATM   34  C12 UNL     1       0.986  -0.801  44.128  1.00  0.00     0.051 A 
HETATM   35  C13 UNL     1       0.288  -1.250  45.362  1.00  0.00     0.024 A 
HETATM   36  C14 UNL     1      -0.960  -2.053  45.154  1.00  0.00     0.013 C 
ENDBRANCH  31  32
ENDBRANCH  30  31
ENDBRANCH  29  30
ENDBRANCH  17  29
BRANCH  18  37
HETATM   37  O5  UNL     1       3.265  -1.837  41.659  1.00  0.00    -0.355 OA
ATOM     38  H5  UNL     1       2.483  -1.299  41.616  1.00  0.00     0.218 HD
ENDBRANCH  18  37
ENDBRANCH  12  13
ENDBRANCH   1  12
BRANCH   4  39
HETATM   39  N5  UNL     1       1.067   2.823  39.469  1.00  0.00    -0.226 N 
HETATM   40  C19 UNL     1       0.046   1.994  38.898  1.00  0.00     0.168 C 
HETATM   41  C20 UNL     1       0.708   4.109  40.019  1.00  0.00     0.168 C 
ENDBRANCH   4  39
TORSDOF 12
ENDMDL
MODEL 4
REMARK VINA RESULT: -7.938585940      1.918      3.336
REMARK  12 active torsions:
REMARK  status: ('A' for Active; 'I' for Inactive)
REMARK    1  A    between atoms: O1_2  and  C2_3 
REMARK    2  A    between atoms: C4_5  and  C5_6 
REMARK       I    between atoms: C5_6  and  N1_8 
REMARK    3  A    between atoms: N1_8  and  C6_10 
REMARK    4  A    between atoms: C6_10  and  C7_11 
REMARK    5  A    between atoms: C8_14  and  O4_15 
REMARK    6  A    between atoms: O4_15  and  C9_16 
REMARK    7  A    between atoms: C9_16  and  C10_17 
REMARK    8  A    between atoms: C10_17  and  C11_18 
REMARK    9  A    between atoms: C15_23  and  O5_24 
REMARK   10  A    between atoms: C16_26  and  N3_27 
REMARK   11  A    between atoms: N3_27  and  C17_28 
REMARK   12  A    between atoms: C18_31  and  N5_32 
ROOT
HETATM    1  C17 UNL     1       4.136   0.762  41.025  1.00  0.00     0.218 A 
HETATM    2  N4  UNL     1       4.793   1.092  39.871  1.00  0.00    -0.163 N 
ATOM      3  H4  UNL     1       5.634   0.564  39.637  1.00  0.00     0.187 HD
HETATM    4  C18 UNL     1       4.415   2.052  39.030  1.00  0.00     0.683 A 
HETATM    5  N6  UNL     1       3.305   2.733  39.359  1.00  0.00    -0.177 N 
ATOM      6  H6  UNL     1       2.991   3.475  38.734  1.00  0.00     0.185 HD
HETATM    7  C21 UNL     1       2.589   2.488  40.468  1.00  0.00     0.157 A 
HETATM    8  N7  UNL     1       1.426   3.246  40.756  1.00  0.00    -0.080 NA
HETATM    9  C22 UNL     1       2.985   1.499  41.326  1.00  0.00     0.144 A 
HETATM   10  C23 UNL     1       2.229   1.221  42.521  1.00  0.00     0.108 C 
HETATM   11  N8  UNL     1       1.615   0.980  43.483  1.00  0.00    -0.191 NA
ENDROOT
BRANCH   1  12
HETATM   12  N3  UNL     1       4.512  -0.093  41.731  1.00  0.00    -0.379 NA
BRANCH  12  13
HETATM   13  C16 UNL     1       4.935  -1.063  42.526  1.00  0.00     0.178 A 
HETATM   14  C2  UNL     1       6.130  -0.989  43.233  1.00  0.00     0.113 A 
HETATM   15  C3  UNL     1       6.499  -2.012  44.037  1.00  0.00     0.060 A 
HETATM   16  C4  UNL     1       5.728  -3.194  44.215  1.00  0.00     0.071 A 
HETATM   17  C8  UNL     1       4.549  -3.232  43.489  1.00  0.00     0.121 A 
HETATM   18  C15 UNL     1       4.137  -2.224  42.672  1.00  0.00     0.144 A 
BRANCH  14  19
HETATM   19  O1  UNL     1       6.876   0.170  43.050  1.00  0.00    -0.352 OA
HETATM   20  C1  UNL     1       7.160   0.933  44.209  1.00  0.00     0.210 C 
ENDBRANCH  14  19
BRANCH  16  21
HETATM   21  C5  UNL     1       6.181  -4.097  45.225  1.00  0.00     0.255 C 
HETATM   22  O2  UNL     1       6.395  -3.623  46.415  1.00  0.00    -0.268 OA
HETATM   23  N1  UNL     1       6.448  -5.455  45.130  1.00  0.00    -0.348 N 
ATOM     24  H1  UNL     1       6.295  -5.937  44.244  1.00  0.00     0.163 HD
BRANCH  23  25
HETATM   25  C6  UNL     1       6.950  -6.212  46.296  1.00  0.00     0.222 C 
BRANCH  25  26
HETATM   26  C7  UNL     1       8.323  -6.635  46.000  1.00  0.00     0.248 C 
HETATM   27  N2  UNL     1       8.567  -7.606  45.000  1.00  0.00    -0.061 NA
HETATM   28  O3  UNL     1       9.283  -6.143  46.623  1.00  0.00    -0.275 OA
ENDBRANCH  25  26
ENDBRANCH  23  25
ENDBRANCH  16  21
BRANCH  17  29
HETATM   29  O4  UNL     1       3.805  -4.412  43.648  1.00  0.00    -0.347 OA
BRANCH  29  30
HETATM   30  C9  UNL     1       2.770  -4.553  44.554  1.00  0.00     0.179 C 
BRANCH  30  31
HETATM   31  C10 UNL     1       2.736  -5.457  45.677  1.00  0.00     0.070 C 
BRANCH  31  32
HETATM   32  C11 UNL     1       2.045  -6.773  45.578  1.00  0.00     0.109 A 
HETATM   33  F1  UNL     1       1.484  -7.158  44.400  1.00  0.00    -0.242 F 
HETATM   34  C12 UNL     1       2.823  -7.944  46.232  1.00  0.00     0.051 A 
HETATM   35  C13 UNL     1       1.535  -7.457  46.795  1.00  0.00     0.024 A 
HETATM   36  C14 UNL     1       1.613  -6.808  48.144  1.00  0.00     0.013 C 
ENDBRANCH  31  32
ENDBRANCH  30  31
ENDBRANCH  29  30
ENDBRANCH  17  29
BRANCH  18  37
HETATM   37  O5  UNL     1       2.944  -2.270  41.954  1.00  0.00    -0.355 OA
ATOM     38  H5  UNL     1       2.618  -1.537  41.445  1.00  0.00     0.218 HD
ENDBRANCH  18  37
ENDBRANCH  12  13
ENDBRANCH   1  12
BRANCH   4  39
HETATM   39  N5  UNL     1       5.147   2.353  37.833  1.00  0.00    -0.226 N 
HETATM   40  C19 UNL     1       6.536   2.701  37.832  1.00  0.00     0.168 C 
HETATM   41  C20 UNL     1       4.430   2.298  36.579  1.00  0.00     0.168 C 
ENDBRANCH   4  39
TORSDOF 12
ENDMDL
MODEL 5
REMARK VINA RESULT: -7.920825646      1.597      2.168
REMARK  12 active torsions:
REMARK  status: ('A' for Active; 'I' for Inactive)
REMARK    1  A    between atoms: O1_2  and  C2_3 
REMARK    2  A    between atoms: C4_5  and  C5_6 
REMARK       I    between atoms: C5_6  and  N1_8 
REMARK    3  A    between atoms: N1_8  and  C6_10 
REMARK    4  A    between atoms: C6_10  and  C7_11 
REMARK    5  A    between atoms: C8_14  and  O4_15 
REMARK    6  A    between atoms: O4_15  and  C9_16 
REMARK    7  A    between atoms: C9_16  and  C10_17 
REMARK    8  A    between atoms: C10_17  and  C11_18 
REMARK    9  A    between atoms: C15_23  and  O5_24 
REMARK   10  A    between atoms: C16_26  and  N3_27 
REMARK   11  A    between atoms: N3_27  and  C17_28 
REMARK   12  A    between atoms: C18_31  and  N5_32 
ROOT
HETATM    1  C17 UNL     1       4.271   1.100  40.690  1.00  0.00     0.218 A 
HETATM    2  N4  UNL     1       2.957   1.475  40.610  1.00  0.00    -0.163 N 
ATOM      3  H4  UNL     1       2.312   1.088  41.299  1.00  0.00     0.187 HD
HETATM    4  C18 UNL     1       2.459   2.307  39.699  1.00  0.00     0.683 A 
HETATM    5  N6  UNL     1       3.327   2.803  38.802  1.00  0.00    -0.177 N 
ATOM      6  H6  UNL     1       2.975   3.444  38.092  1.00  0.00     0.185 HD
HETATM    7  C21 UNL     1       4.635   2.499  38.794  1.00  0.00     0.157 A 
HETATM    8  N7  UNL     1       5.498   3.058  37.818  1.00  0.00    -0.080 NA
HETATM    9  C22 UNL     1       5.138   1.643  39.734  1.00  0.00     0.144 A 
HETATM   10  C23 UNL     1       6.539   1.304  39.741  1.00  0.00     0.108 C 
HETATM   11  N8  UNL     1       7.674   1.036  39.763  1.00  0.00    -0.191 NA
ENDROOT
BRANCH   1  12
HETATM   12  N3  UNL     1       4.657   0.362  41.512  1.00  0.00    -0.379 NA
BRANCH  12  13
HETATM   13  C16 UNL     1       5.096  -0.476  42.438  1.00  0.00     0.178 A 
HETATM   14  C2  UNL     1       6.062  -0.124  43.373  1.00  0.00     0.113 A 
HETATM   15  C3  UNL     1       6.460  -1.026  44.300  1.00  0.00     0.060 A 
HETATM   16  C4  UNL     1       5.943  -2.348  44.388  1.00  0.00     0.071 A 
HETATM   17  C8  UNL     1       4.988  -2.662  43.434  1.00  0.00     0.121 A 
HETATM   18  C15 UNL     1       4.556  -1.785  42.487  1.00  0.00     0.144 A 
BRANCH  14  19
HETATM   19  O1  UNL     1       6.561   1.171  43.278  1.00  0.00    -0.352 OA
HETATM   20  C1  UNL     1       7.680   1.482  44.087  1.00  0.00     0.210 C 
ENDBRANCH  14  19
BRANCH  16  21
HETATM   21  C5  UNL     1       6.349  -3.111  45.525  1.00  0.00     0.255 C 
HETATM   22  O2  UNL     1       6.284  -2.545  46.692  1.00  0.00    -0.268 OA
HETATM   23  N1  UNL     1       6.830  -4.411  45.581  1.00  0.00    -0.348 N 
ATOM     24  H1  UNL     1       6.905  -4.957  44.724  1.00  0.00     0.163 HD
BRANCH  23  25
HETATM   25  C6  UNL     1       7.236  -5.014  46.869  1.00  0.00     0.222 C 
BRANCH  25  26
HETATM   26  C7  UNL     1       8.160  -6.115  46.578  1.00  0.00     0.248 C 
HETATM   27  N2  UNL     1       7.690  -7.286  45.938  1.00  0.00    -0.061 NA
HETATM   28  O3  UNL     1       9.363  -6.028  46.889  1.00  0.00    -0.275 OA
ENDBRANCH  25  26
ENDBRANCH  23  25
ENDBRANCH  16  21
BRANCH  17  29
HETATM   29  O4  UNL     1       4.502  -3.976  43.508  1.00  0.00    -0.347 OA
BRANCH  29  30
HETATM   30  C9  UNL     1       3.297  -4.319  44.095  1.00  0.00     0.179 C 
BRANCH  30  31
HETATM   31  C10 UNL     1       3.099  -4.722  45.465  1.00  0.00     0.070 C 
BRANCH  31  32
HETATM   32  C11 UNL     1       3.244  -6.148  45.871  1.00  0.00     0.109 A 
HETATM   33  F1  UNL     1       4.478  -6.717  45.925  1.00  0.00    -0.242 F 
HETATM   34  C12 UNL     1       2.396  -6.540  47.108  1.00  0.00     0.051 A 
HETATM   35  C13 UNL     1       2.099  -7.089  45.758  1.00  0.00     0.024 A 
HETATM   36  C14 UNL     1       0.797  -6.663  45.149  1.00  0.00     0.013 C 
ENDBRANCH  31  32
ENDBRANCH  30  31
ENDBRANCH  29  30
ENDBRANCH  17  29
BRANCH  18  37
HETATM   37  O5  UNL     1       3.587  -2.109  41.539  1.00  0.00    -0.355 OA
ATOM     38  H5  UNL     1       3.643  -2.879  40.985  1.00  0.00     0.218 HD
ENDBRANCH  18  37
ENDBRANCH  12  13
ENDBRANCH   1  12
BRANCH   4  39
HETATM   39  N5  UNL     1       1.069   2.664  39.665  1.00  0.00    -0.226 N 
HETATM   40  C19 UNL     1       0.074   1.871  39.006  1.00  0.00     0.168 C 
HETATM   41  C20 UNL     1       0.674   3.883  40.333  1.00  0.00     0.168 C 
ENDBRANCH   4  39
TORSDOF 12
ENDMDL
