MODEL 1
REMARK VINA RESULT: -6.171450284      0.000      0.000
REMARK  7 active torsions:
REMARK  status: ('A' for Active; 'I' for Inactive)
REMARK    1  A    between atoms: O1_2  and  C2_3 
REMARK    2  A    between atoms: C2_3  and  C3_5 
REMARK    3  A    between atoms: C3_5  and  C5_7 
REMARK    4  A    between atoms: C5_7  and  O3_8 
REMARK    5  A    between atoms: C5_7  and  C7_10 
REMARK    6  A    between atoms: C12_18  and  C13_19 
REMARK    7  A    between atoms: C13_19  and  C14_20 
ROOT
HETATM    1  C7  UNL     1       7.436  52.187  21.303  1.00  0.00     0.022 C 
HETATM    2  C8  UNL     1       6.120  52.040  20.557  1.00  0.00     0.009 C 
HETATM    3  C9  UNL     1       6.056  50.739  19.744  1.00  0.00     0.014 C 
HETATM    4  C10 UNL     1       7.400  50.320  19.524  1.00  0.00     0.018 C 
HETATM    5  C11 UNL     1       7.849  49.172  18.739  1.00  0.00     0.245 C 
HETATM    6  N1  UNL     1       9.185  49.568  19.234  1.00  0.00    -0.064 N 
ATOM      7  H11 UNL     1       9.811  50.174  18.703  1.00  0.00     0.278 HD
ATOM      8  H12 UNL     1       9.965  48.913  19.298  1.00  0.00     0.278 HD
HETATM    9  C12 UNL     1       8.421  50.046  20.446  1.00  0.00     0.139 C 
HETATM   10  C15 UNL     1       8.576  51.561  20.593  1.00  0.00     0.030 C 
HETATM   11  C16 UNL     1       8.192  51.587  19.104  1.00  0.00     0.021 C 
ENDROOT
BRANCH   1  12
HETATM   12  C5  UNL     1       7.655  53.648  21.601  1.00  0.00     0.138 C 
BRANCH  12  13
HETATM   13  C3  UNL     1       8.600  53.766  22.759  1.00  0.00     0.111 C 
HETATM   14  C4  UNL     1       8.649  52.466  23.532  1.00  0.00     0.023 C 
BRANCH  13  15
HETATM   15  C2  UNL     1       8.196  54.786  23.753  1.00  0.00     0.264 C 
HETATM   16  O2  UNL     1       7.015  54.785  24.180  1.00  0.00    -0.265 OA
BRANCH  15  17
HETATM   17  O1  UNL     1       9.057  55.746  24.240  1.00  0.00    -0.326 OA
HETATM   18  C1  UNL     1       8.952  57.074  23.758  1.00  0.00     0.213 C 
ENDBRANCH  15  17
ENDBRANCH  13  15
ENDBRANCH  12  13
BRANCH  12  19
HETATM   19  O3  UNL     1       7.888  54.458  20.549  1.00  0.00    -0.389 OA
HETATM   20  C6  UNL     1       7.205  55.589  20.372  1.00  0.00     0.202 C 
ENDBRANCH  12  19
ENDBRANCH   1  12
BRANCH   9  21
HETATM   21  C13 UNL     1       8.696  49.178  21.527  1.00  0.00     0.051 C 
BRANCH  21  22
HETATM   22  C14 UNL     1       7.814  48.796  22.623  1.00  0.00     0.088 C 
HETATM   23  S1  UNL     1       8.564  48.740  24.271  1.00  0.00    -0.098 SA
ENDBRANCH  21  22
ENDBRANCH   9  21
TORSDOF 7
ENDMDL
MODEL 2
REMARK VINA RESULT: -5.944974782      1.189      1.946
REMARK  7 active torsions:
REMARK  status: ('A' for Active; 'I' for Inactive)
REMARK    1  A    between atoms: O1_2  and  C2_3 
REMARK    2  A    between atoms: C2_3  and  C3_5 
REMARK    3  A    between atoms: C3_5  and  C5_7 
REMARK    4  A    between atoms: C5_7  and  O3_8 
REMARK    5  A    between atoms: C5_7  and  C7_10 
REMARK    6  A    between atoms: C12_18  and  C13_19 
REMARK    7  A    between atoms: C13_19  and  C14_20 
ROOT
HETATM    1  C7  UNL     1       7.426  52.096  21.406  1.00  0.00     0.022 C 
HETATM    2  C8  UNL     1       6.261  52.250  20.442  1.00  0.00     0.009 C 
HETATM    3  C9  UNL     1       6.124  51.045  19.501  1.00  0.00     0.014 C 
HETATM    4  C10 UNL     1       7.395  50.399  19.464  1.00  0.00     0.018 C 
HETATM    5  C11 UNL     1       7.775  49.247  18.651  1.00  0.00     0.245 C 
HETATM    6  N1  UNL     1       9.048  49.352  19.397  1.00  0.00    -0.064 N 
ATOM      7  H11 UNL     1       9.853  49.867  19.042  1.00  0.00     0.278 HD
ATOM      8  H12 UNL     1       9.680  48.560  19.521  1.00  0.00     0.278 HD
HETATM    9  C12 UNL     1       8.170  49.877  20.508  1.00  0.00     0.139 C 
HETATM   10  C15 UNL     1       8.552  51.322  20.833  1.00  0.00     0.030 C 
HETATM   11  C16 UNL     1       8.453  51.524  19.312  1.00  0.00     0.021 C 
ENDROOT
BRANCH   1  12
HETATM   12  C5  UNL     1       7.834  53.466  21.884  1.00  0.00     0.138 C 
BRANCH  12  13
HETATM   13  C3  UNL     1       7.067  54.494  21.109  1.00  0.00     0.111 C 
HETATM   14  C4  UNL     1       7.980  55.212  20.139  1.00  0.00     0.023 C 
BRANCH  13  15
HETATM   15  C2  UNL     1       6.489  55.565  21.952  1.00  0.00     0.264 C 
HETATM   16  O2  UNL     1       5.316  55.435  22.381  1.00  0.00    -0.265 OA
BRANCH  15  17
HETATM   17  O1  UNL     1       7.177  56.709  22.297  1.00  0.00    -0.326 OA
HETATM   18  C1  UNL     1       7.194  57.121  23.651  1.00  0.00     0.213 C 
ENDBRANCH  15  17
ENDBRANCH  13  15
ENDBRANCH  12  13
BRANCH  12  19
HETATM   19  O3  UNL     1       7.911  53.650  23.216  1.00  0.00    -0.389 OA
HETATM   20  C6  UNL     1       9.080  53.815  23.836  1.00  0.00     0.202 C 
ENDBRANCH  12  19
ENDBRANCH   1  12
BRANCH   9  21
HETATM   21  C13 UNL     1       8.093  48.898  21.526  1.00  0.00     0.051 C 
BRANCH  21  22
HETATM   22  C14 UNL     1       9.079  48.588  22.554  1.00  0.00     0.088 C 
HETATM   23  S1  UNL     1       8.792  49.322  24.185  1.00  0.00    -0.098 SA
ENDBRANCH  21  22
ENDBRANCH   9  21
TORSDOF 7
ENDMDL
MODEL 3
REMARK VINA RESULT: -5.839902397      2.951      4.604
REMARK  7 active torsions:
REMARK  status: ('A' for Active; 'I' for Inactive)
REMARK    1  A    between atoms: O1_2  and  C2_3 
REMARK    2  A    between atoms: C2_3  and  C3_5 
REMARK    3  A    between atoms: C3_5  and  C5_7 
REMARK    4  A    between atoms: C5_7  and  O3_8 
REMARK    5  A    between atoms: C5_7  and  C7_10 
REMARK    6  A    between atoms: C12_18  and  C13_19 
REMARK    7  A    between atoms: C13_19  and  C14_20 
ROOT
HETATM    1  C7  UNL     1       7.571  50.853  20.510  1.00  0.00     0.022 C 
HETATM    2  C8  UNL     1       6.238  51.582  20.483  1.00  0.00     0.009 C 
HETATM    3  C9  UNL     1       5.882  52.089  19.078  1.00  0.00     0.014 C 
HETATM    4  C10 UNL     1       7.102  52.175  18.346  1.00  0.00     0.018 C 
HETATM    5  C11 UNL     1       7.280  52.673  16.985  1.00  0.00     0.245 C 
HETATM    6  N1  UNL     1       8.680  52.243  17.189  1.00  0.00    -0.064 N 
ATOM      7  H11 UNL     1       9.409  52.877  17.516  1.00  0.00     0.278 HD
ATOM      8  H12 UNL     1       9.305  52.014  16.414  1.00  0.00     0.278 HD
HETATM    9  C12 UNL     1       8.060  51.188  18.074  1.00  0.00     0.139 C 
HETATM   10  C15 UNL     1       8.537  51.375  19.516  1.00  0.00     0.030 C 
HETATM   11  C16 UNL     1       8.135  52.842  19.291  1.00  0.00     0.021 C 
ENDROOT
BRANCH   1  12
HETATM   12  C5  UNL     1       8.101  50.879  21.921  1.00  0.00     0.138 C 
BRANCH  12  13
HETATM   13  C3  UNL     1       8.674  49.533  22.245  1.00  0.00     0.111 C 
HETATM   14  C4  UNL     1       7.965  48.455  21.454  1.00  0.00     0.023 C 
BRANCH  13  15
HETATM   15  C2  UNL     1       8.505  49.141  23.662  1.00  0.00     0.264 C 
HETATM   16  O2  UNL     1       9.286  49.620  24.522  1.00  0.00    -0.265 OA
BRANCH  15  17
HETATM   17  O1  UNL     1       7.527  48.271  24.093  1.00  0.00    -0.326 OA
HETATM   18  C1  UNL     1       7.884  47.204  24.953  1.00  0.00     0.213 C 
ENDBRANCH  15  17
ENDBRANCH  13  15
ENDBRANCH  12  13
BRANCH  12  19
HETATM   19  O3  UNL     1       8.839  51.949  22.275  1.00  0.00    -0.389 OA
HETATM   20  C6  UNL     1       8.393  52.850  23.151  1.00  0.00     0.202 C 
ENDBRANCH  12  19
ENDBRANCH   1  12
BRANCH   9  21
HETATM   21  C13 UNL     1       8.168  49.934  17.430  1.00  0.00     0.051 C 
BRANCH  21  22
HETATM   22  C14 UNL     1       7.115  49.158  16.787  1.00  0.00     0.088 C 
HETATM   23  S1  UNL     1       5.685  48.742  17.817  1.00  0.00    -0.098 SA
ENDBRANCH  21  22
ENDBRANCH   9  21
TORSDOF 7
ENDMDL
MODEL 4
REMARK VINA RESULT: -5.834535756      3.159      4.749
REMARK  7 active torsions:
REMARK  status: ('A' for Active; 'I' for Inactive)
REMARK    1  A    between atoms: O1_2  and  C2_3 
REMARK    2  A    between atoms: C2_3  and  C3_5 
REMARK    3  A    between atoms: C3_5  and  C5_7 
REMARK    4  A    between atoms: C5_7  and  O3_8 
REMARK    5  A    between atoms: C5_7  and  C7_10 
REMARK    6  A    between atoms: C12_18  and  C13_19 
REMARK    7  A    between atoms: C13_19  and  C14_20 
ROOT
HETATM    1  C7  UNL     1       7.815  51.121  20.766  1.00  0.00     0.022 C 
HETATM    2  C8  UNL     1       6.328  50.811  20.729  1.00  0.00     0.009 C 
HETATM    3  C9  UNL     1       5.683  51.222  19.397  1.00  0.00     0.014 C 
HETATM    4  C10 UNL     1       6.531  52.207  18.812  1.00  0.00     0.018 C 
HETATM    5  C11 UNL     1       6.298  52.947  17.574  1.00  0.00     0.245 C 
HETATM    6  N1  UNL     1       7.648  53.490  17.841  1.00  0.00    -0.064 N 
ATOM      7  H11 UNL     1       7.799  54.368  18.337  1.00  0.00     0.278 HD
ATOM      8  H12 UNL     1       8.245  53.867  17.105  1.00  0.00     0.278 HD
HETATM    9  C12 UNL     1       7.891  52.142  18.478  1.00  0.00     0.139 C 
HETATM   10  C15 UNL     1       8.177  52.317  19.970  1.00  0.00     0.030 C 
HETATM   11  C16 UNL     1       6.912  53.190  19.950  1.00  0.00     0.021 C 
ENDROOT
BRANCH   1  12
HETATM   12  C5  UNL     1       8.247  51.217  22.207  1.00  0.00     0.138 C 
BRANCH  12  13
HETATM   13  C3  UNL     1       8.923  49.937  22.594  1.00  0.00     0.111 C 
HETATM   14  C4  UNL     1       8.978  48.993  21.413  1.00  0.00     0.023 C 
BRANCH  13  15
HETATM   15  C2  UNL     1       8.210  49.184  23.651  1.00  0.00     0.264 C 
HETATM   16  O2  UNL     1       8.480  49.422  24.854  1.00  0.00    -0.265 OA
BRANCH  15  17
HETATM   17  O1  UNL     1       7.255  48.227  23.382  1.00  0.00    -0.326 OA
HETATM   18  C1  UNL     1       7.425  46.920  23.899  1.00  0.00     0.213 C 
ENDBRANCH  15  17
ENDBRANCH  13  15
ENDBRANCH  12  13
BRANCH  12  19
HETATM   19  O3  UNL     1       8.855  52.358  22.588  1.00  0.00    -0.389 OA
HETATM   20  C6  UNL     1       8.256  53.238  23.390  1.00  0.00     0.202 C 
ENDBRANCH  12  19
ENDBRANCH   1  12
BRANCH   9  21
HETATM   21  C13 UNL     1       8.766  51.401  17.651  1.00  0.00     0.051 C 
BRANCH  21  22
HETATM   22  C14 UNL     1       8.672  49.998  17.267  1.00  0.00     0.088 C 
HETATM   23  S1  UNL     1       7.418  49.588  16.027  1.00  0.00    -0.098 SA
ENDBRANCH  21  22
ENDBRANCH   9  21
TORSDOF 7
ENDMDL
MODEL 5
REMARK VINA RESULT: -5.705665485      3.495      5.178
REMARK  7 active torsions:
REMARK  status: ('A' for Active; 'I' for Inactive)
REMARK    1  A    between atoms: O1_2  and  C2_3 
REMARK    2  A    between atoms: C2_3  and  C3_5 
REMARK    3  A    between atoms: C3_5  and  C5_7 
REMARK    4  A    between atoms: C5_7  and  O3_8 
REMARK    5  A    between atoms: C5_7  and  C7_10 
REMARK    6  A    between atoms: C12_18  and  C13_19 
REMARK    7  A    between atoms: C13_19  and  C14_20 
ROOT
HETATM    1  C7  UNL     1       8.453  50.148  20.787  1.00  0.00     0.022 C 
HETATM    2  C8  UNL     1       9.062  49.498  19.556  1.00  0.00     0.009 C 
HETATM    3  C9  UNL     1       8.441  50.024  18.254  1.00  0.00     0.014 C 
HETATM    4  C10 UNL     1       7.166  50.566  18.591  1.00  0.00     0.018 C 
HETATM    5  C11 UNL     1       6.174  51.120  17.674  1.00  0.00     0.245 C 
HETATM    6  N1  UNL     1       5.445  51.439  18.921  1.00  0.00    -0.064 N 
ATOM      7  H11 UNL     1       4.735  50.822  19.316  1.00  0.00     0.278 HD
ATOM      8  H12 UNL     1       4.749  52.183  18.978  1.00  0.00     0.278 HD
HETATM    9  C12 UNL     1       6.829  51.569  19.511  1.00  0.00     0.139 C 
HETATM   10  C15 UNL     1       7.030  50.517  20.602  1.00  0.00     0.030 C 
HETATM   11  C16 UNL     1       6.492  49.542  19.542  1.00  0.00     0.021 C 
ENDROOT
BRANCH   1  12
HETATM   12  C5  UNL     1       8.680  49.241  21.969  1.00  0.00     0.138 C 
BRANCH  12  13
HETATM   13  C3  UNL     1       8.216  49.941  23.209  1.00  0.00     0.111 C 
HETATM   14  C4  UNL     1       8.831  51.321  23.296  1.00  0.00     0.023 C 
BRANCH  13  15
HETATM   15  C2  UNL     1       8.621  49.263  24.461  1.00  0.00     0.264 C 
HETATM   16  O2  UNL     1       9.827  49.300  24.810  1.00  0.00    -0.265 OA
BRANCH  15  17
HETATM   17  O1  UNL     1       7.736  48.587  25.274  1.00  0.00    -0.326 OA
HETATM   18  C1  UNL     1       7.882  47.188  25.438  1.00  0.00     0.213 C 
ENDBRANCH  15  17
ENDBRANCH  13  15
ENDBRANCH  12  13
BRANCH  12  19
HETATM   19  O3  UNL     1       8.309  47.953  21.830  1.00  0.00    -0.389 OA
HETATM   20  C6  UNL     1       9.063  46.953  22.287  1.00  0.00     0.202 C 
ENDBRANCH  12  19
ENDBRANCH   1  12
BRANCH   9  21
HETATM   21  C13 UNL     1       7.088  52.936  19.761  1.00  0.00     0.051 C 
BRANCH  21  22
HETATM   22  C14 UNL     1       7.039  53.644  21.035  1.00  0.00     0.088 C 
HETATM   23  S1  UNL     1       5.785  54.943  21.182  1.00  0.00    -0.098 SA
ENDBRANCH  21  22
ENDBRANCH   9  21
TORSDOF 7
ENDMDL
