MODEL 1
REMARK VINA RESULT: -5.279604259      0.000      0.000
REMARK  5 active torsions:
REMARK  status: ('A' for Active; 'I' for Inactive)
REMARK    1  A    between atoms: N1_1  and  C1_5 
REMARK    2  A    between atoms: C1_5  and  C2_6 
REMARK    3  A    between atoms: C2_6  and  C3_7 
REMARK    4  A    between atoms: C3_7  and  N2_8 
REMARK    5  A    between atoms: C8_13  and  O1_14 
ROOT
HETATM    1  N2  UNL     1     -18.024 -14.057  16.074  1.00  0.00    -0.388 N 
HETATM    2  C4  UNL     1     -18.323 -14.446  14.748  1.00  0.00     0.119 C 
HETATM    3  C5  UNL     1     -18.080 -13.388  13.707  1.00  0.00     0.020 C 
HETATM    4  C6  UNL     1     -18.590 -12.033  14.101  1.00  0.00     0.006 C 
HETATM    5  C7  UNL     1     -19.179 -12.026  15.507  1.00  0.00     0.053 C 
HETATM    6  C8  UNL     1     -18.131 -12.676  16.388  1.00  0.00     0.215 C 
ENDROOT
BRANCH   1   7
HETATM    7  C3  UNL     1     -16.865 -14.632  16.658  1.00  0.00     0.121 C 
BRANCH   7   8
HETATM    8  C2  UNL     1     -16.552 -16.013  16.114  1.00  0.00     0.046 C 
BRANCH   8   9
HETATM    9  C1  UNL     1     -15.100 -16.130  15.718  1.00  0.00     0.231 C 
BRANCH   9  10
HETATM   10  N1  UNL     1     -14.900 -15.803  14.320  1.00  0.00    -0.079 N 
ATOM     11  H13 UNL     1     -15.488 -15.020  14.033  1.00  0.00     0.274 HD
ATOM     12  H12 UNL     1     -13.986 -15.380  14.162  1.00  0.00     0.274 HD
ATOM     13  H11 UNL     1     -15.043 -16.615  13.719  1.00  0.00     0.274 HD
ENDBRANCH   9  10
ENDBRANCH   8   9
ENDBRANCH   7   8
ENDBRANCH   1   7
BRANCH   6  14
HETATM   14  O1  UNL     1     -16.914 -12.054  16.104  1.00  0.00    -0.377 OA
ATOM     15  H1  UNL     1     -17.087 -11.192  15.746  1.00  0.00     0.212 HD
ENDBRANCH   6  14
TORSDOF 5
ENDMDL
MODEL 2
REMARK VINA RESULT: -5.098167386      1.194      1.194
REMARK  5 active torsions:
REMARK  status: ('A' for Active; 'I' for Inactive)
REMARK    1  A    between atoms: N1_1  and  C1_5 
REMARK    2  A    between atoms: C1_5  and  C2_6 
REMARK    3  A    between atoms: C2_6  and  C3_7 
REMARK    4  A    between atoms: C3_7  and  N2_8 
REMARK    5  A    between atoms: C8_13  and  O1_14 
ROOT
HETATM    1  N2  UNL     1     -18.236 -13.967  16.377  1.00  0.00    -0.388 N 
HETATM    2  C4  UNL     1     -18.414 -14.573  15.113  1.00  0.00     0.119 C 
HETATM    3  C5  UNL     1     -17.923 -13.762  13.946  1.00  0.00     0.020 C 
HETATM    4  C6  UNL     1     -18.316 -12.315  14.017  1.00  0.00     0.006 C 
HETATM    5  C7  UNL     1     -19.068 -11.985  15.300  1.00  0.00     0.053 C 
HETATM    6  C8  UNL     1     -18.219 -12.548  16.424  1.00  0.00     0.215 C 
ENDROOT
BRANCH   1   7
HETATM    7  C3  UNL     1     -17.232 -14.523  17.213  1.00  0.00     0.121 C 
BRANCH   7   8
HETATM    8  C2  UNL     1     -16.356 -15.531  16.494  1.00  0.00     0.046 C 
BRANCH   8   9
HETATM    9  C1  UNL     1     -14.902 -15.355  16.863  1.00  0.00     0.231 C 
BRANCH   9  10
HETATM   10  N1  UNL     1     -14.617 -13.995  17.274  1.00  0.00    -0.079 N 
ATOM     11  H13 UNL     1     -14.722 -13.341  16.497  1.00  0.00     0.274 HD
ATOM     12  H12 UNL     1     -15.345 -13.630  17.888  1.00  0.00     0.274 HD
ATOM     13  H11 UNL     1     -13.695 -13.918  17.703  1.00  0.00     0.274 HD
ENDBRANCH   9  10
ENDBRANCH   8   9
ENDBRANCH   7   8
ENDBRANCH   1   7
BRANCH   6  14
HETATM   14  O1  UNL     1     -16.913 -12.106  16.210  1.00  0.00    -0.377 OA
ATOM     15  H1  UNL     1     -16.834 -11.214  16.528  1.00  0.00     0.212 HD
ENDBRANCH   6  14
TORSDOF 5
ENDMDL
MODEL 3
REMARK VINA RESULT: -5.060339030      1.044      1.546
REMARK  5 active torsions:
REMARK  status: ('A' for Active; 'I' for Inactive)
REMARK    1  A    between atoms: N1_1  and  C1_5 
REMARK    2  A    between atoms: C1_5  and  C2_6 
REMARK    3  A    between atoms: C2_6  and  C3_7 
REMARK    4  A    between atoms: C3_7  and  N2_8 
REMARK    5  A    between atoms: C8_13  and  O1_14 
ROOT
HETATM    1  N2  UNL     1     -18.199 -14.476  15.392  1.00  0.00    -0.388 N 
HETATM    2  C4  UNL     1     -19.018 -13.584  14.663  1.00  0.00     0.119 C 
HETATM    3  C5  UNL     1     -18.800 -12.128  14.968  1.00  0.00     0.020 C 
HETATM    4  C6  UNL     1     -18.693 -11.835  16.436  1.00  0.00     0.006 C 
HETATM    5  C7  UNL     1     -18.760 -13.100  17.283  1.00  0.00     0.053 C 
HETATM    6  C8  UNL     1     -17.750 -14.051  16.671  1.00  0.00     0.215 C 
ENDROOT
BRANCH   1   7
HETATM    7  C3  UNL     1     -17.162 -15.121  14.669  1.00  0.00     0.121 C 
BRANCH   7   8
HETATM    8  C2  UNL     1     -16.886 -16.530  15.160  1.00  0.00     0.046 C 
BRANCH   8   9
HETATM    9  C1  UNL     1     -15.414 -16.857  15.088  1.00  0.00     0.231 C 
BRANCH   9  10
HETATM   10  N1  UNL     1     -14.685 -15.868  14.320  1.00  0.00    -0.079 N 
ATOM     11  H13 UNL     1     -13.688 -16.082  14.288  1.00  0.00     0.274 HD
ATOM     12  H12 UNL     1     -14.894 -15.941  13.324  1.00  0.00     0.274 HD
ATOM     13  H11 UNL     1     -14.853 -14.924  14.667  1.00  0.00     0.274 HD
ENDBRANCH   9  10
ENDBRANCH   8   9
ENDBRANCH   7   8
ENDBRANCH   1   7
BRANCH   6  14
HETATM   14  O1  UNL     1     -16.559 -13.340  16.517  1.00  0.00    -0.377 OA
ATOM     15  H1  UNL     1     -16.515 -13.003  15.630  1.00  0.00     0.212 HD
ENDBRANCH   6  14
TORSDOF 5
ENDMDL
MODEL 4
REMARK VINA RESULT: -5.053498205      1.741      4.076
REMARK  5 active torsions:
REMARK  status: ('A' for Active; 'I' for Inactive)
REMARK    1  A    between atoms: N1_1  and  C1_5 
REMARK    2  A    between atoms: C1_5  and  C2_6 
REMARK    3  A    between atoms: C2_6  and  C3_7 
REMARK    4  A    between atoms: C3_7  and  N2_8 
REMARK    5  A    between atoms: C8_13  and  O1_14 
ROOT
HETATM    1  N2  UNL     1     -17.927 -14.093  15.935  1.00  0.00    -0.388 N 
HETATM    2  C4  UNL     1     -17.288 -14.400  17.158  1.00  0.00     0.119 C 
HETATM    3  C5  UNL     1     -16.064 -15.265  17.035  1.00  0.00     0.020 C 
HETATM    4  C6  UNL     1     -16.245 -16.428  16.103  1.00  0.00     0.006 C 
HETATM    5  C7  UNL     1     -17.616 -16.425  15.437  1.00  0.00     0.053 C 
HETATM    6  C8  UNL     1     -17.790 -15.027  14.874  1.00  0.00     0.215 C 
ENDROOT
BRANCH   1   7
HETATM    7  C3  UNL     1     -17.795 -12.758  15.468  1.00  0.00     0.121 C 
BRANCH   7   8
HETATM    8  C2  UNL     1     -19.037 -12.256  14.755  1.00  0.00     0.046 C 
BRANCH   8   9
HETATM    9  C1  UNL     1     -18.790 -12.091  13.275  1.00  0.00     0.231 C 
BRANCH   9  10
HETATM   10  N1  UNL     1     -17.392 -11.831  12.993  1.00  0.00    -0.079 N 
ATOM     11  H13 UNL     1     -17.275 -11.361  12.095  1.00  0.00     0.274 HD
ATOM     12  H12 UNL     1     -17.018 -11.105  13.603  1.00  0.00     0.274 HD
ATOM     13  H11 UNL     1     -16.834 -12.684  13.042  1.00  0.00     0.274 HD
ENDBRANCH   9  10
ENDBRANCH   8   9
ENDBRANCH   7   8
ENDBRANCH   1   7
BRANCH   6  14
HETATM   14  O1  UNL     1     -16.631 -14.728  14.157  1.00  0.00    -0.377 OA
ATOM     15  H1  UNL     1     -16.184 -15.538  13.943  1.00  0.00     0.212 HD
ENDBRANCH   6  14
TORSDOF 5
ENDMDL
MODEL 5
REMARK VINA RESULT: -5.027475562      1.481      2.038
REMARK  5 active torsions:
REMARK  status: ('A' for Active; 'I' for Inactive)
REMARK    1  A    between atoms: N1_1  and  C1_5 
REMARK    2  A    between atoms: C1_5  and  C2_6 
REMARK    3  A    between atoms: C2_6  and  C3_7 
REMARK    4  A    between atoms: C3_7  and  N2_8 
REMARK    5  A    between atoms: C8_13  and  O1_14 
ROOT
HETATM    1  N2  UNL     1     -17.497 -14.126  15.120  1.00  0.00    -0.388 N 
HETATM    2  C4  UNL     1     -17.834 -13.421  16.299  1.00  0.00     0.119 C 
HETATM    3  C5  UNL     1     -19.046 -12.538  16.185  1.00  0.00     0.020 C 
HETATM    4  C6  UNL     1     -19.073 -11.720  14.927  1.00  0.00     0.006 C 
HETATM    5  C7  UNL     1     -17.892 -12.028  14.014  1.00  0.00     0.053 C 
HETATM    6  C8  UNL     1     -17.865 -13.538  13.881  1.00  0.00     0.215 C 
ENDROOT
BRANCH   1   7
HETATM    7  C3  UNL     1     -17.745 -15.524  15.123  1.00  0.00     0.121 C 
BRANCH   7   8
HETATM    8  C2  UNL     1     -16.676 -16.313  15.856  1.00  0.00     0.046 C 
BRANCH   8   9
HETATM    9  C1  UNL     1     -15.703 -16.944  14.890  1.00  0.00     0.231 C 
BRANCH   9  10
HETATM   10  N1  UNL     1     -14.713 -15.991  14.430  1.00  0.00    -0.079 N 
ATOM     11  H13 UNL     1     -15.027 -15.504  13.590  1.00  0.00     0.274 HD
ATOM     12  H12 UNL     1     -14.644 -15.192  15.059  1.00  0.00     0.274 HD
ATOM     13  H11 UNL     1     -13.804 -16.432  14.287  1.00  0.00     0.274 HD
ENDBRANCH   9  10
ENDBRANCH   8   9
ENDBRANCH   7   8
ENDBRANCH   1   7
BRANCH   6  14
HETATM   14  O1  UNL     1     -19.161 -13.943  13.558  1.00  0.00    -0.377 OA
ATOM     15  H1  UNL     1     -19.286 -13.854  12.621  1.00  0.00     0.212 HD
ENDBRANCH   6  14
TORSDOF 5
ENDMDL
