MODEL 1
REMARK VINA RESULT: -5.163402901      0.000      0.000
REMARK  5 active torsions:
REMARK  status: ('A' for Active; 'I' for Inactive)
REMARK    1  A    between atoms: N1_1  and  C1_5 
REMARK    2  A    between atoms: C1_5  and  C2_6 
REMARK    3  A    between atoms: C2_6  and  N2_7 
REMARK    4  A    between atoms: C2_6  and  C3_11 
REMARK    5  A    between atoms: C3_11  and  N3_12 
ROOT
HETATM    1  C2  UNL     1     -15.741 -16.228  15.330  1.00  0.00     0.236 C 
ENDROOT
BRANCH   1   2
HETATM    2  C1  UNL     1     -14.848 -15.976  16.480  1.00  0.00     0.264 C 
BRANCH   2   3
HETATM    3  N1  UNL     1     -13.720 -15.120  16.058  1.00  0.00    -0.077 N 
ATOM      4  H13 UNL     1     -13.541 -15.187  15.055  1.00  0.00     0.274 HD
ATOM      5  H12 UNL     1     -13.954 -14.128  16.100  1.00  0.00     0.274 HD
ATOM      6  H11 UNL     1     -12.892 -15.343  16.611  1.00  0.00     0.274 HD
ENDBRANCH   2   3
ENDBRANCH   1   2
BRANCH   1   7
HETATM    7  N2  UNL     1     -15.033 -15.846  14.106  1.00  0.00    -0.072 N 
ATOM      8  H23 UNL     1     -15.664 -15.677  13.323  1.00  0.00     0.274 HD
ATOM      9  H22 UNL     1     -14.628 -14.912  14.161  1.00  0.00     0.274 HD
ATOM     10  H21 UNL     1     -14.338 -16.565  13.901  1.00  0.00     0.274 HD
ENDBRANCH   1   7
BRANCH   1  11
HETATM   11  C3  UNL     1     -17.092 -15.621  15.393  1.00  0.00     0.306 C 
BRANCH  11  12
HETATM   12  N3  UNL     1     -17.216 -14.204  15.270  1.00  0.00     0.090 N 
HETATM   13  C4  UNL     1     -18.217 -13.996  14.207  1.00  0.00     0.272 C 
HETATM   14  C5  UNL     1     -18.477 -12.535  13.980  1.00  0.00     0.030 C 
HETATM   15  C6  UNL     1     -19.276 -12.069  15.180  1.00  0.00     0.003 C 
HETATM   16  C7  UNL     1     -18.939 -12.797  16.418  1.00  0.00     0.030 C 
HETATM   17  C8  UNL     1     -17.612 -13.502  16.462  1.00  0.00     0.272 C 
ENDBRANCH  11  12
ENDBRANCH   1  11
TORSDOF 5
ENDMDL
MODEL 2
REMARK VINA RESULT: -5.060362907      2.268      4.223
REMARK  5 active torsions:
REMARK  status: ('A' for Active; 'I' for Inactive)
REMARK    1  A    between atoms: N1_1  and  C1_5 
REMARK    2  A    between atoms: C1_5  and  C2_6 
REMARK    3  A    between atoms: C2_6  and  N2_7 
REMARK    4  A    between atoms: C2_6  and  C3_11 
REMARK    5  A    between atoms: C3_11  and  N3_12 
ROOT
HETATM    1  C2  UNL     1     -18.064 -12.502  14.872  1.00  0.00     0.236 C 
ENDROOT
BRANCH   1   2
HETATM    2  C1  UNL     1     -18.448 -12.194  13.479  1.00  0.00     0.264 C 
BRANCH   2   3
HETATM    3  N1  UNL     1     -17.265 -11.731  12.725  1.00  0.00    -0.077 N 
ATOM      4  H13 UNL     1     -17.102 -10.730  12.841  1.00  0.00     0.274 HD
ATOM      5  H12 UNL     1     -16.393 -12.070  13.133  1.00  0.00     0.274 HD
ATOM      6  H11 UNL     1     -17.356 -11.994  11.743  1.00  0.00     0.274 HD
ENDBRANCH   2   3
ENDBRANCH   1   2
BRANCH   1   7
HETATM    7  N2  UNL     1     -17.044 -11.538  15.291  1.00  0.00    -0.072 N 
ATOM      8  H23 UNL     1     -16.834 -11.596  16.287  1.00  0.00     0.274 HD
ATOM      9  H22 UNL     1     -16.115 -11.773  14.941  1.00  0.00     0.274 HD
ATOM     10  H21 UNL     1     -17.348 -10.606  15.007  1.00  0.00     0.274 HD
ENDBRANCH   1   7
BRANCH   1  11
HETATM   11  C3  UNL     1     -17.649 -13.896  15.155  1.00  0.00     0.306 C 
BRANCH  11  12
HETATM   12  N3  UNL     1     -17.795 -14.402  16.481  1.00  0.00     0.090 N 
HETATM   13  C4  UNL     1     -19.152 -14.003  16.897  1.00  0.00     0.272 C 
HETATM   14  C5  UNL     1     -19.467 -14.495  18.281  1.00  0.00     0.030 C 
HETATM   15  C6  UNL     1     -19.667 -15.991  18.149  1.00  0.00     0.003 C 
HETATM   16  C7  UNL     1     -18.841 -16.594  17.086  1.00  0.00     0.030 C 
HETATM   17  C8  UNL     1     -17.633 -15.824  16.633  1.00  0.00     0.272 C 
ENDBRANCH  11  12
ENDBRANCH   1  11
TORSDOF 5
ENDMDL
MODEL 3
REMARK VINA RESULT: -5.049853498      2.262      4.110
REMARK  5 active torsions:
REMARK  status: ('A' for Active; 'I' for Inactive)
REMARK    1  A    between atoms: N1_1  and  C1_5 
REMARK    2  A    between atoms: C1_5  and  C2_6 
REMARK    3  A    between atoms: C2_6  and  N2_7 
REMARK    4  A    between atoms: C2_6  and  C3_11 
REMARK    5  A    between atoms: C3_11  and  N3_12 
ROOT
HETATM    1  C2  UNL     1     -18.040 -12.695  14.754  1.00  0.00     0.236 C 
ENDROOT
BRANCH   1   2
HETATM    2  C1  UNL     1     -18.447 -12.269  13.398  1.00  0.00     0.264 C 
BRANCH   2   3
HETATM    3  N1  UNL     1     -17.276 -11.744  12.667  1.00  0.00    -0.077 N 
ATOM      4  H13 UNL     1     -17.377 -11.844  11.657  1.00  0.00     0.274 HD
ATOM      5  H12 UNL     1     -17.220 -10.727  12.710  1.00  0.00     0.274 HD
ATOM      6  H11 UNL     1     -16.425 -12.189  13.014  1.00  0.00     0.274 HD
ENDBRANCH   2   3
ENDBRANCH   1   2
BRANCH   1   7
HETATM    7  N2  UNL     1     -17.062 -11.732  15.264  1.00  0.00    -0.072 N 
ATOM      8  H23 UNL     1     -16.534 -12.092  16.058  1.00  0.00     0.274 HD
ATOM      9  H22 UNL     1     -16.277 -11.595  14.627  1.00  0.00     0.274 HD
ATOM     10  H21 UNL     1     -17.551 -10.863  15.479  1.00  0.00     0.274 HD
ENDBRANCH   1   7
BRANCH   1  11
HETATM   11  C3  UNL     1     -17.561 -14.090  14.895  1.00  0.00     0.306 C 
BRANCH  11  12
HETATM   12  N3  UNL     1     -17.997 -14.857  16.017  1.00  0.00     0.090 N 
HETATM   13  C4  UNL     1     -16.862 -14.840  16.959  1.00  0.00     0.272 C 
HETATM   14  C5  UNL     1     -17.184 -15.595  18.217  1.00  0.00     0.030 C 
HETATM   15  C6  UNL     1     -18.163 -14.724  18.978  1.00  0.00     0.003 C 
HETATM   16  C7  UNL     1     -19.033 -13.923  18.095  1.00  0.00     0.030 C 
HETATM   17  C8  UNL     1     -19.187 -14.389  16.675  1.00  0.00     0.272 C 
ENDBRANCH  11  12
ENDBRANCH   1  11
TORSDOF 5
ENDMDL
MODEL 4
REMARK VINA RESULT: -5.034280931      1.918      4.490
REMARK  5 active torsions:
REMARK  status: ('A' for Active; 'I' for Inactive)
REMARK    1  A    between atoms: N1_1  and  C1_5 
REMARK    2  A    between atoms: C1_5  and  C2_6 
REMARK    3  A    between atoms: C2_6  and  N2_7 
REMARK    4  A    between atoms: C2_6  and  C3_11 
REMARK    5  A    between atoms: C3_11  and  N3_12 
ROOT
HETATM    1  C2  UNL     1     -18.377 -12.134  14.883  1.00  0.00     0.236 C 
ENDROOT
BRANCH   1   2
HETATM    2  C1  UNL     1     -18.501 -12.211  13.412  1.00  0.00     0.264 C 
BRANCH   2   3
HETATM    3  N1  UNL     1     -17.253 -11.737  12.780  1.00  0.00    -0.077 N 
ATOM      4  H13 UNL     1     -16.843 -10.949  13.283  1.00  0.00     0.274 HD
ATOM      5  H12 UNL     1     -16.487 -12.401  12.897  1.00  0.00     0.274 HD
ATOM      6  H11 UNL     1     -17.425 -11.518  11.799  1.00  0.00     0.274 HD
ENDBRANCH   2   3
ENDBRANCH   1   2
BRANCH   1   7
HETATM    7  N2  UNL     1     -17.096 -11.501  15.203  1.00  0.00    -0.072 N 
ATOM      8  H23 UNL     1     -17.010 -11.265  16.191  1.00  0.00     0.274 HD
ATOM      9  H22 UNL     1     -16.311 -12.150  15.147  1.00  0.00     0.274 HD
ATOM     10  H21 UNL     1     -16.979 -10.690  14.595  1.00  0.00     0.274 HD
ENDBRANCH   1   7
BRANCH   1  11
HETATM   11  C3  UNL     1     -18.564 -13.399  15.633  1.00  0.00     0.306 C 
BRANCH  11  12
HETATM   12  N3  UNL     1     -17.435 -14.244  15.850  1.00  0.00     0.090 N 
HETATM   13  C4  UNL     1     -17.515 -14.634  17.269  1.00  0.00     0.272 C 
HETATM   14  C5  UNL     1     -16.393 -15.559  17.646  1.00  0.00     0.030 C 
HETATM   15  C6  UNL     1     -16.719 -16.887  16.995  1.00  0.00     0.003 C 
HETATM   16  C7  UNL     1     -17.452 -16.743  15.722  1.00  0.00     0.030 C 
HETATM   17  C8  UNL     1     -17.359 -15.418  15.022  1.00  0.00     0.272 C 
ENDBRANCH  11  12
ENDBRANCH   1  11
TORSDOF 5
ENDMDL
MODEL 5
REMARK VINA RESULT: -4.922151901      2.685      4.257
REMARK  5 active torsions:
REMARK  status: ('A' for Active; 'I' for Inactive)
REMARK    1  A    between atoms: N1_1  and  C1_5 
REMARK    2  A    between atoms: C1_5  and  C2_6 
REMARK    3  A    between atoms: C2_6  and  N2_7 
REMARK    4  A    between atoms: C2_6  and  C3_11 
REMARK    5  A    between atoms: C3_11  and  N3_12 
ROOT
HETATM    1  C2  UNL     1     -18.146 -12.399  14.871  1.00  0.00     0.236 C 
ENDROOT
BRANCH   1   2
HETATM    2  C1  UNL     1     -18.430 -12.222  13.431  1.00  0.00     0.264 C 
BRANCH   2   3
HETATM    3  N1  UNL     1     -17.228 -11.705  12.745  1.00  0.00    -0.077 N 
ATOM      4  H13 UNL     1     -16.436 -11.602  13.382  1.00  0.00     0.274 HD
ATOM      5  H12 UNL     1     -16.820 -12.395  12.114  1.00  0.00     0.274 HD
ATOM      6  H11 UNL     1     -17.452 -10.832  12.267  1.00  0.00     0.274 HD
ENDBRANCH   2   3
ENDBRANCH   1   2
BRANCH   1   7
HETATM    7  N2  UNL     1     -17.047 -11.502  15.236  1.00  0.00    -0.072 N 
ATOM      8  H23 UNL     1     -16.134 -11.875  14.978  1.00  0.00     0.274 HD
ATOM      9  H22 UNL     1     -17.020 -10.660  14.661  1.00  0.00     0.274 HD
ATOM     10  H21 UNL     1     -17.120 -11.295  16.232  1.00  0.00     0.274 HD
ENDBRANCH   1   7
BRANCH   1  11
HETATM   11  C3  UNL     1     -17.898 -13.784  15.334  1.00  0.00     0.306 C 
BRANCH  11  12
HETATM   12  N3  UNL     1     -18.814 -14.377  16.253  1.00  0.00     0.090 N 
HETATM   13  C4  UNL     1     -18.332 -15.758  16.440  1.00  0.00     0.272 C 
HETATM   14  C5  UNL     1     -19.192 -16.510  17.415  1.00  0.00     0.030 C 
HETATM   15  C6  UNL     1     -18.864 -15.936  18.779  1.00  0.00     0.003 C 
HETATM   16  C7  UNL     1     -18.498 -14.507  18.732  1.00  0.00     0.030 C 
HETATM   17  C8  UNL     1     -18.938 -13.723  17.529  1.00  0.00     0.272 C 
ENDBRANCH  11  12
ENDBRANCH   1  11
TORSDOF 5
ENDMDL
