MODEL 1
REMARK VINA RESULT: -5.009082681      0.000      0.000
REMARK  5 active torsions:
REMARK  status: ('A' for Active; 'I' for Inactive)
REMARK    1  A    between atoms: N1_1  and  C1_5 
REMARK    2  A    between atoms: C1_5  and  C2_6 
REMARK    3  A    between atoms: C2_6  and  N2_7 
REMARK    4  A    between atoms: C5_10  and  C6_11 
REMARK    5  A    between atoms: C6_11  and  O1_12 
ROOT
HETATM    1  N2  UNL     1     -18.207 -13.848  17.008  1.00  0.00     0.090 N 
HETATM    2  C3  UNL     1     -18.444 -12.477  16.725  1.00  0.00     0.273 C 
HETATM    3  C4  UNL     1     -19.116 -12.287  15.406  1.00  0.00     0.037 C 
HETATM    4  C5  UNL     1     -18.000 -12.663  14.408  1.00  0.00     0.012 C 
HETATM    5  C7  UNL     1     -17.850 -14.130  14.537  1.00  0.00     0.037 C 
HETATM    6  C8  UNL     1     -18.035 -14.709  15.881  1.00  0.00     0.273 C 
ENDROOT
BRANCH   1   7
HETATM    7  C2  UNL     1     -19.333 -14.353  17.816  1.00  0.00     0.299 C 
BRANCH   7   8
HETATM    8  C1  UNL     1     -18.742 -15.235  18.869  1.00  0.00     0.259 C 
BRANCH   8   9
HETATM    9  N1  UNL     1     -17.635 -14.515  19.543  1.00  0.00    -0.078 N 
ATOM     10  H13 UNL     1     -16.808 -15.099  19.663  1.00  0.00     0.274 HD
ATOM     11  H12 UNL     1     -17.219 -13.799  18.947  1.00  0.00     0.274 HD
ATOM     12  H11 UNL     1     -17.972 -14.134  20.428  1.00  0.00     0.274 HD
ENDBRANCH   8   9
ENDBRANCH   7   8
ENDBRANCH   1   7
BRANCH   4  13
HETATM   13  C6  UNL     1     -18.387 -12.121  13.089  1.00  0.00     0.168 C 
BRANCH  13  14
HETATM   14  O1  UNL     1     -17.259 -11.603  12.448  1.00  0.00    -0.400 OA
ATOM     15  H1  UNL     1     -17.430 -11.525  11.516  1.00  0.00     0.209 HD
ENDBRANCH  13  14
ENDBRANCH   4  13
TORSDOF 5
ENDMDL
MODEL 2
REMARK VINA RESULT: -4.964143863      2.866      4.713
REMARK  5 active torsions:
REMARK  status: ('A' for Active; 'I' for Inactive)
REMARK    1  A    between atoms: N1_1  and  C1_5 
REMARK    2  A    between atoms: C1_5  and  C2_6 
REMARK    3  A    between atoms: C2_6  and  N2_7 
REMARK    4  A    between atoms: C5_10  and  C6_11 
REMARK    5  A    between atoms: C6_11  and  O1_12 
ROOT
HETATM    1  N2  UNL     1     -18.669 -14.372  14.834  1.00  0.00     0.090 N 
HETATM    2  C3  UNL     1     -19.241 -13.412  15.709  1.00  0.00     0.273 C 
HETATM    3  C4  UNL     1     -18.577 -13.409  17.046  1.00  0.00     0.037 C 
HETATM    4  C5  UNL     1     -19.039 -14.751  17.649  1.00  0.00     0.012 C 
HETATM    5  C7  UNL     1     -18.313 -15.787  16.880  1.00  0.00     0.037 C 
HETATM    6  C8  UNL     1     -18.080 -15.520  15.448  1.00  0.00     0.273 C 
ENDROOT
BRANCH   1   7
HETATM    7  C2  UNL     1     -17.642 -13.699  14.018  1.00  0.00     0.299 C 
BRANCH   7   8
HETATM    8  C1  UNL     1     -18.287 -12.481  13.436  1.00  0.00     0.259 C 
BRANCH   8   9
HETATM    9  N1  UNL     1     -17.264 -11.688  12.712  1.00  0.00    -0.078 N 
ATOM     10  H13 UNL     1     -16.570 -11.284  13.341  1.00  0.00     0.274 HD
ATOM     11  H12 UNL     1     -16.636 -12.275  12.163  1.00  0.00     0.274 HD
ATOM     12  H11 UNL     1     -17.730 -10.980  12.143  1.00  0.00     0.274 HD
ENDBRANCH   8   9
ENDBRANCH   7   8
ENDBRANCH   1   7
BRANCH   4  13
HETATM   13  C6  UNL     1     -18.807 -14.683  19.107  1.00  0.00     0.168 C 
BRANCH  13  14
HETATM   14  O1  UNL     1     -17.535 -14.161  19.354  1.00  0.00    -0.400 OA
ATOM     15  H1  UNL     1     -16.956 -14.857  19.643  1.00  0.00     0.209 HD
ENDBRANCH  13  14
ENDBRANCH   4  13
TORSDOF 5
ENDMDL
MODEL 3
REMARK VINA RESULT: -4.902758553      2.038      2.798
REMARK  5 active torsions:
REMARK  status: ('A' for Active; 'I' for Inactive)
REMARK    1  A    between atoms: N1_1  and  C1_5 
REMARK    2  A    between atoms: C1_5  and  C2_6 
REMARK    3  A    between atoms: C2_6  and  N2_7 
REMARK    4  A    between atoms: C5_10  and  C6_11 
REMARK    5  A    between atoms: C6_11  and  O1_12 
ROOT
HETATM    1  N2  UNL     1     -17.427 -15.190  16.431  1.00  0.00     0.090 N 
HETATM    2  C3  UNL     1     -17.992 -15.467  15.159  1.00  0.00     0.273 C 
HETATM    3  C4  UNL     1     -17.621 -14.437  14.145  1.00  0.00     0.037 C 
HETATM    4  C5  UNL     1     -18.416 -13.203  14.620  1.00  0.00     0.012 C 
HETATM    5  C7  UNL     1     -17.735 -12.763  15.859  1.00  0.00     0.037 C 
HETATM    6  C8  UNL     1     -17.176 -13.815  16.729  1.00  0.00     0.273 C 
ENDROOT
BRANCH   1   7
HETATM    7  C2  UNL     1     -16.157 -15.931  16.542  1.00  0.00     0.299 C 
BRANCH   7   8
HETATM    8  C1  UNL     1     -15.140 -14.964  17.059  1.00  0.00     0.259 C 
BRANCH   8   9
HETATM    9  N1  UNL     1     -13.886 -15.114  16.281  1.00  0.00    -0.078 N 
ATOM     10  H13 UNL     1     -13.170 -14.446  16.567  1.00  0.00     0.274 HD
ATOM     11  H12 UNL     1     -13.385 -15.971  16.516  1.00  0.00     0.274 HD
ATOM     12  H11 UNL     1     -14.100 -15.051  15.286  1.00  0.00     0.274 HD
ENDBRANCH   8   9
ENDBRANCH   7   8
ENDBRANCH   1   7
BRANCH   4  13
HETATM   13  C6  UNL     1     -18.475 -12.254  13.489  1.00  0.00     0.168 C 
BRANCH  13  14
HETATM   14  O1  UNL     1     -17.565 -12.644  12.503  1.00  0.00    -0.400 OA
ATOM     15  H1  UNL     1     -17.882 -13.428  12.070  1.00  0.00     0.209 HD
ENDBRANCH  13  14
ENDBRANCH   4  13
TORSDOF 5
ENDMDL
MODEL 4
REMARK VINA RESULT: -4.879029926      2.311      3.220
REMARK  5 active torsions:
REMARK  status: ('A' for Active; 'I' for Inactive)
REMARK    1  A    between atoms: N1_1  and  C1_5 
REMARK    2  A    between atoms: C1_5  and  C2_6 
REMARK    3  A    between atoms: C2_6  and  N2_7 
REMARK    4  A    between atoms: C5_10  and  C6_11 
REMARK    5  A    between atoms: C6_11  and  O1_12 
ROOT
HETATM    1  N2  UNL     1     -17.308 -15.458  16.486  1.00  0.00     0.090 N 
HETATM    2  C3  UNL     1     -17.600 -15.598  15.104  1.00  0.00     0.273 C 
HETATM    3  C4  UNL     1     -17.600 -14.283  14.398  1.00  0.00     0.037 C 
HETATM    4  C5  UNL     1     -18.869 -13.606  14.957  1.00  0.00     0.012 C 
HETATM    5  C7  UNL     1     -18.536 -13.270  16.360  1.00  0.00     0.037 C 
HETATM    6  C8  UNL     1     -17.670 -14.215  17.090  1.00  0.00     0.273 C 
ENDROOT
BRANCH   1   7
HETATM    7  C2  UNL     1     -15.860 -15.665  16.675  1.00  0.00     0.299 C 
BRANCH   7   8
HETATM    8  C1  UNL     1     -15.411 -16.576  15.577  1.00  0.00     0.259 C 
BRANCH   8   9
HETATM    9  N1  UNL     1     -14.195 -16.011  14.942  1.00  0.00    -0.078 N 
ATOM     10  H13 UNL     1     -13.427 -15.903  15.604  1.00  0.00     0.274 HD
ATOM     11  H12 UNL     1     -13.746 -16.673  14.308  1.00  0.00     0.274 HD
ATOM     12  H11 UNL     1     -14.435 -15.134  14.480  1.00  0.00     0.274 HD
ENDBRANCH   8   9
ENDBRANCH   7   8
ENDBRANCH   1   7
BRANCH   4  13
HETATM   13  C6  UNL     1     -19.217 -12.498  14.044  1.00  0.00     0.168 C 
BRANCH  13  14
HETATM   14  O1  UNL     1     -19.243 -12.966  12.728  1.00  0.00    -0.400 OA
ATOM     15  H1  UNL     1     -20.029 -12.655  12.295  1.00  0.00     0.209 HD
ENDBRANCH  13  14
ENDBRANCH   4  13
TORSDOF 5
ENDMDL
MODEL 5
REMARK VINA RESULT: -4.816671575      0.873      1.706
REMARK  5 active torsions:
REMARK  status: ('A' for Active; 'I' for Inactive)
REMARK    1  A    between atoms: N1_1  and  C1_5 
REMARK    2  A    between atoms: C1_5  and  C2_6 
REMARK    3  A    between atoms: C2_6  and  N2_7 
REMARK    4  A    between atoms: C5_10  and  C6_11 
REMARK    5  A    between atoms: C6_11  and  O1_12 
ROOT
HETATM    1  N2  UNL     1     -18.510 -14.531  16.789  1.00  0.00     0.090 N 
HETATM    2  C3  UNL     1     -18.363 -15.019  15.464  1.00  0.00     0.273 C 
HETATM    3  C4  UNL     1     -17.742 -14.006  14.561  1.00  0.00     0.037 C 
HETATM    4  C5  UNL     1     -18.861 -12.952  14.424  1.00  0.00     0.012 C 
HETATM    5  C7  UNL     1     -18.920 -12.284  15.744  1.00  0.00     0.037 C 
HETATM    6  C8  UNL     1     -18.662 -13.118  16.932  1.00  0.00     0.273 C 
ENDROOT
BRANCH   1   7
HETATM    7  C2  UNL     1     -17.334 -14.956  17.570  1.00  0.00     0.299 C 
BRANCH   7   8
HETATM    8  C1  UNL     1     -17.855 -15.567  18.832  1.00  0.00     0.259 C 
BRANCH   8   9
HETATM    9  N1  UNL     1     -17.527 -14.678  19.974  1.00  0.00    -0.078 N 
ATOM     10  H13 UNL     1     -16.846 -15.097  20.607  1.00  0.00     0.274 HD
ATOM     11  H12 UNL     1     -16.978 -13.867  19.688  1.00  0.00     0.274 HD
ATOM     12  H11 UNL     1     -18.389 -14.415  20.451  1.00  0.00     0.274 HD
ENDBRANCH   8   9
ENDBRANCH   7   8
ENDBRANCH   1   7
BRANCH   4  13
HETATM   13  C6  UNL     1     -18.546 -12.124  13.242  1.00  0.00     0.168 C 
BRANCH  13  14
HETATM   14  O1  UNL     1     -17.515 -12.723  12.513  1.00  0.00    -0.400 OA
ATOM     15  H1  UNL     1     -17.095 -13.390  13.044  1.00  0.00     0.209 HD
ENDBRANCH  13  14
ENDBRANCH   4  13
TORSDOF 5
ENDMDL
