MODEL 1
REMARK VINA RESULT: -4.660816898      0.000      0.000
REMARK  5 active torsions:
REMARK  status: ('A' for Active; 'I' for Inactive)
REMARK    1  A    between atoms: N1_1  and  C1_5 
REMARK    2  A    between atoms: C1_5  and  C2_6 
REMARK    3  A    between atoms: C2_6  and  C3_7 
REMARK    4  A    between atoms: C3_7  and  N2_8 
REMARK    5  A    between atoms: C7_12  and  N3_13 
ROOT
HETATM    1  N2  UNL     1     -17.682 -15.555  15.153  1.00  0.00     0.090 N 
HETATM    2  C4  UNL     1     -18.327 -16.378  16.195  1.00  0.00     0.272 C 
HETATM    3  C5  UNL     1     -18.450 -15.685  17.497  1.00  0.00     0.032 C 
HETATM    4  C6  UNL     1     -17.149 -15.126  18.016  1.00  0.00     0.036 C 
HETATM    5  C7  UNL     1     -16.355 -14.449  16.926  1.00  0.00     0.211 C 
HETATM    6  C8  UNL     1     -16.358 -15.339  15.720  1.00  0.00     0.305 C 
ENDROOT
BRANCH   1   7
HETATM    7  C3  UNL     1     -18.456 -14.374  15.009  1.00  0.00     0.274 C 
BRANCH   7   8
HETATM    8  C2  UNL     1     -18.365 -13.624  13.742  1.00  0.00     0.057 C 
BRANCH   8   9
HETATM    9  C1  UNL     1     -18.337 -12.144  13.760  1.00  0.00     0.231 C 
BRANCH   9  10
HETATM   10  N1  UNL     1     -17.296 -11.745  12.784  1.00  0.00    -0.079 N 
ATOM     11  H13 UNL     1     -16.464 -12.335  12.811  1.00  0.00     0.274 HD
ATOM     12  H12 UNL     1     -17.551 -11.938  11.815  1.00  0.00     0.274 HD
ATOM     13  H11 UNL     1     -17.104 -10.761  12.966  1.00  0.00     0.274 HD
ENDBRANCH   9  10
ENDBRANCH   8   9
ENDBRANCH   7   8
ENDBRANCH   1   7
BRANCH   5  14
HETATM   14  N3  UNL     1     -14.952 -14.368  17.369  1.00  0.00    -0.073 N 
ATOM     15  H33 UNL     1     -14.564 -13.429  17.279  1.00  0.00     0.274 HD
ATOM     16  H32 UNL     1     -14.851 -14.461  18.379  1.00  0.00     0.274 HD
ATOM     17  H31 UNL     1     -14.417 -15.067  16.853  1.00  0.00     0.274 HD
ENDBRANCH   5  14
TORSDOF 5
ENDMDL
MODEL 2
REMARK VINA RESULT: -4.656630670      1.239      1.416
REMARK  5 active torsions:
REMARK  status: ('A' for Active; 'I' for Inactive)
REMARK    1  A    between atoms: N1_1  and  C1_5 
REMARK    2  A    between atoms: C1_5  and  C2_6 
REMARK    3  A    between atoms: C2_6  and  C3_7 
REMARK    4  A    between atoms: C3_7  and  N2_8 
REMARK    5  A    between atoms: C7_12  and  N3_13 
ROOT
HETATM    1  N2  UNL     1     -18.692 -14.315  15.745  1.00  0.00     0.090 N 
HETATM    2  C4  UNL     1     -19.316 -14.657  17.039  1.00  0.00     0.272 C 
HETATM    3  C5  UNL     1     -18.418 -14.445  18.196  1.00  0.00     0.032 C 
HETATM    4  C6  UNL     1     -17.085 -15.138  18.070  1.00  0.00     0.036 C 
HETATM    5  C7  UNL     1     -16.503 -14.986  16.686  1.00  0.00     0.211 C 
HETATM    6  C8  UNL     1     -17.586 -15.261  15.687  1.00  0.00     0.305 C 
ENDROOT
BRANCH   1   7
HETATM    7  C3  UNL     1     -18.294 -12.955  15.814  1.00  0.00     0.274 C 
BRANCH   7   8
HETATM    8  C2  UNL     1     -18.741 -12.036  14.750  1.00  0.00     0.057 C 
BRANCH   8   9
HETATM    9  C1  UNL     1     -18.585 -12.421  13.328  1.00  0.00     0.231 C 
BRANCH   9  10
HETATM   10  N1  UNL     1     -17.341 -11.761  12.864  1.00  0.00    -0.079 N 
ATOM     11  H13 UNL     1     -17.443 -10.757  12.716  1.00  0.00     0.274 HD
ATOM     12  H12 UNL     1     -16.617 -11.708  13.580  1.00  0.00     0.274 HD
ATOM     13  H11 UNL     1     -17.052 -12.269  12.028  1.00  0.00     0.274 HD
ENDBRANCH   9  10
ENDBRANCH   8   9
ENDBRANCH   7   8
ENDBRANCH   1   7
BRANCH   5  14
HETATM   14  N3  UNL     1     -15.496 -16.045  16.497  1.00  0.00    -0.073 N 
ATOM     15  H33 UNL     1     -14.818 -16.085  17.257  1.00  0.00     0.274 HD
ATOM     16  H32 UNL     1     -15.883 -16.982  16.609  1.00  0.00     0.274 HD
ATOM     17  H31 UNL     1     -15.058 -15.905  15.585  1.00  0.00     0.274 HD
ENDBRANCH   5  14
TORSDOF 5
ENDMDL
MODEL 3
REMARK VINA RESULT: -4.641174203      1.538      1.981
REMARK  5 active torsions:
REMARK  status: ('A' for Active; 'I' for Inactive)
REMARK    1  A    between atoms: N1_1  and  C1_5 
REMARK    2  A    between atoms: C1_5  and  C2_6 
REMARK    3  A    between atoms: C2_6  and  C3_7 
REMARK    4  A    between atoms: C3_7  and  N2_8 
REMARK    5  A    between atoms: C7_12  and  N3_13 
ROOT
HETATM    1  N2  UNL     1     -18.561 -14.398  15.900  1.00  0.00     0.090 N 
HETATM    2  C4  UNL     1     -18.259 -14.800  17.288  1.00  0.00     0.272 C 
HETATM    3  C5  UNL     1     -16.810 -14.938  17.556  1.00  0.00     0.032 C 
HETATM    4  C6  UNL     1     -16.094 -15.848  16.591  1.00  0.00     0.036 C 
HETATM    5  C7  UNL     1     -16.530 -15.608  15.167  1.00  0.00     0.211 C 
HETATM    6  C8  UNL     1     -18.026 -15.520  15.141  1.00  0.00     0.305 C 
ENDROOT
BRANCH   1   7
HETATM    7  C3  UNL     1     -17.899 -13.165  15.665  1.00  0.00     0.274 C 
BRANCH   7   8
HETATM    8  C2  UNL     1     -18.578 -12.149  14.838  1.00  0.00     0.057 C 
BRANCH   8   9
HETATM    9  C1  UNL     1     -18.617 -12.300  13.366  1.00  0.00     0.231 C 
BRANCH   9  10
HETATM   10  N1  UNL     1     -17.325 -11.768  12.870  1.00  0.00    -0.079 N 
ATOM     11  H13 UNL     1     -17.198 -11.878  11.863  1.00  0.00     0.274 HD
ATOM     12  H12 UNL     1     -17.269 -10.750  12.890  1.00  0.00     0.274 HD
ATOM     13  H11 UNL     1     -16.603 -12.227  13.424  1.00  0.00     0.274 HD
ENDBRANCH   9  10
ENDBRANCH   8   9
ENDBRANCH   7   8
ENDBRANCH   1   7
BRANCH   5  14
HETATM   14  N3  UNL     1     -16.179 -16.801  14.375  1.00  0.00    -0.073 N 
ATOM     15  H33 UNL     1     -16.678 -17.637  14.680  1.00  0.00     0.274 HD
ATOM     16  H32 UNL     1     -16.543 -16.764  13.424  1.00  0.00     0.274 HD
ATOM     17  H31 UNL     1     -15.165 -16.914  14.406  1.00  0.00     0.274 HD
ENDBRANCH   5  14
TORSDOF 5
ENDMDL
MODEL 4
REMARK VINA RESULT: -4.630167845      1.924      2.727
REMARK  5 active torsions:
REMARK  status: ('A' for Active; 'I' for Inactive)
REMARK    1  A    between atoms: N1_1  and  C1_5 
REMARK    2  A    between atoms: C1_5  and  C2_6 
REMARK    3  A    between atoms: C2_6  and  C3_7 
REMARK    4  A    between atoms: C3_7  and  N2_8 
REMARK    5  A    between atoms: C7_12  and  N3_13 
ROOT
HETATM    1  N2  UNL     1     -18.175 -13.291  16.698  1.00  0.00     0.090 N 
HETATM    2  C4  UNL     1     -17.281 -14.372  16.236  1.00  0.00     0.272 C 
HETATM    3  C5  UNL     1     -17.996 -15.627  15.918  1.00  0.00     0.032 C 
HETATM    4  C6  UNL     1     -18.874 -16.130  17.035  1.00  0.00     0.036 C 
HETATM    5  C7  UNL     1     -19.658 -15.013  17.678  1.00  0.00     0.211 C 
HETATM    6  C8  UNL     1     -18.728 -13.862  17.918  1.00  0.00     0.305 C 
ENDROOT
BRANCH   1   7
HETATM    7  C3  UNL     1     -19.129 -13.065  15.673  1.00  0.00     0.274 C 
BRANCH   7   8
HETATM    8  C2  UNL     1     -18.827 -12.058  14.639  1.00  0.00     0.057 C 
BRANCH   8   9
HETATM    9  C1  UNL     1     -18.531 -12.488  13.253  1.00  0.00     0.231 C 
BRANCH   9  10
HETATM   10  N1  UNL     1     -17.322 -11.733  12.844  1.00  0.00    -0.079 N 
ATOM     11  H13 UNL     1     -17.105 -11.819  11.850  1.00  0.00     0.274 HD
ATOM     12  H12 UNL     1     -17.450 -10.722  12.855  1.00  0.00     0.274 HD
ATOM     13  H11 UNL     1     -16.572 -12.056  13.454  1.00  0.00     0.274 HD
ENDBRANCH   9  10
ENDBRANCH   8   9
ENDBRANCH   7   8
ENDBRANCH   1   7
BRANCH   5  14
HETATM   14  N3  UNL     1     -20.093 -15.469  19.011  1.00  0.00    -0.073 N 
ATOM     15  H33 UNL     1     -21.102 -15.397  19.142  1.00  0.00     0.274 HD
ATOM     16  H32 UNL     1     -20.011 -16.479  19.128  1.00  0.00     0.274 HD
ATOM     17  H31 UNL     1     -19.566 -14.946  19.711  1.00  0.00     0.274 HD
ENDBRANCH   5  14
TORSDOF 5
ENDMDL
MODEL 5
REMARK VINA RESULT: -4.627171177      1.992      2.301
REMARK  5 active torsions:
REMARK  status: ('A' for Active; 'I' for Inactive)
REMARK    1  A    between atoms: N1_1  and  C1_5 
REMARK    2  A    between atoms: C1_5  and  C2_6 
REMARK    3  A    between atoms: C2_6  and  C3_7 
REMARK    4  A    between atoms: C3_7  and  N2_8 
REMARK    5  A    between atoms: C7_12  and  N3_13 
ROOT
HETATM    1  N2  UNL     1     -18.261 -15.057  15.854  1.00  0.00     0.090 N 
HETATM    2  C4  UNL     1     -18.391 -16.354  16.548  1.00  0.00     0.272 C 
HETATM    3  C5  UNL     1     -17.151 -16.779  17.233  1.00  0.00     0.032 C 
HETATM    4  C6  UNL     1     -15.935 -16.793  16.343  1.00  0.00     0.036 C 
HETATM    5  C7  UNL     1     -15.872 -15.571  15.460  1.00  0.00     0.211 C 
HETATM    6  C8  UNL     1     -17.230 -15.348  14.867  1.00  0.00     0.305 C 
ENDROOT
BRANCH   1   7
HETATM    7  C3  UNL     1     -17.884 -14.095  16.826  1.00  0.00     0.274 C 
BRANCH   7   8
HETATM    8  C2  UNL     1     -18.692 -12.867  16.951  1.00  0.00     0.057 C 
BRANCH   8   9
HETATM    9  C1  UNL     1     -18.410 -11.706  16.076  1.00  0.00     0.231 C 
BRANCH   9  10
HETATM   10  N1  UNL     1     -16.935 -11.640  15.951  1.00  0.00    -0.079 N 
ATOM     11  H13 UNL     1     -16.451 -12.404  16.423  1.00  0.00     0.274 HD
ATOM     12  H12 UNL     1     -16.597 -11.843  15.010  1.00  0.00     0.274 HD
ATOM     13  H11 UNL     1     -16.667 -10.716  16.290  1.00  0.00     0.274 HD
ENDBRANCH   9  10
ENDBRANCH   8   9
ENDBRANCH   7   8
ENDBRANCH   1   7
BRANCH   5  14
HETATM   14  N3  UNL     1     -14.977 -15.872  14.328  1.00  0.00    -0.073 N 
ATOM     15  H33 UNL     1     -13.993 -15.887  14.596  1.00  0.00     0.274 HD
ATOM     16  H32 UNL     1     -15.049 -16.840  14.016  1.00  0.00     0.274 HD
ATOM     17  H31 UNL     1     -15.174 -15.202  13.584  1.00  0.00     0.274 HD
ENDBRANCH   5  14
TORSDOF 5
ENDMDL
