MODEL 1
REMARK VINA RESULT: -5.285939821      0.000      0.000
REMARK  4 active torsions:
REMARK  status: ('A' for Active; 'I' for Inactive)
REMARK    1  A    between atoms: N1_1  and  C1_5 
REMARK    2  A    between atoms: C1_5  and  C2_6 
REMARK    3  A    between atoms: C2_6  and  C3_7 
REMARK    4  A    between atoms: N2_13  and  N3_14 
ROOT
HETATM    1  C3  UNL     1     -17.806 -15.020  16.242  1.00  0.00    -0.006 C 
HETATM    2  C4  UNL     1     -17.089 -14.982  14.909  1.00  0.00     0.027 C 
HETATM    3  C5  UNL     1     -18.381 -14.347  14.381  1.00  0.00     0.083 C 
HETATM    4  C6  UNL     1     -18.511 -13.762  15.798  1.00  0.00     0.010 C 
HETATM    5  C7  UNL     1     -17.660 -12.550  15.716  1.00  0.00     0.023 C 
HETATM    6  C8  UNL     1     -17.768 -12.108  14.268  1.00  0.00     0.114 C 
HETATM    7  N2  UNL     1     -18.192 -13.235  13.512  1.00  0.00    -0.233 NA
ENDROOT
BRANCH   1   8
HETATM    8  C2  UNL     1     -16.989 -14.816  17.464  1.00  0.00     0.032 C 
BRANCH   8   9
HETATM    9  C1  UNL     1     -15.535 -15.249  17.226  1.00  0.00     0.230 C 
BRANCH   9  10
HETATM   10  N1  UNL     1     -14.741 -14.045  17.374  1.00  0.00    -0.079 N 
ATOM     11  H13 UNL     1     -15.041 -13.449  18.146  1.00  0.00     0.274 HD
ATOM     12  H12 UNL     1     -13.795 -14.218  17.717  1.00  0.00     0.274 HD
ATOM     13  H11 UNL     1     -14.769 -13.583  16.465  1.00  0.00     0.274 HD
ENDBRANCH   9  10
ENDBRANCH   8   9
ENDBRANCH   1   8
BRANCH   7  14
HETATM   14  N3  UNL     1     -19.357 -12.980  12.814  1.00  0.00    -0.363 NA
ATOM     15  H32 UNL     1     -19.177 -12.500  11.932  1.00  0.00     0.171 HD
ATOM     16  H31 UNL     1     -19.987 -12.417  13.385  1.00  0.00     0.171 HD
ENDBRANCH   7  14
TORSDOF 4
ENDMDL
MODEL 2
REMARK VINA RESULT: -5.175223723      1.777      2.496
REMARK  4 active torsions:
REMARK  status: ('A' for Active; 'I' for Inactive)
REMARK    1  A    between atoms: N1_1  and  C1_5 
REMARK    2  A    between atoms: C1_5  and  C2_6 
REMARK    3  A    between atoms: C2_6  and  C3_7 
REMARK    4  A    between atoms: N2_13  and  N3_14 
ROOT
HETATM    1  C3  UNL     1     -18.313 -12.804  16.863  1.00  0.00    -0.006 C 
HETATM    2  C4  UNL     1     -19.135 -11.864  16.007  1.00  0.00     0.027 C 
HETATM    3  C5  UNL     1     -17.940 -11.900  15.049  1.00  0.00     0.083 C 
HETATM    4  C6  UNL     1     -17.737 -13.332  15.573  1.00  0.00     0.010 C 
HETATM    5  C7  UNL     1     -18.677 -14.111  14.729  1.00  0.00     0.023 C 
HETATM    6  C8  UNL     1     -18.718 -13.356  13.412  1.00  0.00     0.114 C 
HETATM    7  N2  UNL     1     -18.278 -12.029  13.671  1.00  0.00    -0.233 NA
ENDROOT
BRANCH   1   8
HETATM    8  C2  UNL     1     -19.041 -13.842  17.633  1.00  0.00     0.032 C 
BRANCH   8   9
HETATM    9  C1  UNL     1     -18.071 -14.906  18.165  1.00  0.00     0.230 C 
BRANCH   9  10
HETATM   10  N1  UNL     1     -17.568 -14.383  19.421  1.00  0.00    -0.079 N 
ATOM     11  H13 UNL     1     -18.297 -14.014  20.032  1.00  0.00     0.274 HD
ATOM     12  H12 UNL     1     -17.231 -15.104  20.059  1.00  0.00     0.274 HD
ATOM     13  H11 UNL     1     -16.859 -13.696  19.168  1.00  0.00     0.274 HD
ENDBRANCH   9  10
ENDBRANCH   8   9
ENDBRANCH   1   8
BRANCH   7  14
HETATM   14  N3  UNL     1     -17.194 -11.683  12.887  1.00  0.00    -0.363 NA
ATOM     15  H32 UNL     1     -17.326 -11.955  11.912  1.00  0.00     0.171 HD
ATOM     16  H31 UNL     1     -16.348 -12.121  13.250  1.00  0.00     0.171 HD
ENDBRANCH   7  14
TORSDOF 4
ENDMDL
MODEL 3
REMARK VINA RESULT: -5.020681519      2.270      4.159
REMARK  4 active torsions:
REMARK  status: ('A' for Active; 'I' for Inactive)
REMARK    1  A    between atoms: N1_1  and  C1_5 
REMARK    2  A    between atoms: C1_5  and  C2_6 
REMARK    3  A    between atoms: C2_6  and  C3_7 
REMARK    4  A    between atoms: N2_13  and  N3_14 
ROOT
HETATM    1  C3  UNL     1     -19.083 -12.985  15.710  1.00  0.00    -0.006 C 
HETATM    2  C4  UNL     1     -18.727 -13.215  17.164  1.00  0.00     0.027 C 
HETATM    3  C5  UNL     1     -19.229 -14.643  16.925  1.00  0.00     0.083 C 
HETATM    4  C6  UNL     1     -18.728 -14.434  15.486  1.00  0.00     0.010 C 
HETATM    5  C7  UNL     1     -17.286 -14.760  15.605  1.00  0.00     0.023 C 
HETATM    6  C8  UNL     1     -17.223 -15.797  16.712  1.00  0.00     0.114 C 
HETATM    7  N2  UNL     1     -18.412 -15.669  17.481  1.00  0.00    -0.233 NA
ENDROOT
BRANCH   1   8
HETATM    8  C2  UNL     1     -18.225 -12.057  14.933  1.00  0.00     0.032 C 
BRANCH   8   9
HETATM    9  C1  UNL     1     -18.527 -12.162  13.433  1.00  0.00     0.230 C 
BRANCH   9  10
HETATM   10  N1  UNL     1     -17.303 -11.772  12.760  1.00  0.00    -0.079 N 
ATOM     11  H13 UNL     1     -17.112 -10.771  12.807  1.00  0.00     0.274 HD
ATOM     12  H12 UNL     1     -16.457 -12.079  13.238  1.00  0.00     0.274 HD
ATOM     13  H11 UNL     1     -17.387 -12.128  11.808  1.00  0.00     0.274 HD
ENDBRANCH   9  10
ENDBRANCH   8   9
ENDBRANCH   1   8
BRANCH   7  14
HETATM   14  N3  UNL     1     -19.120 -16.855  17.539  1.00  0.00    -0.363 NA
ATOM     15  H32 UNL     1     -19.910 -16.796  18.182  1.00  0.00     0.171 HD
ATOM     16  H31 UNL     1     -18.503 -17.613  17.828  1.00  0.00     0.171 HD
ENDBRANCH   7  14
TORSDOF 4
ENDMDL
MODEL 4
REMARK VINA RESULT: -4.963820555      2.061      4.336
REMARK  4 active torsions:
REMARK  status: ('A' for Active; 'I' for Inactive)
REMARK    1  A    between atoms: N1_1  and  C1_5 
REMARK    2  A    between atoms: C1_5  and  C2_6 
REMARK    3  A    between atoms: C2_6  and  C3_7 
REMARK    4  A    between atoms: N2_13  and  N3_14 
ROOT
HETATM    1  C3  UNL     1     -19.068 -13.517  15.321  1.00  0.00    -0.006 C 
HETATM    2  C4  UNL     1     -18.515 -12.714  16.481  1.00  0.00     0.027 C 
HETATM    3  C5  UNL     1     -19.053 -13.853  17.354  1.00  0.00     0.083 C 
HETATM    4  C6  UNL     1     -18.754 -14.746  16.138  1.00  0.00     0.010 C 
HETATM    5  C7  UNL     1     -17.311 -15.041  16.313  1.00  0.00     0.023 C 
HETATM    6  C8  UNL     1     -17.101 -15.027  17.817  1.00  0.00     0.114 C 
HETATM    7  N2  UNL     1     -18.172 -14.286  18.387  1.00  0.00    -0.233 NA
ENDROOT
BRANCH   1   8
HETATM    8  C2  UNL     1     -18.320 -13.473  14.041  1.00  0.00     0.032 C 
BRANCH   8   9
HETATM    9  C1  UNL     1     -18.549 -12.138  13.320  1.00  0.00     0.230 C 
BRANCH   9  10
HETATM   10  N1  UNL     1     -17.255 -11.753  12.790  1.00  0.00    -0.079 N 
ATOM     11  H13 UNL     1     -16.888 -10.890  13.192  1.00  0.00     0.274 HD
ATOM     12  H12 UNL     1     -16.492 -12.360  13.092  1.00  0.00     0.274 HD
ATOM     13  H11 UNL     1     -17.372 -11.717  11.778  1.00  0.00     0.274 HD
ENDBRANCH   9  10
ENDBRANCH   8   9
ENDBRANCH   1   8
BRANCH   7  14
HETATM   14  N3  UNL     1     -18.872 -15.025  19.322  1.00  0.00    -0.363 NA
ATOM     15  H32 UNL     1     -19.045 -14.494  20.176  1.00  0.00     0.171 HD
ATOM     16  H31 UNL     1     -18.355 -15.874  19.549  1.00  0.00     0.171 HD
ENDBRANCH   7  14
TORSDOF 4
ENDMDL
MODEL 5
REMARK VINA RESULT: -4.959119308      1.624      4.163
REMARK  4 active torsions:
REMARK  status: ('A' for Active; 'I' for Inactive)
REMARK    1  A    between atoms: N1_1  and  C1_5 
REMARK    2  A    between atoms: C1_5  and  C2_6 
REMARK    3  A    between atoms: C2_6  and  C3_7 
REMARK    4  A    between atoms: N2_13  and  N3_14 
ROOT
HETATM    1  C3  UNL     1     -17.647 -14.030  14.878  1.00  0.00    -0.006 C 
HETATM    2  C4  UNL     1     -17.829 -15.389  15.521  1.00  0.00     0.027 C 
HETATM    3  C5  UNL     1     -17.033 -14.797  16.690  1.00  0.00     0.083 C 
HETATM    4  C6  UNL     1     -17.677 -13.464  16.276  1.00  0.00     0.010 C 
HETATM    5  C7  UNL     1     -18.993 -13.526  16.958  1.00  0.00     0.023 C 
HETATM    6  C8  UNL     1     -18.733 -14.346  18.209  1.00  0.00     0.114 C 
HETATM    7  N2  UNL     1     -17.549 -15.100  17.982  1.00  0.00    -0.233 NA
ENDROOT
BRANCH   1   8
HETATM    8  C2  UNL     1     -18.751 -13.521  14.029  1.00  0.00     0.032 C 
BRANCH   8   9
HETATM    9  C1  UNL     1     -18.515 -12.053  13.649  1.00  0.00     0.230 C 
BRANCH   9  10
HETATM   10  N1  UNL     1     -17.328 -12.053  12.814  1.00  0.00    -0.079 N 
ATOM     11  H13 UNL     1     -16.573 -11.471  13.178  1.00  0.00     0.274 HD
ATOM     12  H12 UNL     1     -16.818 -12.936  12.828  1.00  0.00     0.274 HD
ATOM     13  H11 UNL     1     -17.646 -11.778  11.885  1.00  0.00     0.274 HD
ENDBRANCH   9  10
ENDBRANCH   8   9
ENDBRANCH   1   8
BRANCH   7  14
HETATM   14  N3  UNL     1     -16.586 -14.853  18.942  1.00  0.00    -0.363 NA
ATOM     15  H32 UNL     1     -15.669 -15.200  18.661  1.00  0.00     0.171 HD
ATOM     16  H31 UNL     1     -16.857 -15.285  19.825  1.00  0.00     0.171 HD
ENDBRANCH   7  14
TORSDOF 4
ENDMDL
