MODEL 1
REMARK VINA RESULT: -5.751967430      0.000      0.000
REMARK  2 active torsions:
REMARK  status: ('A' for Active; 'I' for Inactive)
REMARK    1  A    between atoms: C2_2  and  C3_3 
REMARK    2  A    between atoms: C2_2  and  C7_7 
ROOT
HETATM    1  C1  UNL     1       9.192  14.511 -17.335  1.00  0.00     0.015 C 
HETATM    2  C2  UNL     1       8.790  15.183 -16.057  1.00  0.00     0.041 C 
ENDROOT
BRANCH   2   3
HETATM    3  C3  UNL     1       8.040  16.449 -16.314  1.00  0.00    -0.006 C 
HETATM    4  C4  UNL     1       8.349  17.182 -17.577  1.00  0.00     0.005 C 
HETATM    5  C5  UNL     1       8.170  18.472 -16.759  1.00  0.00     0.001 C 
HETATM    6  C6  UNL     1       8.670  17.632 -15.575  1.00  0.00     0.005 C 
ENDBRANCH   2   3
BRANCH   2   7
HETATM    7  C7  UNL     1       8.050  14.219 -15.175  1.00  0.00     0.263 C 
HETATM    8  O1  UNL     1       8.625  14.099 -13.925  1.00  0.00    -0.359 OA
HETATM    9  C8  UNL     1       8.451  12.781 -13.519  1.00  0.00     0.197 C 
HETATM   10  C9  UNL     1       8.089  12.023 -14.753  1.00  0.00     0.197 C 
HETATM   11  O2  UNL     1       8.112  12.966 -15.771  1.00  0.00    -0.359 OA
ENDBRANCH   2   7
TORSDOF 2
ENDMDL
MODEL 2
REMARK VINA RESULT: -5.639898634      1.050      1.518
REMARK  2 active torsions:
REMARK  status: ('A' for Active; 'I' for Inactive)
REMARK    1  A    between atoms: C2_2  and  C3_3 
REMARK    2  A    between atoms: C2_2  and  C7_7 
ROOT
HETATM    1  C1  UNL     1       9.098  14.950 -18.834  1.00  0.00     0.015 C 
HETATM    2  C2  UNL     1       9.051  15.198 -17.357  1.00  0.00     0.041 C 
ENDROOT
BRANCH   2   3
HETATM    3  C3  UNL     1       8.070  16.270 -17.010  1.00  0.00    -0.006 C 
HETATM    4  C4  UNL     1       8.056  17.488 -17.873  1.00  0.00     0.005 C 
HETATM    5  C5  UNL     1       7.791  18.281 -16.582  1.00  0.00     0.001 C 
HETATM    6  C6  UNL     1       8.599  17.172 -15.893  1.00  0.00     0.005 C 
ENDBRANCH   2   3
BRANCH   2   7
HETATM    7  C7  UNL     1       8.812  13.909 -16.623  1.00  0.00     0.263 C 
HETATM    8  O1  UNL     1       7.467  13.630 -16.473  1.00  0.00    -0.359 OA
HETATM    9  C8  UNL     1       7.316  12.993 -15.247  1.00  0.00     0.197 C 
HETATM   10  C9  UNL     1       8.579  13.255 -14.497  1.00  0.00     0.197 C 
HETATM   11  O2  UNL     1       9.342  14.046 -15.347  1.00  0.00    -0.359 OA
ENDBRANCH   2   7
TORSDOF 2
ENDMDL
MODEL 3
REMARK VINA RESULT: -5.621532218      1.352      1.748
REMARK  2 active torsions:
REMARK  status: ('A' for Active; 'I' for Inactive)
REMARK    1  A    between atoms: C2_2  and  C3_3 
REMARK    2  A    between atoms: C2_2  and  C7_7 
ROOT
HETATM    1  C1  UNL     1       6.871  14.868 -18.032  1.00  0.00     0.015 C 
HETATM    2  C2  UNL     1       8.219  14.873 -17.378  1.00  0.00     0.041 C 
ENDROOT
BRANCH   2   3
HETATM    3  C3  UNL     1       8.699  16.264 -17.119  1.00  0.00    -0.006 C 
HETATM    4  C4  UNL     1       8.642  16.756 -15.711  1.00  0.00     0.005 C 
HETATM    5  C5  UNL     1       8.254  18.120 -16.304  1.00  0.00     0.001 C 
HETATM    6  C6  UNL     1       7.615  17.297 -17.433  1.00  0.00     0.005 C 
ENDBRANCH   2   3
BRANCH   2   7
HETATM    7  C7  UNL     1       8.203  14.009 -16.150  1.00  0.00     0.263 C 
HETATM    8  O1  UNL     1       9.159  13.012 -16.194  1.00  0.00    -0.359 OA
HETATM    9  C8  UNL     1       8.624  11.903 -15.551  1.00  0.00     0.197 C 
HETATM   10  C9  UNL     1       7.155  12.156 -15.465  1.00  0.00     0.197 C 
HETATM   11  O2  UNL     1       6.966  13.380 -16.091  1.00  0.00    -0.359 OA
ENDBRANCH   2   7
TORSDOF 2
ENDMDL
MODEL 4
REMARK VINA RESULT: -5.595228144      1.297      2.373
REMARK  2 active torsions:
REMARK  status: ('A' for Active; 'I' for Inactive)
REMARK    1  A    between atoms: C2_2  and  C3_3 
REMARK    2  A    between atoms: C2_2  and  C7_7 
ROOT
HETATM    1  C1  UNL     1       8.825  16.265 -15.505  1.00  0.00     0.015 C 
HETATM    2  C2  UNL     1       8.187  14.979 -15.933  1.00  0.00     0.041 C 
ENDROOT
BRANCH   2   3
HETATM    3  C3  UNL     1       8.373  14.733 -17.395  1.00  0.00    -0.006 C 
HETATM    4  C4  UNL     1       8.796  15.893 -18.234  1.00  0.00     0.005 C 
HETATM    5  C5  UNL     1       7.871  15.321 -19.321  1.00  0.00     0.001 C 
HETATM    6  C6  UNL     1       7.040  14.788 -18.145  1.00  0.00     0.005 C 
ENDBRANCH   2   3
BRANCH   2   7
HETATM    7  C7  UNL     1       8.672  13.847 -15.072  1.00  0.00     0.263 C 
HETATM    8  O1  UNL     1       8.523  12.618 -15.684  1.00  0.00    -0.359 OA
HETATM    9  C8  UNL     1       8.227  11.698 -14.686  1.00  0.00     0.197 C 
HETATM   10  C9  UNL     1       7.820  12.506 -13.498  1.00  0.00     0.197 C 
HETATM   11  O2  UNL     1       7.892  13.826 -13.924  1.00  0.00    -0.359 OA
ENDBRANCH   2   7
TORSDOF 2
ENDMDL
MODEL 5
REMARK VINA RESULT: -5.550205263      1.479      2.677
REMARK  2 active torsions:
REMARK  status: ('A' for Active; 'I' for Inactive)
REMARK    1  A    between atoms: C2_2  and  C3_3 
REMARK    2  A    between atoms: C2_2  and  C7_7 
ROOT
HETATM    1  C1  UNL     1       8.405  16.649 -16.210  1.00  0.00     0.015 C 
HETATM    2  C2  UNL     1       8.434  15.349 -16.955  1.00  0.00     0.041 C 
ENDROOT
BRANCH   2   3
HETATM    3  C3  UNL     1       9.118  15.488 -18.276  1.00  0.00    -0.006 C 
HETATM    4  C4  UNL     1       8.719  16.642 -19.134  1.00  0.00     0.005 C 
HETATM    5  C5  UNL     1       8.884  15.687 -20.329  1.00  0.00     0.001 C 
HETATM    6  C6  UNL     1       8.476  14.589 -19.335  1.00  0.00     0.005 C 
ENDBRANCH   2   3
BRANCH   2   7
HETATM    7  C7  UNL     1       9.019  14.269 -16.090  1.00  0.00     0.263 C 
HETATM    8  O1  UNL     1       8.297  13.093 -16.154  1.00  0.00    -0.359 OA
HETATM    9  C8  UNL     1       8.358  12.507 -14.896  1.00  0.00     0.197 C 
HETATM   10  C9  UNL     1       8.824  13.582 -13.972  1.00  0.00     0.197 C 
HETATM   11  O2  UNL     1       8.966  14.706 -14.774  1.00  0.00    -0.359 OA
ENDBRANCH   2   7
TORSDOF 2
ENDMDL
