MODEL 1
REMARK VINA RESULT: -6.761712735      0.000      0.000
REMARK  2 active torsions:
REMARK  status: ('A' for Active; 'I' for Inactive)
REMARK    1  A    between atoms: C2_2  and  C3_3 
REMARK    2  A    between atoms: C4_5  and  C5_6 
ROOT
HETATM    1  C5  UNL     1       8.794  13.541 -15.860  1.00  0.00     0.033 C 
HETATM    2  C6  UNL     1       7.371  12.985 -15.673  1.00  0.00     0.013 C 
HETATM    3  C7  UNL     1       7.471  11.984 -14.537  1.00  0.00     0.027 C 
HETATM    4  C8  UNL     1       8.529  12.478 -13.571  1.00  0.00     0.167 C 
HETATM    5  O2  UNL     1       8.554  13.867 -13.501  1.00  0.00    -0.390 OA
HETATM    6  C9  UNL     1       9.051  14.422 -14.712  1.00  0.00     0.176 C 
ENDROOT
BRANCH   1   7
HETATM    7  C4  UNL     1       8.980  14.059 -17.203  1.00  0.00    -0.010 C 
HETATM    8  C2  UNL     1       8.788  15.212 -17.745  1.00  0.00    -0.028 C 
HETATM    9  C1  UNL     1       8.280  16.401 -17.065  1.00  0.00     0.051 C 
BRANCH   8  10
HETATM   10  C3  UNL     1       9.101  15.372 -19.204  1.00  0.00     0.265 C 
HETATM   11  O1  UNL     1       8.774  14.470 -20.008  1.00  0.00    -0.302 OA
ENDBRANCH   8  10
ENDBRANCH   1   7
TORSDOF 2
ENDMDL
MODEL 2
REMARK VINA RESULT: -6.305383485      1.576      4.732
REMARK  2 active torsions:
REMARK  status: ('A' for Active; 'I' for Inactive)
REMARK    1  A    between atoms: C2_2  and  C3_3 
REMARK    2  A    between atoms: C4_5  and  C5_6 
ROOT
HETATM    1  C5  UNL     1       8.269  15.186 -16.209  1.00  0.00     0.033 C 
HETATM    2  C6  UNL     1       9.239  14.835 -17.351  1.00  0.00     0.013 C 
HETATM    3  C7  UNL     1       8.667  15.497 -18.590  1.00  0.00     0.027 C 
HETATM    4  C8  UNL     1       7.989  16.784 -18.161  1.00  0.00     0.167 C 
HETATM    5  O2  UNL     1       8.646  17.379 -17.090  1.00  0.00    -0.390 OA
HETATM    6  C9  UNL     1       8.479  16.609 -15.906  1.00  0.00     0.176 C 
ENDROOT
BRANCH   1   7
HETATM    7  C4  UNL     1       8.355  14.216 -15.134  1.00  0.00    -0.010 C 
HETATM    8  C2  UNL     1       7.772  13.090 -14.904  1.00  0.00    -0.028 C 
HETATM    9  C1  UNL     1       6.776  12.453 -15.763  1.00  0.00     0.051 C 
BRANCH   8  10
HETATM   10  C3  UNL     1       8.126  12.350 -13.647  1.00  0.00     0.265 C 
HETATM   11  O1  UNL     1       9.099  12.733 -12.959  1.00  0.00    -0.302 OA
ENDBRANCH   8  10
ENDBRANCH   1   7
TORSDOF 2
ENDMDL
MODEL 3
REMARK VINA RESULT: -6.225439431      1.420      4.987
REMARK  2 active torsions:
REMARK  status: ('A' for Active; 'I' for Inactive)
REMARK    1  A    between atoms: C2_2  and  C3_3 
REMARK    2  A    between atoms: C4_5  and  C5_6 
ROOT
HETATM    1  C5  UNL     1       8.305  15.570 -17.433  1.00  0.00     0.033 C 
HETATM    2  C6  UNL     1       9.186  14.912 -18.509  1.00  0.00     0.013 C 
HETATM    3  C7  UNL     1       8.465  15.142 -19.823  1.00  0.00     0.027 C 
HETATM    4  C8  UNL     1       7.752  16.478 -19.737  1.00  0.00     0.167 C 
HETATM    5  O2  UNL     1       8.468  17.394 -18.974  1.00  0.00    -0.390 OA
HETATM    6  C9  UNL     1       8.457  17.022 -17.601  1.00  0.00     0.176 C 
ENDROOT
BRANCH   1   7
HETATM    7  C4  UNL     1       8.547  14.983 -16.128  1.00  0.00    -0.010 C 
HETATM    8  C2  UNL     1       8.068  13.958 -15.512  1.00  0.00    -0.028 C 
HETATM    9  C1  UNL     1       7.056  13.042 -16.037  1.00  0.00     0.051 C 
BRANCH   8  10
HETATM   10  C3  UNL     1       8.574  13.656 -14.132  1.00  0.00     0.265 C 
HETATM   11  O1  UNL     1       7.760  13.357 -13.229  1.00  0.00    -0.302 OA
ENDBRANCH   8  10
ENDBRANCH   1   7
TORSDOF 2
ENDMDL
MODEL 4
REMARK VINA RESULT: -6.220932337      1.589      1.829
REMARK  2 active torsions:
REMARK  status: ('A' for Active; 'I' for Inactive)
REMARK    1  A    between atoms: C2_2  and  C3_3 
REMARK    2  A    between atoms: C4_5  and  C5_6 
ROOT
HETATM    1  C5  UNL     1       8.384  14.206 -15.740  1.00  0.00     0.033 C 
HETATM    2  C6  UNL     1       7.066  13.420 -15.859  1.00  0.00     0.013 C 
HETATM    3  C7  UNL     1       7.414  11.985 -15.512  1.00  0.00     0.027 C 
HETATM    4  C8  UNL     1       8.520  12.010 -14.475  1.00  0.00     0.167 C 
HETATM    5  O2  UNL     1       8.397  13.098 -13.618  1.00  0.00    -0.390 OA
HETATM    6  C9  UNL     1       8.678  14.312 -14.303  1.00  0.00     0.176 C 
ENDROOT
BRANCH   1   7
HETATM    7  C4  UNL     1       8.348  15.414 -16.543  1.00  0.00    -0.010 C 
HETATM    8  C2  UNL     1       8.618  15.668 -17.777  1.00  0.00    -0.028 C 
HETATM    9  C1  UNL     1       9.077  14.698 -18.769  1.00  0.00     0.051 C 
BRANCH   8  10
HETATM   10  C3  UNL     1       8.460  17.080 -18.262  1.00  0.00     0.265 C 
HETATM   11  O1  UNL     1       8.382  18.013 -17.431  1.00  0.00    -0.302 OA
ENDBRANCH   8  10
ENDBRANCH   1   7
TORSDOF 2
ENDMDL
MODEL 5
REMARK VINA RESULT: -6.168163504      1.413      5.105
REMARK  2 active torsions:
REMARK  status: ('A' for Active; 'I' for Inactive)
REMARK    1  A    between atoms: C2_2  and  C3_3 
REMARK    2  A    between atoms: C4_5  and  C5_6 
ROOT
HETATM    1  C5  UNL     1       7.944  14.616 -17.841  1.00  0.00     0.033 C 
HETATM    2  C6  UNL     1       8.993  15.530 -18.499  1.00  0.00     0.013 C 
HETATM    3  C7  UNL     1       8.984  15.165 -19.972  1.00  0.00     0.027 C 
HETATM    4  C8  UNL     1       7.570  14.768 -20.346  1.00  0.00     0.167 C 
HETATM    5  O2  UNL     1       6.624  15.497 -19.633  1.00  0.00    -0.390 OA
HETATM    6  C9  UNL     1       6.629  15.120 -18.261  1.00  0.00     0.176 C 
ENDROOT
BRANCH   1   7
HETATM    7  C4  UNL     1       8.215  14.446 -16.425  1.00  0.00    -0.010 C 
HETATM    8  C2  UNL     1       7.853  13.572 -15.550  1.00  0.00    -0.028 C 
HETATM    9  C1  UNL     1       6.990  12.419 -15.801  1.00  0.00     0.051 C 
BRANCH   8  10
HETATM   10  C3  UNL     1       8.344  13.731 -14.141  1.00  0.00     0.265 C 
HETATM   11  O1  UNL     1       7.631  13.334 -13.191  1.00  0.00    -0.302 OA
ENDBRANCH   8  10
ENDBRANCH   1   7
TORSDOF 2
ENDMDL
