MODEL 1
REMARK VINA RESULT: -6.315770863      0.000      0.000
REMARK  8 active torsions:
REMARK  status: ('A' for Active; 'I' for Inactive)
REMARK    1  A    between atoms: C2_2  and  N1_4 
REMARK    2  A    between atoms: N1_4  and  C4_5 
REMARK    3  A    between atoms: N1_4  and  C7_14 
REMARK    4  A    between atoms: C4_5  and  C5_6 
REMARK    5  A    between atoms: C5_6  and  N2_7 
REMARK    6  A    between atoms: C5_6  and  C6_11 
REMARK    7  A    between atoms: C8_17  and  C9_18 
REMARK    8  A    between atoms: C13_24  and  C14_25 
ROOT
HETATM    1  C7  UNL     1      -0.057  77.863   6.214  1.00  0.00     0.121 A 
HETATM    2  N3  UNL     1      -1.207  77.052   6.189  1.00  0.00    -0.331 N 
ATOM      3  H3  UNL     1      -1.081  76.048   6.319  1.00  0.00     0.168 HD
HETATM    4  C8  UNL     1      -2.424  77.491   6.012  1.00  0.00     0.086 A 
HETATM    5  N4  UNL     1      -2.601  78.804   5.843  1.00  0.00    -0.355 N 
ATOM      6  H4  UNL     1      -3.542  79.173   5.704  1.00  0.00     0.166 HD
HETATM    7  C12 UNL     1      -1.569  79.633   5.855  1.00  0.00     0.101 A 
HETATM    8  C13 UNL     1      -0.224  79.201   6.045  1.00  0.00     0.009 A 
ENDROOT
BRANCH   1   9
HETATM    9  N1  UNL     1       1.120  77.171   6.349  1.00  0.00    -0.317 N 
BRANCH   9  10
HETATM   10  C2  UNL     1       1.519  76.239   5.284  1.00  0.00    -0.013 C 
HETATM   11  C1  UNL     1       2.236  76.789   4.135  1.00  0.00     0.063 C 
HETATM   12  C3  UNL     1       2.026  74.919   5.716  1.00  0.00     0.063 C 
ENDBRANCH   9  10
BRANCH   9  13
HETATM   13  C4  UNL     1       2.050  77.120   7.408  1.00  0.00     0.115 C 
BRANCH  13  14
HETATM   14  C5  UNL     1       1.786  76.597   8.740  1.00  0.00     0.322 C 
BRANCH  14  15
HETATM   15  N2  UNL     1       1.496  77.832   9.580  1.00  0.00    -0.061 N 
ATOM     16  H23 UNL     1       1.663  77.706  10.579  1.00  0.00     0.275 HD
ATOM     17  H22 UNL     1       2.164  78.591   9.450  1.00  0.00     0.275 HD
ATOM     18  H21 UNL     1       0.535  78.078   9.345  1.00  0.00     0.275 HD
ENDBRANCH  14  15
BRANCH  14  19
HETATM   19  C6  UNL     1       0.665  75.730   9.051  1.00  0.00     0.209 C 
HETATM   20  O1  UNL     1       0.799  74.476   9.277  1.00  0.00    -0.646 OA
HETATM   21  O2  UNL     1      -0.663  76.236   9.122  1.00  0.00    -0.646 OA
ENDBRANCH  14  19
ENDBRANCH  13  14
ENDBRANCH   9  13
ENDBRANCH   1   9
BRANCH   8  22
HETATM   22  C14 UNL     1       0.761  80.229   6.048  1.00  0.00    -0.019 C 
HETATM   23  C15 UNL     1       0.067  81.580   5.629  1.00  0.00     0.019 C 
HETATM   24  C16 UNL     1       1.944  80.245   5.147  1.00  0.00     0.019 C 
HETATM   25  C17 UNL     1       1.166  80.612   7.477  1.00  0.00     0.019 C 
ENDBRANCH   8  22
BRANCH   4  26
HETATM   26  C9  UNL     1      -3.623  76.614   5.988  1.00  0.00     0.053 A 
HETATM   27  C10 UNL     1      -4.726  76.862   5.053  1.00  0.00     0.013 A 
HETATM   28  C11 UNL     1      -3.755  75.830   4.653  1.00  0.00     0.013 A 
ENDBRANCH   4  26
TORSDOF 8
ENDMDL
MODEL 2
REMARK VINA RESULT: -6.136477266      0.983      1.528
REMARK  8 active torsions:
REMARK  status: ('A' for Active; 'I' for Inactive)
REMARK    1  A    between atoms: C2_2  and  N1_4 
REMARK    2  A    between atoms: N1_4  and  C4_5 
REMARK    3  A    between atoms: N1_4  and  C7_14 
REMARK    4  A    between atoms: C4_5  and  C5_6 
REMARK    5  A    between atoms: C5_6  and  N2_7 
REMARK    6  A    between atoms: C5_6  and  C6_11 
REMARK    7  A    between atoms: C8_17  and  C9_18 
REMARK    8  A    between atoms: C13_24  and  C14_25 
ROOT
HETATM    1  C7  UNL     1      -0.460  78.806   6.340  1.00  0.00     0.121 A 
HETATM    2  N3  UNL     1      -1.435  77.791   6.312  1.00  0.00    -0.331 N 
ATOM      3  H3  UNL     1      -1.156  76.858   6.615  1.00  0.00     0.168 HD
HETATM    4  C8  UNL     1      -2.672  77.957   5.926  1.00  0.00     0.086 A 
HETATM    5  N4  UNL     1      -3.050  79.175   5.529  1.00  0.00    -0.355 N 
ATOM      6  H4  UNL     1      -4.010  79.331   5.223  1.00  0.00     0.166 HD
HETATM    7  C12 UNL     1      -2.191  80.183   5.528  1.00  0.00     0.101 A 
HETATM    8  C13 UNL     1      -0.833  80.050   5.940  1.00  0.00     0.009 A 
ENDROOT
BRANCH   1   9
HETATM    9  N1  UNL     1       0.787  78.381   6.721  1.00  0.00    -0.317 N 
BRANCH   9  10
HETATM   10  C2  UNL     1       1.745  77.979   5.681  1.00  0.00    -0.013 C 
HETATM   11  C1  UNL     1       3.136  78.404   5.840  1.00  0.00     0.063 C 
HETATM   12  C3  UNL     1       1.608  76.606   5.151  1.00  0.00     0.063 C 
ENDBRANCH   9  10
BRANCH   9  13
HETATM   13  C4  UNL     1       1.346  78.173   7.999  1.00  0.00     0.115 C 
BRANCH  13  14
HETATM   14  C5  UNL     1       1.489  76.885   8.660  1.00  0.00     0.322 C 
BRANCH  14  15
HETATM   15  N2  UNL     1       1.889  77.235  10.086  1.00  0.00    -0.061 N 
ATOM     16  H23 UNL     1       2.032  78.232  10.246  1.00  0.00     0.275 HD
ATOM     17  H22 UNL     1       1.141  77.118  10.769  1.00  0.00     0.275 HD
ATOM     18  H21 UNL     1       2.712  76.660  10.266  1.00  0.00     0.275 HD
ENDBRANCH  14  15
BRANCH  14  19
HETATM   19  C6  UNL     1       0.388  75.961   8.855  1.00  0.00     0.209 C 
HETATM   20  O1  UNL     1      -0.840  76.319   8.786  1.00  0.00    -0.646 OA
HETATM   21  O2  UNL     1       0.619  74.585   9.137  1.00  0.00    -0.646 OA
ENDBRANCH  14  19
ENDBRANCH  13  14
ENDBRANCH   9  13
ENDBRANCH   1   9
BRANCH   8  22
HETATM   22  C14 UNL     1      -0.054  81.241   5.893  1.00  0.00    -0.019 C 
HETATM   23  C15 UNL     1       0.816  81.212   4.579  1.00  0.00     0.019 C 
HETATM   24  C16 UNL     1       0.987  81.589   6.896  1.00  0.00     0.019 C 
HETATM   25  C17 UNL     1      -0.921  82.464   5.568  1.00  0.00     0.019 C 
ENDBRANCH   8  22
BRANCH   4  26
HETATM   26  C9  UNL     1      -3.683  76.868   5.903  1.00  0.00     0.053 A 
HETATM   27  C10 UNL     1      -4.612  76.718   4.778  1.00  0.00     0.013 A 
HETATM   28  C11 UNL     1      -3.426  75.846   4.762  1.00  0.00     0.013 A 
ENDBRANCH   4  26
TORSDOF 8
ENDMDL
MODEL 3
REMARK VINA RESULT: -5.974300119      1.259      1.469
REMARK  8 active torsions:
REMARK  status: ('A' for Active; 'I' for Inactive)
REMARK    1  A    between atoms: C2_2  and  N1_4 
REMARK    2  A    between atoms: N1_4  and  C4_5 
REMARK    3  A    between atoms: N1_4  and  C7_14 
REMARK    4  A    between atoms: C4_5  and  C5_6 
REMARK    5  A    between atoms: C5_6  and  N2_7 
REMARK    6  A    between atoms: C5_6  and  C6_11 
REMARK    7  A    between atoms: C8_17  and  C9_18 
REMARK    8  A    between atoms: C13_24  and  C14_25 
ROOT
HETATM    1  C7  UNL     1      -0.328  77.707   6.309  1.00  0.00     0.121 A 
HETATM    2  N3  UNL     1      -1.500  76.936   6.196  1.00  0.00    -0.331 N 
ATOM      3  H3  UNL     1      -1.421  75.930   6.346  1.00  0.00     0.168 HD
HETATM    4  C8  UNL     1      -2.682  77.414   5.915  1.00  0.00     0.086 A 
HETATM    5  N4  UNL     1      -2.799  78.730   5.720  1.00  0.00    -0.355 N 
ATOM      6  H4  UNL     1      -3.711  79.129   5.500  1.00  0.00     0.166 HD
HETATM    7  C12 UNL     1      -1.743  79.524   5.810  1.00  0.00     0.101 A 
HETATM    8  C13 UNL     1      -0.434  79.048   6.114  1.00  0.00     0.009 A 
ENDROOT
BRANCH   1   9
HETATM    9  N1  UNL     1       0.808  76.977   6.548  1.00  0.00    -0.317 N 
BRANCH   9  10
HETATM   10  C2  UNL     1       1.299  76.070   5.500  1.00  0.00    -0.013 C 
HETATM   11  C1  UNL     1       2.027  76.661   4.377  1.00  0.00     0.063 C 
HETATM   12  C3  UNL     1       1.865  74.782   5.953  1.00  0.00     0.063 C 
ENDBRANCH   9  10
BRANCH   9  13
HETATM   13  C4  UNL     1       1.613  76.864   7.701  1.00  0.00     0.115 C 
BRANCH  13  14
HETATM   14  C5  UNL     1       1.132  76.895   9.073  1.00  0.00     0.322 C 
BRANCH  14  15
HETATM   15  N2  UNL     1       0.918  75.431   9.431  1.00  0.00    -0.061 N 
ATOM     16  H23 UNL     1       0.653  74.844   8.640  1.00  0.00     0.275 HD
ATOM     17  H22 UNL     1       1.774  74.929   9.662  1.00  0.00     0.275 HD
ATOM     18  H21 UNL     1       0.231  75.453  10.184  1.00  0.00     0.275 HD
ENDBRANCH  14  15
BRANCH  14  19
HETATM   19  C6  UNL     1       1.924  77.383  10.187  1.00  0.00     0.209 C 
HETATM   20  O1  UNL     1       1.797  78.564  10.664  1.00  0.00    -0.646 OA
HETATM   21  O2  UNL     1       2.898  76.559  10.817  1.00  0.00    -0.646 OA
ENDBRANCH  14  19
ENDBRANCH  13  14
ENDBRANCH   9  13
ENDBRANCH   1   9
BRANCH   8  22
HETATM   22  C14 UNL     1       0.583  80.042   6.189  1.00  0.00    -0.019 C 
HETATM   23  C15 UNL     1      -0.055  81.432   5.808  1.00  0.00     0.019 C 
HETATM   24  C16 UNL     1       1.792  80.056   5.324  1.00  0.00     0.019 C 
HETATM   25  C17 UNL     1       0.957  80.351   7.644  1.00  0.00     0.019 C 
ENDBRANCH   8  22
BRANCH   4  26
HETATM   26  C9  UNL     1      -3.905  76.579   5.800  1.00  0.00     0.053 A 
HETATM   27  C10 UNL     1      -4.867  76.786   4.712  1.00  0.00     0.013 A 
HETATM   28  C11 UNL     1      -3.898  75.693   4.523  1.00  0.00     0.013 A 
ENDBRANCH   4  26
TORSDOF 8
ENDMDL
MODEL 4
REMARK VINA RESULT: -5.804997677      1.665      2.483
REMARK  8 active torsions:
REMARK  status: ('A' for Active; 'I' for Inactive)
REMARK    1  A    between atoms: C2_2  and  N1_4 
REMARK    2  A    between atoms: N1_4  and  C4_5 
REMARK    3  A    between atoms: N1_4  and  C7_14 
REMARK    4  A    between atoms: C4_5  and  C5_6 
REMARK    5  A    between atoms: C5_6  and  N2_7 
REMARK    6  A    between atoms: C5_6  and  C6_11 
REMARK    7  A    between atoms: C8_17  and  C9_18 
REMARK    8  A    between atoms: C13_24  and  C14_25 
ROOT
HETATM    1  C7  UNL     1      -0.530  79.413   6.249  1.00  0.00     0.121 A 
HETATM    2  N3  UNL     1      -0.999  78.110   6.503  1.00  0.00    -0.331 N 
ATOM      3  H3  UNL     1      -0.342  77.440   6.901  1.00  0.00     0.168 HD
HETATM    4  C8  UNL     1      -2.215  77.698   6.264  1.00  0.00     0.086 A 
HETATM    5  N4  UNL     1      -3.085  78.568   5.745  1.00  0.00    -0.355 N 
ATOM      6  H4  UNL     1      -4.041  78.271   5.551  1.00  0.00     0.166 HD
HETATM    7  C12 UNL     1      -2.720  79.813   5.479  1.00  0.00     0.101 A 
HETATM    8  C13 UNL     1      -1.406  80.308   5.722  1.00  0.00     0.009 A 
ENDROOT
BRANCH   1   9
HETATM    9  N1  UNL     1       0.803  79.596   6.519  1.00  0.00    -0.317 N 
BRANCH   9  10
HETATM   10  C2  UNL     1       1.763  79.544   5.407  1.00  0.00    -0.013 C 
HETATM   11  C1  UNL     1       2.827  80.548   5.383  1.00  0.00     0.063 C 
HETATM   12  C3  UNL     1       2.213  78.201   4.984  1.00  0.00     0.063 C 
ENDBRANCH   9  10
BRANCH   9  13
HETATM   13  C4  UNL     1       1.487  79.766   7.741  1.00  0.00     0.115 C 
BRANCH  13  14
HETATM   14  C5  UNL     1       2.131  78.708   8.503  1.00  0.00     0.322 C 
BRANCH  14  15
HETATM   15  N2  UNL     1       3.070  79.442   9.449  1.00  0.00    -0.061 N 
ATOM     16  H23 UNL     1       2.810  80.412   9.624  1.00  0.00     0.275 HD
ATOM     17  H22 UNL     1       3.010  79.133  10.419  1.00  0.00     0.275 HD
ATOM     18  H21 UNL     1       3.992  79.326   9.030  1.00  0.00     0.275 HD
ENDBRANCH  14  15
BRANCH  14  19
HETATM   19  C6  UNL     1       1.414  77.815   9.394  1.00  0.00     0.209 C 
HETATM   20  O1  UNL     1       0.371  77.165   9.034  1.00  0.00    -0.646 OA
HETATM   21  O2  UNL     1       1.840  77.612  10.736  1.00  0.00    -0.646 OA
ENDBRANCH  14  19
ENDBRANCH  13  14
ENDBRANCH   9  13
ENDBRANCH   1   9
BRANCH   8  22
HETATM   22  C14 UNL     1      -1.192  81.677   5.394  1.00  0.00    -0.019 C 
HETATM   23  C15 UNL     1      -0.610  81.751   3.931  1.00  0.00     0.019 C 
HETATM   24  C16 UNL     1      -0.230  82.559   6.109  1.00  0.00     0.019 C 
HETATM   25  C17 UNL     1      -2.518  82.409   5.152  1.00  0.00     0.019 C 
ENDBRANCH   8  22
BRANCH   4  26
HETATM   26  C9  UNL     1      -2.686  76.316   6.539  1.00  0.00     0.053 A 
HETATM   27  C10 UNL     1      -3.941  75.814   5.969  1.00  0.00     0.013 A 
HETATM   28  C11 UNL     1      -2.707  75.433   5.261  1.00  0.00     0.013 A 
ENDBRANCH   4  26
TORSDOF 8
ENDMDL
MODEL 5
REMARK VINA RESULT: -5.759873853      2.484      4.549
REMARK  8 active torsions:
REMARK  status: ('A' for Active; 'I' for Inactive)
REMARK    1  A    between atoms: C2_2  and  N1_4 
REMARK    2  A    between atoms: N1_4  and  C4_5 
REMARK    3  A    between atoms: N1_4  and  C7_14 
REMARK    4  A    between atoms: C4_5  and  C5_6 
REMARK    5  A    between atoms: C5_6  and  N2_7 
REMARK    6  A    between atoms: C5_6  and  C6_11 
REMARK    7  A    between atoms: C8_17  and  C9_18 
REMARK    8  A    between atoms: C13_24  and  C14_25 
ROOT
HETATM    1  C7  UNL     1      -0.324  78.405   6.622  1.00  0.00     0.121 A 
HETATM    2  N3  UNL     1      -0.936  79.388   5.822  1.00  0.00    -0.331 N 
ATOM      3  H3  UNL     1      -1.692  79.092   5.205  1.00  0.00     0.168 HD
HETATM    4  C8  UNL     1      -0.606  80.651   5.813  1.00  0.00     0.086 A 
HETATM    5  N4  UNL     1       0.381  81.050   6.619  1.00  0.00    -0.355 N 
ATOM      6  H4  UNL     1       0.657  82.032   6.631  1.00  0.00     0.166 HD
HETATM    7  C12 UNL     1       1.006  80.186   7.403  1.00  0.00     0.101 A 
HETATM    8  C13 UNL     1       0.681  78.798   7.448  1.00  0.00     0.009 A 
ENDROOT
BRANCH   1   9
HETATM    9  N1  UNL     1      -0.794  77.133   6.413  1.00  0.00    -0.317 N 
BRANCH   9  10
HETATM   10  C2  UNL     1       0.060  76.170   5.703  1.00  0.00    -0.013 C 
HETATM   11  C1  UNL     1       1.147  76.705   4.882  1.00  0.00     0.063 C 
HETATM   12  C3  UNL     1       0.431  74.944   6.441  1.00  0.00     0.063 C 
ENDBRANCH   9  10
BRANCH   9  13
HETATM   13  C4  UNL     1      -2.044  76.547   6.702  1.00  0.00     0.115 C 
BRANCH  13  14
HETATM   14  C5  UNL     1      -3.075  76.230   5.725  1.00  0.00     0.322 C 
BRANCH  14  15
HETATM   15  N2  UNL     1      -4.168  75.551   6.537  1.00  0.00    -0.061 N 
ATOM     16  H23 UNL     1      -5.042  76.075   6.581  1.00  0.00     0.275 HD
ATOM     17  H22 UNL     1      -4.559  74.719   6.097  1.00  0.00     0.275 HD
ATOM     18  H21 UNL     1      -3.738  75.380   7.446  1.00  0.00     0.275 HD
ENDBRANCH  14  15
BRANCH  14  19
HETATM   19  C6  UNL     1      -3.809  77.238   4.983  1.00  0.00     0.209 C 
HETATM   20  O1  UNL     1      -3.860  78.466   5.343  1.00  0.00    -0.646 OA
HETATM   21  O2  UNL     1      -4.521  76.908   3.796  1.00  0.00    -0.646 OA
ENDBRANCH  14  19
ENDBRANCH  13  14
ENDBRANCH   9  13
ENDBRANCH   1   9
BRANCH   8  22
HETATM   22  C14 UNL     1       1.441  78.015   8.362  1.00  0.00    -0.019 C 
HETATM   23  C15 UNL     1       1.974  78.963   9.502  1.00  0.00     0.019 C 
HETATM   24  C16 UNL     1       2.695  77.303   7.998  1.00  0.00     0.019 C 
HETATM   25  C17 UNL     1       0.538  77.115   9.214  1.00  0.00     0.019 C 
ENDBRANCH   8  22
BRANCH   4  26
HETATM   26  C9  UNL     1      -1.266  81.671   4.957  1.00  0.00     0.053 A 
HETATM   27  C10 UNL     1      -2.701  81.951   5.079  1.00  0.00     0.013 A 
HETATM   28  C11 UNL     1      -1.797  82.878   5.779  1.00  0.00     0.013 A 
ENDBRANCH   4  26
TORSDOF 8
ENDMDL
