MODEL 1
REMARK VINA RESULT: -7.364880253      0.000      0.000
REMARK  7 active torsions:
REMARK  status: ('A' for Active; 'I' for Inactive)
REMARK    1  A    between atoms: C2_2  and  C3_3 
REMARK       I    between atoms: C3_3  and  N1_5 
REMARK    2  A    between atoms: N1_5  and  C4_6 
REMARK    3  A    between atoms: N1_5  and  C9_20 
REMARK    4  A    between atoms: C5_9  and  C6_10 
REMARK    5  A    between atoms: C6_10  and  S1_11 
REMARK    6  A    between atoms: S1_11  and  C7_12 
REMARK    7  A    between atoms: C7_12  and  C8_13 
ROOT
HETATM    1  C4  UNL     1      -0.918  76.020   6.762  1.00  0.00     0.703 A 
HETATM    2  N2  UNL     1       0.234  75.505   6.339  1.00  0.00    -0.177 N 
ATOM      3  H2  UNL     1       0.642  75.628   5.412  1.00  0.00     0.185 HD
HETATM    4  C5  UNL     1       0.764  74.794   7.350  1.00  0.00     0.121 A 
HETATM    5  N3  UNL     1      -0.094  74.893   8.391  1.00  0.00    -0.274 N 
ATOM      6  H3  UNL     1       0.029  74.460   9.306  1.00  0.00     0.189 HD
HETATM    7  N4  UNL     1      -1.110  75.637   8.027  1.00  0.00    -0.130 N 
ATOM      8  H4  UNL     1      -1.911  75.881   8.610  1.00  0.00     0.205 HD
ENDROOT
BRANCH   1   9
HETATM    9  N1  UNL     1      -1.844  76.850   6.040  1.00  0.00    -0.145 N 
HETATM   10  C3  UNL     1      -1.736  78.245   6.197  1.00  0.00     0.238 C 
HETATM   11  O1  UNL     1      -0.804  78.669   6.965  1.00  0.00    -0.273 OA
BRANCH  10  12
HETATM   12  C2  UNL     1      -2.628  79.242   5.535  1.00  0.00     0.099 C 
HETATM   13  C1  UNL     1      -1.951  80.578   5.447  1.00  0.00     0.014 C 
ENDBRANCH  10  12
BRANCH   9  14
HETATM   14  C9  UNL     1      -2.848  76.298   5.174  1.00  0.00     0.111 C 
HETATM   15  C10 UNL     1      -4.247  76.789   5.560  1.00  0.00     0.026 C 
HETATM   16  C11 UNL     1      -5.170  76.469   4.386  1.00  0.00     0.002 C 
HETATM   17  C12 UNL     1      -5.060  75.036   3.965  1.00  0.00     0.000 C 
HETATM   18  C13 UNL     1      -4.301  74.264   5.012  1.00  0.00     0.002 C 
HETATM   19  C14 UNL     1      -2.901  74.799   5.183  1.00  0.00     0.026 C 
ENDBRANCH   9  14
ENDBRANCH   1   9
BRANCH   4  20
HETATM   20  C6  UNL     1       2.018  74.009   7.333  1.00  0.00     0.152 C 
BRANCH  20  21
HETATM   21  S1  UNL     1       2.914  74.068   5.819  1.00  0.00    -0.151 SA
BRANCH  21  22
HETATM   22  C7  UNL     1       3.647  72.564   5.219  1.00  0.00     0.187 C 
BRANCH  22  23
HETATM   23  C8  UNL     1       3.441  72.298   3.784  1.00  0.00     0.182 C 
HETATM   24  O2  UNL     1       3.277  73.187   2.952  1.00  0.00    -0.647 OA
HETATM   25  O3  UNL     1       3.434  70.971   3.360  1.00  0.00    -0.647 OA
ENDBRANCH  22  23
ENDBRANCH  21  22
ENDBRANCH  20  21
ENDBRANCH   4  20
TORSDOF 7
ENDMDL
MODEL 2
REMARK VINA RESULT: -7.128908177      3.527      6.517
REMARK  7 active torsions:
REMARK  status: ('A' for Active; 'I' for Inactive)
REMARK    1  A    between atoms: C2_2  and  C3_3 
REMARK       I    between atoms: C3_3  and  N1_5 
REMARK    2  A    between atoms: N1_5  and  C4_6 
REMARK    3  A    between atoms: N1_5  and  C9_20 
REMARK    4  A    between atoms: C5_9  and  C6_10 
REMARK    5  A    between atoms: C6_10  and  S1_11 
REMARK    6  A    between atoms: S1_11  and  C7_12 
REMARK    7  A    between atoms: C7_12  and  C8_13 
ROOT
HETATM    1  C4  UNL     1      -0.367  76.400   7.205  1.00  0.00     0.703 A 
HETATM    2  N2  UNL     1      -1.403  75.574   7.080  1.00  0.00    -0.177 N 
ATOM      3  H2  UNL     1      -1.397  74.571   7.269  1.00  0.00     0.185 HD
HETATM    4  C5  UNL     1      -2.457  76.295   6.661  1.00  0.00     0.121 A 
HETATM    5  N3  UNL     1      -2.034  77.574   6.537  1.00  0.00    -0.274 N 
ATOM      6  H3  UNL     1      -2.605  78.363   6.236  1.00  0.00     0.189 HD
HETATM    7  N4  UNL     1      -0.767  77.629   6.868  1.00  0.00    -0.130 N 
ATOM      8  H4  UNL     1      -0.186  78.467   6.869  1.00  0.00     0.205 HD
ENDROOT
BRANCH   1   9
HETATM    9  N1  UNL     1       0.975  76.093   7.622  1.00  0.00    -0.145 N 
HETATM   10  C3  UNL     1       1.327  76.370   8.958  1.00  0.00     0.238 C 
HETATM   11  O1  UNL     1       0.412  76.862   9.706  1.00  0.00    -0.273 OA
BRANCH  10  12
HETATM   12  C2  UNL     1       2.678  76.129   9.543  1.00  0.00     0.099 C 
HETATM   13  C1  UNL     1       2.723  74.798  10.235  1.00  0.00     0.014 C 
ENDBRANCH  10  12
BRANCH   9  14
HETATM   14  C9  UNL     1       1.939  75.516   6.728  1.00  0.00     0.111 C 
HETATM   15  C10 UNL     1       1.681  75.944   5.280  1.00  0.00     0.026 C 
HETATM   16  C11 UNL     1       2.941  75.607   4.486  1.00  0.00     0.002 C 
HETATM   17  C12 UNL     1       3.367  74.187   4.693  1.00  0.00     0.000 C 
HETATM   18  C13 UNL     1       2.262  73.428   5.382  1.00  0.00     0.002 C 
HETATM   19  C14 UNL     1       1.954  74.016   6.737  1.00  0.00     0.026 C 
ENDBRANCH   9  14
ENDBRANCH   1   9
BRANCH   4  20
HETATM   20  C6  UNL     1      -3.816  75.798   6.345  1.00  0.00     0.152 C 
BRANCH  20  21
HETATM   21  S1  UNL     1      -3.864  74.320   5.390  1.00  0.00    -0.151 SA
BRANCH  21  22
HETATM   22  C7  UNL     1      -4.565  74.398   3.759  1.00  0.00     0.187 C 
BRANCH  22  23
HETATM   23  C8  UNL     1      -5.386  75.591   3.489  1.00  0.00     0.182 C 
HETATM   24  O2  UNL     1      -6.613  75.564   3.428  1.00  0.00    -0.647 OA
HETATM   25  O3  UNL     1      -4.730  76.805   3.296  1.00  0.00    -0.647 OA
ENDBRANCH  22  23
ENDBRANCH  21  22
ENDBRANCH  20  21
ENDBRANCH   4  20
TORSDOF 7
ENDMDL
MODEL 3
REMARK VINA RESULT: -7.096174248      2.903      3.448
REMARK  7 active torsions:
REMARK  status: ('A' for Active; 'I' for Inactive)
REMARK    1  A    between atoms: C2_2  and  C3_3 
REMARK       I    between atoms: C3_3  and  N1_5 
REMARK    2  A    between atoms: N1_5  and  C4_6 
REMARK    3  A    between atoms: N1_5  and  C9_20 
REMARK    4  A    between atoms: C5_9  and  C6_10 
REMARK    5  A    between atoms: C6_10  and  S1_11 
REMARK    6  A    between atoms: S1_11  and  C7_12 
REMARK    7  A    between atoms: C7_12  and  C8_13 
ROOT
HETATM    1  C4  UNL     1      -0.943  76.028   6.815  1.00  0.00     0.703 A 
HETATM    2  N2  UNL     1       0.224  75.519   6.428  1.00  0.00    -0.177 N 
ATOM      3  H2  UNL     1       0.659  75.642   5.513  1.00  0.00     0.185 HD
HETATM    4  C5  UNL     1       0.728  74.815   7.456  1.00  0.00     0.121 A 
HETATM    5  N3  UNL     1      -0.161  74.911   8.471  1.00  0.00    -0.274 N 
ATOM      6  H3  UNL     1      -0.062  74.482   9.392  1.00  0.00     0.189 HD
HETATM    7  N4  UNL     1      -1.171  75.647   8.075  1.00  0.00    -0.130 N 
ATOM      8  H4  UNL     1      -1.990  75.888   8.633  1.00  0.00     0.205 HD
ENDROOT
BRANCH   1   9
HETATM    9  N1  UNL     1      -1.853  76.849   6.063  1.00  0.00    -0.145 N 
HETATM   10  C3  UNL     1      -1.745  78.246   6.202  1.00  0.00     0.238 C 
HETATM   11  O1  UNL     1      -0.827  78.679   6.983  1.00  0.00    -0.273 OA
BRANCH  10  12
HETATM   12  C2  UNL     1      -2.621  79.235   5.508  1.00  0.00     0.099 C 
HETATM   13  C1  UNL     1      -1.967  80.585   5.474  1.00  0.00     0.014 C 
ENDBRANCH  10  12
BRANCH   9  14
HETATM   14  C9  UNL     1      -2.841  76.287   5.185  1.00  0.00     0.111 C 
HETATM   15  C10 UNL     1      -4.250  76.755   5.560  1.00  0.00     0.026 C 
HETATM   16  C11 UNL     1      -5.157  76.429   4.377  1.00  0.00     0.002 C 
HETATM   17  C12 UNL     1      -5.024  74.999   3.951  1.00  0.00     0.000 C 
HETATM   18  C13 UNL     1      -4.263  74.233   5.001  1.00  0.00     0.002 C 
HETATM   19  C14 UNL     1      -2.872  74.787   5.187  1.00  0.00     0.026 C 
ENDBRANCH   9  14
ENDBRANCH   1   9
BRANCH   4  20
HETATM   20  C6  UNL     1       1.988  74.038   7.480  1.00  0.00     0.152 C 
BRANCH  20  21
HETATM   21  S1  UNL     1       3.285  74.752   8.433  1.00  0.00    -0.151 SA
BRANCH  21  22
HETATM   22  C7  UNL     1       3.223  76.499   8.758  1.00  0.00     0.187 C 
BRANCH  22  23
HETATM   23  C8  UNL     1       2.438  76.886   9.943  1.00  0.00     0.182 C 
HETATM   24  O2  UNL     1       2.897  76.890  11.082  1.00  0.00    -0.647 OA
HETATM   25  O3  UNL     1       1.111  77.264   9.751  1.00  0.00    -0.647 OA
ENDBRANCH  22  23
ENDBRANCH  21  22
ENDBRANCH  20  21
ENDBRANCH   4  20
TORSDOF 7
ENDMDL
MODEL 4
REMARK VINA RESULT: -7.086967756      4.107      6.130
REMARK  7 active torsions:
REMARK  status: ('A' for Active; 'I' for Inactive)
REMARK    1  A    between atoms: C2_2  and  C3_3 
REMARK       I    between atoms: C3_3  and  N1_5 
REMARK    2  A    between atoms: N1_5  and  C4_6 
REMARK    3  A    between atoms: N1_5  and  C9_20 
REMARK    4  A    between atoms: C5_9  and  C6_10 
REMARK    5  A    between atoms: C6_10  and  S1_11 
REMARK    6  A    between atoms: S1_11  and  C7_12 
REMARK    7  A    between atoms: C7_12  and  C8_13 
ROOT
HETATM    1  C4  UNL     1      -1.368  77.470   6.327  1.00  0.00     0.703 A 
HETATM    2  N2  UNL     1      -1.855  76.526   5.525  1.00  0.00    -0.177 N 
ATOM      3  H2  UNL     1      -2.083  76.636   4.537  1.00  0.00     0.185 HD
HETATM    4  C5  UNL     1      -1.992  75.401   6.249  1.00  0.00     0.121 A 
HETATM    5  N3  UNL     1      -1.577  75.689   7.504  1.00  0.00    -0.274 N 
ATOM      6  H3  UNL     1      -1.560  75.038   8.289  1.00  0.00     0.189 HD
HETATM    7  N4  UNL     1      -1.201  76.944   7.543  1.00  0.00    -0.130 N 
ATOM      8  H4  UNL     1      -0.842  77.434   8.362  1.00  0.00     0.205 HD
ENDROOT
BRANCH   1   9
HETATM    9  N1  UNL     1      -1.056  78.837   6.009  1.00  0.00    -0.145 N 
HETATM   10  C3  UNL     1      -2.116  79.682   5.628  1.00  0.00     0.238 C 
HETATM   11  O1  UNL     1      -3.287  79.165   5.610  1.00  0.00    -0.273 OA
BRANCH  10  12
HETATM   12  C2  UNL     1      -1.960  81.117   5.250  1.00  0.00     0.099 C 
HETATM   13  C1  UNL     1      -3.222  81.878   5.537  1.00  0.00     0.014 C 
ENDBRANCH  10  12
BRANCH   9  14
HETATM   14  C9  UNL     1       0.284  79.350   6.079  1.00  0.00     0.111 C 
HETATM   15  C10 UNL     1       1.300  78.325   5.566  1.00  0.00     0.026 C 
HETATM   16  C11 UNL     1       2.607  79.077   5.324  1.00  0.00     0.002 C 
HETATM   17  C12 UNL     1       3.018  79.878   6.521  1.00  0.00     0.000 C 
HETATM   18  C13 UNL     1       2.184  79.469   7.707  1.00  0.00     0.002 C 
HETATM   19  C14 UNL     1       0.718  79.728   7.465  1.00  0.00     0.026 C 
ENDBRANCH   9  14
ENDBRANCH   1   9
BRANCH   4  20
HETATM   20  C6  UNL     1      -2.534  74.101   5.793  1.00  0.00     0.152 C 
BRANCH  20  21
HETATM   21  S1  UNL     1      -4.252  74.105   5.410  1.00  0.00    -0.151 SA
BRANCH  21  22
HETATM   22  C7  UNL     1      -4.737  74.468   3.739  1.00  0.00     0.187 C 
BRANCH  22  23
HETATM   23  C8  UNL     1      -5.384  75.778   3.547  1.00  0.00     0.182 C 
HETATM   24  O2  UNL     1      -6.598  75.917   3.423  1.00  0.00    -0.647 OA
HETATM   25  O3  UNL     1      -4.570  76.908   3.509  1.00  0.00    -0.647 OA
ENDBRANCH  22  23
ENDBRANCH  21  22
ENDBRANCH  20  21
ENDBRANCH   4  20
TORSDOF 7
ENDMDL
MODEL 5
REMARK VINA RESULT: -7.079210867      2.645      3.165
REMARK  7 active torsions:
REMARK  status: ('A' for Active; 'I' for Inactive)
REMARK    1  A    between atoms: C2_2  and  C3_3 
REMARK       I    between atoms: C3_3  and  N1_5 
REMARK    2  A    between atoms: N1_5  and  C4_6 
REMARK    3  A    between atoms: N1_5  and  C9_20 
REMARK    4  A    between atoms: C5_9  and  C6_10 
REMARK    5  A    between atoms: C6_10  and  S1_11 
REMARK    6  A    between atoms: S1_11  and  C7_12 
REMARK    7  A    between atoms: C7_12  and  C8_13 
ROOT
HETATM    1  C4  UNL     1      -0.883  75.978   6.616  1.00  0.00     0.703 A 
HETATM    2  N2  UNL     1       0.276  75.524   6.145  1.00  0.00    -0.177 N 
ATOM      3  H2  UNL     1       0.665  75.715   5.222  1.00  0.00     0.185 HD
HETATM    4  C5  UNL     1       0.843  74.770   7.103  1.00  0.00     0.121 A 
HETATM    5  N3  UNL     1       0.000  74.780   8.161  1.00  0.00    -0.274 N 
ATOM      6  H3  UNL     1       0.151  74.297   9.046  1.00  0.00     0.189 HD
HETATM    7  N4  UNL     1      -1.043  75.514   7.858  1.00  0.00    -0.130 N 
ATOM      8  H4  UNL     1      -1.840  75.698   8.467  1.00  0.00     0.205 HD
ENDROOT
BRANCH   1   9
HETATM    9  N1  UNL     1      -1.845  76.822   5.959  1.00  0.00    -0.145 N 
HETATM   10  C3  UNL     1      -1.750  78.211   6.168  1.00  0.00     0.238 C 
HETATM   11  O1  UNL     1      -0.797  78.619   6.919  1.00  0.00    -0.273 OA
BRANCH  10  12
HETATM   12  C2  UNL     1      -2.677  79.220   5.576  1.00  0.00     0.099 C 
HETATM   13  C1  UNL     1      -2.001  80.556   5.465  1.00  0.00     0.014 C 
ENDBRANCH  10  12
BRANCH   9  14
HETATM   14  C9  UNL     1      -2.871  76.289   5.107  1.00  0.00     0.111 C 
HETATM   15  C10 UNL     1      -4.258  76.778   5.535  1.00  0.00     0.026 C 
HETATM   16  C11 UNL     1      -5.210  76.484   4.378  1.00  0.00     0.002 C 
HETATM   17  C12 UNL     1      -5.117  75.058   3.929  1.00  0.00     0.000 C 
HETATM   18  C13 UNL     1      -4.336  74.264   4.944  1.00  0.00     0.002 C 
HETATM   19  C14 UNL     1      -2.930  74.790   5.091  1.00  0.00     0.026 C 
ENDBRANCH   9  14
ENDBRANCH   1   9
BRANCH   4  20
HETATM   20  C6  UNL     1       2.120  74.025   7.020  1.00  0.00     0.152 C 
BRANCH  20  21
HETATM   21  S1  UNL     1       3.449  74.722   7.940  1.00  0.00    -0.151 SA
BRANCH  21  22
HETATM   22  C7  UNL     1       3.869  73.981   9.500  1.00  0.00     0.187 C 
BRANCH  22  23
HETATM   23  C8  UNL     1       3.005  74.372  10.629  1.00  0.00     0.182 C 
HETATM   24  O2  UNL     1       3.431  74.919  11.643  1.00  0.00    -0.647 OA
HETATM   25  O3  UNL     1       1.642  74.104  10.530  1.00  0.00    -0.647 OA
ENDBRANCH  22  23
ENDBRANCH  21  22
ENDBRANCH  20  21
ENDBRANCH   4  20
TORSDOF 7
ENDMDL
