MODEL 1
REMARK VINA RESULT: -4.905551596      0.000      0.000
REMARK  2 active torsions:
REMARK  status: ('A' for Active; 'I' for Inactive)
REMARK    1  A    between atoms: C2_2  and  C3_3 
REMARK    2  A    between atoms: C8_11  and  N2_12 
ROOT
HETATM    1  C3  UNL     1       9.890  14.604  46.836  1.00  0.00     0.063 C 
HETATM    2  C4  UNL     1      10.004  15.520  45.609  1.00  0.00     0.243 C 
HETATM    3  N1  UNL     1      11.393  15.588  45.273  1.00  0.00    -0.070 N 
ATOM      4  H11 UNL     1      11.914  16.194  45.907  1.00  0.00     0.277 HD
ATOM      5  H12 UNL     1      11.555  16.105  44.409  1.00  0.00     0.277 HD
HETATM    6  C5  UNL     1      11.940  14.252  45.221  1.00  0.00     0.183 C 
HETATM    7  C6  UNL     1      12.859  14.176  44.048  1.00  0.00     0.040 C 
HETATM    8  C7  UNL     1      10.850  13.197  45.123  1.00  0.00     0.066 C 
HETATM    9  C8  UNL     1      10.018  13.187  46.389  1.00  0.00     0.196 C 
ENDROOT
BRANCH   9  10
HETATM   10  N2  UNL     1       8.761  12.540  46.111  1.00  0.00    -0.074 N 
HETATM   11  C9  UNL     1       8.828  11.151  46.525  1.00  0.00     0.267 C 
ATOM     12  H22 UNL     1       7.974  13.031  46.535  1.00  0.00     0.277 HD
ATOM     13  H21 UNL     1       8.486  12.638  45.134  1.00  0.00     0.277 HD
ENDBRANCH   9  10
BRANCH   1  14
HETATM   14  C2  UNL     1       8.654  14.955  47.516  1.00  0.00    -0.029 C 
HETATM   15  C1  UNL     1       8.662  15.949  48.386  1.00  0.00     0.007 C 
ENDBRANCH   1  14
TORSDOF 2
ENDMDL
MODEL 2
REMARK VINA RESULT: -4.902801624      1.228      3.503
REMARK  2 active torsions:
REMARK  status: ('A' for Active; 'I' for Inactive)
REMARK    1  A    between atoms: C2_2  and  C3_3 
REMARK    2  A    between atoms: C8_11  and  N2_12 
ROOT
HETATM    1  C3  UNL     1      11.360  13.853  44.848  1.00  0.00     0.063 C 
HETATM    2  C4  UNL     1      12.206  14.929  45.542  1.00  0.00     0.243 C 
HETATM    3  N1  UNL     1      11.468  16.151  45.462  1.00  0.00    -0.070 N 
ATOM      4  H11 UNL     1      11.511  16.567  44.531  1.00  0.00     0.277 HD
ATOM      5  H12 UNL     1      11.915  16.907  45.980  1.00  0.00     0.277 HD
HETATM    6  C5  UNL     1      10.109  15.920  45.895  1.00  0.00     0.183 C 
HETATM    7  C6  UNL     1       9.688  17.083  46.729  1.00  0.00     0.040 C 
HETATM    8  C7  UNL     1       9.976  14.621  46.673  1.00  0.00     0.066 C 
HETATM    9  C8  UNL     1      10.262  13.439  45.768  1.00  0.00     0.196 C 
ENDROOT
BRANCH   9  10
HETATM   10  N2  UNL     1      10.577  12.296  46.586  1.00  0.00    -0.074 N 
HETATM   11  C9  UNL     1       9.582  11.261  46.377  1.00  0.00     0.267 C 
ATOM     12  H22 UNL     1      11.525  11.957  46.425  1.00  0.00     0.277 HD
ATOM     13  H21 UNL     1      10.675  12.543  47.571  1.00  0.00     0.277 HD
ENDBRANCH   9  10
BRANCH   1  14
HETATM   14  C2  UNL     1      12.271  12.803  44.421  1.00  0.00    -0.029 C 
HETATM   15  C1  UNL     1      12.884  12.923  43.257  1.00  0.00     0.007 C 
ENDBRANCH   1  14
TORSDOF 2
ENDMDL
MODEL 3
REMARK VINA RESULT: -4.856594433      3.419      5.826
REMARK  2 active torsions:
REMARK  status: ('A' for Active; 'I' for Inactive)
REMARK    1  A    between atoms: C2_2  and  C3_3 
REMARK    2  A    between atoms: C8_11  and  N2_12 
ROOT
HETATM    1  C3  UNL     1      12.686  12.869  43.213  1.00  0.00     0.063 C 
HETATM    2  C4  UNL     1      13.509  11.579  43.340  1.00  0.00     0.243 C 
HETATM    3  N1  UNL     1      13.389  10.888  42.094  1.00  0.00    -0.070 N 
ATOM      4  H11 UNL     1      12.484  10.427  41.995  1.00  0.00     0.277 HD
ATOM      5  H12 UNL     1      13.981  10.059  42.055  1.00  0.00     0.277 HD
HETATM    6  C5  UNL     1      13.658  11.803  41.009  1.00  0.00     0.183 C 
HETATM    7  C6  UNL     1      14.480  11.084  39.993  1.00  0.00     0.040 C 
HETATM    8  C7  UNL     1      14.370  13.057  41.491  1.00  0.00     0.066 C 
HETATM    9  C8  UNL     1      13.461  13.854  42.406  1.00  0.00     0.196 C 
ENDROOT
BRANCH   9  10
HETATM   10  N2  UNL     1      14.269  14.753  43.190  1.00  0.00    -0.074 N 
HETATM   11  C9  UNL     1      15.384  15.225  42.391  1.00  0.00     0.267 C 
ATOM     12  H22 UNL     1      13.722  15.521  43.579  1.00  0.00     0.277 HD
ATOM     13  H21 UNL     1      14.575  14.331  44.067  1.00  0.00     0.277 HD
ENDBRANCH   9  10
BRANCH   1  14
HETATM   14  C2  UNL     1      12.328  13.281  44.560  1.00  0.00    -0.029 C 
HETATM   15  C1  UNL     1      11.090  13.090  44.980  1.00  0.00     0.007 C 
ENDBRANCH   1  14
TORSDOF 2
ENDMDL
MODEL 4
REMARK VINA RESULT: -4.846459350      1.882      3.911
REMARK  2 active torsions:
REMARK  status: ('A' for Active; 'I' for Inactive)
REMARK    1  A    between atoms: C2_2  and  C3_3 
REMARK    2  A    between atoms: C8_11  and  N2_12 
ROOT
HETATM    1  C3  UNL     1      12.298  13.910  44.238  1.00  0.00     0.063 C 
HETATM    2  C4  UNL     1      13.454  14.565  45.006  1.00  0.00     0.243 C 
HETATM    3  N1  UNL     1      13.216  15.975  44.987  1.00  0.00    -0.070 N 
ATOM      4  H11 UNL     1      13.440  16.392  44.084  1.00  0.00     0.277 HD
ATOM      5  H12 UNL     1      13.890  16.488  45.556  1.00  0.00     0.277 HD
HETATM    6  C5  UNL     1      11.853  16.238  45.388  1.00  0.00     0.183 C 
HETATM    7  C6  UNL     1      11.857  17.431  46.283  1.00  0.00     0.040 C 
HETATM    8  C7  UNL     1      11.228  15.041  46.086  1.00  0.00     0.066 C 
HETATM    9  C8  UNL     1      11.094  13.883  45.117  1.00  0.00     0.196 C 
ENDROOT
BRANCH   9  10
HETATM   10  N2  UNL     1      10.941  12.665  45.870  1.00  0.00    -0.074 N 
HETATM   11  C9  UNL     1       9.549  12.497  46.245  1.00  0.00     0.267 C 
ATOM     12  H22 UNL     1      11.305  11.855  45.370  1.00  0.00     0.277 HD
ATOM     13  H21 UNL     1      11.564  12.631  46.678  1.00  0.00     0.277 HD
ENDBRANCH   9  10
BRANCH   1  14
HETATM   14  C2  UNL     1      12.777  12.623  43.763  1.00  0.00    -0.029 C 
HETATM   15  C1  UNL     1      13.107  12.493  42.490  1.00  0.00     0.007 C 
ENDBRANCH   1  14
TORSDOF 2
ENDMDL
MODEL 5
REMARK VINA RESULT: -4.844294145      1.329      3.485
REMARK  2 active torsions:
REMARK  status: ('A' for Active; 'I' for Inactive)
REMARK    1  A    between atoms: C2_2  and  C3_3 
REMARK    2  A    between atoms: C8_11  and  N2_12 
ROOT
HETATM    1  C3  UNL     1      10.404  14.814  45.681  1.00  0.00     0.063 C 
HETATM    2  C4  UNL     1      10.107  14.405  47.130  1.00  0.00     0.243 C 
HETATM    3  N1  UNL     1       8.985  13.519  47.087  1.00  0.00    -0.070 N 
ATOM      4  H11 UNL     1       8.107  14.016  46.935  1.00  0.00     0.277 HD
ATOM      5  H12 UNL     1       8.772  13.122  48.002  1.00  0.00     0.277 HD
HETATM    6  C5  UNL     1       9.216  12.500  46.090  1.00  0.00     0.183 C 
HETATM    7  C6  UNL     1       8.739  11.199  46.642  1.00  0.00     0.040 C 
HETATM    8  C7  UNL     1      10.682  12.415  45.697  1.00  0.00     0.066 C 
HETATM    9  C8  UNL     1      11.111  13.691  45.001  1.00  0.00     0.196 C 
ENDROOT
BRANCH   9  10
HETATM   10  N2  UNL     1      12.548  13.783  45.049  1.00  0.00    -0.074 N 
HETATM   11  C9  UNL     1      13.103  13.383  43.769  1.00  0.00     0.267 C 
ATOM     12  H22 UNL     1      12.865  14.710  45.333  1.00  0.00     0.277 HD
ATOM     13  H21 UNL     1      12.942  13.249  45.824  1.00  0.00     0.277 HD
ENDBRANCH   9  10
BRANCH   1  14
HETATM   14  C2  UNL     1      11.112  16.083  45.732  1.00  0.00    -0.029 C 
HETATM   15  C1  UNL     1      10.722  16.999  46.600  1.00  0.00     0.007 C 
ENDBRANCH   1  14
TORSDOF 2
ENDMDL
