MODEL 1
REMARK VINA RESULT: -5.130892778      0.000      0.000
REMARK  2 active torsions:
REMARK  status: ('A' for Active; 'I' for Inactive)
REMARK    1  A    between atoms: N1_1  and  C1_5 
REMARK    2  A    between atoms: C4_9  and  C5_10 
ROOT
HETATM    1  C1  UNL     1      13.978  10.877  40.479  1.00  0.00     0.188 C 
HETATM    2  C2  UNL     1      15.244  11.545  40.066  1.00  0.00     0.059 C 
HETATM    3  C3  UNL     1      15.039  13.045  40.171  1.00  0.00     0.170 C 
HETATM    4  O1  UNL     1      14.709  13.294  41.505  1.00  0.00    -0.382 OA
HETATM    5  C4  UNL     1      13.361  13.003  41.679  1.00  0.00     0.147 C 
HETATM    6  C7  UNL     1      12.905  11.787  40.952  1.00  0.00     0.068 C 
ENDROOT
BRANCH   1   7
HETATM    7  N1  UNL     1      14.246   9.807  41.451  1.00  0.00    -0.075 N 
ATOM      8  H13 UNL     1      15.176   9.407  41.325  1.00  0.00     0.274 HD
ATOM      9  H12 UNL     1      14.364  10.175  42.395  1.00  0.00     0.274 HD
ATOM     10  H11 UNL     1      13.519   9.092  41.413  1.00  0.00     0.274 HD
ENDBRANCH   1   7
BRANCH   5  11
HETATM   11  C5  UNL     1      12.995  12.976  43.121  1.00  0.00     0.017 C 
HETATM   12  C6  UNL     1      12.782  14.075  43.828  1.00  0.00     0.083 C 
HETATM   13 CL1  UNL     1      12.929  15.644  43.059  1.00  0.00    -0.097 Cl
ENDBRANCH   5  11
TORSDOF 2
ENDMDL
MODEL 2
REMARK VINA RESULT: -4.683645875      2.717      4.314
REMARK  2 active torsions:
REMARK  status: ('A' for Active; 'I' for Inactive)
REMARK    1  A    between atoms: N1_1  and  C1_5 
REMARK    2  A    between atoms: C4_9  and  C5_10 
ROOT
HETATM    1  C1  UNL     1      11.986  14.188  44.606  1.00  0.00     0.188 C 
HETATM    2  C2  UNL     1      12.107  15.583  44.096  1.00  0.00     0.059 C 
HETATM    3  C3  UNL     1      13.318  15.647  43.183  1.00  0.00     0.170 C 
HETATM    4  O1  UNL     1      13.079  14.720  42.167  1.00  0.00    -0.382 OA
HETATM    5  C4  UNL     1      13.393  13.455  42.650  1.00  0.00     0.147 C 
HETATM    6  C7  UNL     1      12.975  13.225  44.061  1.00  0.00     0.068 C 
ENDROOT
BRANCH   1   7
HETATM    7  N1  UNL     1      10.610  13.694  44.453  1.00  0.00    -0.075 N 
ATOM      8  H13 UNL     1      10.552  12.947  43.761  1.00  0.00     0.274 HD
ATOM      9  H12 UNL     1      10.304  13.169  45.272  1.00  0.00     0.274 HD
ATOM     10  H11 UNL     1       9.972  14.460  44.235  1.00  0.00     0.274 HD
ENDBRANCH   1   7
BRANCH   5  11
HETATM   11  C5  UNL     1      12.909  12.389  41.732  1.00  0.00     0.017 C 
HETATM   12  C6  UNL     1      13.558  12.042  40.631  1.00  0.00     0.083 C 
HETATM   13 CL1  UNL     1      15.054  12.856  40.212  1.00  0.00    -0.097 Cl
ENDBRANCH   5  11
TORSDOF 2
ENDMDL
MODEL 3
REMARK VINA RESULT: -4.646690323      2.072      2.311
REMARK  2 active torsions:
REMARK  status: ('A' for Active; 'I' for Inactive)
REMARK    1  A    between atoms: N1_1  and  C1_5 
REMARK    2  A    between atoms: C4_9  and  C5_10 
ROOT
HETATM    1  C1  UNL     1      13.883  10.491  40.863  1.00  0.00     0.188 C 
HETATM    2  C2  UNL     1      15.190  10.047  40.302  1.00  0.00     0.059 C 
HETATM    3  C3  UNL     1      15.751  11.181  39.464  1.00  0.00     0.170 C 
HETATM    4  O1  UNL     1      15.878  12.269  40.329  1.00  0.00    -0.382 OA
HETATM    5  C4  UNL     1      14.629  12.863  40.465  1.00  0.00     0.147 C 
HETATM    6  C7  UNL     1      13.503  11.893  40.555  1.00  0.00     0.068 C 
ENDROOT
BRANCH   1   7
HETATM    7  N1  UNL     1      13.815  10.218  42.306  1.00  0.00    -0.075 N 
ATOM      8  H13 UNL     1      13.877  11.075  42.856  1.00  0.00     0.274 HD
ATOM      9  H12 UNL     1      12.881   9.922  42.591  1.00  0.00     0.274 HD
ATOM     10  H11 UNL     1      14.526   9.540  42.581  1.00  0.00     0.274 HD
ENDBRANCH   1   7
BRANCH   5  11
HETATM   11  C5  UNL     1      14.618  13.853  41.576  1.00  0.00     0.017 C 
HETATM   12  C6  UNL     1      15.272  15.003  41.518  1.00  0.00     0.083 C 
HETATM   13 CL1  UNL     1      16.198  15.404  40.084  1.00  0.00    -0.097 Cl
ENDBRANCH   5  11
TORSDOF 2
ENDMDL
MODEL 4
REMARK VINA RESULT: -4.582669984      3.887      5.259
REMARK  2 active torsions:
REMARK  status: ('A' for Active; 'I' for Inactive)
REMARK    1  A    between atoms: N1_1  and  C1_5 
REMARK    2  A    between atoms: C4_9  and  C5_10 
ROOT
HETATM    1  C1  UNL     1      14.035  17.332  42.677  1.00  0.00     0.188 C 
HETATM    2  C2  UNL     1      14.744  17.323  43.988  1.00  0.00     0.059 C 
HETATM    3  C3  UNL     1      14.967  15.877  44.392  1.00  0.00     0.170 C 
HETATM    4  O1  UNL     1      15.724  15.306  43.366  1.00  0.00    -0.382 OA
HETATM    5  C4  UNL     1      14.864  14.981  42.323  1.00  0.00     0.147 C 
HETATM    6  C7  UNL     1      13.806  15.997  42.070  1.00  0.00     0.068 C 
ENDROOT
BRANCH   1   7
HETATM    7  N1  UNL     1      14.694  18.248  41.735  1.00  0.00    -0.075 N 
ATOM      8  H13 UNL     1      14.293  19.185  41.777  1.00  0.00     0.274 HD
ATOM      9  H12 UNL     1      15.643  18.475  42.029  1.00  0.00     0.274 HD
ATOM     10  H11 UNL     1      14.672  17.870  40.787  1.00  0.00     0.274 HD
ENDBRANCH   1   7
BRANCH   5  11
HETATM   11  C5  UNL     1      15.619  14.626  41.091  1.00  0.00     0.017 C 
HETATM   12  C6  UNL     1      15.364  13.535  40.384  1.00  0.00     0.083 C 
HETATM   13 CL1  UNL     1      14.090  12.445  40.896  1.00  0.00    -0.097 Cl
ENDBRANCH   5  11
TORSDOF 2
ENDMDL
MODEL 5
REMARK VINA RESULT: -4.553059013      3.405      4.104
REMARK  2 active torsions:
REMARK  status: ('A' for Active; 'I' for Inactive)
REMARK    1  A    between atoms: N1_1  and  C1_5 
REMARK    2  A    between atoms: C4_9  and  C5_10 
ROOT
HETATM    1  C1  UNL     1      14.850  16.166  41.935  1.00  0.00     0.188 C 
HETATM    2  C2  UNL     1      15.620  16.121  40.660  1.00  0.00     0.059 C 
HETATM    3  C3  UNL     1      16.125  14.703  40.466  1.00  0.00     0.170 C 
HETATM    4  O1  UNL     1      14.989  13.892  40.439  1.00  0.00    -0.382 OA
HETATM    5  C4  UNL     1      14.584  13.669  41.750  1.00  0.00     0.147 C 
HETATM    6  C7  UNL     1      14.697  14.864  42.631  1.00  0.00     0.068 C 
ENDROOT
BRANCH   1   7
HETATM    7  N1  UNL     1      13.553  16.829  41.738  1.00  0.00    -0.075 N 
ATOM      8  H13 UNL     1      13.664  17.772  41.367  1.00  0.00     0.274 HD
ATOM      9  H12 UNL     1      13.033  16.419  40.963  1.00  0.00     0.274 HD
ATOM     10  H11 UNL     1      13.009  16.825  42.602  1.00  0.00     0.274 HD
ENDBRANCH   1   7
BRANCH   5  11
HETATM   11  C5  UNL     1      13.232  13.050  41.801  1.00  0.00     0.017 C 
HETATM   12  C6  UNL     1      12.991  11.819  41.375  1.00  0.00     0.083 C 
HETATM   13 CL1  UNL     1      14.300  10.855  40.719  1.00  0.00    -0.097 Cl
ENDBRANCH   5  11
TORSDOF 2
ENDMDL
