MODEL 1
REMARK VINA RESULT: -4.893899752      0.000      0.000
REMARK  1 active torsions:
REMARK  status: ('A' for Active; 'I' for Inactive)
REMARK    1  A    between atoms: N1_2  and  C2_4 
ROOT
HETATM    1  C2  UNL     1      13.795  11.886  40.468  1.00  0.00     0.094 C 
HETATM    2  C3  UNL     1      15.269  12.223  40.376  1.00  0.00     0.026 C 
HETATM    3  C4  UNL     1      15.469  13.726  40.383  1.00  0.00     0.002 C 
HETATM    4  C5  UNL     1      14.966  14.211  41.725  1.00  0.00     0.002 C 
HETATM    5  C6  UNL     1      13.512  13.909  41.946  1.00  0.00     0.022 C 
HETATM    6  C7  UNL     1      13.123  12.498  41.659  1.00  0.00     0.104 C 
HETATM    7 CL1  UNL     1      13.386  11.407  43.042  1.00  0.00    -0.123 Cl
ENDROOT
BRANCH   1   8
HETATM    8  N1  UNL     1      13.661  10.487  40.535  1.00  0.00    -0.420 N 
HETATM    9  C1  UNL     1      14.801   9.684  40.398  1.00  0.00     0.140 C 
ATOM     10  H1  UNL     1      12.745  10.062  40.681  1.00  0.00     0.153 HD
ENDBRANCH   1   8
TORSDOF 1
ENDMDL
MODEL 2
REMARK VINA RESULT: -4.631069694      3.147      4.229
REMARK  1 active torsions:
REMARK  status: ('A' for Active; 'I' for Inactive)
REMARK    1  A    between atoms: N1_2  and  C2_4 
ROOT
HETATM    1  C2  UNL     1      12.065  13.739  43.785  1.00  0.00     0.094 C 
HETATM    2  C3  UNL     1      12.776  12.516  43.242  1.00  0.00     0.026 C 
HETATM    3  C4  UNL     1      13.263  12.772  41.829  1.00  0.00     0.002 C 
HETATM    4  C5  UNL     1      14.275  13.892  41.928  1.00  0.00     0.002 C 
HETATM    5  C6  UNL     1      13.691  15.158  42.483  1.00  0.00     0.022 C 
HETATM    6  C7  UNL     1      12.903  14.979  43.737  1.00  0.00     0.104 C 
HETATM    7 CL1  UNL     1      13.912  15.002  45.205  1.00  0.00    -0.123 Cl
ENDROOT
BRANCH   1   8
HETATM    8  N1  UNL     1      11.699  13.484  45.120  1.00  0.00    -0.420 N 
HETATM    9  C1  UNL     1      10.378  13.114  45.408  1.00  0.00     0.140 C 
ATOM     10  H1  UNL     1      12.386  13.568  45.869  1.00  0.00     0.153 HD
ENDBRANCH   1   8
TORSDOF 1
ENDMDL
MODEL 3
REMARK VINA RESULT: -4.579949835      2.964      3.894
REMARK  1 active torsions:
REMARK  status: ('A' for Active; 'I' for Inactive)
REMARK    1  A    between atoms: N1_2  and  C2_4 
ROOT
HETATM    1  C2  UNL     1      14.545  14.309  42.412  1.00  0.00     0.094 C 
HETATM    2  C3  UNL     1      13.637  13.270  41.787  1.00  0.00     0.026 C 
HETATM    3  C4  UNL     1      13.052  12.367  42.855  1.00  0.00     0.002 C 
HETATM    4  C5  UNL     1      12.203  13.253  43.738  1.00  0.00     0.002 C 
HETATM    5  C6  UNL     1      12.991  14.347  44.398  1.00  0.00     0.022 C 
HETATM    6  C7  UNL     1      13.868  15.122  43.472  1.00  0.00     0.104 C 
HETATM    7 CL1  UNL     1      13.015  16.459  42.660  1.00  0.00    -0.123 Cl
ENDROOT
BRANCH   1   8
HETATM    8  N1  UNL     1      15.003  15.169  41.397  1.00  0.00    -0.420 N 
HETATM    9  C1  UNL     1      15.977  14.710  40.501  1.00  0.00     0.140 C 
ATOM     10  H1  UNL     1      14.630  16.115  41.314  1.00  0.00     0.153 HD
ENDBRANCH   1   8
TORSDOF 1
ENDMDL
MODEL 4
REMARK VINA RESULT: -4.376976079      2.689      3.547
REMARK  1 active torsions:
REMARK  status: ('A' for Active; 'I' for Inactive)
REMARK    1  A    between atoms: N1_2  and  C2_4 
ROOT
HETATM    1  C2  UNL     1      13.442  14.457  42.283  1.00  0.00     0.094 C 
HETATM    2  C3  UNL     1      13.962  13.086  41.903  1.00  0.00     0.026 C 
HETATM    3  C4  UNL     1      14.642  13.135  40.549  1.00  0.00     0.002 C 
HETATM    4  C5  UNL     1      15.833  14.054  40.709  1.00  0.00     0.002 C 
HETATM    5  C6  UNL     1      15.444  15.447  41.114  1.00  0.00     0.022 C 
HETATM    6  C7  UNL     1      14.502  15.515  42.268  1.00  0.00     0.104 C 
HETATM    7 CL1  UNL     1      15.327  15.469  43.847  1.00  0.00    -0.123 Cl
ENDROOT
BRANCH   1   8
HETATM    8  N1  UNL     1      12.888  14.381  43.575  1.00  0.00    -0.420 N 
HETATM    9  C1  UNL     1      12.289  13.185  43.992  1.00  0.00     0.140 C 
ATOM     10  H1  UNL     1      12.921  15.186  44.199  1.00  0.00     0.153 HD
ENDBRANCH   1   8
TORSDOF 1
ENDMDL
MODEL 5
REMARK VINA RESULT: -4.338881226      3.139      4.452
REMARK  1 active torsions:
REMARK  status: ('A' for Active; 'I' for Inactive)
REMARK    1  A    between atoms: N1_2  and  C2_4 
ROOT
HETATM    1  C2  UNL     1      13.456  14.128  44.228  1.00  0.00     0.094 C 
HETATM    2  C3  UNL     1      13.601  14.868  42.914  1.00  0.00     0.026 C 
HETATM    3  C4  UNL     1      14.210  13.963  41.861  1.00  0.00     0.002 C 
HETATM    4  C5  UNL     1      13.222  12.837  41.652  1.00  0.00     0.002 C 
HETATM    5  C6  UNL     1      12.973  12.040  42.900  1.00  0.00     0.022 C 
HETATM    6  C7  UNL     1      12.666  12.861  44.107  1.00  0.00     0.104 C 
HETATM    7 CL1  UNL     1      10.942  13.289  44.239  1.00  0.00    -0.123 Cl
ENDROOT
BRANCH   1   8
HETATM    8  N1  UNL     1      12.819  14.979  45.150  1.00  0.00    -0.420 N 
HETATM    9  C1  UNL     1      13.598  15.835  45.940  1.00  0.00     0.140 C 
ATOM     10  H1  UNL     1      11.804  14.972  45.244  1.00  0.00     0.153 HD
ENDBRANCH   1   8
TORSDOF 1
ENDMDL
