MODEL 1
REMARK VINA RESULT: -4.296415929      0.000      0.000
REMARK  1 active torsions:
REMARK  status: ('A' for Active; 'I' for Inactive)
REMARK    1  A    between atoms: C2_2  and  C3_3 
ROOT
HETATM    1  C3  UNL     1      11.522  15.270  45.503  1.00  0.00     0.149 C 
HETATM    2  C4  UNL     1      12.431  16.091  46.352  1.00  0.00     0.048 C 
HETATM    3  C5  UNL     1      10.263  16.077  45.248  1.00  0.00     0.274 C 
HETATM    4  N1  UNL     1       9.219  15.067  45.186  1.00  0.00    -0.030 N 
ATOM      5  H11 UNL     1       9.107  14.605  44.284  1.00  0.00     0.281 HD
ATOM      6  H12 UNL     1       8.263  15.419  45.222  1.00  0.00     0.281 HD
HETATM    7  C6  UNL     1       9.616  14.199  46.298  1.00  0.00     0.479 C 
HETATM    8 CL1  UNL     1       8.891  12.588  46.104  1.00  0.00    -0.065 Cl
HETATM    9  N2  UNL     1      11.046  14.072  46.113  1.00  0.00    -0.023 N 
ATOM     10  H21 UNL     1      11.538  13.849  46.978  1.00  0.00     0.282 HD
ATOM     11  H22 UNL     1      11.303  13.234  45.590  1.00  0.00     0.282 HD
ENDROOT
BRANCH   1  12
HETATM   12  C2  UNL     1      12.134  14.913  44.164  1.00  0.00     0.036 C 
HETATM   13  C1  UNL     1      12.498  13.456  44.089  1.00  0.00     0.007 C 
ENDBRANCH   1  12
TORSDOF 1
ENDMDL
MODEL 2
REMARK VINA RESULT: -4.090314369      1.265      2.450
REMARK  1 active torsions:
REMARK  status: ('A' for Active; 'I' for Inactive)
REMARK    1  A    between atoms: C2_2  and  C3_3 
ROOT
HETATM    1  C3  UNL     1      10.721  15.099  45.228  1.00  0.00     0.149 C 
HETATM    2  C4  UNL     1      11.944  15.336  44.408  1.00  0.00     0.048 C 
HETATM    3  C5  UNL     1      11.158  14.855  46.660  1.00  0.00     0.274 C 
HETATM    4  N1  UNL     1      10.177  13.903  47.155  1.00  0.00    -0.030 N 
ATOM      5  H11 UNL     1       9.302  14.307  47.489  1.00  0.00     0.281 HD
ATOM      6  H12 UNL     1      10.409  13.453  48.041  1.00  0.00     0.281 HD
HETATM    7  C6  UNL     1      10.062  13.007  46.002  1.00  0.00     0.479 C 
HETATM    8 CL1  UNL     1       8.531  12.106  46.079  1.00  0.00    -0.065 Cl
HETATM    9  N2  UNL     1       9.985  13.926  44.886  1.00  0.00    -0.023 N 
ATOM     10  H21 UNL     1      10.295  13.509  44.009  1.00  0.00     0.282 HD
ATOM     11  H22 UNL     1       9.025  14.130  44.609  1.00  0.00     0.282 HD
ENDROOT
BRANCH   1  12
HETATM   12  C2  UNL     1       9.771  16.279  45.218  1.00  0.00     0.036 C 
HETATM   13  C1  UNL     1      10.161  17.315  46.234  1.00  0.00     0.007 C 
ENDBRANCH   1  12
TORSDOF 1
ENDMDL
MODEL 3
REMARK VINA RESULT: -4.086883440      3.506      4.343
REMARK  1 active torsions:
REMARK  status: ('A' for Active; 'I' for Inactive)
REMARK    1  A    between atoms: C2_2  and  C3_3 
ROOT
HETATM    1  C3  UNL     1      13.803  14.968  43.186  1.00  0.00     0.149 C 
HETATM    2  C4  UNL     1      15.092  15.456  43.755  1.00  0.00     0.048 C 
HETATM    3  C5  UNL     1      13.092  14.165  44.260  1.00  0.00     0.274 C 
HETATM    4  N1  UNL     1      12.394  13.136  43.507  1.00  0.00    -0.030 N 
ATOM      5  H11 UNL     1      11.494  13.412  43.114  1.00  0.00     0.281 HD
ATOM      6  H12 UNL     1      12.015  12.367  44.059  1.00  0.00     0.281 HD
HETATM    7  C6  UNL     1      13.424  12.767  42.532  1.00  0.00     0.479 C 
HETATM    8 CL1  UNL     1      12.679  11.972  41.128  1.00  0.00    -0.065 Cl
HETATM    9  N2  UNL     1      13.933  14.052  42.100  1.00  0.00    -0.023 N 
ATOM     10  H21 UNL     1      14.886  13.999  41.742  1.00  0.00     0.282 HD
ATOM     11  H22 UNL     1      13.485  14.387  41.247  1.00  0.00     0.282 HD
ENDROOT
BRANCH   1  12
HETATM   12  C2  UNL     1      12.888  16.095  42.753  1.00  0.00     0.036 C 
HETATM   13  C1  UNL     1      13.336  17.418  43.308  1.00  0.00     0.007 C 
ENDBRANCH   1  12
TORSDOF 1
ENDMDL
MODEL 4
REMARK VINA RESULT: -4.056973876      3.920      4.782
REMARK  1 active torsions:
REMARK  status: ('A' for Active; 'I' for Inactive)
REMARK    1  A    between atoms: C2_2  and  C3_3 
ROOT
HETATM    1  C3  UNL     1      12.932  14.825  43.879  1.00  0.00     0.149 C 
HETATM    2  C4  UNL     1      11.701  15.468  44.421  1.00  0.00     0.048 C 
HETATM    3  C5  UNL     1      14.111  15.296  44.711  1.00  0.00     0.274 C 
HETATM    4  N1  UNL     1      15.202  15.348  43.753  1.00  0.00    -0.030 N 
ATOM      5  H11 UNL     1      15.677  14.462  43.579  1.00  0.00     0.281 HD
ATOM      6  H12 UNL     1      16.041  15.836  44.067  1.00  0.00     0.281 HD
HETATM    7  C6  UNL     1      14.523  15.940  42.597  1.00  0.00     0.479 C 
HETATM    8 CL1  UNL     1      15.427  15.586  41.109  1.00  0.00    -0.065 Cl
HETATM    9  N2  UNL     1      13.275  15.206  42.548  1.00  0.00    -0.023 N 
ATOM     10  H21 UNL     1      12.531  15.725  42.083  1.00  0.00     0.282 HD
ATOM     11  H22 UNL     1      13.309  14.413  41.907  1.00  0.00     0.282 HD
ENDROOT
BRANCH   1  12
HETATM   12  C2  UNL     1      12.882  13.312  43.944  1.00  0.00     0.036 C 
HETATM   13  C1  UNL     1      12.927  12.695  42.574  1.00  0.00     0.007 C 
ENDBRANCH   1  12
TORSDOF 1
ENDMDL
MODEL 5
REMARK VINA RESULT: -4.020594351      3.075      4.133
REMARK  1 active torsions:
REMARK  status: ('A' for Active; 'I' for Inactive)
REMARK    1  A    between atoms: C2_2  and  C3_3 
ROOT
HETATM    1  C3  UNL     1      14.070  15.070  42.739  1.00  0.00     0.149 C 
HETATM    2  C4  UNL     1      15.237  14.722  41.878  1.00  0.00     0.048 C 
HETATM    3  C5  UNL     1      14.550  15.121  44.178  1.00  0.00     0.274 C 
HETATM    4  N1  UNL     1      13.400  14.654  44.935  1.00  0.00    -0.030 N 
ATOM      5  H11 UNL     1      12.694  15.359  45.143  1.00  0.00     0.281 HD
ATOM      6  H12 UNL     1      13.581  14.421  45.911  1.00  0.00     0.281 HD
HETATM    7  C6  UNL     1      12.954  13.541  44.092  1.00  0.00     0.479 C 
HETATM    8 CL1  UNL     1      11.254  13.157  44.437  1.00  0.00    -0.065 Cl
HETATM    9  N2  UNL     1      13.025  14.099  42.758  1.00  0.00    -0.023 N 
ATOM     10  H21 UNL     1      13.138  13.386  42.038  1.00  0.00     0.282 HD
ATOM     11  H22 UNL     1      12.132  14.475  42.440  1.00  0.00     0.282 HD
ENDROOT
BRANCH   1  12
HETATM   12  C2  UNL     1      13.466  16.415  42.394  1.00  0.00     0.036 C 
HETATM   13  C1  UNL     1      14.514  17.398  41.952  1.00  0.00     0.007 C 
ENDBRANCH   1  12
TORSDOF 1
ENDMDL
