MODEL 1
REMARK VINA RESULT: -5.333351467      0.000      0.000
REMARK  2 active torsions:
REMARK  status: ('A' for Active; 'I' for Inactive)
REMARK    1  A    between atoms: C3_3  and  N1_4 
REMARK    2  A    between atoms: N1_4  and  C4_6 
ROOT
HETATM    1  C4  UNL     1      12.946  13.358  44.078  1.00  0.00     0.102 C 
HETATM    2  C5  UNL     1      11.567  12.787  44.143  1.00  0.00     0.028 C 
HETATM    3  C6  UNL     1      10.717  13.263  45.258  1.00  0.00     0.029 C 
HETATM    4  C7  UNL     1      10.987  14.652  45.732  1.00  0.00     0.232 C 
HETATM    5  N2  UNL     1      12.397  14.910  45.900  1.00  0.00    -0.073 N 
ATOM      6  H21 UNL     1      12.831  14.317  46.609  1.00  0.00     0.277 HD
ATOM      7  H22 UNL     1      12.590  15.807  46.344  1.00  0.00     0.277 HD
HETATM    8  C8  UNL     1      13.013  14.778  44.593  1.00  0.00     0.256 C 
ENDROOT
BRANCH   1   9
HETATM    9  N1  UNL     1      13.419  13.293  42.754  1.00  0.00    -0.411 N 
ATOM     10  H1  UNL     1      14.008  14.030  42.370  1.00  0.00     0.154 HD
BRANCH   9  11
HETATM   11  C3  UNL     1      13.052  12.173  41.975  1.00  0.00     0.077 C 
HETATM   12  C2  UNL     1      13.542  12.250  40.546  1.00  0.00     0.025 C 
HETATM   13  C1  UNL     1      13.867  10.778  40.635  1.00  0.00     0.004 C 
HETATM   14  C9  UNL     1      13.806  10.905  42.140  1.00  0.00     0.025 C 
ENDBRANCH   9  11
ENDBRANCH   1   9
TORSDOF 2
ENDMDL
MODEL 2
REMARK VINA RESULT: -5.315781873      2.461      3.019
REMARK  2 active torsions:
REMARK  status: ('A' for Active; 'I' for Inactive)
REMARK    1  A    between atoms: C3_3  and  N1_4 
REMARK    2  A    between atoms: N1_4  and  C4_6 
ROOT
HETATM    1  C4  UNL     1      13.409  14.514  43.596  1.00  0.00     0.102 C 
HETATM    2  C5  UNL     1      12.874  13.163  43.251  1.00  0.00     0.028 C 
HETATM    3  C6  UNL     1      11.963  12.549  44.244  1.00  0.00     0.029 C 
HETATM    4  C7  UNL     1      11.150  13.503  45.053  1.00  0.00     0.232 C 
HETATM    5  N2  UNL     1      11.937  14.603  45.559  1.00  0.00    -0.073 N 
ATOM      6  H21 UNL     1      12.677  14.305  46.196  1.00  0.00     0.277 HD
ATOM      7  H22 UNL     1      11.427  15.191  46.218  1.00  0.00     0.277 HD
HETATM    8  C8  UNL     1      12.435  15.334  44.410  1.00  0.00     0.256 C 
ENDROOT
BRANCH   1   9
HETATM    9  N1  UNL     1      13.760  15.195  42.416  1.00  0.00    -0.411 N 
ATOM     10  H1  UNL     1      13.045  15.574  41.795  1.00  0.00     0.154 HD
BRANCH   9  11
HETATM   11  C3  UNL     1      15.134  15.337  42.117  1.00  0.00     0.077 C 
HETATM   12  C2  UNL     1      15.639  14.318  41.120  1.00  0.00     0.025 C 
HETATM   13  C1  UNL     1      16.449  15.422  40.483  1.00  0.00     0.004 C 
HETATM   14  C9  UNL     1      15.558  16.417  41.192  1.00  0.00     0.025 C 
ENDBRANCH   9  11
ENDBRANCH   1   9
TORSDOF 2
ENDMDL
MODEL 3
REMARK VINA RESULT: -5.213261528      0.856      1.075
REMARK  2 active torsions:
REMARK  status: ('A' for Active; 'I' for Inactive)
REMARK    1  A    between atoms: C3_3  and  N1_4 
REMARK    2  A    between atoms: N1_4  and  C4_6 
ROOT
HETATM    1  C4  UNL     1      12.681  13.709  44.133  1.00  0.00     0.102 C 
HETATM    2  C5  UNL     1      11.525  12.765  44.205  1.00  0.00     0.028 C 
HETATM    3  C6  UNL     1      10.654  12.892  45.395  1.00  0.00     0.029 C 
HETATM    4  C7  UNL     1      10.554  14.260  45.983  1.00  0.00     0.232 C 
HETATM    5  N2  UNL     1      11.844  14.896  46.112  1.00  0.00    -0.073 N 
ATOM      6  H21 UNL     1      12.473  14.400  46.743  1.00  0.00     0.277 HD
ATOM      7  H22 UNL     1      11.806  15.775  46.628  1.00  0.00     0.277 HD
HETATM    8  C8  UNL     1      12.381  15.045  44.773  1.00  0.00     0.256 C 
ENDROOT
BRANCH   1   9
HETATM    9  N1  UNL     1      13.062  13.882  42.789  1.00  0.00    -0.411 N 
ATOM     10  H1  UNL     1      12.833  14.737  42.284  1.00  0.00     0.154 HD
BRANCH   9  11
HETATM   11  C3  UNL     1      13.771  12.833  42.162  1.00  0.00     0.077 C 
HETATM   12  C2  UNL     1      12.936  12.056  41.169  1.00  0.00     0.025 C 
HETATM   13  C1  UNL     1      14.144  12.022  40.262  1.00  0.00     0.004 C 
HETATM   14  C9  UNL     1      14.721  13.162  41.070  1.00  0.00     0.025 C 
ENDBRANCH   9  11
ENDBRANCH   1   9
TORSDOF 2
ENDMDL
MODEL 4
REMARK VINA RESULT: -5.208788173      1.553      2.195
REMARK  2 active torsions:
REMARK  status: ('A' for Active; 'I' for Inactive)
REMARK    1  A    between atoms: C3_3  and  N1_4 
REMARK    2  A    between atoms: N1_4  and  C4_6 
ROOT
HETATM    1  C4  UNL     1      11.231  13.256  44.457  1.00  0.00     0.102 C 
HETATM    2  C5  UNL     1      11.525  14.596  45.050  1.00  0.00     0.028 C 
HETATM    3  C6  UNL     1      10.564  15.083  46.067  1.00  0.00     0.029 C 
HETATM    4  C7  UNL     1       9.885  14.028  46.874  1.00  0.00     0.232 C 
HETATM    5  N2  UNL     1       9.396  12.943  46.057  1.00  0.00    -0.073 N 
ATOM      6  H21 UNL     1       8.686  13.236  45.385  1.00  0.00     0.277 HD
ATOM      7  H22 UNL     1       8.819  12.281  46.576  1.00  0.00     0.277 HD
HETATM    8  C8  UNL     1      10.551  12.325  45.434  1.00  0.00     0.256 C 
ENDROOT
BRANCH   1   9
HETATM    9  N1  UNL     1      12.425  12.683  43.981  1.00  0.00    -0.411 N 
ATOM     10  H1  UNL     1      13.089  12.246  44.619  1.00  0.00     0.154 HD
BRANCH   9  11
HETATM   11  C3  UNL     1      12.675  12.733  42.591  1.00  0.00     0.077 C 
HETATM   12  C2  UNL     1      13.800  13.673  42.218  1.00  0.00     0.025 C 
HETATM   13  C1  UNL     1      14.255  12.643  41.212  1.00  0.00     0.004 C 
HETATM   14  C9  UNL     1      13.425  11.621  41.957  1.00  0.00     0.025 C 
ENDBRANCH   9  11
ENDBRANCH   1   9
TORSDOF 2
ENDMDL
MODEL 5
REMARK VINA RESULT: -5.123192622      2.789      5.426
REMARK  2 active torsions:
REMARK  status: ('A' for Active; 'I' for Inactive)
REMARK    1  A    between atoms: C3_3  and  N1_4 
REMARK    2  A    between atoms: N1_4  and  C4_6 
ROOT
HETATM    1  C4  UNL     1      14.744  14.558  41.860  1.00  0.00     0.102 C 
HETATM    2  C5  UNL     1      13.779  13.459  42.164  1.00  0.00     0.028 C 
HETATM    3  C6  UNL     1      13.684  12.377  41.157  1.00  0.00     0.029 C 
HETATM    4  C7  UNL     1      14.931  12.101  40.385  1.00  0.00     0.232 C 
HETATM    5  N2  UNL     1      15.561  13.310  39.910  1.00  0.00    -0.073 N 
ATOM      6  H21 UNL     1      14.978  13.837  39.260  1.00  0.00     0.277 HD
ATOM      7  H22 UNL     1      16.339  13.132  39.275  1.00  0.00     0.277 HD
HETATM    8  C8  UNL     1      15.946  14.076  41.080  1.00  0.00     0.256 C 
ENDROOT
BRANCH   1   9
HETATM    9  N1  UNL     1      15.149  15.170  43.060  1.00  0.00    -0.411 N 
ATOM     10  H1  UNL     1      15.644  14.642  43.779  1.00  0.00     0.154 HD
BRANCH   9  11
HETATM   11  C3  UNL     1      14.850  16.540  43.239  1.00  0.00     0.077 C 
HETATM   12  C2  UNL     1      13.648  16.998  42.443  1.00  0.00     0.025 C 
HETATM   13  C1  UNL     1      13.235  17.818  43.642  1.00  0.00     0.004 C 
HETATM   14  C9  UNL     1      14.161  16.967  44.481  1.00  0.00     0.025 C 
ENDBRANCH   9  11
ENDBRANCH   1   9
TORSDOF 2
ENDMDL
