MODEL 1
REMARK VINA RESULT: -5.387424653      0.000      0.000
REMARK  3 active torsions:
REMARK  status: ('A' for Active; 'I' for Inactive)
REMARK    1  A    between atoms: N1_1  and  C1_5 
REMARK    2  A    between atoms: C3_7  and  N2_8 
REMARK    3  A    between atoms: N2_8  and  C4_10 
ROOT
HETATM    1  N2  UNL     1      12.130  14.527  45.621  1.00  0.00    -0.411 N 
ATOM      2  H2  UNL     1      12.543  15.099  46.357  1.00  0.00     0.154 HD
ENDROOT
BRANCH   1   3
HETATM    3  C3  UNL     1      10.725  14.454  45.444  1.00  0.00     0.109 A 
HETATM    4  C1  UNL     1       9.873  14.116  46.600  1.00  0.00     0.207 A 
HETATM    5  C2  UNL     1       9.826  15.501  45.977  1.00  0.00     0.061 A 
BRANCH   4   6
HETATM    6  N1  UNL     1      10.386  14.069  47.938  1.00  0.00    -0.073 N 
ATOM      7  H13 UNL     1      10.274  14.976  48.390  1.00  0.00     0.274 HD
ATOM      8  H12 UNL     1       9.779  13.498  48.528  1.00  0.00     0.274 HD
ATOM      9  H11 UNL     1      11.353  13.753  48.020  1.00  0.00     0.274 HD
ENDBRANCH   4   6
ENDBRANCH   1   3
BRANCH   1  10
HETATM   10  C4  UNL     1      12.934  13.776  44.737  1.00  0.00     0.077 C 
HETATM   11  C5  UNL     1      12.144  13.007  43.697  1.00  0.00     0.024 C 
HETATM   12  C6  UNL     1      13.120  12.317  42.769  1.00  0.00     0.002 C 
HETATM   13  C7  UNL     1      13.887  13.335  41.939  1.00  0.00     0.000 C 
HETATM   14  C8  UNL     1      13.673  14.703  42.521  1.00  0.00     0.002 C 
HETATM   15  C9  UNL     1      13.863  14.753  44.019  1.00  0.00     0.024 C 
ENDBRANCH   1  10
TORSDOF 3
ENDMDL
MODEL 2
REMARK VINA RESULT: -5.293215193      4.211      5.163
REMARK  3 active torsions:
REMARK  status: ('A' for Active; 'I' for Inactive)
REMARK    1  A    between atoms: N1_1  and  C1_5 
REMARK    2  A    between atoms: C3_7  and  N2_8 
REMARK    3  A    between atoms: N2_8  and  C4_10 
ROOT
HETATM    1  N2  UNL     1      15.146  15.178  41.307  1.00  0.00    -0.411 N 
ATOM      2  H2  UNL     1      15.450  15.421  40.364  1.00  0.00     0.154 HD
ENDROOT
BRANCH   1   3
HETATM    3  C3  UNL     1      14.940  16.174  42.294  1.00  0.00     0.109 A 
HETATM    4  C1  UNL     1      14.968  17.595  41.897  1.00  0.00     0.207 A 
HETATM    5  C2  UNL     1      13.677  16.942  42.362  1.00  0.00     0.061 A 
BRANCH   4   6
HETATM    6  N1  UNL     1      14.982  18.002  40.522  1.00  0.00    -0.073 N 
ATOM      7  H13 UNL     1      15.658  17.446  39.998  1.00  0.00     0.274 HD
ATOM      8  H12 UNL     1      14.118  17.715  40.061  1.00  0.00     0.274 HD
ATOM      9  H11 UNL     1      15.150  18.996  40.367  1.00  0.00     0.274 HD
ENDBRANCH   4   6
ENDBRANCH   1   3
BRANCH   1  10
HETATM   10  C4  UNL     1      14.914  13.837  41.681  1.00  0.00     0.077 C 
HETATM   11  C5  UNL     1      13.515  13.583  42.205  1.00  0.00     0.024 C 
HETATM   12  C6  UNL     1      13.372  12.104  42.490  1.00  0.00     0.002 C 
HETATM   13  C7  UNL     1      13.411  11.300  41.199  1.00  0.00     0.000 C 
HETATM   14  C8  UNL     1      13.898  12.183  40.086  1.00  0.00     0.002 C 
HETATM   15  C9  UNL     1      15.136  12.969  40.444  1.00  0.00     0.024 C 
ENDBRANCH   1  10
TORSDOF 3
ENDMDL
MODEL 3
REMARK VINA RESULT: -5.239387261      1.080      1.901
REMARK  3 active torsions:
REMARK  status: ('A' for Active; 'I' for Inactive)
REMARK    1  A    between atoms: N1_1  and  C1_5 
REMARK    2  A    between atoms: C3_7  and  N2_8 
REMARK    3  A    between atoms: N2_8  and  C4_10 
ROOT
HETATM    1  N2  UNL     1      11.593  14.361  46.150  1.00  0.00    -0.411 N 
ATOM      2  H2  UNL     1      12.201  13.884  46.815  1.00  0.00     0.154 HD
ENDROOT
BRANCH   1   3
HETATM    3  C3  UNL     1      10.401  15.005  46.570  1.00  0.00     0.109 A 
HETATM    4  C1  UNL     1       9.179  14.200  46.756  1.00  0.00     0.207 A 
HETATM    5  C2  UNL     1       9.879  14.838  47.944  1.00  0.00     0.061 A 
BRANCH   4   6
HETATM    6  N1  UNL     1       9.199  12.767  46.736  1.00  0.00    -0.073 N 
ATOM      7  H13 UNL     1       9.572  12.433  45.847  1.00  0.00     0.274 HD
ATOM      8  H12 UNL     1       9.914  12.416  47.373  1.00  0.00     0.274 HD
ATOM      9  H11 UNL     1       8.304  12.318  46.931  1.00  0.00     0.274 HD
ENDBRANCH   4   6
ENDBRANCH   1   3
BRANCH   1  10
HETATM   10  C4  UNL     1      11.903  14.408  44.774  1.00  0.00     0.077 C 
HETATM   11  C5  UNL     1      13.348  14.764  44.486  1.00  0.00     0.024 C 
HETATM   12  C6  UNL     1      13.568  14.699  42.990  1.00  0.00     0.002 C 
HETATM   13  C7  UNL     1      13.457  13.267  42.490  1.00  0.00     0.000 C 
HETATM   14  C8  UNL     1      12.851  12.416  43.570  1.00  0.00     0.002 C 
HETATM   15  C9  UNL     1      11.616  13.027  44.190  1.00  0.00     0.024 C 
ENDBRANCH   1  10
TORSDOF 3
ENDMDL
MODEL 4
REMARK VINA RESULT: -5.172365191      3.722      4.888
REMARK  3 active torsions:
REMARK  status: ('A' for Active; 'I' for Inactive)
REMARK    1  A    between atoms: N1_1  and  C1_5 
REMARK    2  A    between atoms: C3_7  and  N2_8 
REMARK    3  A    between atoms: N2_8  and  C4_10 
ROOT
HETATM    1  N2  UNL     1      15.106  14.876  42.623  1.00  0.00    -0.411 N 
ATOM      2  H2  UNL     1      16.022  14.535  42.912  1.00  0.00     0.154 HD
ENDROOT
BRANCH   1   3
HETATM    3  C3  UNL     1      14.627  16.145  43.036  1.00  0.00     0.109 A 
HETATM    4  C1  UNL     1      14.946  17.333  42.221  1.00  0.00     0.207 A 
HETATM    5  C2  UNL     1      13.520  16.820  42.324  1.00  0.00     0.061 A 
BRANCH   4   6
HETATM    6  N1  UNL     1      15.538  17.228  40.919  1.00  0.00    -0.073 N 
ATOM      7  H13 UNL     1      15.980  18.110  40.663  1.00  0.00     0.274 HD
ATOM      8  H12 UNL     1      16.357  16.620  40.953  1.00  0.00     0.274 HD
ATOM      9  H11 UNL     1      14.906  16.924  40.179  1.00  0.00     0.274 HD
ENDBRANCH   4   6
ENDBRANCH   1   3
BRANCH   1  10
HETATM   10  C4  UNL     1      14.263  14.104  41.794  1.00  0.00     0.077 C 
HETATM   11  C5  UNL     1      15.007  13.108  40.927  1.00  0.00     0.024 C 
HETATM   12  C6  UNL     1      13.991  12.294  40.155  1.00  0.00     0.002 C 
HETATM   13  C7  UNL     1      13.186  11.407  41.092  1.00  0.00     0.000 C 
HETATM   14  C8  UNL     1      13.424  11.847  42.509  1.00  0.00     0.002 C 
HETATM   15  C9  UNL     1      13.302  13.340  42.700  1.00  0.00     0.024 C 
ENDBRANCH   1  10
TORSDOF 3
ENDMDL
MODEL 5
REMARK VINA RESULT: -5.001559236      2.797      5.186
REMARK  3 active torsions:
REMARK  status: ('A' for Active; 'I' for Inactive)
REMARK    1  A    between atoms: N1_1  and  C1_5 
REMARK    2  A    between atoms: C3_7  and  N2_8 
REMARK    3  A    between atoms: N2_8  and  C4_10 
ROOT
HETATM    1  N2  UNL     1      13.285  11.953  42.652  1.00  0.00    -0.411 N 
ATOM      2  H2  UNL     1      13.359  11.062  43.143  1.00  0.00     0.154 HD
ENDROOT
BRANCH   1   3
HETATM    3  C3  UNL     1      13.963  12.177  41.427  1.00  0.00     0.109 A 
HETATM    4  C1  UNL     1      14.518  11.024  40.693  1.00  0.00     0.207 A 
HETATM    5  C2  UNL     1      13.350  11.815  40.130  1.00  0.00     0.061 A 
BRANCH   4   6
HETATM    6  N1  UNL     1      14.218   9.671  41.058  1.00  0.00    -0.073 N 
ATOM      7  H13 UNL     1      13.919   9.628  42.032  1.00  0.00     0.274 HD
ATOM      8  H12 UNL     1      13.362   9.363  40.595  1.00  0.00     0.274 HD
ATOM      9  H11 UNL     1      14.967   9.000  40.890  1.00  0.00     0.274 HD
ENDBRANCH   4   6
ENDBRANCH   1   3
BRANCH   1  10
HETATM   10  C4  UNL     1      12.504  13.011  43.164  1.00  0.00     0.077 C 
HETATM   11  C5  UNL     1      11.795  12.674  44.461  1.00  0.00     0.024 C 
HETATM   12  C6  UNL     1      11.066  13.910  44.941  1.00  0.00     0.002 C 
HETATM   13  C7  UNL     1      12.053  14.991  45.356  1.00  0.00     0.000 C 
HETATM   14  C8  UNL     1      13.422  14.622  44.860  1.00  0.00     0.002 C 
HETATM   15  C9  UNL     1      13.438  14.193  43.412  1.00  0.00     0.024 C 
ENDBRANCH   1  10
TORSDOF 3
ENDMDL
