MODEL 1
REMARK VINA RESULT: -6.194186036      0.000      0.000
REMARK  2 active torsions:
REMARK  status: ('A' for Active; 'I' for Inactive)
REMARK    1  A    between atoms: C4_4  and  N1_5 
REMARK    2  A    between atoms: N1_5  and  C5_7 
ROOT
HETATM    1  N1  UNL     1      15.208  14.285  42.020  1.00  0.00    -0.349 N 
ATOM      2  H1  UNL     1      15.810  13.781  42.672  1.00  0.00     0.163 HD
ENDROOT
BRANCH   1   3
HETATM    3  C4  UNL     1      14.135  13.573  41.400  1.00  0.00     0.085 C 
HETATM    4  C3  UNL     1      13.269  12.863  42.427  1.00  0.00     0.025 C 
HETATM    5  C2  UNL     1      13.256  11.412  42.026  1.00  0.00     0.002 C 
HETATM    6  C1  UNL     1      13.467  11.501  40.531  1.00  0.00     0.002 C 
HETATM    7  C6  UNL     1      14.648  12.475  40.503  1.00  0.00     0.025 C 
ENDBRANCH   1   3
BRANCH   1   8
HETATM    8  C5  UNL     1      15.458  15.544  41.796  1.00  0.00     0.254 A 
HETATM    9  N2  UNL     1      14.992  16.628  42.431  1.00  0.00    -0.249 N 
HETATM   10  N3  UNL     1      15.527  17.688  41.847  1.00  0.00     0.001 NA
ATOM     11  H2  UNL     1      14.345  16.635  43.219  1.00  0.00     0.187 HD
HETATM   12  N4  UNL     1      16.311  17.267  40.866  1.00  0.00     0.043 NA
HETATM   13  O1  UNL     1      16.255  15.982  40.853  1.00  0.00    -0.188 OA
ENDBRANCH   1   8
TORSDOF 2
ENDMDL
MODEL 2
REMARK VINA RESULT: -6.187247952      0.776      1.137
REMARK  2 active torsions:
REMARK  status: ('A' for Active; 'I' for Inactive)
REMARK    1  A    between atoms: C4_4  and  N1_5 
REMARK    2  A    between atoms: N1_5  and  C5_7 
ROOT
HETATM    1  N1  UNL     1      15.539  13.986  41.352  1.00  0.00    -0.349 N 
ATOM      2  H1  UNL     1      16.336  13.399  41.603  1.00  0.00     0.163 HD
ENDROOT
BRANCH   1   3
HETATM    3  C4  UNL     1      14.299  13.347  41.042  1.00  0.00     0.085 C 
HETATM    4  C3  UNL     1      13.510  13.020  42.299  1.00  0.00     0.025 C 
HETATM    5  C2  UNL     1      13.242  11.539  42.247  1.00  0.00     0.002 C 
HETATM    6  C1  UNL     1      13.235  11.277  40.757  1.00  0.00     0.002 C 
HETATM    7  C6  UNL     1      14.518  12.016  40.368  1.00  0.00     0.025 C 
ENDBRANCH   1   3
BRANCH   1   8
HETATM    8  C5  UNL     1      15.705  15.278  41.330  1.00  0.00     0.254 A 
HETATM    9  N2  UNL     1      16.227  16.051  40.369  1.00  0.00    -0.249 N 
HETATM   10  N3  UNL     1      16.186  17.300  40.801  1.00  0.00     0.001 NA
ATOM     11  H2  UNL     1      16.589  15.735  39.469  1.00  0.00     0.187 HD
HETATM   12  N4  UNL     1      15.648  17.302  42.010  1.00  0.00     0.043 NA
HETATM   13  O1  UNL     1      15.368  16.082  42.309  1.00  0.00    -0.188 OA
ENDBRANCH   1   8
TORSDOF 2
ENDMDL
MODEL 3
REMARK VINA RESULT: -6.033659174      3.573      5.334
REMARK  2 active torsions:
REMARK  status: ('A' for Active; 'I' for Inactive)
REMARK    1  A    between atoms: C4_4  and  N1_5 
REMARK    2  A    between atoms: N1_5  and  C5_7 
ROOT
HETATM    1  N1  UNL     1      13.766  12.425  40.810  1.00  0.00    -0.349 N 
ATOM      2  H1  UNL     1      13.075  12.968  40.291  1.00  0.00     0.163 HD
ENDROOT
BRANCH   1   3
HETATM    3  C4  UNL     1      15.005  13.051  41.148  1.00  0.00     0.085 C 
HETATM    4  C3  UNL     1      14.786  14.341  41.919  1.00  0.00     0.025 C 
HETATM    5  C2  UNL     1      15.501  15.415  41.142  1.00  0.00     0.002 C 
HETATM    6  C1  UNL     1      16.598  14.628  40.461  1.00  0.00     0.002 C 
HETATM    7  C6  UNL     1      15.768  13.464  39.914  1.00  0.00     0.025 C 
ENDBRANCH   1   3
BRANCH   1   8
HETATM    8  C5  UNL     1      13.472  11.195  41.129  1.00  0.00     0.254 A 
HETATM    9  N2  UNL     1      13.107  10.690  42.314  1.00  0.00    -0.249 N 
HETATM   10  N3  UNL     1      12.915   9.392  42.148  1.00  0.00     0.001 NA
ATOM     11  H2  UNL     1      12.998  11.210  43.185  1.00  0.00     0.187 HD
HETATM   12  N4  UNL     1      13.157   9.098  40.881  1.00  0.00     0.043 NA
HETATM   13  O1  UNL     1      13.489  10.191  40.288  1.00  0.00    -0.188 OA
ENDBRANCH   1   8
TORSDOF 2
ENDMDL
MODEL 4
REMARK VINA RESULT: -5.862826025      3.583      5.358
REMARK  2 active torsions:
REMARK  status: ('A' for Active; 'I' for Inactive)
REMARK    1  A    between atoms: C4_4  and  N1_5 
REMARK    2  A    between atoms: N1_5  and  C5_7 
ROOT
HETATM    1  N1  UNL     1      13.753  12.436  40.815  1.00  0.00    -0.349 N 
ATOM      2  H1  UNL     1      13.307  12.961  40.062  1.00  0.00     0.163 HD
ENDROOT
BRANCH   1   3
HETATM    3  C4  UNL     1      14.321  13.166  41.905  1.00  0.00     0.085 C 
HETATM    4  C3  UNL     1      13.248  13.836  42.747  1.00  0.00     0.025 C 
HETATM    5  C2  UNL     1      13.596  15.301  42.773  1.00  0.00     0.002 C 
HETATM    6  C1  UNL     1      15.099  15.266  42.598  1.00  0.00     0.002 C 
HETATM    7  C6  UNL     1      15.190  14.297  41.417  1.00  0.00     0.025 C 
ENDBRANCH   1   3
BRANCH   1   8
HETATM    8  C5  UNL     1      13.776  11.136  40.734  1.00  0.00     0.254 A 
HETATM    9  N2  UNL     1      14.725  10.333  40.237  1.00  0.00    -0.249 N 
HETATM   10  N3  UNL     1      14.300   9.087  40.372  1.00  0.00     0.001 NA
ATOM     11  H2  UNL     1      15.613  10.626  39.830  1.00  0.00     0.187 HD
HETATM   12  N4  UNL     1      13.106   9.118  40.942  1.00  0.00     0.043 NA
HETATM   13  O1  UNL     1      12.810  10.353  41.151  1.00  0.00    -0.188 OA
ENDBRANCH   1   8
TORSDOF 2
ENDMDL
MODEL 5
REMARK VINA RESULT: -5.831723020      2.869      3.356
REMARK  2 active torsions:
REMARK  status: ('A' for Active; 'I' for Inactive)
REMARK    1  A    between atoms: C4_4  and  N1_5 
REMARK    2  A    between atoms: N1_5  and  C5_7 
ROOT
HETATM    1  N1  UNL     1      13.871  13.526  42.538  1.00  0.00    -0.349 N 
ATOM      2  H1  UNL     1      14.851  13.781  42.417  1.00  0.00     0.163 HD
ENDROOT
BRANCH   1   3
HETATM    3  C4  UNL     1      13.319  12.527  41.679  1.00  0.00     0.085 C 
HETATM    4  C3  UNL     1      13.138  11.205  42.405  1.00  0.00     0.025 C 
HETATM    5  C2  UNL     1      13.897  10.183  41.599  1.00  0.00     0.002 C 
HETATM    6  C1  UNL     1      13.834  10.775  40.209  1.00  0.00     0.002 C 
HETATM    7  C6  UNL     1      14.246  12.213  40.532  1.00  0.00     0.025 C 
ENDBRANCH   1   3
BRANCH   1   8
HETATM    8  C5  UNL     1      13.186  14.130  43.469  1.00  0.00     0.254 A 
HETATM    9  N2  UNL     1      12.952  13.750  44.732  1.00  0.00    -0.249 N 
HETATM   10  N3  UNL     1      12.207  14.687  45.294  1.00  0.00     0.001 NA
ATOM     11  H2  UNL     1      13.287  12.896  45.178  1.00  0.00     0.187 HD
HETATM   12  N4  UNL     1      11.982  15.631  44.395  1.00  0.00     0.043 NA
HETATM   13  O1  UNL     1      12.577  15.279  43.309  1.00  0.00    -0.188 OA
ENDBRANCH   1   8
TORSDOF 2
ENDMDL
