MODEL 1
REMARK VINA RESULT: -5.586056418      0.000      0.000
REMARK  1 active torsions:
REMARK  status: ('A' for Active; 'I' for Inactive)
REMARK    1  A    between atoms: C2_2  and  C4_4 
ROOT
HETATM    1  C4  UNL     1      13.443  13.379  42.250  1.00  0.00     0.113 C 
HETATM    2  C5  UNL     1      14.867  13.754  42.030  1.00  0.00     0.259 C 
HETATM    3  N1  UNL     1      14.942  15.219  42.161  1.00  0.00    -0.058 N 
ATOM      4  H11 UNL     1      14.056  15.664  41.920  1.00  0.00     0.279 HD
ATOM      5  H12 UNL     1      15.525  15.633  41.434  1.00  0.00     0.279 HD
HETATM    6  C6  UNL     1      15.385  15.595  43.477  1.00  0.00     0.356 C 
HETATM    7  N2  UNL     1      14.388  15.401  44.508  1.00  0.00    -0.342 N 
ATOM      8  H2  UNL     1      14.404  16.065  45.282  1.00  0.00     0.163 HD
HETATM    9  C7  UNL     1      13.474  14.477  44.560  1.00  0.00     0.185 C 
HETATM   10  N3  UNL     1      12.602  14.505  45.698  1.00  0.00    -0.064 NA
HETATM   11  N4  UNL     1      13.170  13.411  43.672  1.00  0.00    -0.358 N 
ATOM     12  H4  UNL     1      12.716  12.591  44.074  1.00  0.00     0.162 HD
ENDROOT
BRANCH   1  13
HETATM   13  C2  UNL     1      13.066  12.048  41.650  1.00  0.00     0.002 C 
HETATM   14  C1  UNL     1      13.231  11.006  42.762  1.00  0.00     0.011 C 
HETATM   15  C3  UNL     1      13.884  11.662  40.468  1.00  0.00     0.011 C 
ENDBRANCH   1  13
TORSDOF 1
ENDMDL
MODEL 2
REMARK VINA RESULT: -5.506378553      0.802      1.183
REMARK  1 active torsions:
REMARK  status: ('A' for Active; 'I' for Inactive)
REMARK    1  A    between atoms: C2_2  and  C4_4 
ROOT
HETATM    1  C4  UNL     1      13.735  13.667  42.377  1.00  0.00     0.113 C 
HETATM    2  C5  UNL     1      15.018  14.412  42.256  1.00  0.00     0.259 C 
HETATM    3  N1  UNL     1      14.679  15.844  42.309  1.00  0.00    -0.058 N 
ATOM      4  H11 UNL     1      13.734  16.020  41.969  1.00  0.00     0.279 HD
ATOM      5  H12 UNL     1      15.196  16.379  41.611  1.00  0.00     0.279 HD
HETATM    6  C6  UNL     1      14.875  16.369  43.633  1.00  0.00     0.356 C 
HETATM    7  N2  UNL     1      13.874  15.942  44.586  1.00  0.00    -0.342 N 
ATOM      8  H2  UNL     1      13.635  16.609  45.320  1.00  0.00     0.163 HD
HETATM    9  C7  UNL     1      13.245  14.804  44.615  1.00  0.00     0.185 C 
HETATM   10  N3  UNL     1      12.292  14.628  45.672  1.00  0.00    -0.064 NA
HETATM   11  N4  UNL     1      13.327  13.668  43.767  1.00  0.00    -0.358 N 
ATOM     12  H4  UNL     1      13.076  12.768  44.175  1.00  0.00     0.162 HD
ENDROOT
BRANCH   1  13
HETATM   13  C2  UNL     1      13.792  12.265  41.825  1.00  0.00     0.002 C 
HETATM   14  C1  UNL     1      14.626  12.336  40.541  1.00  0.00     0.011 C 
HETATM   15  C3  UNL     1      12.459  11.672  41.532  1.00  0.00     0.011 C 
ENDBRANCH   1  13
TORSDOF 1
ENDMDL
MODEL 3
REMARK VINA RESULT: -5.442429648      1.083      2.409
REMARK  1 active torsions:
REMARK  status: ('A' for Active; 'I' for Inactive)
REMARK    1  A    between atoms: C2_2  and  C4_4 
ROOT
HETATM    1  C4  UNL     1      13.701  13.110  43.031  1.00  0.00     0.113 C 
HETATM    2  C5  UNL     1      12.797  13.699  44.058  1.00  0.00     0.259 C 
HETATM    3  N1  UNL     1      13.659  14.182  45.149  1.00  0.00    -0.058 N 
ATOM      4  H11 UNL     1      14.530  13.653  45.205  1.00  0.00     0.279 HD
ATOM      5  H12 UNL     1      13.276  13.946  46.065  1.00  0.00     0.279 HD
HETATM    6  C6  UNL     1      13.903  15.594  45.024  1.00  0.00     0.356 C 
HETATM    7  N2  UNL     1      14.811  15.939  43.951  1.00  0.00    -0.342 N 
ATOM      8  H2  UNL     1      15.406  16.753  44.106  1.00  0.00     0.163 HD
HETATM    9  C7  UNL     1      14.954  15.329  42.811  1.00  0.00     0.185 C 
HETATM   10  N3  UNL     1      15.931  15.875  41.914  1.00  0.00    -0.064 NA
HETATM   11  N4  UNL     1      14.304  14.187  42.273  1.00  0.00    -0.358 N 
ATOM     12  H4  UNL     1      14.258  14.117  41.256  1.00  0.00     0.162 HD
ENDROOT
BRANCH   1  13
HETATM   13  C2  UNL     1      13.022  12.116  42.124  1.00  0.00     0.002 C 
HETATM   14  C1  UNL     1      13.020  10.776  42.869  1.00  0.00     0.011 C 
HETATM   15  C3  UNL     1      13.678  11.957  40.797  1.00  0.00     0.011 C 
ENDBRANCH   1  13
TORSDOF 1
ENDMDL
MODEL 4
REMARK VINA RESULT: -5.355374777      1.796      3.431
REMARK  1 active torsions:
REMARK  status: ('A' for Active; 'I' for Inactive)
REMARK    1  A    between atoms: C2_2  and  C4_4 
ROOT
HETATM    1  C4  UNL     1      13.334  14.472  44.391  1.00  0.00     0.113 C 
HETATM    2  C5  UNL     1      12.137  15.304  44.693  1.00  0.00     0.259 C 
HETATM    3  N1  UNL     1      11.697  14.931  46.047  1.00  0.00    -0.058 N 
ATOM      4  H11 UNL     1      11.958  13.973  46.278  1.00  0.00     0.279 HD
ATOM      5  H12 UNL     1      10.683  14.831  46.100  1.00  0.00     0.279 HD
HETATM    6  C6  UNL     1      12.190  15.866  47.023  1.00  0.00     0.356 C 
HETATM    7  N2  UNL     1      13.607  15.745  47.286  1.00  0.00    -0.342 N 
ATOM      8  H2  UNL     1      13.910  15.957  48.237  1.00  0.00     0.163 HD
HETATM    9  C7  UNL     1      14.540  15.396  46.449  1.00  0.00     0.185 C 
HETATM   10  N3  UNL     1      15.877  15.352  46.964  1.00  0.00    -0.064 NA
HETATM   11  N4  UNL     1      14.478  15.039  45.076  1.00  0.00    -0.358 N 
ATOM     12  H4  UNL     1      15.318  15.196  44.519  1.00  0.00     0.162 HD
ENDROOT
BRANCH   1  13
HETATM   13  C2  UNL     1      13.605  14.310  42.917  1.00  0.00     0.002 C 
HETATM   14  C1  UNL     1      13.326  12.841  42.581  1.00  0.00     0.011 C 
HETATM   15  C3  UNL     1      14.991  14.668  42.510  1.00  0.00     0.011 C 
ENDBRANCH   1  13
TORSDOF 1
ENDMDL
MODEL 5
REMARK VINA RESULT: -5.286295023      1.697      2.482
REMARK  1 active torsions:
REMARK  status: ('A' for Active; 'I' for Inactive)
REMARK    1  A    between atoms: C2_2  and  C4_4 
ROOT
HETATM    1  C4  UNL     1      14.052  11.849  40.744  1.00  0.00     0.113 C 
HETATM    2  C5  UNL     1      15.499  11.921  40.400  1.00  0.00     0.259 C 
HETATM    3  N1  UNL     1      15.725  13.252  39.812  1.00  0.00    -0.058 N 
ATOM      4  H11 UNL     1      14.882  13.616  39.368  1.00  0.00     0.279 HD
ATOM      5  H12 UNL     1      16.324  13.202  38.988  1.00  0.00     0.279 HD
HETATM    6  C6  UNL     1      16.246  14.166  40.793  1.00  0.00     0.356 C 
HETATM    7  N2  UNL     1      15.269  14.596  41.769  1.00  0.00    -0.342 N 
ATOM      8  H2  UNL     1      15.376  15.545  42.129  1.00  0.00     0.163 HD
HETATM    9  C7  UNL     1      14.268  13.911  42.241  1.00  0.00     0.185 C 
HETATM   10  N3  UNL     1      13.440  14.574  43.207  1.00  0.00    -0.064 NA
HETATM   11  N4  UNL     1      13.829  12.589  41.970  1.00  0.00    -0.358 N 
ATOM     12  H4  UNL     1      13.308  12.114  42.707  1.00  0.00     0.162 HD
ENDROOT
BRANCH   1  13
HETATM   13  C2  UNL     1      13.524  10.441  40.851  1.00  0.00     0.002 C 
HETATM   14  C1  UNL     1      12.746  10.365  42.170  1.00  0.00     0.011 C 
HETATM   15  C3  UNL     1      14.580   9.392  40.826  1.00  0.00     0.011 C 
ENDBRANCH   1  13
TORSDOF 1
ENDMDL
