MODEL 1
REMARK VINA RESULT: -4.627816197      0.000      0.000
REMARK  1 active torsions:
REMARK  status: ('A' for Active; 'I' for Inactive)
REMARK    1  A    between atoms: C3_5  and  C4_6 
ROOT
HETATM    1  C1  UNL     1      14.697  15.180  43.428  1.00  0.00     0.140 C 
HETATM    2  C2  UNL     1      14.016  14.664  44.670  1.00  0.00     0.140 C 
HETATM    3  N1  UNL     1      13.038  13.752  44.118  1.00  0.00    -0.376 N 
ATOM      4  H1  UNL     1      12.178  13.442  44.570  1.00  0.00     0.160 HD
HETATM    5  C3  UNL     1      13.497  13.364  42.823  1.00  0.00     0.114 C 
HETATM    6  N3  UNL     1      14.427  14.165  42.436  1.00  0.00    -0.376 N 
ATOM      7  H3  UNL     1      14.912  14.091  41.542  1.00  0.00     0.160 HD
ENDROOT
BRANCH   5   8
HETATM    8  C4  UNL     1      12.985  12.226  42.053  1.00  0.00     0.313 C 
HETATM    9  N2  UNL     1      13.058  11.010  42.804  1.00  0.00    -0.054 N 
HETATM   10  C5  UNL     1      12.978   9.893  41.926  1.00  0.00     0.244 C 
ATOM     11  H22 UNL     1      13.889  10.974  43.394  1.00  0.00     0.279 HD
ATOM     12  H21 UNL     1      12.353  10.971  43.539  1.00  0.00     0.279 HD
HETATM   13  C6  UNL     1      14.095   9.997  40.910  1.00  0.00     0.104 C 
HETATM   14  S1  UNL     1      14.136  11.820  40.676  1.00  0.00    -0.127 SA
ENDBRANCH   5   8
TORSDOF 1
ENDMDL
MODEL 2
REMARK VINA RESULT: -4.589015932      0.459      1.280
REMARK  1 active torsions:
REMARK  status: ('A' for Active; 'I' for Inactive)
REMARK    1  A    between atoms: C3_5  and  C4_6 
ROOT
HETATM    1  C1  UNL     1      14.276  15.050  44.073  1.00  0.00     0.140 C 
HETATM    2  C2  UNL     1      14.953  15.341  42.757  1.00  0.00     0.140 C 
HETATM    3  N1  UNL     1      14.798  14.085  42.057  1.00  0.00    -0.376 N 
ATOM      4  H1  UNL     1      15.374  13.750  41.285  1.00  0.00     0.160 HD
HETATM    5  C3  UNL     1      13.693  13.400  42.643  1.00  0.00     0.114 C 
HETATM    6  N3  UNL     1      13.399  13.941  43.774  1.00  0.00    -0.376 N 
ATOM      7  H3  UNL     1      12.643  13.626  44.382  1.00  0.00     0.160 HD
ENDROOT
BRANCH   5   8
HETATM    8  C4  UNL     1      12.998  12.255  42.047  1.00  0.00     0.313 C 
HETATM    9  N2  UNL     1      13.048  11.108  42.902  1.00  0.00    -0.054 N 
HETATM   10  C5  UNL     1      12.770   9.932  42.152  1.00  0.00     0.244 C 
ATOM     11  H22 UNL     1      13.935  11.042  43.402  1.00  0.00     0.279 HD
ATOM     12  H21 UNL     1      12.431  11.204  43.708  1.00  0.00     0.279 HD
HETATM   13  C6  UNL     1      13.769   9.835  41.019  1.00  0.00     0.104 C 
HETATM   14  S1  UNL     1      13.944  11.617  40.603  1.00  0.00    -0.127 SA
ENDBRANCH   5   8
TORSDOF 1
ENDMDL
MODEL 3
REMARK VINA RESULT: -4.576390725      3.821      5.685
REMARK  1 active torsions:
REMARK  status: ('A' for Active; 'I' for Inactive)
REMARK    1  A    between atoms: C3_5  and  C4_6 
ROOT
HETATM    1  C1  UNL     1      13.592  14.754  43.086  1.00  0.00     0.140 C 
HETATM    2  C2  UNL     1      13.240  13.440  43.737  1.00  0.00     0.140 C 
HETATM    3  N1  UNL     1      12.842  13.860  45.063  1.00  0.00    -0.376 N 
ATOM      4  H1  UNL     1      12.837  13.282  45.903  1.00  0.00     0.160 HD
HETATM    5  C3  UNL     1      12.456  15.231  44.980  1.00  0.00     0.114 C 
HETATM    6  N3  UNL     1      12.876  15.733  43.872  1.00  0.00    -0.376 N 
ATOM      7  H3  UNL     1      12.723  16.700  43.585  1.00  0.00     0.160 HD
ENDROOT
BRANCH   5   8
HETATM    8  C4  UNL     1      11.696  15.956  46.003  1.00  0.00     0.313 C 
HETATM    9  N2  UNL     1      11.684  15.249  47.247  1.00  0.00    -0.054 N 
HETATM   10  C5  UNL     1      10.620  15.723  48.063  1.00  0.00     0.244 C 
ATOM     11  H22 UNL     1      11.643  14.239  47.112  1.00  0.00     0.279 HD
ATOM     12  H21 UNL     1      12.584  15.299  47.723  1.00  0.00     0.279 HD
HETATM   13  C6  UNL     1       9.319  15.554  47.308  1.00  0.00     0.104 C 
HETATM   14  S1  UNL     1       9.899  15.926  45.602  1.00  0.00    -0.127 SA
ENDBRANCH   5   8
TORSDOF 1
ENDMDL
MODEL 4
REMARK VINA RESULT: -4.484660497      1.645      4.331
REMARK  1 active torsions:
REMARK  status: ('A' for Active; 'I' for Inactive)
REMARK    1  A    between atoms: C3_5  and  C4_6 
ROOT
HETATM    1  C1  UNL     1      13.437  10.348  40.976  1.00  0.00     0.140 C 
HETATM    2  C2  UNL     1      12.882  10.017  42.338  1.00  0.00     0.140 C 
HETATM    3  N1  UNL     1      13.225  11.201  43.096  1.00  0.00    -0.376 N 
ATOM      4  H1  UNL     1      13.321  11.261  44.109  1.00  0.00     0.160 HD
HETATM    5  C3  UNL     1      13.405  12.268  42.166  1.00  0.00     0.114 C 
HETATM    6  N3  UNL     1      13.523  11.790  40.977  1.00  0.00    -0.376 N 
ATOM      7  H3  UNL     1      13.661  12.359  40.142  1.00  0.00     0.160 HD
ENDROOT
BRANCH   5   8
HETATM    8  C4  UNL     1      13.447  13.692  42.515  1.00  0.00     0.313 C 
HETATM    9  N2  UNL     1      14.763  14.231  42.354  1.00  0.00    -0.054 N 
HETATM   10  C5  UNL     1      14.882  15.444  43.088  1.00  0.00     0.244 C 
ATOM     11  H22 UNL     1      15.487  13.558  42.607  1.00  0.00     0.279 HD
ATOM     12  H21 UNL     1      15.010  14.352  41.372  1.00  0.00     0.279 HD
HETATM   13  C6  UNL     1      14.562  15.164  44.540  1.00  0.00     0.104 C 
HETATM   14  S1  UNL     1      13.234  13.909  44.330  1.00  0.00    -0.127 SA
ENDBRANCH   5   8
TORSDOF 1
ENDMDL
MODEL 5
REMARK VINA RESULT: -4.477512704      1.696      4.447
REMARK  1 active torsions:
REMARK  status: ('A' for Active; 'I' for Inactive)
REMARK    1  A    between atoms: C3_5  and  C4_6 
ROOT
HETATM    1  C1  UNL     1      13.140  10.040  42.633  1.00  0.00     0.140 C 
HETATM    2  C2  UNL     1      13.339  10.286  41.158  1.00  0.00     0.140 C 
HETATM    3  N1  UNL     1      13.053  11.700  41.050  1.00  0.00    -0.376 N 
ATOM      4  H1  UNL     1      12.764  12.194  40.206  1.00  0.00     0.160 HD
HETATM    5  C3  UNL     1      13.252  12.277  42.339  1.00  0.00     0.114 C 
HETATM    6  N3  UNL     1      13.301  11.347  43.227  1.00  0.00    -0.376 N 
ATOM      7  H3  UNL     1      13.435  11.512  44.225  1.00  0.00     0.160 HD
ENDROOT
BRANCH   5   8
HETATM    8  C4  UNL     1      13.380  13.713  42.610  1.00  0.00     0.313 C 
HETATM    9  N2  UNL     1      14.714  14.173  42.371  1.00  0.00    -0.054 N 
HETATM   10  C5  UNL     1      14.923  15.415  43.034  1.00  0.00     0.244 C 
ATOM     11  H22 UNL     1      15.412  13.477  42.633  1.00  0.00     0.279 HD
ATOM     12  H21 UNL     1      14.928  14.230  41.376  1.00  0.00     0.279 HD
HETATM   13  C6  UNL     1      14.648  15.226  44.510  1.00  0.00     0.104 C 
HETATM   14  S1  UNL     1      13.251  14.034  44.417  1.00  0.00    -0.127 SA
ENDBRANCH   5   8
TORSDOF 1
ENDMDL
