MODEL 1
REMARK VINA RESULT: -5.236203434      0.000      0.000
REMARK  2 active torsions:
REMARK  status: ('A' for Active; 'I' for Inactive)
REMARK    1  A    between atoms: C5_7  and  C6_8 
REMARK    2  A    between atoms: C6_8  and  O2_9 
ROOT
HETATM    1  C1  UNL     1      14.853  15.619  44.832  1.00  0.00     0.036 C 
HETATM    2  C2  UNL     1      13.904  15.132  43.777  1.00  0.00     0.088 C 
HETATM    3  C3  UNL     1      14.666  14.631  42.644  1.00  0.00     0.073 C 
HETATM    4  N1  UNL     1      15.262  14.215  41.738  1.00  0.00    -0.196 NA
HETATM    5  C4  UNL     1      13.103  13.972  44.359  1.00  0.00     0.197 C 
HETATM    6  O1  UNL     1      12.278  14.546  45.351  1.00  0.00    -0.357 OA
HETATM    7  C5  UNL     1      11.334  15.373  44.759  1.00  0.00     0.283 C 
HETATM    8  O3  UNL     1      11.990  16.496  44.287  1.00  0.00    -0.357 OA
HETATM    9  C7  UNL     1      12.922  16.172  43.336  1.00  0.00     0.197 C 
ENDROOT
BRANCH   7  10
HETATM   10  C6  UNL     1      10.363  15.798  45.844  1.00  0.00     0.224 C 
BRANCH  10  11
HETATM   11  O2  UNL     1       9.170  15.079  45.773  1.00  0.00    -0.396 OA
ATOM     12  H2  UNL     1       8.907  14.755  46.626  1.00  0.00     0.209 HD
ENDBRANCH  10  11
ENDBRANCH   7  10
TORSDOF 2
ENDMDL
MODEL 2
REMARK VINA RESULT: -5.234652801      5.326      6.753
REMARK  2 active torsions:
REMARK  status: ('A' for Active; 'I' for Inactive)
REMARK    1  A    between atoms: C5_7  and  C6_8 
REMARK    2  A    between atoms: C6_8  and  O2_9 
ROOT
HETATM    1  C1  UNL     1      13.773  10.088  43.349  1.00  0.00     0.036 C 
HETATM    2  C2  UNL     1      13.114  10.078  42.001  1.00  0.00     0.088 C 
HETATM    3  C3  UNL     1      11.965   9.187  42.039  1.00  0.00     0.073 C 
HETATM    4  N1  UNL     1      11.039   8.488  42.058  1.00  0.00    -0.196 NA
HETATM    5  C4  UNL     1      12.609  11.488  41.710  1.00  0.00     0.197 C 
HETATM    6  O1  UNL     1      13.770  12.274  41.540  1.00  0.00    -0.357 OA
HETATM    7  C5  UNL     1      14.437  11.887  40.387  1.00  0.00     0.283 C 
HETATM    8  O3  UNL     1      14.999  10.644  40.619  1.00  0.00    -0.357 OA
HETATM    9  C7  UNL     1      14.041   9.701  40.889  1.00  0.00     0.197 C 
ENDROOT
BRANCH   7  10
HETATM   10  C6  UNL     1      15.552  12.888  40.153  1.00  0.00     0.224 C 
BRANCH  10  11
HETATM   11  O2  UNL     1      16.760  12.250  39.869  1.00  0.00    -0.396 OA
ATOM     12  H2  UNL     1      16.716  11.770  39.050  1.00  0.00     0.209 HD
ENDBRANCH  10  11
ENDBRANCH   7  10
TORSDOF 2
ENDMDL
MODEL 3
REMARK VINA RESULT: -5.121768521      1.733      2.422
REMARK  2 active torsions:
REMARK  status: ('A' for Active; 'I' for Inactive)
REMARK    1  A    between atoms: C5_7  and  C6_8 
REMARK    2  A    between atoms: C6_8  and  O2_9 
ROOT
HETATM    1  C1  UNL     1      14.406  14.561  42.449  1.00  0.00     0.036 C 
HETATM    2  C2  UNL     1      14.613  16.001  42.820  1.00  0.00     0.088 C 
HETATM    3  C3  UNL     1      15.630  16.574  41.954  1.00  0.00     0.073 C 
HETATM    4  N1  UNL     1      16.432  17.049  41.262  1.00  0.00    -0.196 NA
HETATM    5  C4  UNL     1      13.305  16.746  42.572  1.00  0.00     0.197 C 
HETATM    6  O1  UNL     1      12.401  16.249  43.537  1.00  0.00    -0.357 OA
HETATM    7  C5  UNL     1      12.803  16.643  44.805  1.00  0.00     0.283 C 
HETATM    8  O3  UNL     1      13.943  15.929  45.129  1.00  0.00    -0.357 OA
HETATM    9  C7  UNL     1      14.969  16.198  44.260  1.00  0.00     0.197 C 
ENDROOT
BRANCH   7  10
HETATM   10  C6  UNL     1      11.698  16.254  45.769  1.00  0.00     0.224 C 
BRANCH  10  11
HETATM   11  O2  UNL     1      11.906  14.981  46.298  1.00  0.00    -0.396 OA
ATOM     12  H2  UNL     1      12.541  14.997  47.004  1.00  0.00     0.209 HD
ENDBRANCH  10  11
ENDBRANCH   7  10
TORSDOF 2
ENDMDL
MODEL 4
REMARK VINA RESULT: -5.059682768      1.087      1.887
REMARK  2 active torsions:
REMARK  status: ('A' for Active; 'I' for Inactive)
REMARK    1  A    between atoms: C5_7  and  C6_8 
REMARK    2  A    between atoms: C6_8  and  O2_9 
ROOT
HETATM    1  C1  UNL     1      13.024  13.886  43.377  1.00  0.00     0.036 C 
HETATM    2  C2  UNL     1      13.559  15.098  44.081  1.00  0.00     0.088 C 
HETATM    3  C3  UNL     1      14.901  15.377  43.597  1.00  0.00     0.073 C 
HETATM    4  N1  UNL     1      15.969  15.619  43.212  1.00  0.00    -0.196 NA
HETATM    5  C4  UNL     1      12.670  16.285  43.722  1.00  0.00     0.197 C 
HETATM    6  O1  UNL     1      11.428  16.025  44.341  1.00  0.00    -0.357 OA
HETATM    7  C5  UNL     1      11.567  16.085  45.721  1.00  0.00     0.283 C 
HETATM    8  O3  UNL     1      12.293  14.978  46.123  1.00  0.00    -0.357 OA
HETATM    9  C7  UNL     1      13.548  14.972  45.572  1.00  0.00     0.197 C 
ENDROOT
BRANCH   7  10
HETATM   10  C6  UNL     1      10.176  15.996  46.319  1.00  0.00     0.224 C 
BRANCH  10  11
HETATM   11  O2  UNL     1       9.368  15.112  45.604  1.00  0.00    -0.396 OA
ATOM     12  H2  UNL     1       8.462  15.162  45.886  1.00  0.00     0.209 HD
ENDBRANCH  10  11
ENDBRANCH   7  10
TORSDOF 2
ENDMDL
MODEL 5
REMARK VINA RESULT: -4.995851876      3.039      4.559
REMARK  2 active torsions:
REMARK  status: ('A' for Active; 'I' for Inactive)
REMARK    1  A    between atoms: C5_7  and  C6_8 
REMARK    2  A    between atoms: C6_8  and  O2_9 
ROOT
HETATM    1  C1  UNL     1      13.085  13.939  43.633  1.00  0.00     0.036 C 
HETATM    2  C2  UNL     1      13.299  15.263  44.308  1.00  0.00     0.088 C 
HETATM    3  C3  UNL     1      12.780  15.194  45.665  1.00  0.00     0.073 C 
HETATM    4  N1  UNL     1      12.381  15.151  46.754  1.00  0.00    -0.196 NA
HETATM    5  C4  UNL     1      14.802  15.516  44.389  1.00  0.00     0.197 C 
HETATM    6  O1  UNL     1      15.219  15.718  43.055  1.00  0.00    -0.357 OA
HETATM    7  C5  UNL     1      14.682  16.900  42.567  1.00  0.00     0.283 C 
HETATM    8  O3  UNL     1      13.324  16.706  42.384  1.00  0.00    -0.357 OA
HETATM    9  C7  UNL     1      12.694  16.413  43.566  1.00  0.00     0.197 C 
ENDROOT
BRANCH   7  10
HETATM   10  C6  UNL     1      15.320  17.162  41.215  1.00  0.00     0.224 C 
BRANCH  10  11
HETATM   11  O2  UNL     1      16.708  17.040  41.275  1.00  0.00    -0.396 OA
ATOM     12  H2  UNL     1      17.130  17.890  41.330  1.00  0.00     0.209 HD
ENDBRANCH  10  11
ENDBRANCH   7  10
TORSDOF 2
ENDMDL
