MODEL 1
REMARK VINA RESULT: -4.838263792      0.000      0.000
REMARK  2 active torsions:
REMARK  status: ('A' for Active; 'I' for Inactive)
REMARK    1  A    between atoms: C2_2  and  O1_3 
REMARK    2  A    between atoms: O1_3  and  C3_4 
ROOT
HETATM    1  C3  UNL     1      12.148  15.635  45.010  1.00  0.00     0.230 C 
HETATM    2  C4  UNL     1      10.642  15.553  45.103  1.00  0.00     0.078 C 
HETATM    3  C5  UNL     1      10.134  16.061  46.413  1.00  0.00     0.237 C 
HETATM    4  N1  UNL     1      10.652  15.389  47.557  1.00  0.00    -0.062 N 
ATOM      5  H11 UNL     1      10.770  14.394  47.367  1.00  0.00     0.278 HD
ATOM      6  H12 UNL     1       9.949  15.340  48.295  1.00  0.00     0.278 HD
HETATM    7  C6  UNL     1      11.884  15.960  48.063  1.00  0.00     0.341 C 
HETATM    8  N2  UNL     1      12.964  15.832  47.137  1.00  0.00    -0.211 NA
HETATM    9  C7  UNL     1      14.254  15.695  47.724  1.00  0.00     0.134 C 
HETATM   10  N3  UNL     1      12.675  14.903  46.147  1.00  0.00    -0.132 NA
ENDROOT
BRANCH   1  11
HETATM   11  O1  UNL     1      12.606  15.086  43.837  1.00  0.00    -0.369 OA
BRANCH  11  12
HETATM   12  C2  UNL     1      13.116  13.792  44.021  1.00  0.00     0.165 C 
HETATM   13  C1  UNL     1      13.465  13.229  42.665  1.00  0.00     0.033 C 
ENDBRANCH  11  12
ENDBRANCH   1  11
TORSDOF 2
ENDMDL
MODEL 2
REMARK VINA RESULT: -4.765536790      4.045      6.553
REMARK  2 active torsions:
REMARK  status: ('A' for Active; 'I' for Inactive)
REMARK    1  A    between atoms: C2_2  and  O1_3 
REMARK    2  A    between atoms: O1_3  and  C3_4 
ROOT
HETATM    1  C3  UNL     1      13.181  12.558  42.412  1.00  0.00     0.230 C 
HETATM    2  C4  UNL     1      14.384  13.047  41.638  1.00  0.00     0.078 C 
HETATM    3  C5  UNL     1      14.633  12.226  40.414  1.00  0.00     0.237 C 
HETATM    4  N1  UNL     1      14.839  10.838  40.657  1.00  0.00    -0.062 N 
ATOM      5  H11 UNL     1      15.359  10.698  41.522  1.00  0.00     0.278 HD
ATOM      6  H12 UNL     1      15.508  10.452  39.990  1.00  0.00     0.278 HD
HETATM    7  C6  UNL     1      13.618  10.057  40.664  1.00  0.00     0.341 C 
HETATM    8  N2  UNL     1      12.751  10.415  41.741  1.00  0.00    -0.211 NA
HETATM    9  C7  UNL     1      11.950   9.355  42.254  1.00  0.00     0.134 C 
HETATM   10  N3  UNL     1      13.419  11.157  42.706  1.00  0.00    -0.132 NA
ENDROOT
BRANCH   1  11
HETATM   11  O1  UNL     1      13.016  13.268  43.576  1.00  0.00    -0.369 OA
BRANCH  11  12
HETATM   12  C2  UNL     1      13.728  14.477  43.565  1.00  0.00     0.165 C 
HETATM   13  C1  UNL     1      14.009  14.869  44.996  1.00  0.00     0.033 C 
ENDBRANCH  11  12
ENDBRANCH   1  11
TORSDOF 2
ENDMDL
MODEL 3
REMARK VINA RESULT: -4.761595268      5.494      6.751
REMARK  2 active torsions:
REMARK  status: ('A' for Active; 'I' for Inactive)
REMARK    1  A    between atoms: C2_2  and  O1_3 
REMARK    2  A    between atoms: O1_3  and  C3_4 
ROOT
HETATM    1  C3  UNL     1      14.977  12.734  41.315  1.00  0.00     0.230 C 
HETATM    2  C4  UNL     1      13.755  13.193  42.077  1.00  0.00     0.078 C 
HETATM    3  C5  UNL     1      12.993  12.046  42.654  1.00  0.00     0.237 C 
HETATM    4  N1  UNL     1      12.544  11.085  41.702  1.00  0.00    -0.062 N 
ATOM      5  H11 UNL     1      12.266  11.543  40.834  1.00  0.00     0.278 HD
ATOM      6  H12 UNL     1      11.645  10.693  41.983  1.00  0.00     0.278 HD
HETATM    7  C6  UNL     1      13.501  10.030  41.439  1.00  0.00     0.341 C 
HETATM    8  N2  UNL     1      14.692  10.519  40.819  1.00  0.00    -0.211 NA
HETATM    9  C7  UNL     1      15.333   9.609  39.931  1.00  0.00     0.134 C 
HETATM   10  N3  UNL     1      14.510  11.798  40.308  1.00  0.00    -0.132 NA
ENDROOT
BRANCH   1  11
HETATM   11  O1  UNL     1      15.619  13.791  40.719  1.00  0.00    -0.369 OA
BRANCH  11  12
HETATM   12  C2  UNL     1      15.674  14.917  41.555  1.00  0.00     0.165 C 
HETATM   13  C1  UNL     1      16.077  16.105  40.716  1.00  0.00     0.033 C 
ENDBRANCH  11  12
ENDBRANCH   1  11
TORSDOF 2
ENDMDL
MODEL 4
REMARK VINA RESULT: -4.726134242      1.129      1.197
REMARK  2 active torsions:
REMARK  status: ('A' for Active; 'I' for Inactive)
REMARK    1  A    between atoms: C2_2  and  O1_3 
REMARK    2  A    between atoms: O1_3  and  C3_4 
ROOT
HETATM    1  C3  UNL     1      13.197  15.224  44.514  1.00  0.00     0.230 C 
HETATM    2  C4  UNL     1      11.696  15.305  44.671  1.00  0.00     0.078 C 
HETATM    3  C5  UNL     1      11.302  15.948  45.960  1.00  0.00     0.237 C 
HETATM    4  N1  UNL     1      11.801  15.303  47.128  1.00  0.00    -0.062 N 
ATOM      5  H11 UNL     1      11.808  14.291  47.003  1.00  0.00     0.278 HD
ATOM      6  H12 UNL     1      11.131  15.376  47.894  1.00  0.00     0.278 HD
HETATM    7  C6  UNL     1      13.106  15.775  47.546  1.00  0.00     0.341 C 
HETATM    8  N2  UNL     1      14.124  15.473  46.590  1.00  0.00    -0.211 NA
HETATM    9  C7  UNL     1      15.420  15.242  47.134  1.00  0.00     0.134 C 
HETATM   10  N3  UNL     1      13.698  14.516  45.679  1.00  0.00    -0.132 NA
ENDROOT
BRANCH   1  11
HETATM   11  O1  UNL     1      13.543  14.555  43.366  1.00  0.00    -0.369 OA
BRANCH  11  12
HETATM   12  C2  UNL     1      13.144  13.209  43.396  1.00  0.00     0.165 C 
HETATM   13  C1  UNL     1      13.490  12.588  42.064  1.00  0.00     0.033 C 
ENDBRANCH  11  12
ENDBRANCH   1  11
TORSDOF 2
ENDMDL
MODEL 5
REMARK VINA RESULT: -4.679435719      3.039      3.740
REMARK  2 active torsions:
REMARK  status: ('A' for Active; 'I' for Inactive)
REMARK    1  A    between atoms: C2_2  and  O1_3 
REMARK    2  A    between atoms: O1_3  and  C3_4 
ROOT
HETATM    1  C3  UNL     1      15.207  16.374  43.824  1.00  0.00     0.230 C 
HETATM    2  C4  UNL     1      14.325  15.148  43.765  1.00  0.00     0.078 C 
HETATM    3  C5  UNL     1      13.649  14.882  45.070  1.00  0.00     0.237 C 
HETATM    4  N1  UNL     1      14.530  14.699  46.174  1.00  0.00    -0.062 N 
ATOM      5  H11 UNL     1      15.371  14.200  45.883  1.00  0.00     0.278 HD
ATOM      6  H12 UNL     1      14.147  14.020  46.831  1.00  0.00     0.278 HD
HETATM    7  C6  UNL     1      14.878  15.929  46.856  1.00  0.00     0.341 C 
HETATM    8  N2  UNL     1      15.631  16.816  46.027  1.00  0.00    -0.211 NA
HETATM    9  C7  UNL     1      16.567  17.641  46.713  1.00  0.00     0.134 C 
HETATM   10  N3  UNL     1      16.141  16.160  44.914  1.00  0.00    -0.132 NA
ENDROOT
BRANCH   1  11
HETATM   11  O1  UNL     1      15.887  16.556  42.644  1.00  0.00    -0.369 OA
BRANCH  11  12
HETATM   12  C2  UNL     1      15.652  15.516  41.731  1.00  0.00     0.165 C 
HETATM   13  C1  UNL     1      16.242  15.918  40.401  1.00  0.00     0.033 C 
ENDBRANCH  11  12
ENDBRANCH   1  11
TORSDOF 2
ENDMDL
