MODEL 1
REMARK VINA RESULT: -5.094543540      0.000      0.000
REMARK  4 active torsions:
REMARK  status: ('A' for Active; 'I' for Inactive)
REMARK    1  A    between atoms: N1_2  and  C2_4 
REMARK    2  A    between atoms: C2_4  and  C3_5 
REMARK    3  A    between atoms: C3_5  and  O1_7 
REMARK    4  A    between atoms: C9_13  and  N2_14 
ROOT
HETATM    1  C2  UNL     1      12.333  16.100  46.977  1.00  0.00     0.082 C 
HETATM    2  C5  UNL     1      11.817  17.406  46.397  1.00  0.00     0.036 C 
HETATM    3  C6  UNL     1      12.735  18.325  45.750  1.00  0.00     0.003 C 
HETATM    4  C7  UNL     1      14.178  18.286  46.164  1.00  0.00     0.002 C 
HETATM    5  C8  UNL     1      14.234  17.631  47.535  1.00  0.00     0.035 C 
HETATM    6  C9  UNL     1      13.831  16.187  47.237  1.00  0.00     0.213 C 
ENDROOT
BRANCH   1   7
HETATM    7  N1  UNL     1      12.143  15.011  46.132  1.00  0.00    -0.395 N 
HETATM    8  C1  UNL     1      12.739  14.689  44.954  1.00  0.00     0.113 C 
ATOM      9  H1  UNL     1      11.438  14.344  46.448  1.00  0.00     0.159 HD
ENDBRANCH   1   7
BRANCH   1  10
HETATM   10  C3  UNL     1      11.706  15.850  48.327  1.00  0.00     0.144 C 
HETATM   11  C4  UNL     1      10.730  16.786  48.868  1.00  0.00     0.042 C 
BRANCH  10  12
HETATM   12  O1  UNL     1      11.332  14.530  48.538  1.00  0.00    -0.393 OA
ATOM     13  H1  UNL     1      11.351  14.265  49.450  1.00  0.00     0.210 HD
ENDBRANCH  10  12
ENDBRANCH   1  10
BRANCH   6  14
HETATM   14  N2  UNL     1      14.290  15.299  48.252  1.00  0.00    -0.073 N 
ATOM     15  H23 UNL     1      14.774  15.813  48.988  1.00  0.00     0.274 HD
ATOM     16  H22 UNL     1      13.505  14.930  48.789  1.00  0.00     0.274 HD
ATOM     17  H21 UNL     1      14.873  14.540  47.901  1.00  0.00     0.274 HD
ENDBRANCH   6  14
TORSDOF 4
ENDMDL
MODEL 2
REMARK VINA RESULT: -4.757156244      3.496      4.777
REMARK  4 active torsions:
REMARK  status: ('A' for Active; 'I' for Inactive)
REMARK    1  A    between atoms: N1_2  and  C2_4 
REMARK    2  A    between atoms: C2_4  and  C3_5 
REMARK    3  A    between atoms: C3_5  and  O1_7 
REMARK    4  A    between atoms: C9_13  and  N2_14 
ROOT
HETATM    1  C2  UNL     1      14.379  15.295  43.815  1.00  0.00     0.082 C 
HETATM    2  C5  UNL     1      15.218  15.102  42.563  1.00  0.00     0.036 C 
HETATM    3  C6  UNL     1      15.564  16.246  41.739  1.00  0.00     0.003 C 
HETATM    4  C7  UNL     1      14.653  17.439  41.773  1.00  0.00     0.002 C 
HETATM    5  C8  UNL     1      13.304  16.958  42.284  1.00  0.00     0.035 C 
HETATM    6  C9  UNL     1      13.601  16.602  43.740  1.00  0.00     0.213 C 
ENDROOT
BRANCH   1   7
HETATM    7  N1  UNL     1      15.138  15.355  44.981  1.00  0.00    -0.395 N 
HETATM    8  C1  UNL     1      15.910  16.353  45.485  1.00  0.00     0.113 C 
ATOM      9  H1  UNL     1      15.110  14.509  45.551  1.00  0.00     0.159 HD
ENDBRANCH   1   7
BRANCH   1  10
HETATM   10  C3  UNL     1      13.333  14.211  43.909  1.00  0.00     0.144 C 
HETATM   11  C4  UNL     1      13.333  13.107  42.959  1.00  0.00     0.042 C 
BRANCH  10  12
HETATM   12  O1  UNL     1      13.082  13.781  45.205  1.00  0.00    -0.393 OA
ATOM     13  H1  UNL     1      12.303  13.245  45.289  1.00  0.00     0.210 HD
ENDBRANCH  10  12
ENDBRANCH   1  10
BRANCH   6  14
HETATM   14  N2  UNL     1      12.416  16.611  44.530  1.00  0.00    -0.073 N 
ATOM     15  H23 UNL     1      11.699  16.020  44.110  1.00  0.00     0.274 HD
ATOM     16  H22 UNL     1      12.563  16.106  45.405  1.00  0.00     0.274 HD
ATOM     17  H21 UNL     1      12.051  17.546  44.713  1.00  0.00     0.274 HD
ENDBRANCH   6  14
TORSDOF 4
ENDMDL
MODEL 3
REMARK VINA RESULT: -4.754731108      1.998      3.000
REMARK  4 active torsions:
REMARK  status: ('A' for Active; 'I' for Inactive)
REMARK    1  A    between atoms: N1_2  and  C2_4 
REMARK    2  A    between atoms: C2_4  and  C3_5 
REMARK    3  A    between atoms: C3_5  and  O1_7 
REMARK    4  A    between atoms: C9_13  and  N2_14 
ROOT
HETATM    1  C2  UNL     1      12.727  16.270  45.693  1.00  0.00     0.082 C 
HETATM    2  C5  UNL     1      13.094  17.620  45.099  1.00  0.00     0.036 C 
HETATM    3  C6  UNL     1      13.045  17.816  43.662  1.00  0.00     0.003 C 
HETATM    4  C7  UNL     1      13.217  16.613  42.780  1.00  0.00     0.002 C 
HETATM    5  C8  UNL     1      13.912  15.545  43.610  1.00  0.00     0.035 C 
HETATM    6  C9  UNL     1      12.849  15.174  44.643  1.00  0.00     0.213 C 
ENDROOT
BRANCH   1   7
HETATM    7  N1  UNL     1      11.420  16.217  46.169  1.00  0.00    -0.395 N 
HETATM    8  C1  UNL     1      10.241  16.081  45.507  1.00  0.00     0.113 C 
ATOM      9  H1  UNL     1      11.333  16.293  47.183  1.00  0.00     0.159 HD
ENDBRANCH   1   7
BRANCH   1  10
HETATM   10  C3  UNL     1      13.711  15.897  46.777  1.00  0.00     0.144 C 
HETATM   11  C4  UNL     1      14.851  16.757  47.060  1.00  0.00     0.042 C 
BRANCH  10  12
HETATM   12  O1  UNL     1      13.115  15.423  47.938  1.00  0.00    -0.393 OA
ATOM     13  H1  UNL     1      13.534  15.724  48.736  1.00  0.00     0.210 HD
ENDBRANCH  10  12
ENDBRANCH   1  10
BRANCH   6  14
HETATM   14  N2  UNL     1      13.083  13.879  45.189  1.00  0.00    -0.073 N 
ATOM     15  H23 UNL     1      12.558  13.171  44.674  1.00  0.00     0.274 HD
ATOM     16  H22 UNL     1      14.033  13.569  44.984  1.00  0.00     0.274 HD
ATOM     17  H21 UNL     1      12.890  13.813  46.188  1.00  0.00     0.274 HD
ENDBRANCH   6  14
TORSDOF 4
ENDMDL
MODEL 4
REMARK VINA RESULT: -4.751508836      2.267      3.719
REMARK  4 active torsions:
REMARK  status: ('A' for Active; 'I' for Inactive)
REMARK    1  A    between atoms: N1_2  and  C2_4 
REMARK    2  A    between atoms: C2_4  and  C3_5 
REMARK    3  A    between atoms: C3_5  and  O1_7 
REMARK    4  A    between atoms: C9_13  and  N2_14 
ROOT
HETATM    1  C2  UNL     1      14.158  16.155  45.918  1.00  0.00     0.082 C 
HETATM    2  C5  UNL     1      15.317  15.942  44.959  1.00  0.00     0.036 C 
HETATM    3  C6  UNL     1      15.059  15.527  43.592  1.00  0.00     0.003 C 
HETATM    4  C7  UNL     1      13.794  14.767  43.313  1.00  0.00     0.002 C 
HETATM    5  C8  UNL     1      13.329  14.172  44.633  1.00  0.00     0.035 C 
HETATM    6  C9  UNL     1      12.921  15.407  45.436  1.00  0.00     0.213 C 
ENDROOT
BRANCH   1   7
HETATM    7  N1  UNL     1      13.787  17.491  46.043  1.00  0.00    -0.395 N 
HETATM    8  C1  UNL     1      13.089  18.299  45.202  1.00  0.00     0.113 C 
ATOM      9  H1  UNL     1      14.089  17.937  46.910  1.00  0.00     0.159 HD
ENDBRANCH   1   7
BRANCH   1  10
HETATM   10  C3  UNL     1      14.486  15.558  47.266  1.00  0.00     0.144 C 
HETATM   11  C4  UNL     1      15.807  15.000  47.519  1.00  0.00     0.042 C 
BRANCH  10  12
HETATM   12  O1  UNL     1      14.023  16.307  48.340  1.00  0.00    -0.393 OA
ATOM     13  H1  UNL     1      13.420  15.838  48.904  1.00  0.00     0.210 HD
ENDBRANCH  10  12
ENDBRANCH   1  10
BRANCH   6  14
HETATM   14  N2  UNL     1      12.010  15.073  46.478  1.00  0.00    -0.073 N 
ATOM     15  H23 UNL     1      12.483  14.552  47.216  1.00  0.00     0.274 HD
ATOM     16  H22 UNL     1      11.742  15.906  47.003  1.00  0.00     0.274 HD
ATOM     17  H21 UNL     1      11.183  14.571  46.156  1.00  0.00     0.274 HD
ENDBRANCH   6  14
TORSDOF 4
ENDMDL
MODEL 5
REMARK VINA RESULT: -4.588981760      3.025      4.216
REMARK  4 active torsions:
REMARK  status: ('A' for Active; 'I' for Inactive)
REMARK    1  A    between atoms: N1_2  and  C2_4 
REMARK    2  A    between atoms: C2_4  and  C3_5 
REMARK    3  A    between atoms: C3_5  and  O1_7 
REMARK    4  A    between atoms: C9_13  and  N2_14 
ROOT
HETATM    1  C2  UNL     1      14.124  15.977  44.060  1.00  0.00     0.082 C 
HETATM    2  C5  UNL     1      15.409  16.601  44.578  1.00  0.00     0.036 C 
HETATM    3  C6  UNL     1      16.091  16.015  45.717  1.00  0.00     0.003 C 
HETATM    4  C7  UNL     1      15.274  15.224  46.697  1.00  0.00     0.002 C 
HETATM    5  C8  UNL     1      13.826  15.656  46.525  1.00  0.00     0.035 C 
HETATM    6  C9  UNL     1      13.475  15.118  45.138  1.00  0.00     0.213 C 
ENDROOT
BRANCH   1   7
HETATM    7  N1  UNL     1      14.323  15.146  42.961  1.00  0.00    -0.395 N 
HETATM    8  C1  UNL     1      15.412  14.973  42.167  1.00  0.00     0.113 C 
ATOM      9  H1  UNL     1      13.517  14.572  42.709  1.00  0.00     0.159 HD
ENDBRANCH   1   7
BRANCH   1  10
HETATM   10  C3  UNL     1      13.115  17.055  43.744  1.00  0.00     0.144 C 
HETATM   11  C4  UNL     1      13.370  18.435  44.135  1.00  0.00     0.042 C 
BRANCH  10  12
HETATM   12  O1  UNL     1      12.578  16.967  42.467  1.00  0.00    -0.393 OA
ATOM     13  H1  UNL     1      12.777  16.152  42.021  1.00  0.00     0.210 HD
ENDBRANCH  10  12
ENDBRANCH   1  10
BRANCH   6  14
HETATM   14  N2  UNL     1      12.068  14.965  44.979  1.00  0.00    -0.073 N 
ATOM     15  H23 UNL     1      11.590  15.854  45.128  1.00  0.00     0.274 HD
ATOM     16  H22 UNL     1      11.832  14.806  43.999  1.00  0.00     0.274 HD
ATOM     17  H21 UNL     1      11.665  14.237  45.568  1.00  0.00     0.274 HD
ENDBRANCH   6  14
TORSDOF 4
ENDMDL
