MODEL 1
REMARK VINA RESULT: -6.200958601      0.000      0.000
REMARK  3 active torsions:
REMARK  status: ('A' for Active; 'I' for Inactive)
REMARK    1  A    between atoms: N1_1  and  C1_5 
REMARK    2  A    between atoms: C1_5  and  C2_6 
REMARK    3  A    between atoms: C1_5  and  C8_12 
ROOT
HETATM    1  C1  UNL     1      14.059  14.829  43.205  1.00  0.00     0.194 C 
ENDROOT
BRANCH   1   2
HETATM    2  N1  UNL     1      13.568  16.161  42.917  1.00  0.00    -0.074 N 
ATOM      3  H13 UNL     1      12.553  16.164  42.812  1.00  0.00     0.274 HD
ATOM      4  H12 UNL     1      13.649  16.768  43.732  1.00  0.00     0.274 HD
ATOM      5  H11 UNL     1      14.023  16.577  42.104  1.00  0.00     0.274 HD
ENDBRANCH   1   2
BRANCH   1   6
HETATM    6  C2  UNL     1      13.904  13.904  42.051  1.00  0.00     0.016 C 
HETATM    7  C3  UNL     1      13.493  12.543  42.601  1.00  0.00     0.007 C 
HETATM    8  C4  UNL     1      12.872  11.731  41.487  1.00  0.00     0.000 C 
HETATM    9  C5  UNL     1      13.751  11.888  40.265  1.00  0.00     0.000 C 
HETATM   10  C6  UNL     1      15.148  12.313  40.692  1.00  0.00     0.000 C 
HETATM   11  C7  UNL     1      15.128  13.735  41.216  1.00  0.00     0.007 C 
ENDBRANCH   1   6
BRANCH   1  12
HETATM   12  C8  UNL     1      13.388  14.357  44.465  1.00  0.00     0.068 C 
HETATM   13  C9  UNL     1      12.125  15.142  44.753  1.00  0.00     0.240 C 
HETATM   14  N2  UNL     1      12.465  14.997  46.179  1.00  0.00    -0.074 N 
HETATM   15  C10 UNL     1      13.870  15.043  45.740  1.00  0.00     0.240 C 
ATOM     16  H22 UNL     1      12.101  15.635  46.886  1.00  0.00     0.277 HD
ATOM     17  H21 UNL     1      12.103  14.228  46.742  1.00  0.00     0.277 HD
ENDBRANCH   1  12
TORSDOF 3
ENDMDL
MODEL 2
REMARK VINA RESULT: -5.921126727      1.419      1.949
REMARK  3 active torsions:
REMARK  status: ('A' for Active; 'I' for Inactive)
REMARK    1  A    between atoms: N1_1  and  C1_5 
REMARK    2  A    between atoms: C1_5  and  C2_6 
REMARK    3  A    between atoms: C1_5  and  C8_12 
ROOT
HETATM    1  C1  UNL     1      13.563  14.601  43.783  1.00  0.00     0.194 C 
ENDROOT
BRANCH   1   2
HETATM    2  N1  UNL     1      13.262  13.764  44.928  1.00  0.00    -0.074 N 
ATOM      3  H13 UNL     1      12.471  14.132  45.456  1.00  0.00     0.274 HD
ATOM      4  H12 UNL     1      12.863  12.872  44.636  1.00  0.00     0.274 HD
ATOM      5  H11 UNL     1      14.073  13.623  45.530  1.00  0.00     0.274 HD
ENDBRANCH   1   2
BRANCH   1   6
HETATM    6  C2  UNL     1      13.571  13.836  42.507  1.00  0.00     0.016 C 
HETATM    7  C3  UNL     1      13.406  12.361  42.851  1.00  0.00     0.007 C 
HETATM    8  C4  UNL     1      12.936  11.621  41.619  1.00  0.00     0.000 C 
HETATM    9  C5  UNL     1      13.772  12.100  40.453  1.00  0.00     0.000 C 
HETATM   10  C6  UNL     1      15.073  12.696  40.968  1.00  0.00     0.000 C 
HETATM   11  C7  UNL     1      14.804  14.004  41.687  1.00  0.00     0.007 C 
ENDBRANCH   1   6
BRANCH   1  12
HETATM   12  C8  UNL     1      14.847  15.326  44.072  1.00  0.00     0.068 C 
HETATM   13  C9  UNL     1      15.053  15.528  45.559  1.00  0.00     0.240 C 
HETATM   14  N2  UNL     1      15.678  16.814  45.210  1.00  0.00    -0.074 N 
HETATM   15  C10 UNL     1      14.731  16.848  44.083  1.00  0.00     0.240 C 
ATOM     16  H22 UNL     1      15.744  17.580  45.880  1.00  0.00     0.277 HD
ATOM     17  H21 UNL     1      16.684  16.903  45.068  1.00  0.00     0.277 HD
ENDBRANCH   1  12
TORSDOF 3
ENDMDL
MODEL 3
REMARK VINA RESULT: -5.793074460      1.524      2.677
REMARK  3 active torsions:
REMARK  status: ('A' for Active; 'I' for Inactive)
REMARK    1  A    between atoms: N1_1  and  C1_5 
REMARK    2  A    between atoms: C1_5  and  C2_6 
REMARK    3  A    between atoms: C1_5  and  C8_12 
ROOT
HETATM    1  C1  UNL     1      13.229  13.581  43.270  1.00  0.00     0.194 C 
ENDROOT
BRANCH   1   2
HETATM    2  N1  UNL     1      13.232  13.513  44.718  1.00  0.00    -0.074 N 
ATOM      3  H13 UNL     1      14.090  13.085  45.064  1.00  0.00     0.274 HD
ATOM      4  H12 UNL     1      13.335  14.441  45.129  1.00  0.00     0.274 HD
ATOM      5  H11 UNL     1      12.408  13.038  45.087  1.00  0.00     0.274 HD
ENDBRANCH   1   2
BRANCH   1   6
HETATM    6  C2  UNL     1      13.718  12.325  42.642  1.00  0.00     0.016 C 
HETATM    7  C3  UNL     1      13.115  12.241  41.245  1.00  0.00     0.007 C 
HETATM    8  C4  UNL     1      13.931  11.275  40.415  1.00  0.00     0.000 C 
HETATM    9  C5  UNL     1      14.193  10.053  41.267  1.00  0.00     0.000 C 
HETATM   10  C6  UNL     1      13.156   9.971  42.377  1.00  0.00     0.000 C 
HETATM   11  C7  UNL     1      13.378  11.080  43.388  1.00  0.00     0.007 C 
ENDBRANCH   1   6
BRANCH   1  12
HETATM   12  C8  UNL     1      13.999  14.808  42.868  1.00  0.00     0.068 C 
HETATM   13  C9  UNL     1      14.797  15.371  44.026  1.00  0.00     0.240 C 
HETATM   14  N2  UNL     1      14.508  16.702  43.464  1.00  0.00    -0.074 N 
HETATM   15  C10 UNL     1      13.232  16.119  43.017  1.00  0.00     0.240 C 
ATOM     16  H22 UNL     1      14.543  17.546  44.036  1.00  0.00     0.277 HD
ATOM     17  H21 UNL     1      15.146  17.161  42.815  1.00  0.00     0.277 HD
ENDBRANCH   1  12
TORSDOF 3
ENDMDL
MODEL 4
REMARK VINA RESULT: -5.762681691      1.493      2.317
REMARK  3 active torsions:
REMARK  status: ('A' for Active; 'I' for Inactive)
REMARK    1  A    between atoms: N1_1  and  C1_5 
REMARK    2  A    between atoms: C1_5  and  C2_6 
REMARK    3  A    between atoms: C1_5  and  C8_12 
ROOT
HETATM    1  C1  UNL     1      13.194  13.810  43.267  1.00  0.00     0.194 C 
ENDROOT
BRANCH   1   2
HETATM    2  N1  UNL     1      13.270  13.454  44.669  1.00  0.00    -0.074 N 
ATOM      3  H13 UNL     1      12.867  12.532  44.837  1.00  0.00     0.274 HD
ATOM      4  H12 UNL     1      14.232  13.264  44.949  1.00  0.00     0.274 HD
ATOM      5  H11 UNL     1      12.845  14.157  45.273  1.00  0.00     0.274 HD
ENDBRANCH   1   2
BRANCH   1   6
HETATM    6  C2  UNL     1      13.201  12.618  42.376  1.00  0.00     0.016 C 
HETATM    7  C3  UNL     1      13.570  11.409  43.227  1.00  0.00     0.007 C 
HETATM    8  C4  UNL     1      13.132  10.152  42.508  1.00  0.00     0.000 C 
HETATM    9  C5  UNL     1      13.545  10.290  41.059  1.00  0.00     0.000 C 
HETATM   10  C6  UNL     1      14.668  11.309  40.942  1.00  0.00     0.000 C 
HETATM   11  C7  UNL     1      14.145  12.703  41.226  1.00  0.00     0.007 C 
ENDBRANCH   1   6
BRANCH   1  12
HETATM   12  C8  UNL     1      14.297  14.793  42.984  1.00  0.00     0.068 C 
HETATM   13  C9  UNL     1      14.811  15.436  44.255  1.00  0.00     0.240 C 
HETATM   14  N2  UNL     1      15.000  16.658  43.457  1.00  0.00    -0.074 N 
HETATM   15  C10 UNL     1      13.823  16.214  42.691  1.00  0.00     0.240 C 
ATOM     16  H22 UNL     1      15.044  17.581  43.888  1.00  0.00     0.277 HD
ATOM     17  H21 UNL     1      15.888  16.871  43.001  1.00  0.00     0.277 HD
ENDBRANCH   1  12
TORSDOF 3
ENDMDL
MODEL 5
REMARK VINA RESULT: -5.709461549      1.659      2.006
REMARK  3 active torsions:
REMARK  status: ('A' for Active; 'I' for Inactive)
REMARK    1  A    between atoms: N1_1  and  C1_5 
REMARK    2  A    between atoms: C1_5  and  C2_6 
REMARK    3  A    between atoms: C1_5  and  C8_12 
ROOT
HETATM    1  C1  UNL     1      13.994  14.911  43.252  1.00  0.00     0.194 C 
ENDROOT
BRANCH   1   2
HETATM    2  N1  UNL     1      15.356  15.304  43.554  1.00  0.00    -0.074 N 
ATOM      3  H13 UNL     1      16.018  14.846  42.928  1.00  0.00     0.274 HD
ATOM      4  H12 UNL     1      15.525  16.274  43.289  1.00  0.00     0.274 HD
ATOM      5  H11 UNL     1      15.601  15.142  44.530  1.00  0.00     0.274 HD
ENDBRANCH   1   2
BRANCH   1   6
HETATM    6  C2  UNL     1      13.912  14.003  42.076  1.00  0.00     0.016 C 
HETATM    7  C3  UNL     1      13.493  12.628  42.582  1.00  0.00     0.007 C 
HETATM    8  C4  UNL     1      12.943  11.826  41.424  1.00  0.00     0.000 C 
HETATM    9  C5  UNL     1      13.882  12.016  40.252  1.00  0.00     0.000 C 
HETATM   10  C6  UNL     1      15.248  12.453  40.758  1.00  0.00     0.000 C 
HETATM   11  C7  UNL     1      15.180  13.865  41.304  1.00  0.00     0.007 C 
ENDBRANCH   1   6
BRANCH   1  12
HETATM   12  C8  UNL     1      13.175  16.164  43.117  1.00  0.00     0.068 C 
HETATM   13  C9  UNL     1      13.964  17.279  42.461  1.00  0.00     0.240 C 
HETATM   14  N2  UNL     1      13.230  18.200  43.346  1.00  0.00    -0.074 N 
HETATM   15  C10 UNL     1      13.237  17.098  44.323  1.00  0.00     0.240 C 
ATOM     16  H22 UNL     1      13.591  19.125  43.577  1.00  0.00     0.277 HD
ATOM     17  H21 UNL     1      12.365  18.653  43.053  1.00  0.00     0.277 HD
ENDBRANCH   1  12
TORSDOF 3
ENDMDL
