MODEL 1
REMARK VINA RESULT: -6.036084942      0.000      0.000
REMARK  3 active torsions:
REMARK  status: ('A' for Active; 'I' for Inactive)
REMARK    1  A    between atoms: C2_2  and  C4_4 
REMARK    2  A    between atoms: C4_4  and  C6_6 
REMARK    3  A    between atoms: C8_8  and  N1_9 
ROOT
HETATM    1  C6  UNL     1      14.027  12.827  42.448  1.00  0.00     0.086 C 
HETATM    2  C7  UNL     1      12.934  13.235  43.411  1.00  0.00     0.058 C 
HETATM    3  C8  UNL     1      13.518  14.253  44.363  1.00  0.00     0.187 C 
HETATM    4  C9  UNL     1      13.872  15.467  43.517  1.00  0.00     0.052 C 
HETATM    5  C10 UNL     1      15.001  15.019  42.604  1.00  0.00     0.116 C 
HETATM    6  N2  UNL     1      14.681  13.898  41.807  1.00  0.00    -0.416 N 
ATOM      7  H2  UNL     1      14.913  13.864  40.814  1.00  0.00     0.153 HD
ENDROOT
BRANCH   1   8
HETATM    8  C4  UNL     1      13.435  11.844  41.478  1.00  0.00     0.032 C 
HETATM    9  C5  UNL     1      13.881  12.035  40.068  1.00  0.00     0.017 C 
BRANCH   8  10
HETATM   10  C2  UNL     1      13.759  10.427  41.878  1.00  0.00    -0.087 C 
HETATM   11  C1  UNL     1      14.624   9.715  41.168  1.00  0.00     0.014 C 
HETATM   12  C3  UNL     1      13.141   9.782  43.053  1.00  0.00     0.043 C 
ENDBRANCH   8  10
ENDBRANCH   1   8
BRANCH   3  13
HETATM   13  N1  UNL     1      12.598  14.592  45.424  1.00  0.00    -0.075 N 
ATOM     14  H13 UNL     1      12.023  15.396  45.172  1.00  0.00     0.274 HD
ATOM     15  H12 UNL     1      11.864  13.890  45.516  1.00  0.00     0.274 HD
ATOM     16  H11 UNL     1      13.077  14.744  46.312  1.00  0.00     0.274 HD
ENDBRANCH   3  13
TORSDOF 3
ENDMDL
MODEL 2
REMARK VINA RESULT: -5.629171567      1.331      1.905
REMARK  3 active torsions:
REMARK  status: ('A' for Active; 'I' for Inactive)
REMARK    1  A    between atoms: C2_2  and  C4_4 
REMARK    2  A    between atoms: C4_4  and  C6_6 
REMARK    3  A    between atoms: C8_8  and  N1_9 
ROOT
HETATM    1  C6  UNL     1      14.646  12.983  41.689  1.00  0.00     0.086 C 
HETATM    2  C7  UNL     1      13.955  14.082  42.465  1.00  0.00     0.058 C 
HETATM    3  C8  UNL     1      14.998  15.115  42.825  1.00  0.00     0.187 C 
HETATM    4  C9  UNL     1      15.480  15.704  41.508  1.00  0.00     0.052 C 
HETATM    5  C10 UNL     1      16.204  14.578  40.791  1.00  0.00     0.116 C 
HETATM    6  N2  UNL     1      15.413  13.424  40.593  1.00  0.00    -0.416 N 
ATOM      7  H2  UNL     1      15.399  12.933  39.699  1.00  0.00     0.153 HD
ENDROOT
BRANCH   1   8
HETATM    8  C4  UNL     1      13.601  11.977  41.298  1.00  0.00     0.032 C 
HETATM    9  C5  UNL     1      13.442  11.803  39.826  1.00  0.00     0.017 C 
BRANCH   8  10
HETATM   10  C2  UNL     1      13.902  10.625  41.894  1.00  0.00    -0.087 C 
HETATM   11  C1  UNL     1      13.393  10.287  43.072  1.00  0.00     0.014 C 
HETATM   12  C3  UNL     1      14.757   9.637  41.209  1.00  0.00     0.043 C 
ENDBRANCH   8  10
ENDBRANCH   1   8
BRANCH   3  13
HETATM   13  N1  UNL     1      14.471  16.133  43.704  1.00  0.00    -0.075 N 
ATOM     14  H13 UNL     1      14.878  16.062  44.637  1.00  0.00     0.274 HD
ATOM     15  H12 UNL     1      14.816  17.059  43.448  1.00  0.00     0.274 HD
ATOM     16  H11 UNL     1      13.452  16.117  43.742  1.00  0.00     0.274 HD
ENDBRANCH   3  13
TORSDOF 3
ENDMDL
MODEL 3
REMARK VINA RESULT: -5.550835189      1.773      4.378
REMARK  3 active torsions:
REMARK  status: ('A' for Active; 'I' for Inactive)
REMARK    1  A    between atoms: C2_2  and  C4_4 
REMARK    2  A    between atoms: C4_4  and  C6_6 
REMARK    3  A    between atoms: C8_8  and  N1_9 
ROOT
HETATM    1  C6  UNL     1      13.746  13.208  42.160  1.00  0.00     0.086 C 
HETATM    2  C7  UNL     1      13.603  11.951  42.990  1.00  0.00     0.058 C 
HETATM    3  C8  UNL     1      13.081  10.860  42.084  1.00  0.00     0.187 C 
HETATM    4  C9  UNL     1      14.168  10.616  41.048  1.00  0.00     0.052 C 
HETATM    5  C10 UNL     1      14.239  11.884  40.215  1.00  0.00     0.116 C 
HETATM    6  N2  UNL     1      14.485  13.052  40.971  1.00  0.00    -0.416 N 
ATOM      7  H2  UNL     1      15.165  13.750  40.670  1.00  0.00     0.153 HD
ENDROOT
BRANCH   1   8
HETATM    8  C4  UNL     1      14.301  14.281  43.053  1.00  0.00     0.032 C 
HETATM    9  C5  UNL     1      15.405  15.073  42.439  1.00  0.00     0.017 C 
BRANCH   8  10
HETATM   10  C2  UNL     1      13.222  15.245  43.477  1.00  0.00    -0.087 C 
HETATM   11  C1  UNL     1      13.069  16.398  42.840  1.00  0.00     0.014 C 
HETATM   12  C3  UNL     1      12.305  14.953  44.597  1.00  0.00     0.043 C 
ENDBRANCH   8  10
ENDBRANCH   1   8
BRANCH   3  13
HETATM   13  N1  UNL     1      12.760   9.656  42.815  1.00  0.00    -0.075 N 
ATOM     14  H13 UNL     1      12.751   8.842  42.201  1.00  0.00     0.274 HD
ATOM     15  H12 UNL     1      13.525   9.383  43.433  1.00  0.00     0.274 HD
ATOM     16  H11 UNL     1      11.883   9.743  43.330  1.00  0.00     0.274 HD
ENDBRANCH   3  13
TORSDOF 3
ENDMDL
MODEL 4
REMARK VINA RESULT: -5.446220121      2.545      4.067
REMARK  3 active torsions:
REMARK  status: ('A' for Active; 'I' for Inactive)
REMARK    1  A    between atoms: C2_2  and  C4_4 
REMARK    2  A    between atoms: C4_4  and  C6_6 
REMARK    3  A    between atoms: C8_8  and  N1_9 
ROOT
HETATM    1  C6  UNL     1      14.791  15.732  44.526  1.00  0.00     0.086 C 
HETATM    2  C7  UNL     1      14.294  15.184  45.846  1.00  0.00     0.058 C 
HETATM    3  C8  UNL     1      15.300  15.564  46.907  1.00  0.00     0.187 C 
HETATM    4  C9  UNL     1      15.272  17.083  46.991  1.00  0.00     0.052 C 
HETATM    5  C10 UNL     1      15.821  17.581  45.665  1.00  0.00     0.116 C 
HETATM    6  N2  UNL     1      15.116  17.102  44.538  1.00  0.00    -0.416 N 
ATOM      7  H2  UNL     1      14.856  17.719  43.768  1.00  0.00     0.153 HD
ENDROOT
BRANCH   1   8
HETATM    8  C4  UNL     1      13.771  15.386  43.478  1.00  0.00     0.032 C 
HETATM    9  C5  UNL     1      13.283  16.556  42.694  1.00  0.00     0.017 C 
BRANCH   8  10
HETATM   10  C2  UNL     1      14.317  14.372  42.505  1.00  0.00    -0.087 C 
HETATM   11  C1  UNL     1      15.427  14.631  41.825  1.00  0.00     0.014 C 
HETATM   12  C3  UNL     1      13.656  13.074  42.270  1.00  0.00     0.043 C 
ENDBRANCH   8  10
ENDBRANCH   1   8
BRANCH   3  13
HETATM   13  N1  UNL     1      14.999  14.955  48.182  1.00  0.00    -0.075 N 
ATOM     14  H13 UNL     1      14.006  15.033  48.404  1.00  0.00     0.274 HD
ATOM     15  H12 UNL     1      15.073  13.938  48.133  1.00  0.00     0.274 HD
ATOM     16  H11 UNL     1      15.577  15.332  48.933  1.00  0.00     0.274 HD
ENDBRANCH   3  13
TORSDOF 3
ENDMDL
MODEL 5
REMARK VINA RESULT: -5.419081680      2.143      4.676
REMARK  3 active torsions:
REMARK  status: ('A' for Active; 'I' for Inactive)
REMARK    1  A    between atoms: C2_2  and  C4_4 
REMARK    2  A    between atoms: C4_4  and  C6_6 
REMARK    3  A    between atoms: C8_8  and  N1_9 
ROOT
HETATM    1  C6  UNL     1      14.283  14.447  42.323  1.00  0.00     0.086 C 
HETATM    2  C7  UNL     1      13.864  12.994  42.288  1.00  0.00     0.058 C 
HETATM    3  C8  UNL     1      14.071  12.491  40.878  1.00  0.00     0.187 C 
HETATM    4  C9  UNL     1      15.570  12.552  40.624  1.00  0.00     0.052 C 
HETATM    5  C10 UNL     1      15.930  14.027  40.624  1.00  0.00     0.116 C 
HETATM    6  N2  UNL     1      15.569  14.705  41.809  1.00  0.00    -0.416 N 
ATOM      7  H2  UNL     1      16.209  15.352  42.272  1.00  0.00     0.153 HD
ENDROOT
BRANCH   1   8
HETATM    8  C4  UNL     1      14.113  14.935  43.734  1.00  0.00     0.032 C 
HETATM    9  C5  UNL     1      15.304  15.646  44.281  1.00  0.00     0.017 C 
BRANCH   8  10
HETATM   10  C2  UNL     1      12.928  15.861  43.848  1.00  0.00    -0.087 C 
HETATM   11  C1  UNL     1      12.896  16.991  43.152  1.00  0.00     0.014 C 
HETATM   12  C3  UNL     1      11.776  15.559  44.718  1.00  0.00     0.043 C 
ENDBRANCH   8  10
ENDBRANCH   1   8
BRANCH   3  13
HETATM   13  N1  UNL     1      13.553  11.155  40.698  1.00  0.00    -0.075 N 
ATOM     14  H13 UNL     1      12.830  10.942  41.386  1.00  0.00     0.274 HD
ATOM     15  H12 UNL     1      12.991  11.087  39.849  1.00  0.00     0.274 HD
ATOM     16  H11 UNL     1      14.293  10.453  40.709  1.00  0.00     0.274 HD
ENDBRANCH   3  13
TORSDOF 3
ENDMDL
