MODEL 1
REMARK VINA RESULT: -6.751295337      0.000      0.000
REMARK  11 active torsions:
REMARK  status: ('A' for Active; 'I' for Inactive)
REMARK    1  A    between atoms: O1_2  and  C2_3 
REMARK    2  A    between atoms: C3_5  and  C4_6 
REMARK    3  A    between atoms: C4_6  and  O3_7 
REMARK    4  A    between atoms: O3_7  and  C5_8 
REMARK    5  A    between atoms: C6_10  and  O5_11 
REMARK    6  A    between atoms: C7_13  and  O6_14 
REMARK    7  A    between atoms: C8_16  and  O7_17 
REMARK    8  A    between atoms: C8_16  and  O8_19 
REMARK    9  A    between atoms: C9_21  and  O9_22 
REMARK   10  A    between atoms: C11_24  and  O10_25 
REMARK   11  A    between atoms: C13_28  and  O11_29 
ROOT
HETATM    1  C5  UNL     1       9.099   7.455 -16.863  1.00  0.00     0.297 C 
HETATM    2  O4  UNL     1       7.866   8.005 -17.225  1.00  0.00    -0.326 OA
HETATM    3  C6  UNL     1       7.479   8.989 -16.336  1.00  0.00     0.294 C 
HETATM    4  C7  UNL     1       8.392  10.177 -16.544  1.00  0.00     0.238 C 
HETATM    5  C8  UNL     1       9.610   9.784 -17.382  1.00  0.00     0.222 C 
HETATM    6  C9  UNL     1      10.209   8.484 -16.877  1.00  0.00     0.240 C 
ENDROOT
BRANCH   1   7
HETATM    7  O3  UNL     1       9.346   6.406 -17.751  1.00  0.00    -0.356 OA
BRANCH   7   8
HETATM    8  C4  UNL     1       9.527   5.196 -17.061  1.00  0.00     0.205 C 
BRANCH   8   9
HETATM    9  C3  UNL     1       8.598   5.281 -15.845  1.00  0.00     0.177 C 
HETATM   10  O2  UNL     1       9.398   4.906 -14.743  1.00  0.00    -0.349 OA
HETATM   11  C2  UNL     1       8.525   4.641 -13.689  1.00  0.00     0.288 C 
HETATM   12  C13 UNL     1       7.799   3.313 -13.886  1.00  0.00     0.175 C 
HETATM   13  C12 UNL     1       7.804   3.027 -15.373  1.00  0.00     0.071 C 
HETATM   14  C11 UNL     1       7.453   4.349 -16.061  1.00  0.00     0.151 C 
BRANCH  11  15
HETATM   15  O1  UNL     1       7.624   5.701 -13.615  1.00  0.00    -0.363 OA
HETATM   16  C1  UNL     1       6.895   5.678 -12.429  1.00  0.00     0.204 C 
ENDBRANCH  11  15
BRANCH  12  17
HETATM   17  O11 UNL     1       8.397   2.288 -13.158  1.00  0.00    -0.391 OA
ATOM     18  H11 UNL     1       8.328   1.453 -13.606  1.00  0.00     0.210 HD
ENDBRANCH  12  17
BRANCH  14  19
HETATM   19  O10 UNL     1       7.162   4.143 -17.405  1.00  0.00    -0.393 OA
ATOM     20  H10 UNL     1       6.299   3.771 -17.548  1.00  0.00     0.210 HD
ENDBRANCH  14  19
ENDBRANCH   8   9
ENDBRANCH   7   8
ENDBRANCH   1   7
BRANCH   6  21
HETATM   21  O9  UNL     1      11.175   8.079 -17.767  1.00  0.00    -0.380 OA
HETATM   22  C10 UNL     1      12.420   7.884 -17.172  1.00  0.00     0.202 C 
ENDBRANCH   6  21
BRANCH   3  23
HETATM   23  O5  UNL     1       7.471   8.556 -15.011  1.00  0.00    -0.368 OA
ATOM     24  H5  UNL     1       7.104   9.196 -14.412  1.00  0.00     0.212 HD
ENDBRANCH   3  23
BRANCH   5  25
HETATM   25  O7  UNL     1      10.509  10.844 -17.287  1.00  0.00    -0.361 OA
ATOM     26  H7  UNL     1      11.229  10.636 -17.870  1.00  0.00     0.213 HD
ENDBRANCH   5  25
BRANCH   5  27
HETATM   27  O8  UNL     1       9.249   9.571 -18.713  1.00  0.00    -0.361 OA
ATOM     28  H8  UNL     1       9.823  10.050 -19.299  1.00  0.00     0.213 HD
ENDBRANCH   5  27
BRANCH   4  29
HETATM   29  O6  UNL     1       8.880  10.668 -15.342  1.00  0.00    -0.385 OA
ATOM     30  H6  UNL     1       8.915  11.618 -15.338  1.00  0.00     0.210 HD
ENDBRANCH   4  29
TORSDOF 11
ENDMDL
MODEL 2
REMARK VINA RESULT: -6.597187617      1.768      6.348
REMARK  11 active torsions:
REMARK  status: ('A' for Active; 'I' for Inactive)
REMARK    1  A    between atoms: O1_2  and  C2_3 
REMARK    2  A    between atoms: C3_5  and  C4_6 
REMARK    3  A    between atoms: C4_6  and  O3_7 
REMARK    4  A    between atoms: O3_7  and  C5_8 
REMARK    5  A    between atoms: C6_10  and  O5_11 
REMARK    6  A    between atoms: C7_13  and  O6_14 
REMARK    7  A    between atoms: C8_16  and  O7_17 
REMARK    8  A    between atoms: C8_16  and  O8_19 
REMARK    9  A    between atoms: C9_21  and  O9_22 
REMARK   10  A    between atoms: C11_24  and  O10_25 
REMARK   11  A    between atoms: C13_28  and  O11_29 
ROOT
HETATM    1  C5  UNL     1       8.912   7.235 -16.892  1.00  0.00     0.297 C 
HETATM    2  O4  UNL     1       9.144   6.116 -17.698  1.00  0.00    -0.326 OA
HETATM    3  C6  UNL     1       9.772   5.112 -16.987  1.00  0.00     0.294 C 
HETATM    4  C7  UNL     1       8.768   4.550 -16.006  1.00  0.00     0.238 C 
HETATM    5  C8  UNL     1       7.556   5.475 -15.882  1.00  0.00     0.222 C 
HETATM    6  C9  UNL     1       7.999   6.919 -15.727  1.00  0.00     0.240 C 
ENDROOT
BRANCH   1   7
HETATM    7  O3  UNL     1       8.379   8.224 -17.722  1.00  0.00    -0.356 OA
BRANCH   7   8
HETATM    8  C4  UNL     1       9.327   9.229 -17.977  1.00  0.00     0.205 C 
BRANCH   8   9
HETATM    9  C3  UNL     1       9.423  10.034 -16.676  1.00  0.00     0.177 C 
HETATM   10  O2  UNL     1       8.688  11.215 -16.918  1.00  0.00    -0.349 OA
HETATM   11  C2  UNL     1       9.030  12.111 -15.907  1.00  0.00     0.288 C 
HETATM   12  C13 UNL     1      10.428  12.685 -16.118  1.00  0.00     0.175 C 
HETATM   13  C12 UNL     1      11.186  11.690 -16.971  1.00  0.00     0.071 C 
HETATM   14  C11 UNL     1      10.864  10.307 -16.397  1.00  0.00     0.151 C 
BRANCH  11  15
HETATM   15  O1  UNL     1       8.944  11.428 -14.696  1.00  0.00    -0.363 OA
HETATM   16  C1  UNL     1       8.494  12.253 -13.667  1.00  0.00     0.204 C 
ENDBRANCH  11  15
BRANCH  12  17
HETATM   17  O11 UNL     1      10.382  13.945 -16.708  1.00  0.00    -0.391 OA
ATOM     18  H11 UNL     1      10.910  13.983 -17.496  1.00  0.00     0.210 HD
ENDBRANCH  12  17
BRANCH  14  19
HETATM   19  O10 UNL     1      11.715   9.343 -16.926  1.00  0.00    -0.393 OA
ATOM     20  H10 UNL     1      11.285   8.763 -17.544  1.00  0.00     0.210 HD
ENDBRANCH  14  19
ENDBRANCH   8   9
ENDBRANCH   7   8
ENDBRANCH   1   7
BRANCH   6  21
HETATM   21  O9  UNL     1       6.887   7.723 -15.807  1.00  0.00    -0.380 OA
HETATM   22  C10 UNL     1       6.691   8.503 -14.670  1.00  0.00     0.202 C 
ENDBRANCH   6  21
BRANCH   3  23
HETATM   23  O5  UNL     1      10.943   5.536 -16.361  1.00  0.00    -0.368 OA
ATOM     24  H5  UNL     1      11.612   4.861 -16.326  1.00  0.00     0.212 HD
ENDBRANCH   3  23
BRANCH   5  25
HETATM   25  O7  UNL     1       6.834   5.029 -14.776  1.00  0.00    -0.361 OA
ATOM     26  H7  UNL     1       7.265   4.237 -14.478  1.00  0.00     0.213 HD
ENDBRANCH   5  25
BRANCH   5  27
HETATM   27  O8  UNL     1       6.768   5.417 -17.031  1.00  0.00    -0.361 OA
ATOM     28  H8  UNL     1       7.258   5.705 -17.792  1.00  0.00     0.213 HD
ENDBRANCH   5  27
BRANCH   4  29
HETATM   29  O6  UNL     1       9.306   4.429 -14.732  1.00  0.00    -0.385 OA
ATOM     30  H6  UNL     1       8.927   3.698 -14.258  1.00  0.00     0.210 HD
ENDBRANCH   4  29
TORSDOF 11
ENDMDL
MODEL 3
REMARK VINA RESULT: -6.556298263      1.366      1.614
REMARK  11 active torsions:
REMARK  status: ('A' for Active; 'I' for Inactive)
REMARK    1  A    between atoms: O1_2  and  C2_3 
REMARK    2  A    between atoms: C3_5  and  C4_6 
REMARK    3  A    between atoms: C4_6  and  O3_7 
REMARK    4  A    between atoms: O3_7  and  C5_8 
REMARK    5  A    between atoms: C6_10  and  O5_11 
REMARK    6  A    between atoms: C7_13  and  O6_14 
REMARK    7  A    between atoms: C8_16  and  O7_17 
REMARK    8  A    between atoms: C8_16  and  O8_19 
REMARK    9  A    between atoms: C9_21  and  O9_22 
REMARK   10  A    between atoms: C11_24  and  O10_25 
REMARK   11  A    between atoms: C13_28  and  O11_29 
ROOT
HETATM    1  C5  UNL     1      10.584   7.834 -16.933  1.00  0.00     0.297 C 
HETATM    2  O4  UNL     1       9.572   8.309 -17.772  1.00  0.00    -0.326 OA
HETATM    3  C6  UNL     1       8.843   9.308 -17.157  1.00  0.00     0.294 C 
HETATM    4  C7  UNL     1       9.730  10.529 -17.065  1.00  0.00     0.238 C 
HETATM    5  C8  UNL     1      11.188  10.163 -17.346  1.00  0.00     0.222 C 
HETATM    6  C9  UNL     1      11.583   8.914 -16.577  1.00  0.00     0.240 C 
ENDROOT
BRANCH   1   7
HETATM    7  O3  UNL     1      11.186   6.763 -17.597  1.00  0.00    -0.356 OA
BRANCH   7   8
HETATM    8  C4  UNL     1      10.955   5.556 -16.916  1.00  0.00     0.205 C 
BRANCH   8   9
HETATM    9  C3  UNL     1       9.586   5.726 -16.247  1.00  0.00     0.177 C 
HETATM   10  O2  UNL     1       9.660   4.964 -15.060  1.00  0.00    -0.349 OA
HETATM   11  C2  UNL     1       8.351   4.811 -14.604  1.00  0.00     0.288 C 
HETATM   12  C13 UNL     1       7.576   3.807 -15.452  1.00  0.00     0.175 C 
HETATM   13  C12 UNL     1       8.251   3.766 -16.807  1.00  0.00     0.071 C 
HETATM   14  C11 UNL     1       8.539   5.222 -17.183  1.00  0.00     0.151 C 
BRANCH  11  15
HETATM   15  O1  UNL     1       7.748   6.067 -14.634  1.00  0.00    -0.363 OA
HETATM   16  C1  UNL     1       6.490   6.051 -14.038  1.00  0.00     0.204 C 
ENDBRANCH  11  15
BRANCH  12  17
HETATM   17  O11 UNL     1       7.536   2.551 -14.853  1.00  0.00    -0.391 OA
ATOM     18  H11 UNL     1       8.301   2.396 -14.312  1.00  0.00     0.210 HD
ENDBRANCH  12  17
BRANCH  14  19
HETATM   19  O10 UNL     1       8.907   5.323 -18.521  1.00  0.00    -0.393 OA
ATOM     20  H10 UNL     1       9.523   6.027 -18.686  1.00  0.00     0.210 HD
ENDBRANCH  14  19
ENDBRANCH   8   9
ENDBRANCH   7   8
ENDBRANCH   1   7
BRANCH   6  21
HETATM   21  O9  UNL     1      12.829   8.521 -17.002  1.00  0.00    -0.380 OA
HETATM   22  C10 UNL     1      13.783   8.532 -15.987  1.00  0.00     0.202 C 
ENDBRANCH   6  21
BRANCH   3  23
HETATM   23  O5  UNL     1       8.335   8.929 -15.915  1.00  0.00    -0.368 OA
ATOM     24  H5  UNL     1       7.443   9.225 -15.771  1.00  0.00     0.212 HD
ENDBRANCH   3  23
BRANCH   5  25
HETATM   25  O7  UNL     1      11.949  11.268 -16.972  1.00  0.00    -0.361 OA
ATOM     26  H7  UNL     1      12.652  11.336 -17.608  1.00  0.00     0.213 HD
ENDBRANCH   5  25
BRANCH   5  27
HETATM   27  O8  UNL     1      11.376   9.878 -18.699  1.00  0.00    -0.361 OA
ATOM     28  H8  UNL     1      12.147  10.321 -19.033  1.00  0.00     0.213 HD
ENDBRANCH   5  27
BRANCH   4  29
HETATM   29  O6  UNL     1       9.700  11.092 -15.798  1.00  0.00    -0.385 OA
ATOM     30  H6  UNL     1      10.328  11.801 -15.712  1.00  0.00     0.210 HD
ENDBRANCH   4  29
TORSDOF 11
ENDMDL
MODEL 4
REMARK VINA RESULT: -6.448777516      1.868      5.818
REMARK  11 active torsions:
REMARK  status: ('A' for Active; 'I' for Inactive)
REMARK    1  A    between atoms: O1_2  and  C2_3 
REMARK    2  A    between atoms: C3_5  and  C4_6 
REMARK    3  A    between atoms: C4_6  and  O3_7 
REMARK    4  A    between atoms: O3_7  and  C5_8 
REMARK    5  A    between atoms: C6_10  and  O5_11 
REMARK    6  A    between atoms: C7_13  and  O6_14 
REMARK    7  A    between atoms: C8_16  and  O7_17 
REMARK    8  A    between atoms: C8_16  and  O8_19 
REMARK    9  A    between atoms: C9_21  and  O9_22 
REMARK   10  A    between atoms: C11_24  and  O10_25 
REMARK   11  A    between atoms: C13_28  and  O11_29 
ROOT
HETATM    1  C5  UNL     1       7.898   6.482 -16.531  1.00  0.00     0.297 C 
HETATM    2  O4  UNL     1       8.370   6.951 -15.302  1.00  0.00    -0.326 OA
HETATM    3  C6  UNL     1       7.482   6.664 -14.284  1.00  0.00     0.294 C 
HETATM    4  C7  UNL     1       7.522   5.170 -14.051  1.00  0.00     0.238 C 
HETATM    5  C8  UNL     1       8.233   4.460 -15.205  1.00  0.00     0.222 C 
HETATM    6  C9  UNL     1       7.730   4.978 -16.541  1.00  0.00     0.240 C 
ENDROOT
BRANCH   1   7
HETATM    7  O3  UNL     1       8.805   6.914 -17.501  1.00  0.00    -0.356 OA
BRANCH   7   8
HETATM    8  C4  UNL     1       9.655   7.907 -16.986  1.00  0.00     0.205 C 
BRANCH   8   9
HETATM    9  C3  UNL     1      11.062   7.513 -17.448  1.00  0.00     0.177 C 
HETATM   10  O2  UNL     1      11.668   6.919 -16.319  1.00  0.00    -0.349 OA
HETATM   11  C2  UNL     1      13.035   6.861 -16.585  1.00  0.00     0.288 C 
HETATM   12  C13 UNL     1      13.685   8.237 -16.474  1.00  0.00     0.175 C 
HETATM   13  C12 UNL     1      12.591   9.258 -16.701  1.00  0.00     0.071 C 
HETATM   14  C11 UNL     1      11.774   8.748 -17.892  1.00  0.00     0.151 C 
BRANCH  11  15
HETATM   15  O1  UNL     1      13.191   6.333 -17.865  1.00  0.00    -0.363 OA
HETATM   16  C1  UNL     1      14.081   5.262 -17.878  1.00  0.00     0.204 C 
ENDBRANCH  11  15
BRANCH  12  17
HETATM   17  O11 UNL     1      14.310   8.412 -15.242  1.00  0.00    -0.391 OA
ATOM     18  H11 UNL     1      14.311   9.324 -14.976  1.00  0.00     0.210 HD
ENDBRANCH  12  17
BRANCH  14  19
HETATM   19  O10 UNL     1      10.914   9.735 -18.361  1.00  0.00    -0.393 OA
ATOM     20  H10 UNL     1      10.977   9.870 -19.299  1.00  0.00     0.210 HD
ENDBRANCH  14  19
ENDBRANCH   8   9
ENDBRANCH   7   8
ENDBRANCH   1   7
BRANCH   6  21
HETATM   21  O9  UNL     1       8.522   4.452 -17.534  1.00  0.00    -0.380 OA
HETATM   22  C10 UNL     1       8.152   3.161 -17.904  1.00  0.00     0.202 C 
ENDBRANCH   6  21
BRANCH   3  23
HETATM   23  O5  UNL     1       6.191   7.124 -14.539  1.00  0.00    -0.368 OA
ATOM     24  H5  UNL     1       5.531   6.697 -14.005  1.00  0.00     0.212 HD
ENDBRANCH   3  23
BRANCH   5  25
HETATM   25  O7  UNL     1       7.980   3.100 -15.044  1.00  0.00    -0.361 OA
ATOM     26  H7  UNL     1       8.608   2.645 -15.592  1.00  0.00     0.213 HD
ENDBRANCH   5  25
BRANCH   5  27
HETATM   27  O8  UNL     1       9.605   4.707 -15.169  1.00  0.00    -0.361 OA
ATOM     28  H8  UNL     1      10.063   4.163 -15.798  1.00  0.00     0.213 HD
ENDBRANCH   5  27
BRANCH   4  29
HETATM   29  O6  UNL     1       6.247   4.627 -13.977  1.00  0.00    -0.385 OA
ATOM     30  H6  UNL     1       6.210   3.898 -13.368  1.00  0.00     0.210 HD
ENDBRANCH   4  29
TORSDOF 11
ENDMDL
MODEL 5
REMARK VINA RESULT: -6.261495921      1.743      5.970
REMARK  11 active torsions:
REMARK  status: ('A' for Active; 'I' for Inactive)
REMARK    1  A    between atoms: O1_2  and  C2_3 
REMARK    2  A    between atoms: C3_5  and  C4_6 
REMARK    3  A    between atoms: C4_6  and  O3_7 
REMARK    4  A    between atoms: O3_7  and  C5_8 
REMARK    5  A    between atoms: C6_10  and  O5_11 
REMARK    6  A    between atoms: C7_13  and  O6_14 
REMARK    7  A    between atoms: C8_16  and  O7_17 
REMARK    8  A    between atoms: C8_16  and  O8_19 
REMARK    9  A    between atoms: C9_21  and  O9_22 
REMARK   10  A    between atoms: C11_24  and  O10_25 
REMARK   11  A    between atoms: C13_28  and  O11_29 
ROOT
HETATM    1  C5  UNL     1       9.099   7.003 -16.475  1.00  0.00     0.297 C 
HETATM    2  O4  UNL     1       9.065   5.888 -17.317  1.00  0.00    -0.326 OA
HETATM    3  C6  UNL     1       9.318   4.725 -16.615  1.00  0.00     0.294 C 
HETATM    4  C7  UNL     1       8.117   4.453 -15.737  1.00  0.00     0.238 C 
HETATM    5  C8  UNL     1       7.216   5.686 -15.653  1.00  0.00     0.222 C 
HETATM    6  C9  UNL     1       8.040   6.934 -15.396  1.00  0.00     0.240 C 
ENDROOT
BRANCH   1   7
HETATM    7  O3  UNL     1       8.943   8.126 -17.290  1.00  0.00    -0.356 OA
BRANCH   7   8
HETATM    8  C4  UNL     1       9.933   9.085 -17.019  1.00  0.00     0.205 C 
BRANCH   8   9
HETATM    9  C3  UNL     1      11.252   8.438 -17.455  1.00  0.00     0.177 C 
HETATM   10  O2  UNL     1      11.664   7.660 -16.351  1.00  0.00    -0.349 OA
HETATM   11  C2  UNL     1      13.003   7.337 -16.569  1.00  0.00     0.288 C 
HETATM   12  C13 UNL     1      13.914   8.539 -16.332  1.00  0.00     0.175 C 
HETATM   13  C12 UNL     1      13.064   9.777 -16.525  1.00  0.00     0.071 C 
HETATM   14  C11 UNL     1      12.223   9.524 -17.780  1.00  0.00     0.151 C 
BRANCH  11  15
HETATM   15  O1  UNL     1      13.113   6.872 -17.877  1.00  0.00    -0.363 OA
HETATM   16  C1  UNL     1      13.708   5.613 -17.930  1.00  0.00     0.204 C 
ENDBRANCH  11  15
BRANCH  12  17
HETATM   17  O11 UNL     1      14.497   8.500 -15.069  1.00  0.00    -0.391 OA
ATOM     18  H11 UNL     1      15.208   9.125 -14.992  1.00  0.00     0.210 HD
ENDBRANCH  12  17
BRANCH  14  19
HETATM   19  O10 UNL     1      11.609  10.697 -18.207  1.00  0.00    -0.393 OA
ATOM     20  H10 UNL     1      12.174  11.458 -18.145  1.00  0.00     0.210 HD
ENDBRANCH  14  19
ENDBRANCH   8   9
ENDBRANCH   7   8
ENDBRANCH   1   7
BRANCH   6  21
HETATM   21  O9  UNL     1       7.217   8.028 -15.514  1.00  0.00    -0.380 OA
HETATM   22  C10 UNL     1       7.166   8.804 -14.358  1.00  0.00     0.202 C 
ENDBRANCH   6  21
BRANCH   3  23
HETATM   23  O5  UNL     1      10.505   4.774 -15.887  1.00  0.00    -0.368 OA
ATOM     24  H5  UNL     1      11.211   4.281 -16.291  1.00  0.00     0.212 HD
ENDBRANCH   3  23
BRANCH   5  25
HETATM   25  O7  UNL     1       6.308   5.438 -14.625  1.00  0.00    -0.361 OA
ATOM     26  H7  UNL     1       5.486   5.214 -15.043  1.00  0.00     0.213 HD
ENDBRANCH   5  25
BRANCH   5  27
HETATM   27  O8  UNL     1       6.542   5.890 -16.857  1.00  0.00    -0.361 OA
ATOM     28  H8  UNL     1       5.697   6.297 -16.706  1.00  0.00     0.213 HD
ENDBRANCH   5  27
BRANCH   4  29
HETATM   29  O6  UNL     1       8.491   4.146 -14.436  1.00  0.00    -0.385 OA
ATOM     30  H6  UNL     1       8.133   3.312 -14.154  1.00  0.00     0.210 HD
ENDBRANCH   4  29
TORSDOF 11
ENDMDL
