MODEL 1
REMARK VINA RESULT: -8.480575595      0.000      0.000
REMARK  9 active torsions:
REMARK  status: ('A' for Active; 'I' for Inactive)
REMARK    1  A    between atoms: N1_1  and  O1_4 
REMARK    2  A    between atoms: O1_4  and  N2_5 
REMARK    3  A    between atoms: N2_5  and  C1_7 
REMARK    4  A    between atoms: C2_10  and  N4_11 
REMARK    5  A    between atoms: N4_11  and  N5_13 
REMARK    6  A    between atoms: N5_13  and  O2_15 
REMARK    7  A    between atoms: C3_19  and  N7_20 
REMARK       I    between atoms: N7_20  and  C4_22 
REMARK       I    between atoms: C4_22  and  N8_23 
REMARK       I    between atoms: C4_22  and  N9_27 
REMARK    8  A    between atoms: N11_34  and  N12_36 
REMARK    9  A    between atoms: C6_38  and  C7_39 
ROOT
HETATM    1  C1  UNL     1       8.333   4.720 -15.372  1.00  0.00     0.189 C 
HETATM    2  N3  UNL     1       8.403   3.560 -14.663  1.00  0.00    -0.169 N 
ATOM      3  H3  UNL     1       8.922   2.803 -15.108  1.00  0.00     0.186 HD
HETATM    4  C2  UNL     1       7.882   3.276 -13.457  1.00  0.00     0.714 C 
HETATM    5  N6  UNL     1       7.232   4.070 -12.570  1.00  0.00    -0.021 N 
ATOM      6  H6  UNL     1       6.945   3.633 -11.695  1.00  0.00     0.203 HD
HETATM    7  C3  UNL     1       6.923   5.369 -12.718  1.00  0.00     0.697 C 
HETATM    8  N10 UNL     1       7.183   6.148 -13.772  1.00  0.00    -0.171 N 
ATOM      9  H10 UNL     1       6.773   7.080 -13.709  1.00  0.00     0.186 HD
HETATM   10  C5  UNL     1       7.885   5.933 -14.903  1.00  0.00     0.182 C 
HETATM   11  N11 UNL     1       8.189   6.935 -15.645  1.00  0.00    -0.282 N 
ATOM     12  H11 UNL     1       8.722   6.744 -16.494  1.00  0.00     0.188 HD
ENDROOT
BRANCH   7  13
HETATM   13  N7  UNL     1       6.312   5.872 -11.705  1.00  0.00    -0.173 N 
HETATM   14  C4  UNL     1       6.105   5.239 -10.443  1.00  0.00     0.494 C 
HETATM   15  N8  UNL     1       5.083   4.220 -10.597  1.00  0.00    -0.032 N 
HETATM   16  N9  UNL     1       5.672   6.274  -9.505  1.00  0.00    -0.032 N 
ATOM     17  H83 UNL     1       4.220   4.590 -10.995  1.00  0.00     0.278 HD
ATOM     18  H82 UNL     1       5.304   3.553 -11.336  1.00  0.00     0.278 HD
ATOM     19  H81 UNL     1       4.935   3.768  -9.695  1.00  0.00     0.278 HD
ATOM     20  H93 UNL     1       6.317   7.062  -9.455  1.00  0.00     0.278 HD
ATOM     21  H92 UNL     1       4.856   6.792  -9.830  1.00  0.00     0.278 HD
ATOM     22  H91 UNL     1       5.524   5.822  -8.603  1.00  0.00     0.278 HD
ATOM     23  H7  UNL     1       5.940   6.815 -11.814  1.00  0.00     0.181 HD
ENDBRANCH   7  13
BRANCH   4  24
HETATM   24  N4  UNL     1       8.012   2.067 -13.073  1.00  0.00    -0.112 N 
ATOM     25  H4  UNL     1       8.945   1.724 -12.846  1.00  0.00     0.207 HD
BRANCH  24  26
HETATM   26  N5  UNL     1       6.930   1.195 -12.950  1.00  0.00    -0.196 N 
ATOM     27  H5  UNL     1       6.976   0.243 -13.315  1.00  0.00     0.216 HD
BRANCH  26  28
HETATM   28  O2  UNL     1       5.891   1.621 -12.374  1.00  0.00    -0.274 OA
ATOM     29  H2  UNL     1       5.401   1.012 -11.834  1.00  0.00     0.246 HD
ENDBRANCH  26  28
ENDBRANCH  24  26
ENDBRANCH   4  24
BRANCH   1  30
HETATM   30  N2  UNL     1       8.725   4.671 -16.599  1.00  0.00    -0.222 N 
ATOM     31  H2  UNL     1       9.699   4.870 -16.825  1.00  0.00     0.198 HD
BRANCH  30  32
HETATM   32  O1  UNL     1       7.852   4.356 -17.600  1.00  0.00    -0.162 OA
BRANCH  32  33
HETATM   33  N1  UNL     1       7.492   3.044 -17.815  1.00  0.00    -0.286 N 
ATOM     34  H12 UNL     1       8.191   2.391 -18.169  1.00  0.00     0.186 HD
ATOM     35  H11 UNL     1       6.539   2.737 -17.619  1.00  0.00     0.186 HD
ENDBRANCH  32  33
ENDBRANCH  30  32
ENDBRANCH   1  30
BRANCH  11  36
HETATM   36  N12 UNL     1       7.855   8.246 -15.391  1.00  0.00    -0.309 N 
HETATM   37  C6  UNL     1       6.932   8.902 -15.973  1.00  0.00     0.126 C 
ATOM     38  H12 UNL     1       8.393   8.733 -14.675  1.00  0.00     0.186 HD
BRANCH  37  39
HETATM   39  C7  UNL     1       6.646  10.313 -15.631  1.00  0.00     0.021 A 
HETATM   40  C8  UNL     1       5.512  10.835 -15.073  1.00  0.00     0.021 A 
HETATM   41  C9  UNL     1       5.486  12.155 -14.853  1.00  0.00     0.008 A 
HETATM   42  C10 UNL     1       6.595  12.875 -15.203  1.00  0.00     0.050 A 
HETATM   43  S1  UNL     1       7.641  11.680 -15.830  1.00  0.00    -0.101 SA
ENDBRANCH  37  39
ENDBRANCH  11  36
TORSDOF 9
ENDMDL
MODEL 2
REMARK VINA RESULT: -8.409986204      0.801      1.038
REMARK  9 active torsions:
REMARK  status: ('A' for Active; 'I' for Inactive)
REMARK    1  A    between atoms: N1_1  and  O1_4 
REMARK    2  A    between atoms: O1_4  and  N2_5 
REMARK    3  A    between atoms: N2_5  and  C1_7 
REMARK    4  A    between atoms: C2_10  and  N4_11 
REMARK    5  A    between atoms: N4_11  and  N5_13 
REMARK    6  A    between atoms: N5_13  and  O2_15 
REMARK    7  A    between atoms: C3_19  and  N7_20 
REMARK       I    between atoms: N7_20  and  C4_22 
REMARK       I    between atoms: C4_22  and  N8_23 
REMARK       I    between atoms: C4_22  and  N9_27 
REMARK    8  A    between atoms: N11_34  and  N12_36 
REMARK    9  A    between atoms: C6_38  and  C7_39 
ROOT
HETATM    1  C1  UNL     1       8.067   4.569 -15.475  1.00  0.00     0.189 C 
HETATM    2  N3  UNL     1       8.108   3.412 -14.760  1.00  0.00    -0.169 N 
ATOM      3  H3  UNL     1       8.561   2.624 -15.223  1.00  0.00     0.186 HD
HETATM    4  C2  UNL     1       7.634   3.165 -13.527  1.00  0.00     0.714 C 
HETATM    5  N6  UNL     1       7.074   4.000 -12.616  1.00  0.00    -0.021 N 
ATOM      6  H6  UNL     1       6.808   3.585 -11.723  1.00  0.00     0.203 HD
HETATM    7  C3  UNL     1       6.832   5.314 -12.760  1.00  0.00     0.697 C 
HETATM    8  N10 UNL     1       7.081   6.070 -13.832  1.00  0.00    -0.171 N 
ATOM      9  H10 UNL     1       6.728   7.024 -13.757  1.00  0.00     0.186 HD
HETATM   10  C5  UNL     1       7.712   5.809 -14.995  1.00  0.00     0.182 C 
HETATM   11  N11 UNL     1       8.033   6.788 -15.760  1.00  0.00    -0.282 N 
ATOM     12  H11 UNL     1       8.511   6.562 -16.633  1.00  0.00     0.188 HD
ENDROOT
BRANCH   7  13
HETATM   13  N7  UNL     1       6.302   5.856 -11.722  1.00  0.00    -0.173 N 
HETATM   14  C4  UNL     1       6.143   5.251 -10.439  1.00  0.00     0.494 C 
HETATM   15  N8  UNL     1       5.074   4.273 -10.516  1.00  0.00    -0.032 N 
HETATM   16  N9  UNL     1       5.808   6.317  -9.496  1.00  0.00    -0.032 N 
ATOM     17  H83 UNL     1       4.205   4.672 -10.870  1.00  0.00     0.278 HD
ATOM     18  H82 UNL     1       5.225   3.587 -11.255  1.00  0.00     0.278 HD
ATOM     19  H81 UNL     1       4.961   3.841  -9.599  1.00  0.00     0.278 HD
ATOM     20  H93 UNL     1       6.486   7.079  -9.496  1.00  0.00     0.278 HD
ATOM     21  H92 UNL     1       4.995   6.863  -9.782  1.00  0.00     0.278 HD
ATOM     22  H91 UNL     1       5.695   5.885  -8.579  1.00  0.00     0.278 HD
ATOM     23  H7  UNL     1       5.962   6.812 -11.825  1.00  0.00     0.181 HD
ENDBRANCH   7  13
BRANCH   4  24
HETATM   24  N4  UNL     1       7.715   1.954 -13.139  1.00  0.00    -0.112 N 
ATOM     25  H4  UNL     1       8.639   1.551 -12.983  1.00  0.00     0.207 HD
BRANCH  24  26
HETATM   26  N5  UNL     1       6.591   1.156 -12.918  1.00  0.00    -0.196 N 
ATOM     27  H5  UNL     1       6.512   0.230 -13.338  1.00  0.00     0.216 HD
BRANCH  26  28
HETATM   28  O2  UNL     1       5.676   1.617 -12.181  1.00  0.00    -0.274 OA
ATOM     29  H2  UNL     1       4.881   1.105 -12.087  1.00  0.00     0.246 HD
ENDBRANCH  26  28
ENDBRANCH  24  26
ENDBRANCH   4  24
BRANCH   1  30
HETATM   30  N2  UNL     1       8.393   4.491 -16.720  1.00  0.00    -0.222 N 
ATOM     31  H2  UNL     1       9.226   4.976 -17.054  1.00  0.00     0.198 HD
BRANCH  30  32
HETATM   32  O1  UNL     1       7.639   3.767 -17.596  1.00  0.00    -0.162 OA
BRANCH  32  33
HETATM   33  N1  UNL     1       8.105   2.563 -18.078  1.00  0.00    -0.286 N 
ATOM     34  H12 UNL     1       8.153   2.420 -19.087  1.00  0.00     0.186 HD
ATOM     35  H11 UNL     1       8.396   1.832 -17.430  1.00  0.00     0.186 HD
ENDBRANCH  32  33
ENDBRANCH  30  32
ENDBRANCH   1  30
BRANCH  11  36
HETATM   36  N12 UNL     1       7.786   8.117 -15.502  1.00  0.00    -0.309 N 
HETATM   37  C6  UNL     1       8.185   9.096 -16.211  1.00  0.00     0.126 C 
ATOM     38  H12 UNL     1       7.237   8.335 -14.670  1.00  0.00     0.186 HD
BRANCH  37  39
HETATM   39  C7  UNL     1       7.868  10.496 -15.850  1.00  0.00     0.021 A 
HETATM   40  C8  UNL     1       8.633  11.613 -16.045  1.00  0.00     0.021 A 
HETATM   41  C9  UNL     1       8.129  12.782 -15.631  1.00  0.00     0.008 A 
HETATM   42  C10 UNL     1       6.892  12.766 -15.047  1.00  0.00     0.050 A 
HETATM   43  S1  UNL     1       6.471  11.112 -15.097  1.00  0.00    -0.101 SA
ENDBRANCH  37  39
ENDBRANCH  11  36
TORSDOF 9
ENDMDL
MODEL 3
REMARK VINA RESULT: -8.372461926      1.871      4.369
REMARK  9 active torsions:
REMARK  status: ('A' for Active; 'I' for Inactive)
REMARK    1  A    between atoms: N1_1  and  O1_4 
REMARK    2  A    between atoms: O1_4  and  N2_5 
REMARK    3  A    between atoms: N2_5  and  C1_7 
REMARK    4  A    between atoms: C2_10  and  N4_11 
REMARK    5  A    between atoms: N4_11  and  N5_13 
REMARK    6  A    between atoms: N5_13  and  O2_15 
REMARK    7  A    between atoms: C3_19  and  N7_20 
REMARK       I    between atoms: N7_20  and  C4_22 
REMARK       I    between atoms: C4_22  and  N8_23 
REMARK       I    between atoms: C4_22  and  N9_27 
REMARK    8  A    between atoms: N11_34  and  N12_36 
REMARK    9  A    between atoms: C6_38  and  C7_39 
ROOT
HETATM    1  C1  UNL     1       6.689   4.888 -12.689  1.00  0.00     0.189 C 
HETATM    2  N3  UNL     1       6.850   3.564 -12.959  1.00  0.00    -0.169 N 
ATOM      3  H3  UNL     1       6.254   2.930 -12.426  1.00  0.00     0.186 HD
HETATM    4  C2  UNL     1       7.685   2.977 -13.832  1.00  0.00     0.714 C 
HETATM    5  N6  UNL     1       8.526   3.520 -14.748  1.00  0.00    -0.021 N 
ATOM      6  H6  UNL     1       9.052   2.865 -15.326  1.00  0.00     0.203 HD
HETATM    7  C3  UNL     1       8.742   4.826 -14.977  1.00  0.00     0.697 C 
HETATM    8  N10 UNL     1       8.183   5.862 -14.345  1.00  0.00    -0.171 N 
ATOM      9  H10 UNL     1       8.565   6.768 -14.617  1.00  0.00     0.186 HD
HETATM   10  C5  UNL     1       7.209   5.934 -13.415  1.00  0.00     0.182 C 
HETATM   11  N11 UNL     1       6.685   7.076 -13.153  1.00  0.00    -0.282 N 
ATOM     12  H11 UNL     1       5.949   7.102 -12.447  1.00  0.00     0.188 HD
ENDROOT
BRANCH   7  13
HETATM   13  N7  UNL     1       9.588   5.051 -15.918  1.00  0.00    -0.173 N 
HETATM   14  C4  UNL     1       9.663   6.225 -16.725  1.00  0.00     0.494 C 
HETATM   15  N8  UNL     1       8.563   6.211 -17.670  1.00  0.00    -0.032 N 
HETATM   16  N9  UNL     1      10.949   6.191 -17.421  1.00  0.00    -0.032 N 
ATOM     17  H83 UNL     1       8.537   5.357 -18.226  1.00  0.00     0.278 HD
ATOM     18  H82 UNL     1       7.656   6.110 -17.213  1.00  0.00     0.278 HD
ATOM     19  H81 UNL     1       8.617   7.051 -18.246  1.00  0.00     0.278 HD
ATOM     20  H93 UNL     1      11.743   6.089 -16.788  1.00  0.00     0.278 HD
ATOM     21  H92 UNL     1      11.093   5.333 -17.953  1.00  0.00     0.278 HD
ATOM     22  H91 UNL     1      11.003   7.031 -17.997  1.00  0.00     0.278 HD
ATOM     23  H7  UNL     1      10.271   4.317 -16.108  1.00  0.00     0.181 HD
ENDBRANCH   7  13
BRANCH   4  24
HETATM   24  N4  UNL     1       7.702   1.702 -13.806  1.00  0.00    -0.112 N 
ATOM     25  H4  UNL     1       8.098   1.201 -14.601  1.00  0.00     0.207 HD
BRANCH  24  26
HETATM   26  N5  UNL     1       7.201   0.963 -12.732  1.00  0.00    -0.196 N 
ATOM     27  H5  UNL     1       7.825   0.458 -12.104  1.00  0.00     0.216 HD
BRANCH  26  28
HETATM   28  O2  UNL     1       5.950   0.941 -12.565  1.00  0.00    -0.274 OA
ATOM     29  H2  UNL     1       5.615   1.126 -11.696  1.00  0.00     0.246 HD
ENDBRANCH  26  28
ENDBRANCH  24  26
ENDBRANCH   4  24
BRANCH   1  30
HETATM   30  N2  UNL     1       5.982   5.184 -11.652  1.00  0.00    -0.222 N 
ATOM     31  H2  UNL     1       4.975   5.023 -11.667  1.00  0.00     0.198 HD
BRANCH  30  32
HETATM   32  O1  UNL     1       6.564   5.711 -10.536  1.00  0.00    -0.162 OA
BRANCH  32  33
HETATM   33  N1  UNL     1       5.780   6.199  -9.514  1.00  0.00    -0.286 N 
ATOM     34  H12 UNL     1       4.773   6.274  -9.656  1.00  0.00     0.186 HD
ATOM     35  H11 UNL     1       6.207   6.480  -8.631  1.00  0.00     0.186 HD
ENDBRANCH  32  33
ENDBRANCH  30  32
ENDBRANCH   1  30
BRANCH  11  36
HETATM   36  N12 UNL     1       7.034   8.268 -13.745  1.00  0.00    -0.309 N 
HETATM   37  C6  UNL     1       6.281   8.973 -14.491  1.00  0.00     0.126 C 
ATOM     38  H12 UNL     1       7.976   8.617 -13.570  1.00  0.00     0.186 HD
BRANCH  37  39
HETATM   39  C7  UNL     1       6.747  10.246 -15.085  1.00  0.00     0.021 A 
HETATM   40  C8  UNL     1       7.931  10.500 -15.721  1.00  0.00     0.021 A 
HETATM   41  C9  UNL     1       8.130  11.742 -16.178  1.00  0.00     0.008 A 
HETATM   42  C10 UNL     1       7.134  12.657 -15.973  1.00  0.00     0.050 A 
HETATM   43  S1  UNL     1       5.948  11.749 -15.145  1.00  0.00    -0.101 SA
ENDBRANCH  37  39
ENDBRANCH  11  36
TORSDOF 9
ENDMDL
MODEL 4
REMARK VINA RESULT: -7.945931696      0.915      1.190
REMARK  9 active torsions:
REMARK  status: ('A' for Active; 'I' for Inactive)
REMARK    1  A    between atoms: N1_1  and  O1_4 
REMARK    2  A    between atoms: O1_4  and  N2_5 
REMARK    3  A    between atoms: N2_5  and  C1_7 
REMARK    4  A    between atoms: C2_10  and  N4_11 
REMARK    5  A    between atoms: N4_11  and  N5_13 
REMARK    6  A    between atoms: N5_13  and  O2_15 
REMARK    7  A    between atoms: C3_19  and  N7_20 
REMARK       I    between atoms: N7_20  and  C4_22 
REMARK       I    between atoms: C4_22  and  N8_23 
REMARK       I    between atoms: C4_22  and  N9_27 
REMARK    8  A    between atoms: N11_34  and  N12_36 
REMARK    9  A    between atoms: C6_38  and  C7_39 
ROOT
HETATM    1  C1  UNL     1       8.355   5.107 -15.458  1.00  0.00     0.189 C 
HETATM    2  N3  UNL     1       8.520   3.929 -14.797  1.00  0.00    -0.169 N 
ATOM      3  H3  UNL     1       9.084   3.229 -15.281  1.00  0.00     0.186 HD
HETATM    4  C2  UNL     1       8.044   3.561 -13.596  1.00  0.00     0.714 C 
HETATM    5  N6  UNL     1       7.355   4.271 -12.667  1.00  0.00    -0.021 N 
ATOM      6  H6  UNL     1       7.117   3.780 -11.806  1.00  0.00     0.203 HD
HETATM    7  C3  UNL     1       6.952   5.549 -12.758  1.00  0.00     0.697 C 
HETATM    8  N10 UNL     1       7.135   6.385 -13.784  1.00  0.00    -0.171 N 
ATOM      9  H10 UNL     1       6.661   7.282 -13.676  1.00  0.00     0.186 HD
HETATM   10  C5  UNL     1       7.830   6.266 -14.933  1.00  0.00     0.182 C 
HETATM   11  N11 UNL     1       8.047   7.316 -15.639  1.00  0.00    -0.282 N 
ATOM     12  H11 UNL     1       8.577   7.197 -16.503  1.00  0.00     0.188 HD
ENDROOT
BRANCH   7  13
HETATM   13  N7  UNL     1       6.325   5.967 -11.716  1.00  0.00    -0.173 N 
HETATM   14  C4  UNL     1       6.157   5.257 -10.490  1.00  0.00     0.494 C 
HETATM   15  N8  UNL     1       5.183   4.201 -10.694  1.00  0.00    -0.032 N 
HETATM   16  N9  UNL     1       5.683   6.217  -9.494  1.00  0.00    -0.032 N 
ATOM     17  H83 UNL     1       4.301   4.550 -11.068  1.00  0.00     0.278 HD
ATOM     18  H82 UNL     1       5.430   3.586 -11.470  1.00  0.00     0.278 HD
ATOM     19  H81 UNL     1       5.063   3.693  -9.818  1.00  0.00     0.278 HD
ATOM     20  H93 UNL     1       6.291   7.031  -9.404  1.00  0.00     0.278 HD
ATOM     21  H92 UNL     1       4.841   6.713  -9.787  1.00  0.00     0.278 HD
ATOM     22  H91 UNL     1       5.563   5.710  -8.618  1.00  0.00     0.278 HD
ATOM     23  H7  UNL     1       5.908   6.896 -11.771  1.00  0.00     0.181 HD
ENDBRANCH   7  13
BRANCH   4  24
HETATM   24  N4  UNL     1       8.267   2.351 -13.263  1.00  0.00    -0.112 N 
ATOM     25  H4  UNL     1       9.232   2.021 -13.235  1.00  0.00     0.207 HD
BRANCH  24  26
HETATM   26  N5  UNL     1       7.245   1.459 -12.934  1.00  0.00    -0.196 N 
ATOM     27  H5  UNL     1       7.336   0.823 -12.142  1.00  0.00     0.216 HD
BRANCH  26  28
HETATM   28  O2  UNL     1       6.204   1.464 -13.649  1.00  0.00    -0.274 OA
ATOM     29  H2  UNL     1       5.364   1.527 -13.210  1.00  0.00     0.246 HD
ENDBRANCH  26  28
ENDBRANCH  24  26
ENDBRANCH   4  24
BRANCH   1  30
HETATM   30  N2  UNL     1       8.726   5.135 -16.692  1.00  0.00    -0.222 N 
ATOM     31  H2  UNL     1       8.023   5.186 -17.429  1.00  0.00     0.198 HD
BRANCH  30  32
HETATM   32  O1  UNL     1      10.049   5.097 -17.026  1.00  0.00    -0.162 OA
BRANCH  32  33
HETATM   33  N1  UNL     1      10.774   6.266 -17.109  1.00  0.00    -0.286 N 
ATOM     34  H12 UNL     1      11.664   6.332 -16.615  1.00  0.00     0.186 HD
ATOM     35  H11 UNL     1      10.419   7.049 -17.657  1.00  0.00     0.186 HD
ENDBRANCH  32  33
ENDBRANCH  30  32
ENDBRANCH   1  30
BRANCH  11  36
HETATM   36  N12 UNL     1       7.626   8.588 -15.327  1.00  0.00    -0.309 N 
HETATM   37  C6  UNL     1       7.795   9.623 -16.049  1.00  0.00     0.126 C 
ATOM     38  H12 UNL     1       7.135   8.712 -14.442  1.00  0.00     0.186 HD
BRANCH  37  39
HETATM   39  C7  UNL     1       7.304  10.953 -15.627  1.00  0.00     0.021 A 
HETATM   40  C8  UNL     1       6.013  11.348 -15.408  1.00  0.00     0.021 A 
HETATM   41  C9  UNL     1       5.813  12.616 -15.028  1.00  0.00     0.008 A 
HETATM   42  C10 UNL     1       6.915  13.414 -14.890  1.00  0.00     0.050 A 
HETATM   43  S1  UNL     1       8.199  12.364 -15.297  1.00  0.00    -0.101 SA
ENDBRANCH  37  39
ENDBRANCH  11  36
TORSDOF 9
ENDMDL
MODEL 5
REMARK VINA RESULT: -7.769740982      3.711      7.055
REMARK  9 active torsions:
REMARK  status: ('A' for Active; 'I' for Inactive)
REMARK    1  A    between atoms: N1_1  and  O1_4 
REMARK    2  A    between atoms: O1_4  and  N2_5 
REMARK    3  A    between atoms: N2_5  and  C1_7 
REMARK    4  A    between atoms: C2_10  and  N4_11 
REMARK    5  A    between atoms: N4_11  and  N5_13 
REMARK    6  A    between atoms: N5_13  and  O2_15 
REMARK    7  A    between atoms: C3_19  and  N7_20 
REMARK       I    between atoms: N7_20  and  C4_22 
REMARK       I    between atoms: C4_22  and  N8_23 
REMARK       I    between atoms: C4_22  and  N9_27 
REMARK    8  A    between atoms: N11_34  and  N12_36 
REMARK    9  A    between atoms: C6_38  and  C7_39 
ROOT
HETATM    1  C1  UNL     1      10.753   6.618 -17.183  1.00  0.00     0.189 C 
HETATM    2  N3  UNL     1      10.880   7.858 -17.728  1.00  0.00    -0.169 N 
ATOM      3  H3  UNL     1      11.659   7.976 -18.376  1.00  0.00     0.186 HD
HETATM    4  C2  UNL     1      10.121   8.948 -17.529  1.00  0.00     0.714 C 
HETATM    5  N6  UNL     1       8.975   9.106 -16.819  1.00  0.00    -0.021 N 
ATOM      6  H6  UNL     1       8.557  10.036 -16.833  1.00  0.00     0.203 HD
HETATM    7  C3  UNL     1       8.331   8.171 -16.101  1.00  0.00     0.697 C 
HETATM    8  N10 UNL     1       8.688   6.896 -15.925  1.00  0.00    -0.171 N 
ATOM      9  H10 UNL     1       8.102   6.390 -15.261  1.00  0.00     0.186 HD
HETATM   10  C5  UNL     1       9.677   6.153 -16.462  1.00  0.00     0.182 C 
HETATM   11  N11 UNL     1       9.649   4.879 -16.310  1.00  0.00    -0.282 N 
ATOM     12  H11 UNL     1      10.409   4.341 -16.727  1.00  0.00     0.188 HD
ENDROOT
BRANCH   7  13
HETATM   13  N7  UNL     1       7.258   8.603 -15.540  1.00  0.00    -0.173 N 
HETATM   14  C4  UNL     1       7.058   8.809 -14.143  1.00  0.00     0.494 C 
HETATM   15  N8  UNL     1       6.917   7.517 -13.497  1.00  0.00    -0.032 N 
HETATM   16  N9  UNL     1       5.839   9.604 -13.991  1.00  0.00    -0.032 N 
ATOM     17  H83 UNL     1       6.181   6.950 -13.917  1.00  0.00     0.278 HD
ATOM     18  H82 UNL     1       7.702   6.896 -13.691  1.00  0.00     0.278 HD
ATOM     19  H81 UNL     1       6.774   7.665 -12.498  1.00  0.00     0.278 HD
ATOM     20  H93 UNL     1       5.861  10.473 -14.524  1.00  0.00     0.278 HD
ATOM     21  H92 UNL     1       5.031   9.186 -14.452  1.00  0.00     0.278 HD
ATOM     22  H91 UNL     1       5.697   9.752 -12.992  1.00  0.00     0.278 HD
ATOM     23  H7  UNL     1       6.472   8.818 -16.154  1.00  0.00     0.181 HD
ENDBRANCH   7  13
BRANCH   4  24
HETATM   24  N4  UNL     1      10.533  10.016 -18.092  1.00  0.00    -0.112 N 
ATOM     25  H4  UNL     1      10.085  10.316 -18.958  1.00  0.00     0.207 HD
BRANCH  24  26
HETATM   26  N5  UNL     1      11.571  10.790 -17.572  1.00  0.00    -0.196 N 
ATOM     27  H5  UNL     1      11.432  11.776 -17.351  1.00  0.00     0.216 HD
BRANCH  26  28
HETATM   28  O2  UNL     1      12.687  10.231 -17.384  1.00  0.00    -0.274 OA
ATOM     29  H2  UNL     1      12.910   9.972 -16.499  1.00  0.00     0.246 HD
ENDBRANCH  26  28
ENDBRANCH  24  26
ENDBRANCH   4  24
BRANCH   1  30
HETATM   30  N2  UNL     1      11.738   5.804 -17.361  1.00  0.00    -0.222 N 
ATOM     31  H2  UNL     1      11.911   5.419 -18.289  1.00  0.00     0.198 HD
BRANCH  30  32
HETATM   32  O1  UNL     1      12.552   5.453 -16.324  1.00  0.00    -0.162 OA
BRANCH  32  33
HETATM   33  N1  UNL     1      13.843   5.930 -16.267  1.00  0.00    -0.286 N 
ATOM     34  H12 UNL     1      14.365   6.049 -17.135  1.00  0.00     0.186 HD
ATOM     35  H11 UNL     1      14.263   6.160 -15.367  1.00  0.00     0.186 HD
ENDBRANCH  32  33
ENDBRANCH  30  32
ENDBRANCH   1  30
BRANCH  11  36
HETATM   36  N12 UNL     1       8.679   4.178 -15.630  1.00  0.00    -0.309 N 
HETATM   37  C6  UNL     1       8.556   4.121 -14.364  1.00  0.00     0.126 C 
ATOM     38  H12 UNL     1       8.000   3.661 -16.189  1.00  0.00     0.186 HD
BRANCH  37  39
HETATM   39  C7  UNL     1       7.477   3.338 -13.723  1.00  0.00     0.021 A 
HETATM   40  C8  UNL     1       7.314   1.980 -13.703  1.00  0.00     0.021 A 
HETATM   41  C9  UNL     1       6.248   1.498 -13.052  1.00  0.00     0.008 A 
HETATM   42  C10 UNL     1       5.409   2.401 -12.459  1.00  0.00     0.050 A 
HETATM   43  S1  UNL     1       6.139   3.899 -12.832  1.00  0.00    -0.101 SA
ENDBRANCH  37  39
ENDBRANCH  11  36
TORSDOF 9
ENDMDL
