MODEL 1
REMARK VINA RESULT: -7.287098675      0.000      0.000
REMARK  12 active torsions:
REMARK  status: ('A' for Active; 'I' for Inactive)
REMARK    1  A    between atoms: N1_2  and  N2_4 
REMARK    2  A    between atoms: N2_4  and  C3_6 
REMARK    3  A    between atoms: C3_6  and  O1_7 
REMARK    4  A    between atoms: C3_6  and  C4_9 
REMARK    5  A    between atoms: C5_12  and  C6_13 
REMARK    6  A    between atoms: C6_13  and  O2_14 
REMARK    7  A    between atoms: C6_13  and  O3_16 
REMARK    8  A    between atoms: C7_18  and  O4_19 
REMARK    9  A    between atoms: O4_19  and  N4_20 
REMARK   10  A    between atoms: N4_20  and  O5_24 
REMARK   11  A    between atoms: C8_26  and  O6_28 
REMARK   12  A    between atoms: C10_30  and  N6_31 
ROOT
HETATM    1  C4  UNL     1       9.154   5.148 -15.495  1.00  0.00     0.185 C 
HETATM    2  N3  UNL     1       8.435   3.890 -15.774  1.00  0.00    -0.397 N 
ATOM      3  H3  UNL     1       8.610   3.358 -16.627  1.00  0.00     0.154 HD
HETATM    4  C5  UNL     1       7.511   3.459 -14.833  1.00  0.00     0.167 C 
HETATM    5  C7  UNL     1       7.054   4.436 -13.807  1.00  0.00     0.220 C 
HETATM    6  C8  UNL     1       7.014   5.842 -14.294  1.00  0.00     0.114 C 
HETATM    7  C9  UNL     1       7.162   6.761 -13.080  1.00  0.00     0.051 C 
HETATM    8  C10 UNL     1       8.047   6.202 -15.289  1.00  0.00     0.222 C 
ENDROOT
BRANCH   1   9
HETATM    9  C3  UNL     1       9.763   5.499 -16.798  1.00  0.00     0.151 C 
BRANCH   9  10
HETATM   10  N2  UNL     1      10.573   6.584 -17.125  1.00  0.00    -0.302 N 
ATOM     11  H2  UNL     1      10.219   7.341 -17.709  1.00  0.00     0.182 HD
BRANCH  10  12
HETATM   12  N1  UNL     1      11.888   6.613 -16.633  1.00  0.00    -0.238 NA
HETATM   13  C1  UNL     1      12.559   7.843 -16.993  1.00  0.00     0.135 C 
HETATM   14  C2  UNL     1      12.569   5.418 -17.020  1.00  0.00     0.135 C 
ENDBRANCH  10  12
ENDBRANCH   9  10
BRANCH   9  15
HETATM   15  O1  UNL     1       9.546   4.629 -17.782  1.00  0.00    -0.347 OA
ATOM     16  H1  UNL     1       8.765   4.785 -18.299  1.00  0.00     0.219 HD
ENDBRANCH   9  15
ENDBRANCH   1   9
BRANCH   8  17
HETATM   17  N6  UNL     1       7.368   6.468 -16.577  1.00  0.00    -0.145 N 
HETATM   18  O7  UNL     1       7.385   7.648 -16.983  1.00  0.00    -0.536 OA
HETATM   19  O8  UNL     1       6.704   5.473 -17.268  1.00  0.00    -0.536 OA
ENDBRANCH   8  17
BRANCH   4  20
HETATM   20  C6  UNL     1       7.933   2.201 -14.106  1.00  0.00     0.278 C 
BRANCH  20  21
HETATM   21  O2  UNL     1       8.585   2.442 -12.906  1.00  0.00    -0.369 OA
ATOM     22  H2  UNL     1       8.616   1.687 -12.330  1.00  0.00     0.212 HD
ENDBRANCH  20  21
BRANCH  20  23
HETATM   23  O3  UNL     1       6.826   1.368 -13.861  1.00  0.00    -0.369 OA
ATOM     24  H3  UNL     1       6.292   1.714 -13.155  1.00  0.00     0.212 HD
ENDBRANCH  20  23
ENDBRANCH   4  20
BRANCH   6  25
HETATM   25  O6  UNL     1       5.755   6.201 -14.842  1.00  0.00    -0.385 OA
ATOM     26  H6  UNL     1       5.115   6.431 -14.178  1.00  0.00     0.210 HD
ENDBRANCH   6  25
BRANCH   5  27
HETATM   27  O4  UNL     1       5.848   3.927 -13.279  1.00  0.00    -0.228 OA
BRANCH  27  28
HETATM   28  N4  UNL     1       5.603   3.602 -11.978  1.00  0.00    -0.061 N 
HETATM   29  N5  UNL     1       5.875   4.437 -11.088  1.00  0.00    -0.298 N 
ATOM     30  H52 UNL     1       6.192   5.376 -11.327  1.00  0.00     0.181 HD
ATOM     31  H51 UNL     1       5.692   4.193 -10.114  1.00  0.00     0.181 HD
BRANCH  28  32
HETATM   32  O5  UNL     1       5.176   2.335 -11.655  1.00  0.00    -0.248 OA
ATOM     33  H5  UNL     1       5.769   1.728 -11.227  1.00  0.00     0.249 HD
ENDBRANCH  28  32
ENDBRANCH  27  28
ENDBRANCH   5  27
TORSDOF 12
ENDMDL
MODEL 2
REMARK VINA RESULT: -6.482554754      2.048      6.444
REMARK  12 active torsions:
REMARK  status: ('A' for Active; 'I' for Inactive)
REMARK    1  A    between atoms: N1_2  and  N2_4 
REMARK    2  A    between atoms: N2_4  and  C3_6 
REMARK    3  A    between atoms: C3_6  and  O1_7 
REMARK    4  A    between atoms: C3_6  and  C4_9 
REMARK    5  A    between atoms: C5_12  and  C6_13 
REMARK    6  A    between atoms: C6_13  and  O2_14 
REMARK    7  A    between atoms: C6_13  and  O3_16 
REMARK    8  A    between atoms: C7_18  and  O4_19 
REMARK    9  A    between atoms: O4_19  and  N4_20 
REMARK   10  A    between atoms: N4_20  and  O5_24 
REMARK   11  A    between atoms: C8_26  and  O6_28 
REMARK   12  A    between atoms: C10_30  and  N6_31 
ROOT
HETATM    1  C4  UNL     1       8.249   5.716 -14.627  1.00  0.00     0.185 C 
HETATM    2  N3  UNL     1       7.471   6.802 -15.254  1.00  0.00    -0.397 N 
ATOM      3  H3  UNL     1       6.471   6.909 -15.076  1.00  0.00     0.154 HD
HETATM    4  C5  UNL     1       8.149   7.674 -16.094  1.00  0.00     0.167 C 
HETATM    5  C7  UNL     1       9.495   7.266 -16.580  1.00  0.00     0.220 C 
HETATM    6  C8  UNL     1       9.648   5.796 -16.758  1.00  0.00     0.114 C 
HETATM    7  C9  UNL     1      11.136   5.462 -16.628  1.00  0.00     0.051 C 
HETATM    8  C10 UNL     1       8.890   4.955 -15.805  1.00  0.00     0.222 C 
ENDROOT
BRANCH   1   9
HETATM    9  C3  UNL     1       7.211   4.796 -14.111  1.00  0.00     0.151 C 
BRANCH   9  10
HETATM   10  N2  UNL     1       7.366   3.608 -13.400  1.00  0.00    -0.302 N 
ATOM     11  H2  UNL     1       8.261   3.369 -12.974  1.00  0.00     0.182 HD
BRANCH  10  12
HETATM   12  N1  UNL     1       6.264   2.746 -13.283  1.00  0.00    -0.238 NA
HETATM   13  C1  UNL     1       5.428   3.108 -12.159  1.00  0.00     0.135 C 
HETATM   14  C2  UNL     1       6.715   1.391 -13.289  1.00  0.00     0.135 C 
ENDBRANCH  10  12
ENDBRANCH   9  10
BRANCH   9  15
HETATM   15  O1  UNL     1       5.954   5.183 -14.311  1.00  0.00    -0.347 OA
ATOM     16  H1  UNL     1       5.678   5.221 -15.219  1.00  0.00     0.219 HD
ENDBRANCH   9  15
ENDBRANCH   1   9
BRANCH   8  17
HETATM   17  N6  UNL     1       7.841   4.239 -16.564  1.00  0.00    -0.145 N 
HETATM   18  O7  UNL     1       7.947   2.996 -16.624  1.00  0.00    -0.536 OA
HETATM   19  O8  UNL     1       6.826   4.912 -17.216  1.00  0.00    -0.536 OA
ENDBRANCH   8  17
BRANCH   4  20
HETATM   20  C6  UNL     1       8.272   9.075 -15.537  1.00  0.00     0.278 C 
BRANCH  20  21
HETATM   21  O2  UNL     1       7.912  10.067 -16.437  1.00  0.00    -0.369 OA
ATOM     22  H2  UNL     1       7.487  10.814 -16.033  1.00  0.00     0.212 HD
ENDBRANCH  20  21
BRANCH  20  23
HETATM   23  O3  UNL     1       7.500   9.220 -14.370  1.00  0.00    -0.369 OA
ATOM     24  H3  UNL     1       6.941   9.986 -14.427  1.00  0.00     0.212 HD
ENDBRANCH  20  23
ENDBRANCH   4  20
BRANCH   6  25
HETATM   25  O6  UNL     1       9.314   5.360 -18.066  1.00  0.00    -0.385 OA
ATOM     26  H6  UNL     1       9.688   4.512 -18.280  1.00  0.00     0.210 HD
ENDBRANCH   6  25
BRANCH   5  27
HETATM   27  O4  UNL     1       9.768   8.059 -17.714  1.00  0.00    -0.228 OA
BRANCH  27  28
HETATM   28  N4  UNL     1      10.780   8.964 -17.850  1.00  0.00    -0.061 N 
HETATM   29  N5  UNL     1      11.961   8.557 -17.794  1.00  0.00    -0.298 N 
ATOM     30  H52 UNL     1      12.173   7.561 -17.737  1.00  0.00     0.181 HD
ATOM     31  H51 UNL     1      12.718   9.234 -17.896  1.00  0.00     0.181 HD
BRANCH  28  32
HETATM   32  O5  UNL     1      10.495  10.307 -17.927  1.00  0.00    -0.248 OA
ATOM     33  H5  UNL     1      11.191  10.931 -18.103  1.00  0.00     0.249 HD
ENDBRANCH  28  32
ENDBRANCH  27  28
ENDBRANCH   5  27
TORSDOF 12
ENDMDL
MODEL 3
REMARK VINA RESULT: -6.458736469      2.023      6.222
REMARK  12 active torsions:
REMARK  status: ('A' for Active; 'I' for Inactive)
REMARK    1  A    between atoms: N1_2  and  N2_4 
REMARK    2  A    between atoms: N2_4  and  C3_6 
REMARK    3  A    between atoms: C3_6  and  O1_7 
REMARK    4  A    between atoms: C3_6  and  C4_9 
REMARK    5  A    between atoms: C5_12  and  C6_13 
REMARK    6  A    between atoms: C6_13  and  O2_14 
REMARK    7  A    between atoms: C6_13  and  O3_16 
REMARK    8  A    between atoms: C7_18  and  O4_19 
REMARK    9  A    between atoms: O4_19  and  N4_20 
REMARK   10  A    between atoms: N4_20  and  O5_24 
REMARK   11  A    between atoms: C8_26  and  O6_28 
REMARK   12  A    between atoms: C10_30  and  N6_31 
ROOT
HETATM    1  C4  UNL     1       8.524   5.427 -14.684  1.00  0.00     0.185 C 
HETATM    2  N3  UNL     1       7.433   6.354 -15.042  1.00  0.00    -0.397 N 
ATOM      3  H3  UNL     1       6.483   6.212 -14.697  1.00  0.00     0.154 HD
HETATM    4  C5  UNL     1       7.748   7.426 -15.865  1.00  0.00     0.167 C 
HETATM    5  C7  UNL     1       9.039   7.381 -16.603  1.00  0.00     0.220 C 
HETATM    6  C8  UNL     1       9.466   6.006 -16.982  1.00  0.00     0.114 C 
HETATM    7  C9  UNL     1      10.988   6.013 -17.131  1.00  0.00     0.051 C 
HETATM    8  C10 UNL     1       9.087   4.936 -16.033  1.00  0.00     0.222 C 
ENDROOT
BRANCH   1   9
HETATM    9  C3  UNL     1       7.816   4.253 -14.127  1.00  0.00     0.151 C 
BRANCH   9  10
HETATM   10  N2  UNL     1       6.446   4.040 -13.984  1.00  0.00    -0.302 N 
ATOM     11  H2  UNL     1       5.895   3.660 -14.752  1.00  0.00     0.182 HD
BRANCH  10  12
HETATM   12  N1  UNL     1       5.842   4.360 -12.758  1.00  0.00    -0.238 NA
HETATM   13  C1  UNL     1       6.703   5.193 -11.946  1.00  0.00     0.135 C 
HETATM   14  C2  UNL     1       5.387   3.164 -12.123  1.00  0.00     0.135 C 
ENDBRANCH  10  12
ENDBRANCH   9  10
BRANCH   9  15
HETATM   15  O1  UNL     1       8.594   3.239 -13.758  1.00  0.00    -0.347 OA
ATOM     16  H1  UNL     1       8.798   2.611 -14.440  1.00  0.00     0.219 HD
ENDBRANCH   9  15
ENDBRANCH   1   9
BRANCH   8  17
HETATM   17  N6  UNL     1       8.094   4.065 -16.699  1.00  0.00    -0.145 N 
HETATM   18  O7  UNL     1       8.427   2.874 -16.875  1.00  0.00    -0.536 OA
HETATM   19  O8  UNL     1       6.883   4.553 -17.150  1.00  0.00    -0.536 OA
ENDBRANCH   8  17
BRANCH   4  20
HETATM   20  C6  UNL     1       7.670   8.766 -15.166  1.00  0.00     0.278 C 
BRANCH  20  21
HETATM   21  O2  UNL     1       6.890   9.699 -15.833  1.00  0.00    -0.369 OA
ATOM     22  H2  UNL     1       5.971   9.668 -15.595  1.00  0.00     0.212 HD
ENDBRANCH  20  21
BRANCH  20  23
HETATM   23  O3  UNL     1       7.181   8.620 -13.855  1.00  0.00    -0.369 OA
ATOM     24  H3  UNL     1       7.182   9.453 -13.399  1.00  0.00     0.212 HD
ENDBRANCH  20  23
ENDBRANCH   4  20
BRANCH   6  25
HETATM   25  O6  UNL     1       9.000   5.617 -18.265  1.00  0.00    -0.385 OA
ATOM     26  H6  UNL     1       8.417   4.867 -18.235  1.00  0.00     0.210 HD
ENDBRANCH   6  25
BRANCH   5  27
HETATM   27  O4  UNL     1       8.928   8.309 -17.660  1.00  0.00    -0.228 OA
BRANCH  27  28
HETATM   28  N4  UNL     1       9.670   9.441 -17.830  1.00  0.00    -0.061 N 
HETATM   29  N5  UNL     1      10.855   9.331 -18.215  1.00  0.00    -0.298 N 
ATOM     30  H52 UNL     1      11.239   8.425 -18.482  1.00  0.00     0.181 HD
ATOM     31  H51 UNL     1      11.410  10.177 -18.342  1.00  0.00     0.181 HD
BRANCH  28  32
HETATM   32  O5  UNL     1       9.152  10.663 -17.469  1.00  0.00    -0.248 OA
ATOM     33  H5  UNL     1       8.602  11.144 -18.077  1.00  0.00     0.249 HD
ENDBRANCH  28  32
ENDBRANCH  27  28
ENDBRANCH   5  27
TORSDOF 12
ENDMDL
MODEL 4
REMARK VINA RESULT: -6.422257328      2.229      6.246
REMARK  12 active torsions:
REMARK  status: ('A' for Active; 'I' for Inactive)
REMARK    1  A    between atoms: N1_2  and  N2_4 
REMARK    2  A    between atoms: N2_4  and  C3_6 
REMARK    3  A    between atoms: C3_6  and  O1_7 
REMARK    4  A    between atoms: C3_6  and  C4_9 
REMARK    5  A    between atoms: C5_12  and  C6_13 
REMARK    6  A    between atoms: C6_13  and  O2_14 
REMARK    7  A    between atoms: C6_13  and  O3_16 
REMARK    8  A    between atoms: C7_18  and  O4_19 
REMARK    9  A    between atoms: O4_19  and  N4_20 
REMARK   10  A    between atoms: N4_20  and  O5_24 
REMARK   11  A    between atoms: C8_26  and  O6_28 
REMARK   12  A    between atoms: C10_30  and  N6_31 
ROOT
HETATM    1  C4  UNL     1       8.431   5.469 -14.576  1.00  0.00     0.185 C 
HETATM    2  N3  UNL     1       7.191   6.223 -14.846  1.00  0.00    -0.397 N 
ATOM      3  H3  UNL     1       6.294   5.922 -14.462  1.00  0.00     0.154 HD
HETATM    4  C5  UNL     1       7.290   7.357 -15.640  1.00  0.00     0.167 C 
HETATM    5  C7  UNL     1       8.532   7.540 -16.440  1.00  0.00     0.220 C 
HETATM    6  C8  UNL     1       9.147   6.262 -16.892  1.00  0.00     0.114 C 
HETATM    7  C9  UNL     1      10.640   6.515 -17.111  1.00  0.00     0.051 C 
HETATM    8  C10 UNL     1       8.992   5.117 -15.968  1.00  0.00     0.222 C 
ENDROOT
BRANCH   1   9
HETATM    9  C3  UNL     1       7.946   4.181 -14.033  1.00  0.00     0.151 C 
BRANCH   9  10
HETATM   10  N2  UNL     1       6.639   3.711 -13.924  1.00  0.00    -0.302 N 
ATOM     11  H2  UNL     1       5.923   4.000 -14.590  1.00  0.00     0.182 HD
BRANCH  10  12
HETATM   12  N1  UNL     1       6.328   2.830 -12.876  1.00  0.00    -0.238 NA
HETATM   13  C1  UNL     1       6.209   1.468 -13.348  1.00  0.00     0.135 C 
HETATM   14  C2  UNL     1       5.193   3.322 -12.160  1.00  0.00     0.135 C 
ENDBRANCH  10  12
ENDBRANCH   9  10
BRANCH   9  15
HETATM   15  O1  UNL     1       8.893   3.334 -13.640  1.00  0.00    -0.347 OA
ATOM     16  H1  UNL     1       8.925   3.161 -12.707  1.00  0.00     0.219 HD
ENDBRANCH   9  15
ENDBRANCH   1   9
BRANCH   8  17
HETATM   17  N6  UNL     1       8.114   4.120 -16.621  1.00  0.00    -0.145 N 
HETATM   18  O7  UNL     1       8.553   2.954 -16.693  1.00  0.00    -0.536 OA
HETATM   19  O8  UNL     1       6.895   4.471 -17.167  1.00  0.00    -0.536 OA
ENDBRANCH   8  17
BRANCH   4  20
HETATM   20  C6  UNL     1       7.041   8.645 -14.886  1.00  0.00     0.278 C 
BRANCH  20  21
HETATM   21  O2  UNL     1       8.201   9.300 -14.503  1.00  0.00    -0.369 OA
ATOM     22  H2  UNL     1       8.095  10.239 -14.404  1.00  0.00     0.212 HD
ENDBRANCH  20  21
BRANCH  20  23
HETATM   23  O3  UNL     1       6.252   9.526 -15.648  1.00  0.00    -0.369 OA
ATOM     24  H3  UNL     1       6.357   9.358 -16.577  1.00  0.00     0.212 HD
ENDBRANCH  20  23
ENDBRANCH   4  20
BRANCH   6  25
HETATM   25  O6  UNL     1       8.681   5.845 -18.165  1.00  0.00    -0.385 OA
ATOM     26  H6  UNL     1       9.258   5.214 -18.582  1.00  0.00     0.210 HD
ENDBRANCH   6  25
BRANCH   5  27
HETATM   27  O4  UNL     1       8.221   8.471 -17.452  1.00  0.00    -0.228 OA
BRANCH  27  28
HETATM   28  N4  UNL     1       8.920   9.601 -17.761  1.00  0.00    -0.061 N 
HETATM   29  N5  UNL     1       9.850   9.525 -18.592  1.00  0.00    -0.298 N 
ATOM     30  H52 UNL     1      10.033   8.659 -19.099  1.00  0.00     0.181 HD
ATOM     31  H51 UNL     1      10.373  10.370 -18.823  1.00  0.00     0.181 HD
BRANCH  28  32
HETATM   32  O5  UNL     1       8.674  10.769 -17.077  1.00  0.00    -0.248 OA
ATOM     33  H5  UNL     1       8.655  11.597 -17.543  1.00  0.00     0.249 HD
ENDBRANCH  28  32
ENDBRANCH  27  28
ENDBRANCH   5  27
TORSDOF 12
ENDMDL
MODEL 5
REMARK VINA RESULT: -6.337186420      2.311      3.513
REMARK  12 active torsions:
REMARK  status: ('A' for Active; 'I' for Inactive)
REMARK    1  A    between atoms: N1_2  and  N2_4 
REMARK    2  A    between atoms: N2_4  and  C3_6 
REMARK    3  A    between atoms: C3_6  and  O1_7 
REMARK    4  A    between atoms: C3_6  and  C4_9 
REMARK    5  A    between atoms: C5_12  and  C6_13 
REMARK    6  A    between atoms: C6_13  and  O2_14 
REMARK    7  A    between atoms: C6_13  and  O3_16 
REMARK    8  A    between atoms: C7_18  and  O4_19 
REMARK    9  A    between atoms: O4_19  and  N4_20 
REMARK   10  A    between atoms: N4_20  and  O5_24 
REMARK   11  A    between atoms: C8_26  and  O6_28 
REMARK   12  A    between atoms: C10_30  and  N6_31 
ROOT
HETATM    1  C4  UNL     1       8.404   6.841 -15.708  1.00  0.00     0.185 C 
HETATM    2  N3  UNL     1       7.550   6.007 -16.576  1.00  0.00    -0.397 N 
ATOM      3  H3  UNL     1       7.056   6.407 -17.374  1.00  0.00     0.154 HD
HETATM    4  C5  UNL     1       7.442   4.659 -16.265  1.00  0.00     0.167 C 
HETATM    5  C7  UNL     1       7.890   4.218 -14.916  1.00  0.00     0.220 C 
HETATM    6  C8  UNL     1       7.691   5.242 -13.853  1.00  0.00     0.114 C 
HETATM    7  C9  UNL     1       8.705   4.965 -12.742  1.00  0.00     0.051 C 
HETATM    8  C10 UNL     1       7.835   6.648 -14.287  1.00  0.00     0.222 C 
ENDROOT
BRANCH   1   9
HETATM    9  C3  UNL     1       8.030   8.225 -16.074  1.00  0.00     0.151 C 
BRANCH   9  10
HETATM   10  N2  UNL     1       8.471   9.428 -15.527  1.00  0.00    -0.302 N 
ATOM     11  H2  UNL     1       8.340   9.629 -14.536  1.00  0.00     0.182 HD
BRANCH  10  12
HETATM   12  N1  UNL     1       9.101  10.358 -16.369  1.00  0.00    -0.238 NA
HETATM   13  C1  UNL     1      10.432   9.924 -16.733  1.00  0.00     0.135 C 
HETATM   14  C2  UNL     1       9.029  11.658 -15.782  1.00  0.00     0.135 C 
ENDBRANCH  10  12
ENDBRANCH   9  10
BRANCH   9  15
HETATM   15  O1  UNL     1       7.192   8.337 -17.102  1.00  0.00    -0.347 OA
ATOM     16  H1  UNL     1       6.272   8.228 -16.892  1.00  0.00     0.219 HD
ENDBRANCH   9  15
ENDBRANCH   1   9
BRANCH   8  17
HETATM   17  N6  UNL     1       6.508   7.295 -14.192  1.00  0.00    -0.145 N 
HETATM   18  O7  UNL     1       6.391   8.205 -13.346  1.00  0.00    -0.536 OA
HETATM   19  O8  UNL     1       5.438   6.877 -14.960  1.00  0.00    -0.536 OA
ENDBRANCH   8  17
BRANCH   4  20
HETATM   20  C6  UNL     1       8.100   3.752 -17.281  1.00  0.00     0.278 C 
BRANCH  20  21
HETATM   21  O2  UNL     1       7.217   2.887 -17.911  1.00  0.00    -0.369 OA
ATOM     22  H2  UNL     1       7.624   2.090 -18.229  1.00  0.00     0.212 HD
ENDBRANCH  20  21
BRANCH  20  23
HETATM   23  O3  UNL     1       8.775   4.503 -18.261  1.00  0.00    -0.369 OA
ATOM     24  H3  UNL     1       9.508   4.014 -18.616  1.00  0.00     0.212 HD
ENDBRANCH  20  23
ENDBRANCH   4  20
BRANCH   6  25
HETATM   25  O6  UNL     1       6.434   5.126 -13.204  1.00  0.00    -0.385 OA
ATOM     26  H6  UNL     1       6.336   5.732 -12.478  1.00  0.00     0.210 HD
ENDBRANCH   6  25
BRANCH   5  27
HETATM   27  O4  UNL     1       7.291   2.961 -14.687  1.00  0.00    -0.228 OA
BRANCH  27  28
HETATM   28  N4  UNL     1       7.387   2.209 -13.553  1.00  0.00    -0.061 N 
HETATM   29  N5  UNL     1       6.348   1.979 -12.895  1.00  0.00    -0.298 N 
ATOM     30  H52 UNL     1       5.433   2.269 -13.238  1.00  0.00     0.181 HD
ATOM     31  H51 UNL     1       6.420   1.416 -12.047  1.00  0.00     0.181 HD
BRANCH  28  32
HETATM   32  O5  UNL     1       8.621   1.817 -13.090  1.00  0.00    -0.248 OA
ATOM     33  H5  UNL     1       9.376   1.845 -13.667  1.00  0.00     0.249 HD
ENDBRANCH  28  32
ENDBRANCH  27  28
ENDBRANCH   5  27
TORSDOF 12
ENDMDL
