MODEL 1
REMARK VINA RESULT: -7.287820172      0.000      0.000
REMARK  10 active torsions:
REMARK  status: ('A' for Active; 'I' for Inactive)
REMARK    1  A    between atoms: O1_2  and  C2_3 
REMARK    2  A    between atoms: C3_5  and  O3_6 
REMARK    3  A    between atoms: O3_6  and  C4_7 
REMARK    4  A    between atoms: C5_9  and  S1_10 
REMARK    5  A    between atoms: C7_12  and  O5_13 
REMARK    6  A    between atoms: C8_15  and  O6_16 
REMARK    7  A    between atoms: C9_18  and  O7_19 
REMARK    8  A    between atoms: C10_21  and  O8_22 
REMARK    9  A    between atoms: C11_24  and  O9_25 
REMARK   10  A    between atoms: C12_27  and  O10_28 
ROOT
HETATM    1  O3  UNL     1       9.800   6.985 -17.517  1.00  0.00    -0.326 OA
ENDROOT
BRANCH   1   2
HETATM    2  C3  UNL     1       9.106   6.550 -16.363  1.00  0.00     0.297 C 
HETATM    3  O2  UNL     1       7.864   7.174 -16.415  1.00  0.00    -0.326 OA
HETATM    4  C2  UNL     1       7.098   6.918 -15.283  1.00  0.00     0.293 C 
HETATM    5  C12 UNL     1       7.194   5.476 -14.837  1.00  0.00     0.204 C 
HETATM    6  C11 UNL     1       7.619   4.571 -15.985  1.00  0.00     0.185 C 
HETATM    7  C10 UNL     1       8.998   5.050 -16.410  1.00  0.00     0.204 C 
BRANCH   4   8
HETATM    8  O1  UNL     1       7.424   7.720 -14.215  1.00  0.00    -0.363 OA
HETATM    9  C1  UNL     1       6.512   8.747 -14.004  1.00  0.00     0.204 C 
ENDBRANCH   4   8
BRANCH   5  10
HETATM   10  O10 UNL     1       6.022   5.027 -14.253  1.00  0.00    -0.388 OA
ATOM     11  H10 UNL     1       5.838   5.464 -13.430  1.00  0.00     0.210 HD
ENDBRANCH   5  10
BRANCH   6  12
HETATM   12  O9  UNL     1       7.746   3.290 -15.446  1.00  0.00    -0.390 OA
ATOM     13  H9  UNL     1       6.964   3.100 -14.940  1.00  0.00     0.210 HD
ENDBRANCH   6  12
BRANCH   7  14
HETATM   14  O8  UNL     1       9.893   4.509 -15.458  1.00  0.00    -0.388 OA
ATOM     15  H8  UNL     1       9.476   3.760 -15.048  1.00  0.00     0.210 HD
ENDBRANCH   7  14
ENDBRANCH   1   2
BRANCH   1  16
HETATM   16  C4  UNL     1      10.855   7.804 -17.199  1.00  0.00     0.295 C 
HETATM   17  O4  UNL     1      10.921   8.842 -18.124  1.00  0.00    -0.340 OA
HETATM   18  C5  UNL     1      11.799   9.844 -17.722  1.00  0.00     0.217 C 
HETATM   19  C7  UNL     1      13.206   9.330 -17.556  1.00  0.00     0.188 C 
HETATM   20  C8  UNL     1      13.279   8.036 -16.820  1.00  0.00     0.183 C 
HETATM   21  C9  UNL     1      12.167   7.081 -17.197  1.00  0.00     0.204 C 
BRANCH  18  22
HETATM   22  S1  UNL     1      11.210  10.666 -16.221  1.00  0.00    -0.139 SA
HETATM   23  C6  UNL     1       9.440  10.986 -16.285  1.00  0.00     0.092 C 
ENDBRANCH  18  22
BRANCH  19  24
HETATM   24  O5  UNL     1      13.977  10.297 -16.919  1.00  0.00    -0.389 OA
ATOM     25  H5  UNL     1      14.783   9.902 -16.611  1.00  0.00     0.210 HD
ENDBRANCH  19  24
BRANCH  20  26
HETATM   26  O6  UNL     1      14.487   7.409 -17.180  1.00  0.00    -0.390 OA
ATOM     27  H6  UNL     1      14.655   7.610 -18.093  1.00  0.00     0.210 HD
ENDBRANCH  20  26
BRANCH  21  28
HETATM   28  O7  UNL     1      12.210   6.022 -16.315  1.00  0.00    -0.388 OA
ATOM     29  H7  UNL     1      13.079   5.847 -15.974  1.00  0.00     0.210 HD
ENDBRANCH  21  28
ENDBRANCH   1  16
TORSDOF 10
ENDMDL
MODEL 2
REMARK VINA RESULT: -7.002644356      1.685      3.037
REMARK  10 active torsions:
REMARK  status: ('A' for Active; 'I' for Inactive)
REMARK    1  A    between atoms: O1_2  and  C2_3 
REMARK    2  A    between atoms: C3_5  and  O3_6 
REMARK    3  A    between atoms: O3_6  and  C4_7 
REMARK    4  A    between atoms: C5_9  and  S1_10 
REMARK    5  A    between atoms: C7_12  and  O5_13 
REMARK    6  A    between atoms: C8_15  and  O6_16 
REMARK    7  A    between atoms: C9_18  and  O7_19 
REMARK    8  A    between atoms: C10_21  and  O8_22 
REMARK    9  A    between atoms: C11_24  and  O9_25 
REMARK   10  A    between atoms: C12_27  and  O10_28 
ROOT
HETATM    1  O3  UNL     1       8.618   5.265 -17.345  1.00  0.00    -0.326 OA
ENDROOT
BRANCH   1   2
HETATM    2  C3  UNL     1       7.858   4.937 -16.197  1.00  0.00     0.297 C 
HETATM    3  O2  UNL     1       8.697   4.162 -15.402  1.00  0.00    -0.326 OA
HETATM    4  C2  UNL     1       8.049   3.676 -14.271  1.00  0.00     0.293 C 
HETATM    5  C12 UNL     1       7.155   4.713 -13.629  1.00  0.00     0.204 C 
HETATM    6  C11 UNL     1       7.585   6.122 -14.008  1.00  0.00     0.185 C 
HETATM    7  C10 UNL     1       7.443   6.214 -15.520  1.00  0.00     0.204 C 
BRANCH   4   8
HETATM    8  O1  UNL     1       7.295   2.552 -14.519  1.00  0.00    -0.363 OA
HETATM    9  C1  UNL     1       7.279   1.658 -13.456  1.00  0.00     0.204 C 
ENDBRANCH   4   8
BRANCH   5  10
HETATM   10  O10 UNL     1       7.079   4.565 -12.255  1.00  0.00    -0.388 OA
ATOM     11  H10 UNL     1       6.183   4.524 -11.945  1.00  0.00     0.210 HD
ENDBRANCH   5  10
BRANCH   6  12
HETATM   12  O9  UNL     1       6.654   6.985 -13.427  1.00  0.00    -0.390 OA
ATOM     13  H9  UNL     1       6.922   7.878 -13.608  1.00  0.00     0.210 HD
ENDBRANCH   6  12
BRANCH   7  14
HETATM   14  O8  UNL     1       6.062   6.413 -15.755  1.00  0.00    -0.388 OA
ATOM     15  H8  UNL     1       5.606   6.361 -14.923  1.00  0.00     0.210 HD
ENDBRANCH   7  14
ENDBRANCH   1   2
BRANCH   1  16
HETATM   16  C4  UNL     1       9.363   6.401 -17.155  1.00  0.00     0.295 C 
HETATM   17  O4  UNL     1       9.045   7.326 -18.146  1.00  0.00    -0.340 OA
HETATM   18  C5  UNL     1       9.569   8.586 -17.870  1.00  0.00     0.217 C 
HETATM   19  C7  UNL     1      11.073   8.564 -17.775  1.00  0.00     0.188 C 
HETATM   20  C8  UNL     1      11.597   7.426 -16.967  1.00  0.00     0.183 C 
HETATM   21  C9  UNL     1      10.838   6.139 -17.203  1.00  0.00     0.204 C 
BRANCH  18  22
HETATM   22  S1  UNL     1       8.818   9.296 -16.385  1.00  0.00    -0.139 SA
HETATM   23  C6  UNL     1       8.446  11.045 -16.594  1.00  0.00     0.092 C 
ENDBRANCH  18  22
BRANCH  19  24
HETATM   24  O5  UNL     1      11.518   9.776 -17.256  1.00  0.00    -0.389 OA
ATOM     25  H5  UNL     1      12.291  10.056 -17.731  1.00  0.00     0.210 HD
ENDBRANCH  19  24
BRANCH  20  26
HETATM   26  O6  UNL     1      12.924   7.191 -17.373  1.00  0.00    -0.390 OA
ATOM     27  H6  UNL     1      13.462   7.154 -16.591  1.00  0.00     0.210 HD
ENDBRANCH  20  26
BRANCH  21  28
HETATM   28  O7  UNL     1      11.265   5.224 -16.263  1.00  0.00    -0.388 OA
ATOM     29  H7  UNL     1      11.163   5.525 -15.367  1.00  0.00     0.210 HD
ENDBRANCH  21  28
ENDBRANCH   1  16
TORSDOF 10
ENDMDL
MODEL 3
REMARK VINA RESULT: -6.947708340      1.087      2.411
REMARK  10 active torsions:
REMARK  status: ('A' for Active; 'I' for Inactive)
REMARK    1  A    between atoms: O1_2  and  C2_3 
REMARK    2  A    between atoms: C3_5  and  O3_6 
REMARK    3  A    between atoms: O3_6  and  C4_7 
REMARK    4  A    between atoms: C5_9  and  S1_10 
REMARK    5  A    between atoms: C7_12  and  O5_13 
REMARK    6  A    between atoms: C8_15  and  O6_16 
REMARK    7  A    between atoms: C9_18  and  O7_19 
REMARK    8  A    between atoms: C10_21  and  O8_22 
REMARK    9  A    between atoms: C11_24  and  O9_25 
REMARK   10  A    between atoms: C12_27  and  O10_28 
ROOT
HETATM    1  O3  UNL     1       9.674   6.209 -17.683  1.00  0.00    -0.326 OA
ENDROOT
BRANCH   1   2
HETATM    2  C3  UNL     1       8.636   5.989 -16.746  1.00  0.00     0.297 C 
HETATM    3  O2  UNL     1       9.256   5.467 -15.616  1.00  0.00    -0.326 OA
HETATM    4  C2  UNL     1       8.340   5.103 -14.634  1.00  0.00     0.293 C 
HETATM    5  C12 UNL     1       7.230   6.117 -14.478  1.00  0.00     0.204 C 
HETATM    6  C11 UNL     1       7.655   7.484 -14.993  1.00  0.00     0.185 C 
HETATM    7  C10 UNL     1       7.955   7.302 -16.473  1.00  0.00     0.204 C 
BRANCH   4   8
HETATM    8  O1  UNL     1       7.770   3.871 -14.854  1.00  0.00    -0.363 OA
HETATM    9  C1  UNL     1       7.778   3.055 -13.730  1.00  0.00     0.204 C 
ENDBRANCH   4   8
BRANCH   5  10
HETATM   10  O10 UNL     1       6.766   6.194 -13.176  1.00  0.00    -0.388 OA
ATOM     11  H10 UNL     1       6.839   5.366 -12.717  1.00  0.00     0.210 HD
ENDBRANCH   5  10
BRANCH   6  12
HETATM   12  O9  UNL     1       6.539   8.313 -14.870  1.00  0.00    -0.390 OA
ATOM     13  H9  UNL     1       6.324   8.389 -13.948  1.00  0.00     0.210 HD
ENDBRANCH   6  12
BRANCH   7  14
HETATM   14  O8  UNL     1       6.693   7.291 -17.112  1.00  0.00    -0.388 OA
ATOM     15  H8  UNL     1       6.221   8.075 -16.857  1.00  0.00     0.210 HD
ENDBRANCH   7  14
ENDBRANCH   1   2
BRANCH   1  16
HETATM   16  C4  UNL     1      10.546   7.180 -17.259  1.00  0.00     0.295 C 
HETATM   17  O4  UNL     1      10.498   8.254 -18.142  1.00  0.00    -0.340 OA
HETATM   18  C5  UNL     1      11.160   9.372 -17.641  1.00  0.00     0.217 C 
HETATM   19  C7  UNL     1      12.619   9.096 -17.384  1.00  0.00     0.188 C 
HETATM   20  C8  UNL     1      12.862   7.801 -16.687  1.00  0.00     0.183 C 
HETATM   21  C9  UNL     1      11.960   6.690 -17.179  1.00  0.00     0.204 C 
BRANCH  18  22
HETATM   22  S1  UNL     1      10.334  10.013 -16.164  1.00  0.00    -0.139 SA
HETATM   23  C6  UNL     1       8.828  10.909 -16.575  1.00  0.00     0.092 C 
ENDBRANCH  18  22
BRANCH  19  24
HETATM   24  O5  UNL     1      13.165  10.150 -16.658  1.00  0.00    -0.389 OA
ATOM     25  H5  UNL     1      12.679  10.259 -15.850  1.00  0.00     0.210 HD
ENDBRANCH  19  24
BRANCH  20  26
HETATM   26  O6  UNL     1      14.182   7.405 -16.973  1.00  0.00    -0.390 OA
ATOM     27  H6  UNL     1      14.169   6.472 -17.155  1.00  0.00     0.210 HD
ENDBRANCH  20  26
BRANCH  21  28
HETATM   28  O7  UNL     1      12.123   5.614 -16.332  1.00  0.00    -0.388 OA
ATOM     29  H7  UNL     1      11.304   5.223 -16.052  1.00  0.00     0.210 HD
ENDBRANCH  21  28
ENDBRANCH   1  16
TORSDOF 10
ENDMDL
MODEL 4
REMARK VINA RESULT: -6.895650678      1.181      1.525
REMARK  10 active torsions:
REMARK  status: ('A' for Active; 'I' for Inactive)
REMARK    1  A    between atoms: O1_2  and  C2_3 
REMARK    2  A    between atoms: C3_5  and  O3_6 
REMARK    3  A    between atoms: O3_6  and  C4_7 
REMARK    4  A    between atoms: C5_9  and  S1_10 
REMARK    5  A    between atoms: C7_12  and  O5_13 
REMARK    6  A    between atoms: C8_15  and  O6_16 
REMARK    7  A    between atoms: C9_18  and  O7_19 
REMARK    8  A    between atoms: C10_21  and  O8_22 
REMARK    9  A    between atoms: C11_24  and  O9_25 
REMARK   10  A    between atoms: C12_27  and  O10_28 
ROOT
HETATM    1  O3  UNL     1       9.589   7.222 -17.361  1.00  0.00    -0.326 OA
ENDROOT
BRANCH   1   2
HETATM    2  C3  UNL     1       9.044   6.572 -16.228  1.00  0.00     0.297 C 
HETATM    3  O2  UNL     1       7.723   7.003 -16.149  1.00  0.00    -0.326 OA
HETATM    4  C2  UNL     1       7.079   6.521 -15.014  1.00  0.00     0.293 C 
HETATM    5  C12 UNL     1       7.413   5.073 -14.735  1.00  0.00     0.204 C 
HETATM    6  C11 UNL     1       7.888   4.363 -15.995  1.00  0.00     0.185 C 
HETATM    7  C10 UNL     1       9.152   5.086 -16.434  1.00  0.00     0.204 C 
BRANCH   4   8
HETATM    8  O1  UNL     1       7.355   7.252 -13.882  1.00  0.00    -0.363 OA
HETATM    9  C1  UNL     1       6.594   8.409 -13.780  1.00  0.00     0.204 C 
ENDBRANCH   4   8
BRANCH   5  10
HETATM   10  O10 UNL     1       6.361   4.394 -14.145  1.00  0.00    -0.388 OA
ATOM     11  H10 UNL     1       6.590   4.042 -13.293  1.00  0.00     0.210 HD
ENDBRANCH   5  10
BRANCH   6  12
HETATM   12  O9  UNL     1       8.236   3.068 -15.607  1.00  0.00    -0.390 OA
ATOM     13  H9  UNL     1       7.580   2.754 -14.995  1.00  0.00     0.210 HD
ENDBRANCH   6  12
BRANCH   7  14
HETATM   14  O8  UNL     1      10.177   4.594 -15.593  1.00  0.00    -0.388 OA
ATOM     15  H8  UNL     1      11.014   4.776 -16.004  1.00  0.00     0.210 HD
ENDBRANCH   7  14
ENDBRANCH   1   2
BRANCH   1  16
HETATM   16  C4  UNL     1      10.143   8.435 -17.035  1.00  0.00     0.295 C 
HETATM   17  O4  UNL     1       9.459   9.444 -17.707  1.00  0.00    -0.340 OA
HETATM   18  C5  UNL     1       9.797  10.708 -17.232  1.00  0.00     0.217 C 
HETATM   19  C7  UNL     1      11.265  11.003 -17.403  1.00  0.00     0.188 C 
HETATM   20  C8  UNL     1      12.146   9.872 -16.992  1.00  0.00     0.183 C 
HETATM   21  C9  UNL     1      11.595   8.521 -17.396  1.00  0.00     0.204 C 
BRANCH  18  22
HETATM   22  S1  UNL     1       9.270  10.924 -15.514  1.00  0.00    -0.139 SA
HETATM   23  C6  UNL     1       7.702  11.799 -15.400  1.00  0.00     0.092 C 
ENDBRANCH  18  22
BRANCH  19  24
HETATM   24  O5  UNL     1      11.589  12.154 -16.693  1.00  0.00    -0.389 OA
ATOM     25  H5  UNL     1      11.949  12.799 -17.289  1.00  0.00     0.210 HD
ENDBRANCH  19  24
BRANCH  20  26
HETATM   26  O6  UNL     1      13.374  10.023 -17.663  1.00  0.00    -0.390 OA
ATOM     27  H6  UNL     1      14.066   9.961 -17.015  1.00  0.00     0.210 HD
ENDBRANCH  20  26
BRANCH  21  28
HETATM   28  O7  UNL     1      12.371   7.556 -16.788  1.00  0.00    -0.388 OA
ATOM     29  H7  UNL     1      13.264   7.529 -17.110  1.00  0.00     0.210 HD
ENDBRANCH  21  28
ENDBRANCH   1  16
TORSDOF 10
ENDMDL
MODEL 5
REMARK VINA RESULT: -6.873398806      2.113      6.218
REMARK  10 active torsions:
REMARK  status: ('A' for Active; 'I' for Inactive)
REMARK    1  A    between atoms: O1_2  and  C2_3 
REMARK    2  A    between atoms: C3_5  and  O3_6 
REMARK    3  A    between atoms: O3_6  and  C4_7 
REMARK    4  A    between atoms: C5_9  and  S1_10 
REMARK    5  A    between atoms: C7_12  and  O5_13 
REMARK    6  A    between atoms: C8_15  and  O6_16 
REMARK    7  A    between atoms: C9_18  and  O7_19 
REMARK    8  A    between atoms: C10_21  and  O8_22 
REMARK    9  A    between atoms: C11_24  and  O9_25 
REMARK   10  A    between atoms: C12_27  and  O10_28 
ROOT
HETATM    1  O3  UNL     1       8.809   5.916 -17.334  1.00  0.00    -0.326 OA
ENDROOT
BRANCH   1   2
HETATM    2  C3  UNL     1       9.692   6.973 -17.011  1.00  0.00     0.297 C 
HETATM    3  O2  UNL     1      10.815   6.780 -17.809  1.00  0.00    -0.326 OA
HETATM    4  C2  UNL     1      11.824   7.695 -17.529  1.00  0.00     0.293 C 
HETATM    5  C12 UNL     1      11.290   9.093 -17.312  1.00  0.00     0.204 C 
HETATM    6  C11 UNL     1       9.931   9.272 -17.973  1.00  0.00     0.185 C 
HETATM    7  C10 UNL     1       9.000   8.277 -17.298  1.00  0.00     0.204 C 
BRANCH   4   8
HETATM    8  O1  UNL     1      12.581   7.349 -16.434  1.00  0.00    -0.363 OA
HETATM    9  C1  UNL     1      13.598   6.451 -16.733  1.00  0.00     0.204 C 
ENDBRANCH   4   8
BRANCH   5  10
HETATM   10  O10 UNL     1      12.181  10.067 -17.727  1.00  0.00    -0.388 OA
ATOM     11  H10 UNL     1      12.986  10.059 -17.223  1.00  0.00     0.210 HD
ENDBRANCH   5  10
BRANCH   6  12
HETATM   12  O9  UNL     1       9.505  10.561 -17.647  1.00  0.00    -0.390 OA
ATOM     13  H9  UNL     1       8.972  10.510 -16.862  1.00  0.00     0.210 HD
ENDBRANCH   6  12
BRANCH   7  14
HETATM   14  O8  UNL     1       8.644   8.872 -16.065  1.00  0.00    -0.388 OA
ATOM     15  H8  UNL     1       9.376   9.397 -15.764  1.00  0.00     0.210 HD
ENDBRANCH   7  14
ENDBRANCH   1   2
BRANCH   1  16
HETATM   16  C4  UNL     1       8.204   5.397 -16.217  1.00  0.00     0.295 C 
HETATM   17  O4  UNL     1       8.854   5.873 -15.083  1.00  0.00    -0.340 OA
HETATM   18  C5  UNL     1       8.144   5.596 -13.918  1.00  0.00     0.217 C 
HETATM   19  C7  UNL     1       7.955   4.115 -13.710  1.00  0.00     0.188 C 
HETATM   20  C8  UNL     1       7.531   3.395 -14.945  1.00  0.00     0.183 C 
HETATM   21  C9  UNL     1       8.230   3.899 -16.189  1.00  0.00     0.204 C 
BRANCH  18  22
HETATM   22  S1  UNL     1       6.565   6.479 -13.890  1.00  0.00    -0.139 SA
HETATM   23  C6  UNL     1       6.786   8.236 -13.566  1.00  0.00     0.092 C 
ENDBRANCH  18  22
BRANCH  19  24
HETATM   24  O5  UNL     1       7.036   3.909 -12.687  1.00  0.00    -0.389 OA
ATOM     25  H5  UNL     1       7.491   3.596 -11.914  1.00  0.00     0.210 HD
ENDBRANCH  19  24
BRANCH  20  26
HETATM   26  O6  UNL     1       7.897   2.044 -14.797  1.00  0.00    -0.390 OA
ATOM     27  H6  UNL     1       8.390   1.966 -13.988  1.00  0.00     0.210 HD
ENDBRANCH  20  26
BRANCH  21  28
HETATM   28  O7  UNL     1       7.615   3.317 -17.278  1.00  0.00    -0.388 OA
ATOM     29  H7  UNL     1       7.144   2.520 -17.066  1.00  0.00     0.210 HD
ENDBRANCH  21  28
ENDBRANCH   1  16
TORSDOF 10
ENDMDL
