MODEL 1
REMARK VINA RESULT: -5.674782695      0.000      0.000
REMARK  4 active torsions:
REMARK  status: ('A' for Active; 'I' for Inactive)
REMARK    1  A    between atoms: N1_1  and  C1_4 
REMARK    2  A    between atoms: C2_5  and  O1_6 
REMARK    3  A    between atoms: O1_6  and  N2_7 
REMARK       I    between atoms: C3_9  and  N4_11 
REMARK    4  A    between atoms: N4_11  and  C4_13 
ROOT
HETATM    1  N2  UNL     1      46.314  25.628  39.876  1.00  0.00    -0.223 N 
ATOM      2  H2  UNL     1      47.213  26.035  40.135  1.00  0.00     0.198 HD
HETATM    3  C3  UNL     1      45.734  24.800  40.670  1.00  0.00     0.215 C 
HETATM    4  N3  UNL     1      44.482  24.254  40.272  1.00  0.00    -0.061 NA
HETATM    5  N4  UNL     1      46.294  24.411  41.922  1.00  0.00    -0.314 N 
ATOM      6  H4  UNL     1      46.621  23.451  42.033  1.00  0.00     0.170 HD
ENDROOT
BRANCH   1   7
HETATM    7  O1  UNL     1      45.740  25.961  38.703  1.00  0.00    -0.181 OA
BRANCH   7   8
HETATM    8  C2  UNL     1      45.003  27.113  38.577  1.00  0.00     0.107 C 
HETATM    9  C1  UNL     1      44.362  28.142  38.480  1.00  0.00     0.036 C 
BRANCH   9  10
HETATM   10  N1  UNL     1      43.646  29.338  38.359  1.00  0.00    -0.357 N 
ATOM     11  H12 UNL     1      44.039  28.630  37.738  1.00  0.00     0.166 HD
ATOM     12  H11 UNL     1      43.123  30.211  38.289  1.00  0.00     0.166 HD
ENDBRANCH   9  10
ENDBRANCH   7   8
ENDBRANCH   1   7
BRANCH   5  13
HETATM   13  C4  UNL     1      46.403  25.216  42.918  1.00  0.00     0.123 A 
HETATM   14  C5  UNL     1      45.430  26.174  43.097  1.00  0.00     0.136 A 
HETATM   15  N5  UNL     1      45.469  27.067  44.126  1.00  0.00    -0.371 N 
HETATM   16  C6  UNL     1      46.491  27.014  44.996  1.00  0.00     0.104 A 
ATOM     17  H5  UNL     1      44.733  27.766  44.232  1.00  0.00     0.164 HD
HETATM   18  C7  UNL     1      47.468  26.080  44.844  1.00  0.00     0.106 A 
HETATM   19  N6  UNL     1      47.412  25.193  43.808  1.00  0.00    -0.350 N 
ATOM     20  H6  UNL     1      48.150  24.497  43.707  1.00  0.00     0.166 HD
ENDBRANCH   5  13
TORSDOF 4
ENDMDL
MODEL 2
REMARK VINA RESULT: -5.406949894      0.661      1.254
REMARK  4 active torsions:
REMARK  status: ('A' for Active; 'I' for Inactive)
REMARK    1  A    between atoms: N1_1  and  C1_4 
REMARK    2  A    between atoms: C2_5  and  O1_6 
REMARK    3  A    between atoms: O1_6  and  N2_7 
REMARK       I    between atoms: C3_9  and  N4_11 
REMARK    4  A    between atoms: N4_11  and  C4_13 
ROOT
HETATM    1  N2  UNL     1      46.297  25.666  39.811  1.00  0.00    -0.223 N 
ATOM      2  H2  UNL     1      47.213  26.023  40.084  1.00  0.00     0.198 HD
HETATM    3  C3  UNL     1      45.664  24.865  40.592  1.00  0.00     0.215 C 
HETATM    4  N3  UNL     1      44.390  24.388  40.175  1.00  0.00    -0.061 NA
HETATM    5  N4  UNL     1      46.185  24.441  41.849  1.00  0.00    -0.314 N 
ATOM      6  H4  UNL     1      46.461  23.465  41.959  1.00  0.00     0.170 HD
ENDROOT
BRANCH   1   7
HETATM    7  O1  UNL     1      45.757  26.035  38.633  1.00  0.00    -0.181 OA
BRANCH   7   8
HETATM    8  C2  UNL     1      45.001  27.176  38.527  1.00  0.00     0.107 C 
HETATM    9  C1  UNL     1      44.345  28.196  38.445  1.00  0.00     0.036 C 
BRANCH   9  10
HETATM   10  N1  UNL     1      43.609  29.382  38.339  1.00  0.00    -0.357 N 
ATOM     11  H12 UNL     1      44.548  29.102  38.620  1.00  0.00     0.166 HD
ATOM     12  H11 UNL     1      43.058  30.237  38.257  1.00  0.00     0.166 HD
ENDBRANCH   9  10
ENDBRANCH   7   8
ENDBRANCH   1   7
BRANCH   5  13
HETATM   13  C4  UNL     1      46.323  25.234  42.851  1.00  0.00     0.123 A 
HETATM   14  C5  UNL     1      47.430  25.087  43.657  1.00  0.00     0.136 A 
HETATM   15  N5  UNL     1      47.654  25.885  44.739  1.00  0.00    -0.371 N 
HETATM   16  C6  UNL     1      46.764  26.848  45.033  1.00  0.00     0.104 A 
ATOM     17  H5  UNL     1      48.483  25.752  45.317  1.00  0.00     0.164 HD
HETATM   18  C7  UNL     1      45.660  27.016  44.256  1.00  0.00     0.106 A 
HETATM   19  N6  UNL     1      45.453  26.208  43.175  1.00  0.00    -0.350 N 
ATOM     20  H6  UNL     1      44.622  26.345  42.601  1.00  0.00     0.166 HD
ENDBRANCH   5  13
TORSDOF 4
ENDMDL
MODEL 3
REMARK VINA RESULT: -4.884191376      2.403      5.810
REMARK  4 active torsions:
REMARK  status: ('A' for Active; 'I' for Inactive)
REMARK    1  A    between atoms: N1_1  and  C1_4 
REMARK    2  A    between atoms: C2_5  and  O1_6 
REMARK    3  A    between atoms: O1_6  and  N2_7 
REMARK       I    between atoms: C3_9  and  N4_11 
REMARK    4  A    between atoms: N4_11  and  C4_13 
ROOT
HETATM    1  N2  UNL     1      46.145  28.022  41.602  1.00  0.00    -0.223 N 
ATOM      2  H2  UNL     1      46.936  27.716  41.036  1.00  0.00     0.198 HD
HETATM    3  C3  UNL     1      45.014  28.268  41.041  1.00  0.00     0.215 C 
HETATM    4  N3  UNL     1      43.935  28.693  41.865  1.00  0.00    -0.061 NA
HETATM    5  N4  UNL     1      44.804  28.132  39.638  1.00  0.00    -0.314 N 
ATOM      6  H4  UNL     1      44.649  28.974  39.084  1.00  0.00     0.170 HD
ENDROOT
BRANCH   1   7
HETATM    7  O1  UNL     1      46.289  28.167  42.934  1.00  0.00    -0.181 OA
BRANCH   7   8
HETATM    8  C2  UNL     1      46.708  27.121  43.719  1.00  0.00     0.107 C 
HETATM    9  C1  UNL     1      47.090  26.208  44.425  1.00  0.00     0.036 C 
BRANCH   9  10
HETATM   10  N1  UNL     1      47.518  25.167  45.258  1.00  0.00    -0.357 N 
ATOM     11  H12 UNL     1      47.637  26.179  45.195  1.00  0.00     0.166 HD
ATOM     12  H11 UNL     1      47.821  24.398  45.855  1.00  0.00     0.166 HD
ENDBRANCH   9  10
ENDBRANCH   7   8
ENDBRANCH   1   7
BRANCH   5  13
HETATM   13  C4  UNL     1      44.800  26.995  39.040  1.00  0.00     0.123 A 
HETATM   14  C5  UNL     1      43.612  26.530  38.520  1.00  0.00     0.136 A 
HETATM   15  N5  UNL     1      43.519  25.334  37.872  1.00  0.00    -0.371 N 
HETATM   16  C6  UNL     1      44.623  24.581  37.733  1.00  0.00     0.104 A 
ATOM     17  H5  UNL     1      42.625  25.017  37.498  1.00  0.00     0.164 HD
HETATM   18  C7  UNL     1      45.811  25.013  38.237  1.00  0.00     0.106 A 
HETATM   19  N6  UNL     1      45.885  26.214  38.883  1.00  0.00    -0.350 N 
ATOM     20  H6  UNL     1      46.781  26.526  39.255  1.00  0.00     0.166 HD
ENDBRANCH   5  13
TORSDOF 4
ENDMDL
MODEL 4
REMARK VINA RESULT: -4.881712379     10.016     12.596
REMARK  4 active torsions:
REMARK  status: ('A' for Active; 'I' for Inactive)
REMARK    1  A    between atoms: N1_1  and  C1_4 
REMARK    2  A    between atoms: C2_5  and  O1_6 
REMARK    3  A    between atoms: O1_6  and  N2_7 
REMARK       I    between atoms: C3_9  and  N4_11 
REMARK    4  A    between atoms: N4_11  and  C4_13 
ROOT
HETATM    1  N2  UNL     1      43.549  33.730  49.622  1.00  0.00    -0.223 N 
ATOM      2  H2  UNL     1      43.382  33.623  48.622  1.00  0.00     0.198 HD
HETATM    3  C3  UNL     1      42.811  34.525  50.312  1.00  0.00     0.215 C 
HETATM    4  N3  UNL     1      43.077  34.646  51.705  1.00  0.00    -0.061 NA
HETATM    5  N4  UNL     1      41.748  35.282  49.741  1.00  0.00    -0.314 N 
ATOM      6  H4  UNL     1      41.847  36.295  49.683  1.00  0.00     0.170 HD
ENDROOT
BRANCH   1   7
HETATM    7  O1  UNL     1      44.542  33.037  50.214  1.00  0.00    -0.181 OA
BRANCH   7   8
HETATM    8  C2  UNL     1      45.604  32.559  49.486  1.00  0.00     0.107 C 
HETATM    9  C1  UNL     1      46.536  32.117  48.842  1.00  0.00     0.036 C 
BRANCH   9  10
HETATM   10  N1  UNL     1      47.593  31.602  48.083  1.00  0.00    -0.357 N 
ATOM     11  H12 UNL     1      46.649  31.952  47.919  1.00  0.00     0.166 HD
ATOM     12  H11 UNL     1      48.372  31.224  47.545  1.00  0.00     0.166 HD
ENDBRANCH   9  10
ENDBRANCH   7   8
ENDBRANCH   1   7
BRANCH   5  13
HETATM   13  C4  UNL     1      40.669  34.744  49.295  1.00  0.00     0.123 A 
HETATM   14  C5  UNL     1      40.623  34.363  47.972  1.00  0.00     0.136 A 
HETATM   15  N5  UNL     1      39.519  33.787  47.419  1.00  0.00    -0.371 N 
HETATM   16  C6  UNL     1      38.437  33.582  48.187  1.00  0.00     0.104 A 
ATOM     17  H5  UNL     1      39.516  33.515  46.436  1.00  0.00     0.164 HD
HETATM   18  C7  UNL     1      38.452  33.948  49.498  1.00  0.00     0.106 A 
HETATM   19  N6  UNL     1      39.567  34.524  50.035  1.00  0.00    -0.350 N 
ATOM     20  H6  UNL     1      39.565  34.793  51.018  1.00  0.00     0.166 HD
ENDBRANCH   5  13
TORSDOF 4
ENDMDL
MODEL 5
REMARK VINA RESULT: -4.770797849      2.403      5.932
REMARK  4 active torsions:
REMARK  status: ('A' for Active; 'I' for Inactive)
REMARK    1  A    between atoms: N1_1  and  C1_4 
REMARK    2  A    between atoms: C2_5  and  O1_6 
REMARK    3  A    between atoms: O1_6  and  N2_7 
REMARK       I    between atoms: C3_9  and  N4_11 
REMARK    4  A    between atoms: N4_11  and  C4_13 
ROOT
HETATM    1  N2  UNL     1      46.053  28.059  41.564  1.00  0.00    -0.223 N 
ATOM      2  H2  UNL     1      46.834  27.743  40.989  1.00  0.00     0.198 HD
HETATM    3  C3  UNL     1      44.923  28.332  41.015  1.00  0.00     0.215 C 
HETATM    4  N3  UNL     1      43.859  28.770  41.853  1.00  0.00    -0.061 NA
HETATM    5  N4  UNL     1      44.697  28.213  39.613  1.00  0.00    -0.314 N 
ATOM      6  H4  UNL     1      44.554  29.063  39.068  1.00  0.00     0.170 HD
ENDROOT
BRANCH   1   7
HETATM    7  O1  UNL     1      46.211  28.189  42.896  1.00  0.00    -0.181 OA
BRANCH   7   8
HETATM    8  C2  UNL     1      46.684  27.148  43.658  1.00  0.00     0.107 C 
HETATM    9  C1  UNL     1      47.117  26.239  44.339  1.00  0.00     0.036 C 
BRANCH   9  10
HETATM   10  N1  UNL     1      47.612  25.206  45.144  1.00  0.00    -0.357 N 
ATOM     11  H12 UNL     1      47.700  26.221  45.082  1.00  0.00     0.166 HD
ATOM     12  H11 UNL     1      47.964  24.442  45.720  1.00  0.00     0.166 HD
ENDBRANCH   9  10
ENDBRANCH   7   8
ENDBRANCH   1   7
BRANCH   5  13
HETATM   13  C4  UNL     1      44.667  27.081  39.005  1.00  0.00     0.123 A 
HETATM   14  C5  UNL     1      45.820  26.332  38.954  1.00  0.00     0.136 A 
HETATM   15  N5  UNL     1      45.875  25.122  38.329  1.00  0.00    -0.371 N 
HETATM   16  C6  UNL     1      44.767  24.641  37.741  1.00  0.00     0.104 A 
ATOM     17  H5  UNL     1      46.745  24.589  38.308  1.00  0.00     0.164 HD
HETATM   18  C7  UNL     1      43.612  25.360  37.773  1.00  0.00     0.106 A 
HETATM   19  N6  UNL     1      43.576  26.570  38.404  1.00  0.00    -0.350 N 
ATOM     20  H6  UNL     1      42.704  27.097  38.422  1.00  0.00     0.166 HD
ENDBRANCH   5  13
TORSDOF 4
ENDMDL
