MODEL 1
REMARK VINA RESULT: -5.271247373      0.000      0.000
REMARK  4 active torsions:
REMARK  status: ('A' for Active; 'I' for Inactive)
REMARK    1  A    between atoms: N1_2  and  C2_4 
REMARK    2  A    between atoms: C3_5  and  N2_6 
REMARK    3  A    between atoms: N3_12  and  O1_13 
REMARK    4  A    between atoms: C6_15  and  O2_16 
ROOT
HETATM    1  C2  UNL     1      45.669  27.308  42.091  1.00  0.00     0.120 C 
HETATM    2  C3  UNL     1      46.225  26.584  43.264  1.00  0.00     0.211 C 
HETATM    3  C4  UNL     1      46.398  25.152  42.838  1.00  0.00     0.090 C 
HETATM    4  C5  UNL     1      45.532  25.049  41.621  1.00  0.00     0.028 C 
HETATM    5  N3  UNL     1      44.786  24.656  40.716  1.00  0.00    -0.238 N 
HETATM    6  C6  UNL     1      44.675  25.943  40.122  1.00  0.00     0.260 C 
HETATM    7  C8  UNL     1      45.758  26.349  40.960  1.00  0.00     0.109 C 
ENDROOT
BRANCH   2   8
HETATM    8  N2  UNL     1      47.520  27.108  43.680  1.00  0.00    -0.073 N 
ATOM      9  H23 UNL     1      47.516  27.351  44.671  1.00  0.00     0.274 HD
ATOM     10  H22 UNL     1      48.227  26.373  43.694  1.00  0.00     0.274 HD
ATOM     11  H21 UNL     1      47.822  27.898  43.110  1.00  0.00     0.274 HD
ENDBRANCH   2   8
BRANCH   1  12
HETATM   12  N1  UNL     1      44.466  28.005  42.306  1.00  0.00    -0.418 N 
HETATM   13  C1  UNL     1      44.075  29.019  41.400  1.00  0.00     0.140 C 
ATOM     14  H1  UNL     1      43.880  27.780  43.109  1.00  0.00     0.153 HD
ENDBRANCH   1  12
BRANCH   6  15
HETATM   15  O2  UNL     1      45.031  25.979  38.753  1.00  0.00    -0.368 OA
HETATM   16  C7  UNL     1      43.918  25.838  37.939  1.00  0.00     0.204 C 
ENDBRANCH   6  15
BRANCH   5  17
HETATM   17  O1  UNL     1      44.238  23.381  40.497  1.00  0.00    -0.285 OA
ATOM     18  H1  UNL     1      44.264  22.608  41.050  1.00  0.00     0.245 HD
ENDBRANCH   5  17
TORSDOF 4
ENDMDL
MODEL 2
REMARK VINA RESULT: -5.125668847      1.517      1.728
REMARK  4 active torsions:
REMARK  status: ('A' for Active; 'I' for Inactive)
REMARK    1  A    between atoms: N1_2  and  C2_4 
REMARK    2  A    between atoms: C3_5  and  N2_6 
REMARK    3  A    between atoms: N3_12  and  O1_13 
REMARK    4  A    between atoms: C6_15  and  O2_16 
ROOT
HETATM    1  C2  UNL     1      46.075  26.737  42.284  1.00  0.00     0.120 C 
HETATM    2  C3  UNL     1      46.455  25.397  42.804  1.00  0.00     0.211 C 
HETATM    3  C4  UNL     1      46.337  24.442  41.650  1.00  0.00     0.090 C 
HETATM    4  C5  UNL     1      45.484  25.190  40.672  1.00  0.00     0.028 C 
HETATM    5  N3  UNL     1      44.686  25.507  39.782  1.00  0.00    -0.238 N 
HETATM    6  C6  UNL     1      44.849  26.902  40.005  1.00  0.00     0.260 C 
HETATM    7  C8  UNL     1      45.981  26.573  40.811  1.00  0.00     0.109 C 
ENDROOT
BRANCH   2   8
HETATM    8  N2  UNL     1      47.824  25.362  43.304  1.00  0.00    -0.073 N 
ATOM      9  H23 UNL     1      48.485  25.663  42.587  1.00  0.00     0.274 HD
ATOM     10  H22 UNL     1      47.984  26.096  43.993  1.00  0.00     0.274 HD
ATOM     11  H21 UNL     1      48.079  24.447  43.677  1.00  0.00     0.274 HD
ENDBRANCH   2   8
BRANCH   1  12
HETATM   12  N1  UNL     1      45.038  27.396  42.968  1.00  0.00    -0.418 N 
HETATM   13  C1  UNL     1      44.721  27.014  44.293  1.00  0.00     0.140 C 
ATOM     14  H1  UNL     1      44.517  28.145  42.511  1.00  0.00     0.153 HD
ENDBRANCH   1  12
BRANCH   6  15
HETATM   15  O2  UNL     1      45.223  27.631  38.850  1.00  0.00    -0.368 OA
HETATM   16  C7  UNL     1      44.175  28.410  38.384  1.00  0.00     0.204 C 
ENDBRANCH   6  15
BRANCH   5  17
HETATM   17  O1  UNL     1      43.892  24.691  38.959  1.00  0.00    -0.285 OA
ATOM     18  H1  UNL     1      43.525  24.872  38.101  1.00  0.00     0.245 HD
ENDBRANCH   5  17
TORSDOF 4
ENDMDL
MODEL 3
REMARK VINA RESULT: -4.841337403      2.543      4.482
REMARK  4 active torsions:
REMARK  status: ('A' for Active; 'I' for Inactive)
REMARK    1  A    between atoms: N1_2  and  C2_4 
REMARK    2  A    between atoms: C3_5  and  N2_6 
REMARK    3  A    between atoms: N3_12  and  O1_13 
REMARK    4  A    between atoms: C6_15  and  O2_16 
ROOT
HETATM    1  C2  UNL     1      45.775  25.410  40.555  1.00  0.00     0.120 C 
HETATM    2  C3  UNL     1      45.377  25.760  39.166  1.00  0.00     0.211 C 
HETATM    3  C4  UNL     1      45.200  27.253  39.136  1.00  0.00     0.090 C 
HETATM    4  C5  UNL     1      45.071  27.611  40.584  1.00  0.00     0.028 C 
HETATM    5  N3  UNL     1      44.779  28.147  41.660  1.00  0.00    -0.238 N 
HETATM    6  C6  UNL     1      45.451  27.165  42.438  1.00  0.00     0.260 C 
HETATM    7  C8  UNL     1      46.048  26.708  41.223  1.00  0.00     0.109 C 
ENDROOT
BRANCH   2   8
HETATM    8  N2  UNL     1      46.391  25.389  38.187  1.00  0.00    -0.073 N 
ATOM      9  H23 UNL     1      46.942  24.594  38.511  1.00  0.00     0.274 HD
ATOM     10  H22 UNL     1      45.967  24.967  37.360  1.00  0.00     0.274 HD
ATOM     11  H21 UNL     1      46.992  26.173  37.932  1.00  0.00     0.274 HD
ENDBRANCH   2   8
BRANCH   1  12
HETATM   12  N1  UNL     1      44.971  24.459  41.209  1.00  0.00    -0.418 N 
HETATM   13  C1  UNL     1      43.853  23.910  40.538  1.00  0.00     0.140 C 
ATOM     14  H1  UNL     1      45.192  24.167  42.161  1.00  0.00     0.153 HD
ENDBRANCH   1  12
BRANCH   6  15
HETATM   15  O2  UNL     1      46.417  27.694  43.328  1.00  0.00    -0.368 OA
HETATM   16  C7  UNL     1      46.503  26.936  44.486  1.00  0.00     0.204 C 
ENDBRANCH   6  15
BRANCH   5  17
HETATM   17  O1  UNL     1      43.987  29.280  41.911  1.00  0.00    -0.285 OA
ATOM     18  H1  UNL     1      43.711  29.654  42.740  1.00  0.00     0.245 HD
ENDBRANCH   5  17
TORSDOF 4
ENDMDL
MODEL 4
REMARK VINA RESULT: -4.400805063      1.630      2.968
REMARK  4 active torsions:
REMARK  status: ('A' for Active; 'I' for Inactive)
REMARK    1  A    between atoms: N1_2  and  C2_4 
REMARK    2  A    between atoms: C3_5  and  N2_6 
REMARK    3  A    between atoms: N3_12  and  O1_13 
REMARK    4  A    between atoms: C6_15  and  O2_16 
ROOT
HETATM    1  C2  UNL     1      45.839  25.551  42.584  1.00  0.00     0.120 C 
HETATM    2  C3  UNL     1      46.092  26.848  43.265  1.00  0.00     0.211 C 
HETATM    3  C4  UNL     1      45.700  27.925  42.291  1.00  0.00     0.090 C 
HETATM    4  C5  UNL     1      45.670  27.205  40.979  1.00  0.00     0.028 C 
HETATM    5  N3  UNL     1      45.729  26.904  39.781  1.00  0.00    -0.238 N 
HETATM    6  C6  UNL     1      45.464  25.528  40.018  1.00  0.00     0.260 C 
HETATM    7  C8  UNL     1      45.094  25.897  41.347  1.00  0.00     0.109 C 
ENDROOT
BRANCH   2   8
HETATM    8  N2  UNL     1      45.301  27.004  44.479  1.00  0.00    -0.073 N 
ATOM      9  H23 UNL     1      45.412  27.938  44.873  1.00  0.00     0.274 HD
ATOM     10  H22 UNL     1      44.303  27.034  44.267  1.00  0.00     0.274 HD
ATOM     11  H21 UNL     1      45.507  26.285  45.173  1.00  0.00     0.274 HD
ENDBRANCH   2   8
BRANCH   1  12
HETATM   12  N1  UNL     1      46.932  24.670  42.502  1.00  0.00    -0.418 N 
HETATM   13  C1  UNL     1      47.968  24.751  43.462  1.00  0.00     0.140 C 
ATOM     14  H1  UNL     1      46.978  23.978  41.754  1.00  0.00     0.153 HD
ENDBRANCH   1  12
BRANCH   6  15
HETATM   15  O2  UNL     1      44.361  25.019  39.290  1.00  0.00    -0.368 OA
HETATM   16  C7  UNL     1      44.694  24.794  37.963  1.00  0.00     0.204 C 
ENDBRANCH   6  15
BRANCH   5  17
HETATM   17  O1  UNL     1      46.039  27.706  38.669  1.00  0.00    -0.285 OA
ATOM     18  H1  UNL     1      46.041  27.486  37.745  1.00  0.00     0.245 HD
ENDBRANCH   5  17
TORSDOF 4
ENDMDL
MODEL 5
REMARK VINA RESULT: -3.989505775      2.415      3.988
REMARK  4 active torsions:
REMARK  status: ('A' for Active; 'I' for Inactive)
REMARK    1  A    between atoms: N1_2  and  C2_4 
REMARK    2  A    between atoms: C3_5  and  N2_6 
REMARK    3  A    between atoms: N3_12  and  O1_13 
REMARK    4  A    between atoms: C6_15  and  O2_16 
ROOT
HETATM    1  C2  UNL     1      44.646  26.613  40.044  1.00  0.00     0.120 C 
HETATM    2  C3  UNL     1      44.475  25.425  39.167  1.00  0.00     0.211 C 
HETATM    3  C4  UNL     1      44.797  24.223  40.012  1.00  0.00     0.090 C 
HETATM    4  C5  UNL     1      45.550  24.807  41.166  1.00  0.00     0.028 C 
HETATM    5  N3  UNL     1      46.318  24.998  42.116  1.00  0.00    -0.238 N 
HETATM    6  C6  UNL     1      45.916  26.351  42.290  1.00  0.00     0.260 C 
HETATM    7  C8  UNL     1      44.824  26.068  41.413  1.00  0.00     0.109 C 
ENDROOT
BRANCH   2   8
HETATM    8  N2  UNL     1      43.113  25.294  38.665  1.00  0.00    -0.073 N 
ATOM      9  H23 UNL     1      43.022  24.481  38.056  1.00  0.00     0.274 HD
ATOM     10  H22 UNL     1      42.473  25.013  39.408  1.00  0.00     0.274 HD
ATOM     11  H21 UNL     1      42.786  26.141  38.199  1.00  0.00     0.274 HD
ENDBRANCH   2   8
BRANCH   1  12
HETATM   12  N1  UNL     1      45.531  27.603  39.579  1.00  0.00    -0.418 N 
HETATM   13  C1  UNL     1      45.203  28.347  38.422  1.00  0.00     0.140 C 
ATOM     14  H1  UNL     1      46.405  27.782  40.074  1.00  0.00     0.153 HD
ENDBRANCH   1  12
BRANCH   6  15
HETATM   15  O2  UNL     1      45.470  26.658  43.598  1.00  0.00    -0.368 OA
HETATM   16  C7  UNL     1      46.536  26.934  44.441  1.00  0.00     0.204 C 
ENDBRANCH   6  15
BRANCH   5  17
HETATM   17  O1  UNL     1      47.269  24.135  42.688  1.00  0.00    -0.285 OA
ATOM     18  H1  UNL     1      47.211  23.204  42.865  1.00  0.00     0.245 HD
ENDBRANCH   5  17
TORSDOF 4
ENDMDL
