MODEL 1
REMARK VINA RESULT: -1.155369608      0.000      0.000
REMARK  3 active torsions:
REMARK  status: ('A' for Active; 'I' for Inactive)
REMARK    1  A    between atoms: C3_3  and  N1_4 
REMARK    2  A    between atoms: C9_10  and  N2_11 
REMARK    3  A    between atoms: C10_15  and  N3_16 
ROOT
HETATM    1  C1  UNL     1      46.902  24.327  42.128  1.00  0.00     0.015 C 
HETATM    2  C2  UNL     1      46.275  25.235  41.641  1.00  0.00    -0.075 C 
HETATM    3  C3  UNL     1      45.525  26.362  41.036  1.00  0.00     0.219 C 
HETATM    4  C7  UNL     1      46.371  26.938  39.931  1.00  0.00     0.057 C 
HETATM    5  C8  UNL     1      45.711  26.551  38.624  1.00  0.00     0.038 C 
HETATM    6  C9  UNL     1      44.980  25.271  39.048  1.00  0.00     0.217 C 
HETATM    7  C10 UNL     1      44.330  25.764  40.349  1.00  0.00     0.262 C 
ENDROOT
BRANCH   3   8
HETATM    8  N1  UNL     1      45.209  27.284  42.074  1.00  0.00    -0.057 N 
HETATM    9  C4  UNL     1      44.298  28.331  41.689  1.00  0.00     0.273 C 
HETATM   10  C5  UNL     1      46.451  27.950  42.501  1.00  0.00     0.273 C 
HETATM   11  C6  UNL     1      44.672  26.659  43.270  1.00  0.00     0.273 C 
ENDBRANCH   3   8
BRANCH   7  12
HETATM   12  N3  UNL     1      43.750  24.686  41.099  1.00  0.00    -0.070 N 
ATOM     13  H33 UNL     1      42.813  24.466  40.761  1.00  0.00     0.274 HD
ATOM     14  H32 UNL     1      44.212  23.802  40.889  1.00  0.00     0.274 HD
ATOM     15  H31 UNL     1      43.745  24.869  42.103  1.00  0.00     0.274 HD
ENDBRANCH   7  12
BRANCH   6  16
HETATM   16  N2  UNL     1      44.025  24.868  38.077  1.00  0.00    -0.073 N 
ATOM     17  H23 UNL     1      43.086  24.826  38.473  1.00  0.00     0.274 HD
ATOM     18  H22 UNL     1      43.872  25.598  37.381  1.00  0.00     0.274 HD
ATOM     19  H21 UNL     1      44.285  23.983  37.640  1.00  0.00     0.274 HD
ENDBRANCH   6  16
TORSDOF 3
ENDMDL
MODEL 2
REMARK VINA RESULT: -1.082759097      1.424      2.932
REMARK  3 active torsions:
REMARK  status: ('A' for Active; 'I' for Inactive)
REMARK    1  A    between atoms: C3_3  and  N1_4 
REMARK    2  A    between atoms: C9_10  and  N2_11 
REMARK    3  A    between atoms: C10_15  and  N3_16 
ROOT
HETATM    1  C1  UNL     1      44.021  28.761  41.442  1.00  0.00     0.015 C 
HETATM    2  C2  UNL     1      44.625  27.721  41.524  1.00  0.00    -0.075 C 
HETATM    3  C3  UNL     1      45.349  26.432  41.636  1.00  0.00     0.219 C 
HETATM    4  C7  UNL     1      44.324  25.328  41.658  1.00  0.00     0.057 C 
HETATM    5  C8  UNL     1      44.423  24.609  40.329  1.00  0.00     0.038 C 
HETATM    6  C9  UNL     1      44.973  25.733  39.442  1.00  0.00     0.217 C 
HETATM    7  C10 UNL     1      46.101  26.248  40.348  1.00  0.00     0.262 C 
ENDROOT
BRANCH   3   8
HETATM    8  N1  UNL     1      46.172  26.491  42.796  1.00  0.00    -0.057 N 
HETATM    9  C4  UNL     1      46.963  25.312  43.031  1.00  0.00     0.273 C 
HETATM   10  C5  UNL     1      45.305  26.652  43.976  1.00  0.00     0.273 C 
HETATM   11  C6  UNL     1      47.073  27.630  42.819  1.00  0.00     0.273 C 
ENDBRANCH   3   8
BRANCH   7  12
HETATM   12  N3  UNL     1      46.662  27.476  39.861  1.00  0.00    -0.070 N 
ATOM     13  H33 UNL     1      46.531  27.566  38.853  1.00  0.00     0.274 HD
ATOM     14  H32 UNL     1      46.111  28.278  40.168  1.00  0.00     0.274 HD
ATOM     15  H31 UNL     1      47.643  27.584  40.115  1.00  0.00     0.274 HD
ENDBRANCH   7  12
BRANCH   6  16
HETATM   16  N2  UNL     1      45.450  25.236  38.201  1.00  0.00    -0.073 N 
ATOM     17  H23 UNL     1      45.576  24.224  38.229  1.00  0.00     0.274 HD
ATOM     18  H22 UNL     1      44.732  25.287  37.478  1.00  0.00     0.274 HD
ATOM     19  H21 UNL     1      46.306  25.709  37.910  1.00  0.00     0.274 HD
ENDBRANCH   6  16
TORSDOF 3
ENDMDL
MODEL 3
REMARK VINA RESULT: -0.991689116      0.085      1.103
REMARK  3 active torsions:
REMARK  status: ('A' for Active; 'I' for Inactive)
REMARK    1  A    between atoms: C3_3  and  N1_4 
REMARK    2  A    between atoms: C9_10  and  N2_11 
REMARK    3  A    between atoms: C10_15  and  N3_16 
ROOT
HETATM    1  C1  UNL     1      46.941  24.251  42.080  1.00  0.00     0.015 C 
HETATM    2  C2  UNL     1      46.308  25.175  41.632  1.00  0.00    -0.075 C 
HETATM    3  C3  UNL     1      45.550  26.322  41.076  1.00  0.00     0.219 C 
HETATM    4  C7  UNL     1      46.368  26.916  39.959  1.00  0.00     0.057 C 
HETATM    5  C8  UNL     1      45.667  26.565  38.664  1.00  0.00     0.038 C 
HETATM    6  C9  UNL     1      44.937  25.281  39.080  1.00  0.00     0.217 C 
HETATM    7  C10 UNL     1      44.331  25.749  40.411  1.00  0.00     0.262 C 
ENDROOT
BRANCH   3   8
HETATM    8  N1  UNL     1      45.272  27.222  42.143  1.00  0.00    -0.057 N 
HETATM    9  C4  UNL     1      44.607  26.627  43.272  1.00  0.00     0.273 C 
HETATM   10  C5  UNL     1      44.376  28.278  41.641  1.00  0.00     0.273 C 
HETATM   11  C6  UNL     1      46.445  27.915  42.646  1.00  0.00     0.273 C 
ENDBRANCH   3   8
BRANCH   7  12
HETATM   12  N3  UNL     1      43.763  24.659  41.153  1.00  0.00    -0.070 N 
ATOM     13  H33 UNL     1      43.351  24.985  42.027  1.00  0.00     0.274 HD
ATOM     14  H32 UNL     1      42.922  24.303  40.698  1.00  0.00     0.274 HD
ATOM     15  H31 UNL     1      44.435  23.910  41.320  1.00  0.00     0.274 HD
ENDBRANCH   7  12
BRANCH   6  16
HETATM   16  N2  UNL     1      43.952  24.908  38.129  1.00  0.00    -0.073 N 
ATOM     17  H23 UNL     1      44.345  24.316  37.398  1.00  0.00     0.274 HD
ATOM     18  H22 UNL     1      43.282  24.249  38.526  1.00  0.00     0.274 HD
ATOM     19  H21 UNL     1      43.482  25.724  37.734  1.00  0.00     0.274 HD
ENDBRANCH   6  16
TORSDOF 3
ENDMDL
MODEL 4
REMARK VINA RESULT: -0.989658239      1.434      2.796
REMARK  3 active torsions:
REMARK  status: ('A' for Active; 'I' for Inactive)
REMARK    1  A    between atoms: C3_3  and  N1_4 
REMARK    2  A    between atoms: C9_10  and  N2_11 
REMARK    3  A    between atoms: C10_15  and  N3_16 
ROOT
HETATM    1  C1  UNL     1      43.993  28.787  41.494  1.00  0.00     0.015 C 
HETATM    2  C2  UNL     1      44.608  27.753  41.580  1.00  0.00    -0.075 C 
HETATM    3  C3  UNL     1      45.345  26.472  41.697  1.00  0.00     0.219 C 
HETATM    4  C7  UNL     1      44.333  25.357  41.706  1.00  0.00     0.057 C 
HETATM    5  C8  UNL     1      44.454  24.642  40.377  1.00  0.00     0.038 C 
HETATM    6  C9  UNL     1      45.000  25.774  39.498  1.00  0.00     0.217 C 
HETATM    7  C10 UNL     1      46.113  26.299  40.417  1.00  0.00     0.262 C 
ENDROOT
BRANCH   3   8
HETATM    8  N1  UNL     1      46.155  26.538  42.866  1.00  0.00    -0.057 N 
HETATM    9  C4  UNL     1      47.140  27.588  42.855  1.00  0.00     0.273 C 
HETATM   10  C5  UNL     1      46.899  25.273  42.991  1.00  0.00     0.273 C 
HETATM   11  C6  UNL     1      45.398  26.667  44.098  1.00  0.00     0.273 C 
ENDBRANCH   3   8
BRANCH   7  12
HETATM   12  N3  UNL     1      46.664  27.535  39.937  1.00  0.00    -0.070 N 
ATOM     13  H33 UNL     1      46.439  28.306  40.565  1.00  0.00     0.274 HD
ATOM     14  H32 UNL     1      47.680  27.544  40.027  1.00  0.00     0.274 HD
ATOM     15  H31 UNL     1      46.378  27.745  38.981  1.00  0.00     0.274 HD
ENDBRANCH   7  12
BRANCH   6  16
HETATM   16  N2  UNL     1      45.496  25.284  38.261  1.00  0.00    -0.073 N 
ATOM     17  H23 UNL     1      45.518  24.265  38.246  1.00  0.00     0.274 HD
ATOM     18  H22 UNL     1      44.829  25.441  37.505  1.00  0.00     0.274 HD
ATOM     19  H21 UNL     1      46.410  25.679  38.040  1.00  0.00     0.274 HD
ENDBRANCH   6  16
TORSDOF 3
ENDMDL
MODEL 5
REMARK VINA RESULT: -0.819193867      1.782      3.769
REMARK  3 active torsions:
REMARK  status: ('A' for Active; 'I' for Inactive)
REMARK    1  A    between atoms: C3_3  and  N1_4 
REMARK    2  A    between atoms: C9_10  and  N2_11 
REMARK    3  A    between atoms: C10_15  and  N3_16 
ROOT
HETATM    1  C1  UNL     1      43.677  23.842  40.849  1.00  0.00     0.015 C 
HETATM    2  C2  UNL     1      44.402  24.806  40.819  1.00  0.00    -0.075 C 
HETATM    3  C3  UNL     1      45.272  26.005  40.785  1.00  0.00     0.219 C 
HETATM    4  C7  UNL     1      44.588  27.094  41.569  1.00  0.00     0.057 C 
HETATM    5  C8  UNL     1      45.370  27.271  42.854  1.00  0.00     0.038 C 
HETATM    6  C9  UNL     1      45.982  25.872  43.003  1.00  0.00     0.217 C 
HETATM    7  C10 UNL     1      46.505  25.664  41.575  1.00  0.00     0.262 C 
ENDROOT
BRANCH   3   8
HETATM    8  N1  UNL     1      45.517  26.330  39.421  1.00  0.00    -0.057 N 
HETATM    9  C4  UNL     1      46.186  27.588  39.214  1.00  0.00     0.273 C 
HETATM   10  C5  UNL     1      44.222  26.429  38.725  1.00  0.00     0.273 C 
HETATM   11  C6  UNL     1      46.268  25.315  38.702  1.00  0.00     0.273 C 
ENDBRANCH   3   8
BRANCH   7  12
HETATM   12  N3  UNL     1      46.940  24.314  41.354  1.00  0.00    -0.070 N 
ATOM     13  H33 UNL     1      46.330  23.834  40.693  1.00  0.00     0.274 HD
ATOM     14  H32 UNL     1      47.809  24.291  40.821  1.00  0.00     0.274 HD
ATOM     15  H31 UNL     1      47.027  23.787  42.223  1.00  0.00     0.274 HD
ENDBRANCH   7  12
BRANCH   6  16
HETATM   16  N2  UNL     1      47.018  25.855  43.974  1.00  0.00    -0.073 N 
ATOM     17  H23 UNL     1      47.939  25.861  43.536  1.00  0.00     0.274 HD
ATOM     18  H22 UNL     1      47.073  26.742  44.475  1.00  0.00     0.274 HD
ATOM     19  H21 UNL     1      46.917  25.069  44.617  1.00  0.00     0.274 HD
ENDBRANCH   6  16
TORSDOF 3
ENDMDL
