MODEL 1
REMARK VINA RESULT: -5.347455393      0.000      0.000
REMARK  4 active torsions:
REMARK  status: ('A' for Active; 'I' for Inactive)
REMARK    1  A    between atoms: N1_2  and  C3_5 
REMARK    2  A    between atoms: C3_5  and  N3_7 
REMARK    3  A    between atoms: N3_7  and  N4_9 
REMARK    4  A    between atoms: N4_9  and  C4_11 
ROOT
HETATM    1  C1  UNL     1      46.304  25.041  42.457  1.00  0.00     0.171 C 
HETATM    2  N1  UNL     1      46.136  26.435  42.744  1.00  0.00    -0.264 N 
HETATM    3  C2  UNL     1      46.341  26.902  44.034  1.00  0.00     0.186 C 
HETATM    4  N2  UNL     1      46.525  27.280  45.116  1.00  0.00    -0.172 NA
ENDROOT
BRANCH   2   5
HETATM    5  C3  UNL     1      45.765  27.320  41.704  1.00  0.00     0.201 C 
HETATM    6  S1  UNL     1      44.467  28.291  41.966  1.00  0.00    -0.038 SA
BRANCH   5   7
HETATM    7  N3  UNL     1      46.461  27.392  40.475  1.00  0.00    -0.274 N 
ATOM      8  H3  UNL     1      47.480  27.462  40.464  1.00  0.00     0.189 HD
BRANCH   7   9
HETATM    9  N4  UNL     1      45.749  27.366  39.284  1.00  0.00    -0.276 N 
ATOM     10  H4  UNL     1      45.481  28.241  38.832  1.00  0.00     0.189 HD
BRANCH   9  11
HETATM   11  C4  UNL     1      45.390  26.119  38.690  1.00  0.00     0.199 C 
HETATM   12  N5  UNL     1      46.402  25.209  38.278  1.00  0.00    -0.068 NA
HETATM   13  S2  UNL     1      43.841  25.695  38.464  1.00  0.00    -0.043 SA
ENDBRANCH   9  11
ENDBRANCH   7   9
ENDBRANCH   5   7
ENDBRANCH   2   5
TORSDOF 4
ENDMDL
MODEL 2
REMARK VINA RESULT: -5.252262138      0.957      1.338
REMARK  4 active torsions:
REMARK  status: ('A' for Active; 'I' for Inactive)
REMARK    1  A    between atoms: N1_2  and  C3_5 
REMARK    2  A    between atoms: C3_5  and  N3_7 
REMARK    3  A    between atoms: N3_7  and  N4_9 
REMARK    4  A    between atoms: N4_9  and  C4_11 
ROOT
HETATM    1  C1  UNL     1      46.713  24.766  42.711  1.00  0.00     0.171 C 
HETATM    2  N1  UNL     1      46.325  26.139  42.841  1.00  0.00    -0.264 N 
HETATM    3  C2  UNL     1      46.462  26.782  44.062  1.00  0.00     0.186 C 
HETATM    4  N2  UNL     1      46.593  27.309  45.089  1.00  0.00    -0.172 NA
ENDROOT
BRANCH   2   5
HETATM    5  C3  UNL     1      45.807  26.826  41.717  1.00  0.00     0.201 C 
HETATM    6  S1  UNL     1      44.900  28.165  42.001  1.00  0.00    -0.038 SA
BRANCH   5   7
HETATM    7  N3  UNL     1      46.041  26.403  40.387  1.00  0.00    -0.274 N 
ATOM      8  H3  UNL     1      46.500  25.510  40.205  1.00  0.00     0.189 HD
BRANCH   7   9
HETATM    9  N4  UNL     1      45.640  27.212  39.333  1.00  0.00    -0.276 N 
ATOM     10  H4  UNL     1      46.222  27.999  39.046  1.00  0.00     0.189 HD
BRANCH   9  11
HETATM   11  C4  UNL     1      44.415  26.945  38.650  1.00  0.00     0.199 C 
HETATM   12  N5  UNL     1      43.588  28.022  38.226  1.00  0.00    -0.068 NA
HETATM   13  S2  UNL     1      43.925  25.432  38.334  1.00  0.00    -0.043 SA
ENDBRANCH   9  11
ENDBRANCH   7   9
ENDBRANCH   5   7
ENDBRANCH   2   5
TORSDOF 4
ENDMDL
MODEL 3
REMARK VINA RESULT: -4.923132719      1.636      4.761
REMARK  4 active torsions:
REMARK  status: ('A' for Active; 'I' for Inactive)
REMARK    1  A    between atoms: N1_2  and  C3_5 
REMARK    2  A    between atoms: C3_5  and  N3_7 
REMARK    3  A    between atoms: N3_7  and  N4_9 
REMARK    4  A    between atoms: N4_9  and  C4_11 
ROOT
HETATM    1  C1  UNL     1      44.040  28.057  38.605  1.00  0.00     0.171 C 
HETATM    2  N1  UNL     1      45.001  27.346  39.396  1.00  0.00    -0.264 N 
HETATM    3  C2  UNL     1      45.671  26.260  38.854  1.00  0.00     0.186 C 
HETATM    4  N2  UNL     1      46.232  25.359  38.383  1.00  0.00    -0.172 NA
ENDROOT
BRANCH   2   5
HETATM    5  C3  UNL     1      45.255  27.764  40.724  1.00  0.00     0.201 C 
HETATM    6  S1  UNL     1      44.104  28.672  41.464  1.00  0.00    -0.038 SA
BRANCH   5   7
HETATM    7  N3  UNL     1      46.442  27.431  41.417  1.00  0.00    -0.274 N 
ATOM      8  H3  UNL     1      47.173  26.888  40.955  1.00  0.00     0.189 HD
BRANCH   7   9
HETATM    9  N4  UNL     1      46.606  27.849  42.730  1.00  0.00    -0.276 N 
ATOM     10  H4  UNL     1      46.611  28.845  42.950  1.00  0.00     0.189 HD
BRANCH   9  11
HETATM   11  C4  UNL     1      46.769  26.889  43.774  1.00  0.00     0.199 C 
HETATM   12  N5  UNL     1      46.804  27.312  45.131  1.00  0.00    -0.068 NA
HETATM   13  S2  UNL     1      46.917  25.304  43.461  1.00  0.00    -0.043 SA
ENDBRANCH   9  11
ENDBRANCH   7   9
ENDBRANCH   5   7
ENDBRANCH   2   5
TORSDOF 4
ENDMDL
MODEL 4
REMARK VINA RESULT: -4.820181565      1.714      2.195
REMARK  4 active torsions:
REMARK  status: ('A' for Active; 'I' for Inactive)
REMARK    1  A    between atoms: N1_2  and  C3_5 
REMARK    2  A    between atoms: C3_5  and  N3_7 
REMARK    3  A    between atoms: N3_7  and  N4_9 
REMARK    4  A    between atoms: N4_9  and  C4_11 
ROOT
HETATM    1  C1  UNL     1      44.991  27.776  42.288  1.00  0.00     0.171 C 
HETATM    2  N1  UNL     1      45.777  26.811  42.999  1.00  0.00    -0.264 N 
HETATM    3  C2  UNL     1      46.215  27.091  44.285  1.00  0.00     0.186 C 
HETATM    4  N2  UNL     1      46.566  27.336  45.364  1.00  0.00    -0.172 NA
ENDROOT
BRANCH   2   5
HETATM    5  C3  UNL     1      46.098  25.580  42.379  1.00  0.00     0.201 C 
HETATM    6  S1  UNL     1      47.303  24.688  43.046  1.00  0.00    -0.038 SA
BRANCH   5   7
HETATM    7  N3  UNL     1      45.427  25.107  41.226  1.00  0.00    -0.274 N 
ATOM      8  H3  UNL     1      44.550  24.592  41.317  1.00  0.00     0.189 HD
BRANCH   7   9
HETATM    9  N4  UNL     1      45.970  25.348  39.973  1.00  0.00    -0.276 N 
ATOM     10  H4  UNL     1      46.849  24.904  39.705  1.00  0.00     0.189 HD
BRANCH   9  11
HETATM   11  C4  UNL     1      45.302  26.214  39.056  1.00  0.00     0.199 C 
HETATM   12  N5  UNL     1      45.836  27.502  38.775  1.00  0.00    -0.068 NA
HETATM   13  S2  UNL     1      43.931  25.774  38.310  1.00  0.00    -0.043 SA
ENDBRANCH   9  11
ENDBRANCH   7   9
ENDBRANCH   5   7
ENDBRANCH   2   5
TORSDOF 4
ENDMDL
MODEL 5
REMARK VINA RESULT: -4.763266383      1.924      2.397
REMARK  4 active torsions:
REMARK  status: ('A' for Active; 'I' for Inactive)
REMARK    1  A    between atoms: N1_2  and  C3_5 
REMARK    2  A    between atoms: C3_5  and  N3_7 
REMARK    3  A    between atoms: N3_7  and  N4_9 
REMARK    4  A    between atoms: N4_9  and  C4_11 
ROOT
HETATM    1  C1  UNL     1      46.654  25.314  43.158  1.00  0.00     0.171 C 
HETATM    2  N1  UNL     1      46.160  26.078  42.050  1.00  0.00    -0.264 N 
HETATM    3  C2  UNL     1      46.072  27.458  42.148  1.00  0.00     0.186 C 
HETATM    4  N2  UNL     1      46.015  28.614  42.242  1.00  0.00    -0.172 NA
ENDROOT
BRANCH   2   5
HETATM    5  C3  UNL     1      45.767  25.411  40.865  1.00  0.00     0.201 C 
HETATM    6  S1  UNL     1      44.686  24.183  41.012  1.00  0.00    -0.038 SA
BRANCH   5   7
HETATM    7  N3  UNL     1      46.265  25.761  39.588  1.00  0.00    -0.274 N 
ATOM      8  H3  UNL     1      47.215  26.120  39.488  1.00  0.00     0.189 HD
BRANCH   7   9
HETATM    9  N4  UNL     1      45.452  25.613  38.474  1.00  0.00    -0.276 N 
ATOM     10  H4  UNL     1      45.744  25.005  37.708  1.00  0.00     0.189 HD
BRANCH   9  11
HETATM   11  C4  UNL     1      44.208  26.308  38.396  1.00  0.00     0.199 C 
HETATM   12  N5  UNL     1      43.012  25.596  38.102  1.00  0.00    -0.068 NA
HETATM   13  S2  UNL     1      44.108  27.909  38.634  1.00  0.00    -0.043 SA
ENDBRANCH   9  11
ENDBRANCH   7   9
ENDBRANCH   5   7
ENDBRANCH   2   5
TORSDOF 4
ENDMDL
