MODEL 1
REMARK VINA RESULT: -4.690463427      0.000      0.000
REMARK  2 active torsions:
REMARK  status: ('A' for Active; 'I' for Inactive)
REMARK       I    between atoms: N1_2  and  C3_4 
REMARK       I    between atoms: C3_4  and  N4_9 
REMARK    1  A    between atoms: N4_9  and  N5_11 
REMARK    2  A    between atoms: N5_11  and  C5_13 
ROOT
HETATM    1  C1  UNL     1      43.463  25.892  38.809  1.00  0.00     0.168 C 
HETATM    2  N1  UNL     1      44.288  27.067  39.033  1.00  0.00    -0.225 N 
HETATM    3  C2  UNL     1      43.868  28.279  38.323  1.00  0.00     0.168 C 
HETATM    4  C3  UNL     1      45.423  27.051  39.881  1.00  0.00     0.703 C 
HETATM    5  N2  UNL     1      46.424  26.273  39.607  1.00  0.00    -0.125 N 
ATOM      6  H2  UNL     1      47.231  26.279  40.232  1.00  0.00     0.197 HD
HETATM    7  C4  UNL     1      46.447  25.435  38.505  1.00  0.00     0.196 C 
HETATM    8  N3  UNL     1      46.462  24.749  37.579  1.00  0.00    -0.171 NA
HETATM    9  N4  UNL     1      45.472  27.884  41.032  1.00  0.00    -0.130 N 
ATOM     10  H4  UNL     1      44.817  28.661  41.119  1.00  0.00     0.205 HD
ENDROOT
BRANCH   9  11
HETATM   11  N5  UNL     1      46.397  27.653  42.036  1.00  0.00    -0.264 N 
ATOM     12  H5  UNL     1      47.211  28.264  42.104  1.00  0.00     0.189 HD
BRANCH  11  13
HETATM   13  C5  UNL     1      46.258  26.600  42.974  1.00  0.00     0.200 C 
HETATM   14  N6  UNL     1      45.964  25.268  42.535  1.00  0.00    -0.068 NA
HETATM   15  S1  UNL     1      46.415  26.812  44.580  1.00  0.00    -0.043 SA
ENDBRANCH  11  13
ENDBRANCH   9  11
TORSDOF 2
ENDMDL
MODEL 2
REMARK VINA RESULT: -4.499150987      1.701      2.923
REMARK  2 active torsions:
REMARK  status: ('A' for Active; 'I' for Inactive)
REMARK       I    between atoms: N1_2  and  C3_4 
REMARK       I    between atoms: C3_4  and  N4_9 
REMARK    1  A    between atoms: N4_9  and  N5_11 
REMARK    2  A    between atoms: N5_11  and  C5_13 
ROOT
HETATM    1  C1  UNL     1      45.730  25.309  38.679  1.00  0.00     0.168 C 
HETATM    2  N1  UNL     1      45.315  25.076  40.053  1.00  0.00    -0.225 N 
HETATM    3  C2  UNL     1      44.326  24.011  40.242  1.00  0.00     0.168 C 
HETATM    4  C3  UNL     1      45.827  25.824  41.141  1.00  0.00     0.703 C 
HETATM    5  N2  UNL     1      45.638  27.106  41.191  1.00  0.00    -0.125 N 
ATOM      6  H2  UNL     1      46.016  27.624  41.985  1.00  0.00     0.197 HD
HETATM    7  C4  UNL     1      44.944  27.803  40.216  1.00  0.00     0.196 C 
HETATM    8  N3  UNL     1      44.357  28.374  39.405  1.00  0.00    -0.171 NA
HETATM    9  N4  UNL     1      46.550  25.178  42.180  1.00  0.00    -0.130 N 
ATOM     10  H4  UNL     1      46.493  24.164  42.277  1.00  0.00     0.205 HD
ENDROOT
BRANCH   9  11
HETATM   11  N5  UNL     1      47.331  25.907  43.062  1.00  0.00    -0.264 N 
ATOM     12  H5  UNL     1      48.260  26.203  42.764  1.00  0.00     0.189 HD
BRANCH  11  13
HETATM   13  C5  UNL     1      46.890  26.255  44.362  1.00  0.00     0.200 C 
HETATM   14  N6  UNL     1      47.623  25.833  45.518  1.00  0.00    -0.068 NA
HETATM   15  S1  UNL     1      45.552  27.140  44.639  1.00  0.00    -0.043 SA
ENDBRANCH  11  13
ENDBRANCH   9  11
TORSDOF 2
ENDMDL
MODEL 3
REMARK VINA RESULT: -4.442311930      1.633      2.804
REMARK  2 active torsions:
REMARK  status: ('A' for Active; 'I' for Inactive)
REMARK       I    between atoms: N1_2  and  C3_4 
REMARK       I    between atoms: C3_4  and  N4_9 
REMARK    1  A    between atoms: N4_9  and  N5_11 
REMARK    2  A    between atoms: N5_11  and  C5_13 
ROOT
HETATM    1  C1  UNL     1      45.918  25.591  38.544  1.00  0.00     0.168 C 
HETATM    2  N1  UNL     1      45.315  25.470  39.861  1.00  0.00    -0.225 N 
HETATM    3  C2  UNL     1      44.459  24.297  40.057  1.00  0.00     0.168 C 
HETATM    4  C3  UNL     1      45.536  26.417  40.891  1.00  0.00     0.703 C 
HETATM    5  N2  UNL     1      45.172  27.651  40.724  1.00  0.00    -0.125 N 
ATOM      6  H2  UNL     1      45.341  28.316  41.480  1.00  0.00     0.197 HD
HETATM    7  C4  UNL     1      44.565  28.106  39.565  1.00  0.00     0.196 C 
HETATM    8  N3  UNL     1      44.050  28.475  38.602  1.00  0.00    -0.171 NA
HETATM    9  N4  UNL     1      46.155  26.024  42.108  1.00  0.00    -0.130 N 
ATOM     10  H4  UNL     1      46.217  25.034  42.344  1.00  0.00     0.205 HD
ENDROOT
BRANCH   9  11
HETATM   11  N5  UNL     1      46.674  26.968  42.978  1.00  0.00    -0.264 N 
ATOM     12  H5  UNL     1      46.954  27.876  42.607  1.00  0.00     0.189 HD
BRANCH  11  13
HETATM   13  C5  UNL     1      46.833  26.722  44.364  1.00  0.00     0.200 C 
HETATM   14  N6  UNL     1      46.347  27.661  45.331  1.00  0.00    -0.068 NA
HETATM   15  S1  UNL     1      47.557  25.389  44.954  1.00  0.00    -0.043 SA
ENDBRANCH  11  13
ENDBRANCH   9  11
TORSDOF 2
ENDMDL
MODEL 4
REMARK VINA RESULT: -4.356902126     10.275     11.864
REMARK  2 active torsions:
REMARK  status: ('A' for Active; 'I' for Inactive)
REMARK       I    between atoms: N1_2  and  C3_4 
REMARK       I    between atoms: C3_4  and  N4_9 
REMARK    1  A    between atoms: N4_9  and  N5_11 
REMARK    2  A    between atoms: N5_11  and  C5_13 
ROOT
HETATM    1  C1  UNL     1      45.835  31.833  50.286  1.00  0.00     0.168 C 
HETATM    2  N1  UNL     1      45.502  32.631  49.118  1.00  0.00    -0.225 N 
HETATM    3  C2  UNL     1      46.641  33.070  48.307  1.00  0.00     0.168 C 
HETATM    4  C3  UNL     1      44.168  32.967  48.780  1.00  0.00     0.703 C 
HETATM    5  N2  UNL     1      43.451  33.675  49.597  1.00  0.00    -0.125 N 
ATOM      6  H2  UNL     1      42.493  33.905  49.332  1.00  0.00     0.197 HD
HETATM    7  C4  UNL     1      43.930  34.133  50.814  1.00  0.00     0.196 C 
HETATM    8  N3  UNL     1      44.339  34.520  51.820  1.00  0.00    -0.171 NA
HETATM    9  N4  UNL     1      43.608  32.532  47.548  1.00  0.00    -0.130 N 
ATOM     10  H4  UNL     1      44.222  32.197  46.807  1.00  0.00     0.205 HD
ENDROOT
BRANCH   9  11
HETATM   11  N5  UNL     1      42.238  32.558  47.342  1.00  0.00    -0.264 N 
ATOM     12  H5  UNL     1      41.696  31.718  47.544  1.00  0.00     0.189 HD
BRANCH  11  13
HETATM   13  C5  UNL     1      41.561  33.706  46.862  1.00  0.00     0.200 C 
HETATM   14  N6  UNL     1      41.939  34.308  45.617  1.00  0.00    -0.068 NA
HETATM   15  S1  UNL     1      40.333  34.414  47.662  1.00  0.00    -0.043 SA
ENDBRANCH  11  13
ENDBRANCH   9  11
TORSDOF 2
ENDMDL
MODEL 5
REMARK VINA RESULT: -4.135585956      1.442      2.595
REMARK  2 active torsions:
REMARK  status: ('A' for Active; 'I' for Inactive)
REMARK       I    between atoms: N1_2  and  C3_4 
REMARK       I    between atoms: C3_4  and  N4_9 
REMARK    1  A    between atoms: N4_9  and  N5_11 
REMARK    2  A    between atoms: N5_11  and  C5_13 
ROOT
HETATM    1  C1  UNL     1      45.246  25.058  38.177  1.00  0.00     0.168 C 
HETATM    2  N1  UNL     1      44.850  25.035  39.575  1.00  0.00    -0.225 N 
HETATM    3  C2  UNL     1      43.712  24.170  39.895  1.00  0.00     0.168 C 
HETATM    4  C3  UNL     1      45.516  25.796  40.568  1.00  0.00     0.703 C 
HETATM    5  N2  UNL     1      45.535  27.090  40.487  1.00  0.00    -0.125 N 
ATOM      6  H2  UNL     1      46.020  27.617  41.214  1.00  0.00     0.197 HD
HETATM    7  C4  UNL     1      44.926  27.789  39.457  1.00  0.00     0.196 C 
HETATM    8  N3  UNL     1      44.408  28.364  38.602  1.00  0.00    -0.171 NA
HETATM    9  N4  UNL     1      46.163  25.149  41.654  1.00  0.00    -0.130 N 
ATOM     10  H4  UNL     1      45.949  24.173  41.859  1.00  0.00     0.205 HD
ENDROOT
BRANCH   9  11
HETATM   11  N5  UNL     1      47.083  25.826  42.439  1.00  0.00    -0.264 N 
ATOM     12  H5  UNL     1      48.077  25.702  42.246  1.00  0.00     0.189 HD
BRANCH  11  13
HETATM   13  C5  UNL     1      46.696  26.683  43.498  1.00  0.00     0.200 C 
HETATM   14  N6  UNL     1      46.008  27.911  43.228  1.00  0.00    -0.068 NA
HETATM   15  S1  UNL     1      46.992  26.351  45.064  1.00  0.00    -0.043 SA
ENDBRANCH  11  13
ENDBRANCH   9  11
TORSDOF 2
ENDMDL
