MODEL 1
REMARK VINA RESULT: -7.009360258      0.000      0.000
REMARK  1 active torsions:
REMARK  status: ('A' for Active; 'I' for Inactive)
REMARK       I    between atoms: C2_4  and  N2_5 
REMARK       I    between atoms: C2_4  and  N5_15 
REMARK    1  A    between atoms: N2_5  and  C3_7 
ROOT
HETATM    1  C1  UNL     1      58.194  28.727  48.445  1.00  0.00     0.165 C 
HETATM    2  N1  UNL     1      57.729  28.822  47.085  1.00  0.00    -0.230 N 
ATOM      3  H1  UNL     1      58.089  29.583  46.510  1.00  0.00     0.177 HD
HETATM    4  C2  UNL     1      56.894  28.014  46.551  1.00  0.00     0.688 C 
HETATM    5  N2  UNL     1      56.498  28.188  45.209  1.00  0.00    -0.175 N 
ATOM      6  H2  UNL     1      55.699  28.780  44.978  1.00  0.00     0.186 HD
HETATM    7  N5  UNL     1      56.348  26.934  47.281  1.00  0.00    -0.126 N 
ATOM      8  H5  UNL     1      56.985  26.228  47.652  1.00  0.00     0.197 HD
HETATM    9  C7  UNL     1      54.968  26.784  47.520  1.00  0.00     0.196 C 
HETATM   10  N6  UNL     1      53.830  26.674  47.721  1.00  0.00    -0.171 NA
ENDROOT
BRANCH   5  11
HETATM   11  C3  UNL     1      57.158  27.592  44.277  1.00  0.00     0.135 A 
HETATM   12  C4  UNL     1      56.522  26.912  43.255  1.00  0.00     0.052 A 
HETATM   13  C5  UNL     1      57.257  26.294  42.290  1.00  0.00     0.022 A 
HETATM   14  C6  UNL     1      58.631  26.336  42.317  1.00  0.00     0.107 A 
HETATM   15  N3  UNL     1      59.191  27.014  43.340  1.00  0.00    -0.310 N 
HETATM   16  N4  UNL     1      58.502  27.614  44.277  1.00  0.00    -0.285 N 
ATOM     17  H3  UNL     1      60.208  27.061  43.386  1.00  0.00     0.186 HD
ATOM     18  H4  UNL     1      58.994  28.109  45.021  1.00  0.00     0.188 HD
ENDBRANCH   5  11
TORSDOF 1
ENDMDL
MODEL 2
REMARK VINA RESULT: -5.793634290      1.120      1.322
REMARK  1 active torsions:
REMARK  status: ('A' for Active; 'I' for Inactive)
REMARK       I    between atoms: C2_4  and  N2_5 
REMARK       I    between atoms: C2_4  and  N5_15 
REMARK    1  A    between atoms: N2_5  and  C3_7 
ROOT
HETATM    1  C1  UNL     1      58.167  28.618  48.274  1.00  0.00     0.165 C 
HETATM    2  N1  UNL     1      57.636  28.702  46.938  1.00  0.00    -0.230 N 
ATOM      3  H1  UNL     1      57.976  29.453  46.336  1.00  0.00     0.177 HD
HETATM    4  C2  UNL     1      56.766  27.898  46.456  1.00  0.00     0.688 C 
HETATM    5  N2  UNL     1      56.306  28.062  45.132  1.00  0.00    -0.175 N 
ATOM      6  H2  UNL     1      55.504  28.661  44.934  1.00  0.00     0.186 HD
HETATM    7  N5  UNL     1      56.245  26.834  47.224  1.00  0.00    -0.126 N 
ATOM      8  H5  UNL     1      56.891  26.124  47.572  1.00  0.00     0.197 HD
HETATM    9  C7  UNL     1      54.877  26.704  47.533  1.00  0.00     0.196 C 
HETATM   10  N6  UNL     1      53.749  26.609  47.792  1.00  0.00    -0.171 NA
ENDROOT
BRANCH   5  11
HETATM   11  C3  UNL     1      56.912  27.447  44.177  1.00  0.00     0.135 A 
HETATM   12  C4  UNL     1      58.280  27.543  44.001  1.00  0.00     0.052 A 
HETATM   13  C5  UNL     1      58.882  26.877  42.977  1.00  0.00     0.022 A 
HETATM   14  C6  UNL     1      58.146  26.105  42.111  1.00  0.00     0.107 A 
HETATM   15  N3  UNL     1      56.816  26.053  42.335  1.00  0.00    -0.310 N 
HETATM   16  N4  UNL     1      56.220  26.685  43.313  1.00  0.00    -0.285 N 
ATOM     17  H3  UNL     1      56.245  25.488  41.707  1.00  0.00     0.186 HD
ATOM     18  H4  UNL     1      55.209  26.599  43.422  1.00  0.00     0.188 HD
ENDBRANCH   5  11
TORSDOF 1
ENDMDL
MODEL 3
REMARK VINA RESULT: -5.666594626      1.694      2.911
REMARK  1 active torsions:
REMARK  status: ('A' for Active; 'I' for Inactive)
REMARK       I    between atoms: C2_4  and  N2_5 
REMARK       I    between atoms: C2_4  and  N5_15 
REMARK    1  A    between atoms: N2_5  and  C3_7 
ROOT
HETATM    1  C1  UNL     1      53.876  27.007  48.042  1.00  0.00     0.165 C 
HETATM    2  N1  UNL     1      54.999  26.411  47.366  1.00  0.00    -0.230 N 
ATOM      3  H1  UNL     1      54.943  25.421  47.128  1.00  0.00     0.177 HD
HETATM    4  C2  UNL     1      56.064  27.042  47.044  1.00  0.00     0.688 C 
HETATM    5  N2  UNL     1      57.113  26.371  46.381  1.00  0.00    -0.175 N 
ATOM      6  H2  UNL     1      57.845  25.903  46.915  1.00  0.00     0.186 HD
HETATM    7  N5  UNL     1      56.221  28.415  47.338  1.00  0.00    -0.126 N 
ATOM      8  H5  UNL     1      55.557  29.077  46.935  1.00  0.00     0.197 HD
HETATM    9  C7  UNL     1      57.250  28.914  48.160  1.00  0.00     0.196 C 
HETATM   10  N6  UNL     1      58.095  29.317  48.847  1.00  0.00    -0.171 NA
ENDROOT
BRANCH   5  11
HETATM   11  C3  UNL     1      57.133  26.357  45.093  1.00  0.00     0.135 A 
HETATM   12  C4  UNL     1      57.983  27.174  44.370  1.00  0.00     0.052 A 
HETATM   13  C5  UNL     1      57.973  27.128  43.009  1.00  0.00     0.022 A 
HETATM   14  C6  UNL     1      57.126  26.277  42.340  1.00  0.00     0.107 A 
HETATM   15  N3  UNL     1      56.322  25.507  43.102  1.00  0.00    -0.310 N 
HETATM   16  N4  UNL     1      56.317  25.536  44.411  1.00  0.00    -0.285 N 
ATOM     17  H3  UNL     1      55.683  24.867  42.632  1.00  0.00     0.186 HD
ATOM     18  H4  UNL     1      55.681  24.925  44.922  1.00  0.00     0.188 HD
ENDBRANCH   5  11
TORSDOF 1
ENDMDL
MODEL 4
REMARK VINA RESULT: -5.541617651      1.173      2.565
REMARK  1 active torsions:
REMARK  status: ('A' for Active; 'I' for Inactive)
REMARK       I    between atoms: C2_4  and  N2_5 
REMARK       I    between atoms: C2_4  and  N5_15 
REMARK    1  A    between atoms: N2_5  and  C3_7 
ROOT
HETATM    1  C1  UNL     1      54.097  26.946  47.894  1.00  0.00     0.165 C 
HETATM    2  N1  UNL     1      55.248  26.428  47.200  1.00  0.00    -0.230 N 
ATOM      3  H1  UNL     1      55.230  25.450  46.910  1.00  0.00     0.177 HD
HETATM    4  C2  UNL     1      56.292  27.113  46.925  1.00  0.00     0.688 C 
HETATM    5  N2  UNL     1      57.371  26.516  46.240  1.00  0.00    -0.175 N 
ATOM      6  H2  UNL     1      58.115  26.046  46.757  1.00  0.00     0.186 HD
HETATM    7  N5  UNL     1      56.397  28.473  47.293  1.00  0.00    -0.126 N 
ATOM      8  H5  UNL     1      55.713  29.131  46.918  1.00  0.00     0.197 HD
HETATM    9  C7  UNL     1      57.399  28.963  48.153  1.00  0.00     0.196 C 
HETATM   10  N6  UNL     1      58.222  29.358  48.871  1.00  0.00    -0.171 NA
ENDROOT
BRANCH   5  11
HETATM   11  C3  UNL     1      57.405  26.571  44.953  1.00  0.00     0.135 A 
HETATM   12  C4  UNL     1      56.333  26.170  44.179  1.00  0.00     0.052 A 
HETATM   13  C5  UNL     1      56.410  26.244  42.821  1.00  0.00     0.022 A 
HETATM   14  C6  UNL     1      57.545  26.715  42.206  1.00  0.00     0.107 A 
HETATM   15  N3  UNL     1      58.556  27.090  43.017  1.00  0.00    -0.310 N 
HETATM   16  N4  UNL     1      58.501  27.027  44.323  1.00  0.00    -0.285 N 
ATOM     17  H3  UNL     1      59.411  27.444  42.588  1.00  0.00     0.186 HD
ATOM     18  H4  UNL     1      59.305  27.328  44.873  1.00  0.00     0.188 HD
ENDBRANCH   5  11
TORSDOF 1
ENDMDL
MODEL 5
REMARK VINA RESULT: -5.531294837      1.365      2.727
REMARK  1 active torsions:
REMARK  status: ('A' for Active; 'I' for Inactive)
REMARK       I    between atoms: C2_4  and  N2_5 
REMARK       I    between atoms: C2_4  and  N5_15 
REMARK    1  A    between atoms: N2_5  and  C3_7 
ROOT
HETATM    1  C1  UNL     1      54.747  26.767  46.927  1.00  0.00     0.165 C 
HETATM    2  N1  UNL     1      55.928  26.349  46.217  1.00  0.00    -0.230 N 
ATOM      3  H1  UNL     1      56.069  25.349  46.073  1.00  0.00     0.177 HD
HETATM    4  C2  UNL     1      56.811  27.149  45.754  1.00  0.00     0.688 C 
HETATM    5  N2  UNL     1      57.936  26.644  45.069  1.00  0.00    -0.175 N 
ATOM      6  H2  UNL     1      58.783  26.394  45.581  1.00  0.00     0.186 HD
HETATM    7  N5  UNL     1      56.690  28.548  45.912  1.00  0.00    -0.126 N 
ATOM      8  H5  UNL     1      55.876  29.013  45.508  1.00  0.00     0.197 HD
HETATM    9  C7  UNL     1      57.637  29.331  46.600  1.00  0.00     0.196 C 
HETATM   10  N6  UNL     1      58.418  29.968  47.177  1.00  0.00    -0.171 NA
ENDROOT
BRANCH   5  11
HETATM   11  C3  UNL     1      57.880  26.501  43.791  1.00  0.00     0.135 A 
HETATM   12  C4  UNL     1      56.675  26.460  43.115  1.00  0.00     0.052 A 
HETATM   13  C5  UNL     1      56.660  26.307  41.762  1.00  0.00     0.022 A 
HETATM   14  C6  UNL     1      57.832  26.192  41.054  1.00  0.00     0.107 A 
HETATM   15  N3  UNL     1      58.974  26.238  41.771  1.00  0.00    -0.310 N 
HETATM   16  N4  UNL     1      59.009  26.385  43.071  1.00  0.00    -0.285 N 
ATOM     17  H3  UNL     1      59.859  26.154  41.272  1.00  0.00     0.186 HD
ATOM     18  H4  UNL     1      59.911  26.411  43.548  1.00  0.00     0.188 HD
ENDBRANCH   5  11
TORSDOF 1
ENDMDL
