MODEL 1
REMARK VINA RESULT: -5.233694054      0.000      0.000
REMARK  5 active torsions:
REMARK  status: ('A' for Active; 'I' for Inactive)
REMARK    1  A    between atoms: C3_3  and  N1_4 
REMARK    2  A    between atoms: N1_4  and  C4_6 
REMARK    3  A    between atoms: C4_6  and  N2_7 
REMARK    4  A    between atoms: C4_6  and  C5_11 
REMARK    5  A    between atoms: C5_11  and  N3_12 
ROOT
HETATM    1  N1  UNL     1      57.204  27.401  43.599  1.00  0.00    -0.346 N 
ATOM      2  H1  UNL     1      56.815  28.126  42.996  1.00  0.00     0.163 HD
ENDROOT
BRANCH   1   3
HETATM    3  C3  UNL     1      56.999  27.460  44.896  1.00  0.00     0.133 A 
HETATM    4  C2  UNL     1      55.878  26.986  45.461  1.00  0.00     0.059 A 
HETATM    5  C1  UNL     1      54.732  26.337  44.703  1.00  0.00     0.073 C 
HETATM    6  N5  UNL     1      55.769  27.095  46.786  1.00  0.00    -0.308 N 
HETATM    7  S1  UNL     1      57.205  27.847  47.230  1.00  0.00     0.070 SA
HETATM    8  C6  UNL     1      54.694  26.684  47.675  1.00  0.00     0.166 C 
HETATM    9  N4  UNL     1      57.912  28.003  45.706  1.00  0.00    -0.297 N 
ATOM     10  H4  UNL     1      58.815  28.412  45.463  1.00  0.00     0.177 HD
ENDBRANCH   1   3
BRANCH   1  11
HETATM   11  C4  UNL     1      57.968  26.329  43.018  1.00  0.00     0.308 C 
BRANCH  11  12
HETATM   12  N2  UNL     1      59.363  26.666  42.969  1.00  0.00    -0.057 N 
ATOM     13  H23 UNL     1      59.525  27.641  43.219  1.00  0.00     0.276 HD
ATOM     14  H22 UNL     1      59.884  26.224  43.725  1.00  0.00     0.276 HD
ATOM     15  H21 UNL     1      59.758  26.440  42.056  1.00  0.00     0.276 HD
ENDBRANCH  11  12
BRANCH  11  16
HETATM   16  C5  UNL     1      57.498  25.998  41.616  1.00  0.00     0.283 C 
BRANCH  16  17
HETATM   17  N3  UNL     1      58.573  26.003  40.664  1.00  0.00    -0.076 N 
ATOM     18  H33 UNL     1      58.683  26.924  40.239  1.00  0.00     0.274 HD
ATOM     19  H32 UNL     1      59.477  25.928  41.130  1.00  0.00     0.274 HD
ATOM     20  H31 UNL     1      58.465  25.280  39.953  1.00  0.00     0.274 HD
ENDBRANCH  16  17
ENDBRANCH  11  16
ENDBRANCH   1  11
TORSDOF 5
ENDMDL
MODEL 2
REMARK VINA RESULT: -5.130882470      1.671      2.450
REMARK  5 active torsions:
REMARK  status: ('A' for Active; 'I' for Inactive)
REMARK    1  A    between atoms: C3_3  and  N1_4 
REMARK    2  A    between atoms: N1_4  and  C4_6 
REMARK    3  A    between atoms: C4_6  and  N2_7 
REMARK    4  A    between atoms: C4_6  and  C5_11 
REMARK    5  A    between atoms: C5_11  and  N3_12 
ROOT
HETATM    1  N1  UNL     1      56.751  26.012  44.277  1.00  0.00    -0.346 N 
ATOM      2  H1  UNL     1      56.900  25.004  44.227  1.00  0.00     0.163 HD
ENDROOT
BRANCH   1   3
HETATM    3  C3  UNL     1      56.399  26.558  45.419  1.00  0.00     0.133 A 
HETATM    4  C2  UNL     1      57.220  27.373  46.101  1.00  0.00     0.059 A 
HETATM    5  C1  UNL     1      58.620  27.762  45.657  1.00  0.00     0.073 C 
HETATM    6  N5  UNL     1      56.766  27.875  47.250  1.00  0.00    -0.308 N 
HETATM    7  S1  UNL     1      55.224  27.219  47.373  1.00  0.00     0.070 SA
HETATM    8  C6  UNL     1      57.407  28.771  48.200  1.00  0.00     0.166 C 
HETATM    9  N4  UNL     1      55.197  26.316  45.948  1.00  0.00    -0.297 N 
ATOM     10  H4  UNL     1      54.447  25.730  45.581  1.00  0.00     0.177 HD
ENDBRANCH   1   3
BRANCH   1  11
HETATM   11  C4  UNL     1      56.930  26.814  43.096  1.00  0.00     0.308 C 
BRANCH  11  12
HETATM   12  N2  UNL     1      55.663  27.118  42.490  1.00  0.00    -0.057 N 
ATOM     13  H23 UNL     1      55.271  26.308  42.010  1.00  0.00     0.276 HD
ATOM     14  H22 UNL     1      54.933  27.252  43.188  1.00  0.00     0.276 HD
ATOM     15  H21 UNL     1      55.744  27.923  41.868  1.00  0.00     0.276 HD
ENDBRANCH  11  12
BRANCH  11  16
HETATM   16  C5  UNL     1      57.805  26.122  42.072  1.00  0.00     0.283 C 
BRANCH  16  17
HETATM   17  N3  UNL     1      59.204  26.257  42.368  1.00  0.00    -0.076 N 
ATOM     18  H33 UNL     1      59.761  25.604  41.816  1.00  0.00     0.274 HD
ATOM     19  H32 UNL     1      59.574  27.135  42.004  1.00  0.00     0.274 HD
ATOM     20  H31 UNL     1      59.402  26.159  43.364  1.00  0.00     0.274 HD
ENDBRANCH  16  17
ENDBRANCH  11  16
ENDBRANCH   1  11
TORSDOF 5
ENDMDL
MODEL 3
REMARK VINA RESULT: -5.118711614      1.782      4.676
REMARK  5 active torsions:
REMARK  status: ('A' for Active; 'I' for Inactive)
REMARK    1  A    between atoms: C3_3  and  N1_4 
REMARK    2  A    between atoms: N1_4  and  C4_6 
REMARK    3  A    between atoms: C4_6  and  N2_7 
REMARK    4  A    between atoms: C4_6  and  C5_11 
REMARK    5  A    between atoms: C5_11  and  N3_12 
ROOT
HETATM    1  N1  UNL     1      56.743  27.038  46.664  1.00  0.00    -0.346 N 
ATOM      2  H1  UNL     1      56.814  26.198  47.238  1.00  0.00     0.163 HD
ENDROOT
BRANCH   1   3
HETATM    3  C3  UNL     1      57.300  27.057  45.474  1.00  0.00     0.133 A 
HETATM    4  C2  UNL     1      56.650  26.637  44.378  1.00  0.00     0.059 A 
HETATM    5  C1  UNL     1      55.228  26.101  44.364  1.00  0.00     0.073 C 
HETATM    6  N5  UNL     1      57.307  26.698  43.218  1.00  0.00    -0.308 N 
HETATM    7  S1  UNL     1      58.801  27.329  43.655  1.00  0.00     0.070 SA
HETATM    8  C6  UNL     1      56.880  26.322  41.879  1.00  0.00     0.166 C 
HETATM    9  N4  UNL     1      58.550  27.500  45.314  1.00  0.00    -0.297 N 
ATOM     10  H4  UNL     1      59.194  27.855  46.021  1.00  0.00     0.177 HD
ENDBRANCH   1   3
BRANCH   1  11
HETATM   11  C4  UNL     1      56.034  28.184  47.169  1.00  0.00     0.308 C 
BRANCH  11  12
HETATM   12  N2  UNL     1      56.853  28.926  48.086  1.00  0.00    -0.057 N 
ATOM     13  H23 UNL     1      56.290  29.449  48.757  1.00  0.00     0.276 HD
ATOM     14  H22 UNL     1      57.340  28.313  48.739  1.00  0.00     0.276 HD
ATOM     15  H21 UNL     1      57.501  29.533  47.583  1.00  0.00     0.276 HD
ENDBRANCH  11  12
BRANCH  11  16
HETATM   16  C5  UNL     1      54.752  27.789  47.872  1.00  0.00     0.283 C 
BRANCH  16  17
HETATM   17  N3  UNL     1      54.507  26.375  47.810  1.00  0.00    -0.076 N 
ATOM     18  H33 UNL     1      54.922  25.894  48.608  1.00  0.00     0.274 HD
ATOM     19  H32 UNL     1      53.524  26.164  47.985  1.00  0.00     0.274 HD
ATOM     20  H31 UNL     1      54.819  25.965  46.930  1.00  0.00     0.274 HD
ENDBRANCH  16  17
ENDBRANCH  11  16
ENDBRANCH   1  11
TORSDOF 5
ENDMDL
MODEL 4
REMARK VINA RESULT: -5.066163429      1.002      1.388
REMARK  5 active torsions:
REMARK  status: ('A' for Active; 'I' for Inactive)
REMARK    1  A    between atoms: C3_3  and  N1_4 
REMARK    2  A    between atoms: N1_4  and  C4_6 
REMARK    3  A    between atoms: C4_6  and  N2_7 
REMARK    4  A    between atoms: C4_6  and  C5_11 
REMARK    5  A    between atoms: C5_11  and  N3_12 
ROOT
HETATM    1  N1  UNL     1      57.298  26.086  44.086  1.00  0.00    -0.346 N 
ATOM      2  H1  UNL     1      57.389  25.070  44.077  1.00  0.00     0.163 HD
ENDROOT
BRANCH   1   3
HETATM    3  C3  UNL     1      57.155  26.712  45.233  1.00  0.00     0.133 A 
HETATM    4  C2  UNL     1      55.964  26.819  45.842  1.00  0.00     0.059 A 
HETATM    5  C1  UNL     1      54.662  26.248  45.305  1.00  0.00     0.073 C 
HETATM    6  N5  UNL     1      55.929  27.475  47.003  1.00  0.00    -0.308 N 
HETATM    7  S1  UNL     1      57.529  27.932  47.235  1.00  0.00     0.070 SA
HETATM    8  C6  UNL     1      54.808  27.754  47.887  1.00  0.00     0.166 C 
HETATM    9  N4  UNL     1      58.207  27.272  45.839  1.00  0.00    -0.297 N 
ATOM     10  H4  UNL     1      59.179  27.294  45.532  1.00  0.00     0.177 HD
ENDBRANCH   1   3
BRANCH   1  11
HETATM   11  C4  UNL     1      57.326  26.811  42.844  1.00  0.00     0.308 C 
BRANCH  11  12
HETATM   12  N2  UNL     1      56.042  26.771  42.201  1.00  0.00    -0.057 N 
ATOM     13  H23 UNL     1      55.317  27.197  42.779  1.00  0.00     0.276 HD
ATOM     14  H22 UNL     1      55.998  27.407  41.405  1.00  0.00     0.276 HD
ATOM     15  H21 UNL     1      55.800  25.816  41.935  1.00  0.00     0.276 HD
ENDBRANCH  11  12
BRANCH  11  16
HETATM   16  C5  UNL     1      58.364  26.257  41.891  1.00  0.00     0.283 C 
BRANCH  16  17
HETATM   17  N3  UNL     1      59.678  26.228  42.470  1.00  0.00    -0.076 N 
ATOM     18  H33 UNL     1      60.384  25.998  41.770  1.00  0.00     0.274 HD
ATOM     19  H32 UNL     1      59.992  27.168  42.715  1.00  0.00     0.274 HD
ATOM     20  H31 UNL     1      59.736  25.601  43.271  1.00  0.00     0.274 HD
ENDBRANCH  16  17
ENDBRANCH  11  16
ENDBRANCH   1  11
TORSDOF 5
ENDMDL
MODEL 5
REMARK VINA RESULT: -5.011869662      1.482      2.002
REMARK  5 active torsions:
REMARK  status: ('A' for Active; 'I' for Inactive)
REMARK    1  A    between atoms: C3_3  and  N1_4 
REMARK    2  A    between atoms: N1_4  and  C4_6 
REMARK    3  A    between atoms: C4_6  and  N2_7 
REMARK    4  A    between atoms: C4_6  and  C5_11 
REMARK    5  A    between atoms: C5_11  and  N3_12 
ROOT
HETATM    1  N1  UNL     1      56.797  27.453  43.911  1.00  0.00    -0.346 N 
ATOM      2  H1  UNL     1      56.419  28.192  43.317  1.00  0.00     0.163 HD
ENDROOT
BRANCH   1   3
HETATM    3  C3  UNL     1      56.405  27.364  45.162  1.00  0.00     0.133 A 
HETATM    4  C2  UNL     1      56.856  28.201  46.109  1.00  0.00     0.059 A 
HETATM    5  C1  UNL     1      57.848  29.328  45.871  1.00  0.00     0.073 C 
HETATM    6  N5  UNL     1      56.395  28.025  47.349  1.00  0.00    -0.308 N 
HETATM    7  S1  UNL     1      55.354  26.716  47.189  1.00  0.00     0.070 SA
HETATM    8  C6  UNL     1      56.690  28.757  48.570  1.00  0.00     0.166 C 
HETATM    9  N4  UNL     1      55.533  26.425  45.538  1.00  0.00    -0.297 N 
ATOM     10  H4  UNL     1      55.086  25.707  44.966  1.00  0.00     0.177 HD
ENDBRANCH   1   3
BRANCH   1  11
HETATM   11  C4  UNL     1      57.751  26.525  43.365  1.00  0.00     0.308 C 
BRANCH  11  12
HETATM   12  N2  UNL     1      59.072  27.090  43.368  1.00  0.00    -0.057 N 
ATOM     13  H23 UNL     1      59.638  26.723  44.133  1.00  0.00     0.276 HD
ATOM     14  H22 UNL     1      59.630  26.750  42.586  1.00  0.00     0.276 HD
ATOM     15  H21 UNL     1      59.029  28.110  43.387  1.00  0.00     0.276 HD
ENDBRANCH  11  12
BRANCH  11  16
HETATM   16  C5  UNL     1      57.399  26.122  41.948  1.00  0.00     0.283 C 
BRANCH  16  17
HETATM   17  N3  UNL     1      58.558  26.004  41.108  1.00  0.00    -0.076 N 
ATOM     18  H33 UNL     1      59.098  25.171  41.342  1.00  0.00     0.274 HD
ATOM     19  H32 UNL     1      58.296  25.766  40.152  1.00  0.00     0.274 HD
ATOM     20  H31 UNL     1      59.142  26.840  41.132  1.00  0.00     0.274 HD
ENDBRANCH  16  17
ENDBRANCH  11  16
ENDBRANCH   1  11
TORSDOF 5
ENDMDL
