MODEL 1
REMARK VINA RESULT: -6.299953661      0.000      0.000
REMARK  3 active torsions:
REMARK  status: ('A' for Active; 'I' for Inactive)
REMARK    1  A    between atoms: O1_2  and  N1_3 
REMARK    2  A    between atoms: C2_5  and  C3_7 
REMARK       I    between atoms: C3_7  and  N3_9 
REMARK    3  A    between atoms: N3_9  and  C4_11 
ROOT
HETATM    1  C3  UNL     1      56.755  26.669  45.808  1.00  0.00     0.290 C 
HETATM    2  O2  UNL     1      56.509  25.970  46.823  1.00  0.00    -0.264 OA
HETATM    3  N3  UNL     1      56.904  28.067  46.012  1.00  0.00    -0.300 N 
ATOM      4  H3  UNL     1      57.107  28.662  45.209  1.00  0.00     0.171 HD
ENDROOT
BRANCH   1   5
HETATM    5  C2  UNL     1      56.875  26.046  44.524  1.00  0.00     0.204 C 
HETATM    6  N1  UNL     1      57.869  26.177  43.724  1.00  0.00    -0.249 N 
ATOM      7  H1  UNL     1      58.645  26.771  44.014  1.00  0.00     0.196 HD
HETATM    8  N2  UNL     1      55.810  25.196  44.061  1.00  0.00    -0.075 NA
BRANCH   6   9
HETATM    9  O1  UNL     1      57.947  25.567  42.510  1.00  0.00    -0.284 OA
HETATM   10  C1  UNL     1      58.433  26.188  41.340  1.00  0.00     0.237 C 
ENDBRANCH   6   9
ENDBRANCH   1   5
BRANCH   3  11
HETATM   11  C4  UNL     1      56.782  28.664  47.288  1.00  0.00     0.188 C 
HETATM   12  N4  UNL     1      55.574  29.222  47.779  1.00  0.00    -0.070 NA
HETATM   13  S1  UNL     1      58.080  28.727  48.270  1.00  0.00    -0.044 SA
ENDBRANCH   3  11
TORSDOF 3
ENDMDL
MODEL 2
REMARK VINA RESULT: -5.608585837      1.097      1.097
REMARK  3 active torsions:
REMARK  status: ('A' for Active; 'I' for Inactive)
REMARK    1  A    between atoms: O1_2  and  N1_3 
REMARK    2  A    between atoms: C2_5  and  C3_7 
REMARK       I    between atoms: C3_7  and  N3_9 
REMARK    3  A    between atoms: N3_9  and  C4_11 
ROOT
HETATM    1  C3  UNL     1      56.903  26.687  45.643  1.00  0.00     0.290 C 
HETATM    2  O2  UNL     1      56.748  26.011  46.690  1.00  0.00    -0.264 OA
HETATM    3  N3  UNL     1      56.991  28.097  45.795  1.00  0.00    -0.300 N 
ATOM      4  H3  UNL     1      57.119  28.674  44.963  1.00  0.00     0.171 HD
ENDROOT
BRANCH   1   5
HETATM    5  C2  UNL     1      56.984  26.027  44.374  1.00  0.00     0.204 C 
HETATM    6  N1  UNL     1      57.942  26.154  43.530  1.00  0.00    -0.249 N 
ATOM      7  H1  UNL     1      58.716  26.773  43.770  1.00  0.00     0.196 HD
HETATM    8  N2  UNL     1      55.921  25.142  43.980  1.00  0.00    -0.075 NA
BRANCH   6   9
HETATM    9  O1  UNL     1      57.984  25.510  42.332  1.00  0.00    -0.284 OA
HETATM   10  C1  UNL     1      58.355  26.120  41.115  1.00  0.00     0.237 C 
ENDBRANCH   6   9
ENDBRANCH   1   5
BRANCH   3  11
HETATM   11  C4  UNL     1      56.908  28.729  47.057  1.00  0.00     0.188 C 
HETATM   12  N4  UNL     1      58.001  29.388  47.675  1.00  0.00    -0.070 NA
HETATM   13  S1  UNL     1      55.495  28.719  47.866  1.00  0.00    -0.044 SA
ENDBRANCH   3  11
TORSDOF 3
ENDMDL
MODEL 3
REMARK VINA RESULT: -5.582847873      1.452      1.452
REMARK  3 active torsions:
REMARK  status: ('A' for Active; 'I' for Inactive)
REMARK    1  A    between atoms: O1_2  and  N1_3 
REMARK    2  A    between atoms: C2_5  and  C3_7 
REMARK       I    between atoms: C3_7  and  N3_9 
REMARK    3  A    between atoms: N3_9  and  C4_11 
ROOT
HETATM    1  C3  UNL     1      56.619  27.026  45.293  1.00  0.00     0.290 C 
HETATM    2  O2  UNL     1      57.022  28.216  45.324  1.00  0.00    -0.264 OA
HETATM    3  N3  UNL     1      55.810  26.594  46.378  1.00  0.00    -0.300 N 
ATOM      4  H3  UNL     1      55.465  25.634  46.381  1.00  0.00     0.171 HD
ENDROOT
BRANCH   1   5
HETATM    5  C2  UNL     1      56.980  26.179  44.196  1.00  0.00     0.204 C 
HETATM    6  N1  UNL     1      57.922  26.412  43.356  1.00  0.00    -0.249 N 
ATOM      7  H1  UNL     1      58.467  27.267  43.468  1.00  0.00     0.196 HD
HETATM    8  N2  UNL     1      56.247  24.959  43.987  1.00  0.00    -0.075 NA
BRANCH   6   9
HETATM    9  O1  UNL     1      58.236  25.582  42.324  1.00  0.00    -0.284 OA
HETATM   10  C1  UNL     1      58.289  25.982  40.972  1.00  0.00     0.237 C 
ENDBRANCH   6   9
ENDBRANCH   1   5
BRANCH   3  11
HETATM   11  C4  UNL     1      55.465  27.445  47.452  1.00  0.00     0.188 C 
HETATM   12  N4  UNL     1      54.192  27.439  48.078  1.00  0.00    -0.070 NA
HETATM   13  S1  UNL     1      56.567  28.499  48.024  1.00  0.00    -0.044 SA
ENDBRANCH   3  11
TORSDOF 3
ENDMDL
MODEL 4
REMARK VINA RESULT: -5.506022501      1.511      1.528
REMARK  3 active torsions:
REMARK  status: ('A' for Active; 'I' for Inactive)
REMARK    1  A    between atoms: O1_2  and  N1_3 
REMARK    2  A    between atoms: C2_5  and  C3_7 
REMARK       I    between atoms: C3_7  and  N3_9 
REMARK    3  A    between atoms: N3_9  and  C4_11 
ROOT
HETATM    1  C3  UNL     1      56.885  26.539  44.960  1.00  0.00     0.290 C 
HETATM    2  O2  UNL     1      56.389  25.675  45.726  1.00  0.00    -0.264 OA
HETATM    3  N3  UNL     1      57.313  27.756  45.555  1.00  0.00    -0.300 N 
ATOM      4  H3  UNL     1      57.722  28.477  44.960  1.00  0.00     0.171 HD
ENDROOT
BRANCH   1   5
HETATM    5  C2  UNL     1      56.998  26.267  43.558  1.00  0.00     0.204 C 
HETATM    6  N1  UNL     1      57.944  25.602  43.003  1.00  0.00    -0.249 N 
ATOM      7  H1  UNL     1      58.684  25.230  43.599  1.00  0.00     0.196 HD
HETATM    8  N2  UNL     1      55.984  26.768  42.668  1.00  0.00    -0.075 NA
BRANCH   6   9
HETATM    9  O1  UNL     1      58.017  25.365  41.665  1.00  0.00    -0.284 OA
HETATM   10  C1  UNL     1      58.667  26.213  40.743  1.00  0.00     0.237 C 
ENDBRANCH   6   9
ENDBRANCH   1   5
BRANCH   3  11
HETATM   11  C4  UNL     1      57.193  28.005  46.941  1.00  0.00     0.188 C 
HETATM   12  N4  UNL     1      58.230  27.752  47.874  1.00  0.00    -0.070 NA
HETATM   13  S1  UNL     1      55.802  28.616  47.527  1.00  0.00    -0.044 SA
ENDBRANCH   3  11
TORSDOF 3
ENDMDL
MODEL 5
REMARK VINA RESULT: -5.422823598      2.767      4.891
REMARK  3 active torsions:
REMARK  status: ('A' for Active; 'I' for Inactive)
REMARK    1  A    between atoms: O1_2  and  N1_3 
REMARK    2  A    between atoms: C2_5  and  C3_7 
REMARK       I    between atoms: C3_7  and  N3_9 
REMARK    3  A    between atoms: N3_9  and  C4_11 
ROOT
HETATM    1  C3  UNL     1      56.663  26.144  44.413  1.00  0.00     0.290 C 
HETATM    2  O2  UNL     1      56.286  24.986  44.106  1.00  0.00    -0.264 OA
HETATM    3  N3  UNL     1      57.218  26.936  43.373  1.00  0.00    -0.300 N 
ATOM      4  H3  UNL     1      57.532  27.883  43.590  1.00  0.00     0.171 HD
ENDROOT
BRANCH   1   5
HETATM    5  C2  UNL     1      56.518  26.607  45.762  1.00  0.00     0.204 C 
HETATM    6  N1  UNL     1      57.470  27.040  46.505  1.00  0.00    -0.249 N 
ATOM      7  H1  UNL     1      58.412  27.062  46.116  1.00  0.00     0.196 HD
HETATM    8  N2  UNL     1      55.212  26.598  46.365  1.00  0.00    -0.075 NA
BRANCH   6   9
HETATM    9  O1  UNL     1      57.293  27.471  47.783  1.00  0.00    -0.284 OA
HETATM   10  C1  UNL     1      57.790  28.693  48.285  1.00  0.00     0.237 C 
ENDBRANCH   6   9
ENDBRANCH   1   5
BRANCH   3  11
HETATM   11  C4  UNL     1      57.353  26.461  42.049  1.00  0.00     0.188 C 
HETATM   12  N4  UNL     1      56.259  26.299  41.161  1.00  0.00    -0.070 NA
HETATM   13  S1  UNL     1      58.830  26.074  41.483  1.00  0.00    -0.044 SA
ENDBRANCH   3  11
TORSDOF 3
ENDMDL
