MODEL 1
REMARK VINA RESULT: -7.640891796      0.000      0.000
REMARK  4 active torsions:
REMARK  status: ('A' for Active; 'I' for Inactive)
REMARK    1  A    between atoms: O1_2  and  C2_3 
REMARK    2  A    between atoms: C3_4  and  O2_5 
REMARK    3  A    between atoms: C4_7  and  C5_8 
REMARK    4  A    between atoms: C5_8  and  C6_9 
ROOT
HETATM    1  C2  UNL     1      22.634 -31.081  14.722  1.00  0.00     0.112 A 
HETATM    2  C3  UNL     1      22.430 -31.016  16.102  1.00  0.00     0.106 A 
HETATM    3  C4  UNL     1      22.695 -29.894  16.849  1.00  0.00    -0.018 A 
HETATM    4  C7  UNL     1      23.181 -28.818  16.140  1.00  0.00     0.047 A 
HETATM    5  C8  UNL     1      23.393 -28.851  14.780  1.00  0.00     0.081 A 
HETATM    6  C9  UNL     1      23.110 -30.034  14.036  1.00  0.00     0.025 A 
HETATM    7  C10 UNL     1      23.459 -29.902  12.641  1.00  0.00     0.101 C 
HETATM    8  C11 UNL     1      23.394 -30.952  11.681  1.00  0.00    -0.007 C 
HETATM    9  N1  UNL     1      24.143 -31.983  11.747  1.00  0.00    -0.405 N 
ATOM     10  H11 UNL     1      24.097 -32.735  11.060  1.00  0.00     0.155 HD
ATOM     11  H12 UNL     1      24.756 -31.991  12.562  1.00  0.00     0.155 HD
HETATM   12  C12 UNL     1      22.483 -30.939  10.470  1.00  0.00     0.057 C 
HETATM   13  C13 UNL     1      21.449 -29.889  10.562  1.00  0.00     0.040 C 
HETATM   14  C14 UNL     1      21.870 -28.608  11.210  1.00  0.00    -0.077 C 
HETATM   15  C15 UNL     1      21.273 -27.320  10.760  1.00  0.00     0.044 C 
HETATM   16  C16 UNL     1      22.784 -28.619  12.159  1.00  0.00    -0.030 C 
HETATM   17  C17 UNL     1      23.193 -27.356  12.825  1.00  0.00     0.085 C 
HETATM   18  C18 UNL     1      24.246 -26.613  12.047  1.00  0.00     0.051 C 
HETATM   19  C19 UNL     1      22.091 -26.495  13.317  1.00  0.00     0.051 C 
HETATM   20  O3  UNL     1      23.883 -27.765  14.040  1.00  0.00    -0.336 OA
ENDROOT
BRANCH   3  21
HETATM   21  C5  UNL     1      22.494 -29.796  18.296  1.00  0.00     0.056 C 
BRANCH  21  22
HETATM   22  C6  UNL     1      23.356 -28.762  18.968  1.00  0.00     0.119 C 
HETATM   23 CL1  UNL     1      22.461 -27.337  19.482  1.00  0.00    -0.130 Cl
ENDBRANCH  21  22
ENDBRANCH   3  21
BRANCH   2  24
HETATM   24  O2  UNL     1      21.942 -32.119  16.763  1.00  0.00    -0.357 OA
ATOM     25  H2  UNL     1      21.040 -32.119  17.062  1.00  0.00     0.217 HD
ENDBRANCH   2  24
BRANCH   1  26
HETATM   26  O1  UNL     1      22.327 -32.270  14.056  1.00  0.00    -0.352 OA
HETATM   27  C1  UNL     1      23.067 -33.437  14.418  1.00  0.00     0.210 C 
ENDBRANCH   1  26
TORSDOF 4
ENDMDL
MODEL 2
REMARK VINA RESULT: -6.921706051      4.540      7.353
REMARK  4 active torsions:
REMARK  status: ('A' for Active; 'I' for Inactive)
REMARK    1  A    between atoms: O1_2  and  C2_3 
REMARK    2  A    between atoms: C3_4  and  O2_5 
REMARK    3  A    between atoms: C4_7  and  C5_8 
REMARK    4  A    between atoms: C5_8  and  C6_9 
ROOT
HETATM    1  C2  UNL     1      23.600 -24.634  12.500  1.00  0.00     0.112 A 
HETATM    2  C3  UNL     1      23.462 -25.954  12.065  1.00  0.00     0.106 A 
HETATM    3  C4  UNL     1      22.957 -26.957  12.855  1.00  0.00    -0.018 A 
HETATM    4  C7  UNL     1      22.586 -26.574  14.125  1.00  0.00     0.047 A 
HETATM    5  C8  UNL     1      22.710 -25.282  14.584  1.00  0.00     0.081 A 
HETATM    6  C9  UNL     1      23.242 -24.265  13.737  1.00  0.00     0.025 A 
HETATM    7  C10 UNL     1      23.358 -22.994  14.412  1.00  0.00     0.101 C 
HETATM    8  C11 UNL     1      23.958 -21.828  13.856  1.00  0.00    -0.007 C 
HETATM    9  N1  UNL     1      25.202 -21.768  13.578  1.00  0.00    -0.405 N 
ATOM     10  H11 UNL     1      25.632 -20.933  13.180  1.00  0.00     0.155 HD
ATOM     11  H12 UNL     1      25.704 -22.637  13.759  1.00  0.00     0.155 HD
HETATM   12  C12 UNL     1      23.212 -20.536  13.587  1.00  0.00     0.057 C 
HETATM   13  C13 UNL     1      21.748 -20.714  13.656  1.00  0.00     0.040 C 
HETATM   14  C14 UNL     1      21.252 -21.678  14.688  1.00  0.00    -0.077 C 
HETATM   15  C15 UNL     1      19.938 -21.444  15.347  1.00  0.00     0.044 C 
HETATM   16  C16 UNL     1      21.988 -22.718  15.026  1.00  0.00    -0.030 C 
HETATM   17  C17 UNL     1      21.495 -23.694  16.032  1.00  0.00     0.085 C 
HETATM   18  C18 UNL     1      21.767 -23.248  17.444  1.00  0.00     0.051 C 
HETATM   19  C19 UNL     1      20.120 -24.207  15.818  1.00  0.00     0.051 C 
HETATM   20  O3  UNL     1      22.335 -24.872  15.871  1.00  0.00    -0.336 OA
ENDROOT
BRANCH   3  21
HETATM   21  C5  UNL     1      22.803 -28.349  12.429  1.00  0.00     0.056 C 
BRANCH  21  22
HETATM   22  C6  UNL     1      23.213 -29.360  13.465  1.00  0.00     0.119 C 
HETATM   23 CL1  UNL     1      22.873 -31.020  12.993  1.00  0.00    -0.130 Cl
ENDBRANCH  21  22
ENDBRANCH   3  21
BRANCH   2  24
HETATM   24  O2  UNL     1      23.846 -26.284  10.787  1.00  0.00    -0.357 OA
ATOM     25  H2  UNL     1      23.277 -26.829  10.256  1.00  0.00     0.217 HD
ENDBRANCH   2  24
BRANCH   1  26
HETATM   26  O1  UNL     1      24.121 -23.688  11.614  1.00  0.00    -0.352 OA
HETATM   27  C1  UNL     1      23.193 -22.962  10.806  1.00  0.00     0.210 C 
ENDBRANCH   1  26
TORSDOF 4
ENDMDL
MODEL 3
REMARK VINA RESULT: -6.757418650      4.056      6.316
REMARK  4 active torsions:
REMARK  status: ('A' for Active; 'I' for Inactive)
REMARK    1  A    between atoms: O1_2  and  C2_3 
REMARK    2  A    between atoms: C3_4  and  O2_5 
REMARK    3  A    between atoms: C4_7  and  C5_8 
REMARK    4  A    between atoms: C5_8  and  C6_9 
ROOT
HETATM    1  C2  UNL     1      22.268 -26.455  15.269  1.00  0.00     0.112 A 
HETATM    2  C3  UNL     1      22.648 -27.789  15.099  1.00  0.00     0.106 A 
HETATM    3  C4  UNL     1      23.215 -28.269  13.944  1.00  0.00    -0.018 A 
HETATM    4  C7  UNL     1      23.389 -27.336  12.946  1.00  0.00     0.047 A 
HETATM    5  C8  UNL     1      23.026 -26.016  13.081  1.00  0.00     0.081 A 
HETATM    6  C9  UNL     1      22.437 -25.552  14.294  1.00  0.00     0.025 A 
HETATM    7  C10 UNL     1      22.061 -24.160  14.226  1.00  0.00     0.101 C 
HETATM    8  C11 UNL     1      21.353 -23.456  15.241  1.00  0.00    -0.007 C 
HETATM    9  N1  UNL     1      20.150 -23.741  15.556  1.00  0.00    -0.405 N 
ATOM     10  H11 UNL     1      19.642 -23.237  16.283  1.00  0.00     0.155 HD
ATOM     11  H12 UNL     1      19.769 -24.533  15.039  1.00  0.00     0.155 HD
HETATM   12  C12 UNL     1      21.919 -22.278  16.009  1.00  0.00     0.057 C 
HETATM   13  C13 UNL     1      23.379 -22.145  15.827  1.00  0.00     0.040 C 
HETATM   14  C14 UNL     1      23.905 -22.491  14.470  1.00  0.00    -0.077 C 
HETATM   15  C15 UNL     1      25.094 -21.773  13.933  1.00  0.00     0.044 C 
HETATM   16  C16 UNL     1      23.303 -23.413  13.745  1.00  0.00    -0.030 C 
HETATM   17  C17 UNL     1      23.831 -23.781  12.407  1.00  0.00     0.085 C 
HETATM   18  C18 UNL     1      23.351 -22.850  11.325  1.00  0.00     0.051 C 
HETATM   19  C19 UNL     1      25.282 -24.080  12.341  1.00  0.00     0.051 C 
HETATM   20  O3  UNL     1      23.200 -25.051  12.078  1.00  0.00    -0.336 OA
ENDROOT
BRANCH   3  21
HETATM   21  C5  UNL     1      23.620 -29.660  13.735  1.00  0.00     0.056 C 
BRANCH  21  22
HETATM   22  C6  UNL     1      22.685 -30.449  12.860  1.00  0.00     0.119 C 
HETATM   23 CL1  UNL     1      23.517 -31.534  11.752  1.00  0.00    -0.130 Cl
ENDBRANCH  21  22
ENDBRANCH   3  21
BRANCH   2  24
HETATM   24  O2  UNL     1      22.452 -28.680  16.128  1.00  0.00    -0.357 OA
ATOM     25  H2  UNL     1      21.624 -29.141  16.193  1.00  0.00     0.217 HD
ENDBRANCH   2  24
BRANCH   1  26
HETATM   26  O1  UNL     1      21.706 -26.070  16.488  1.00  0.00    -0.352 OA
HETATM   27  C1  UNL     1      22.601 -25.751  17.554  1.00  0.00     0.210 C 
ENDBRANCH   1  26
TORSDOF 4
ENDMDL
MODEL 4
REMARK VINA RESULT: -6.752208844      1.699      2.155
REMARK  4 active torsions:
REMARK  status: ('A' for Active; 'I' for Inactive)
REMARK    1  A    between atoms: O1_2  and  C2_3 
REMARK    2  A    between atoms: C3_4  and  O2_5 
REMARK    3  A    between atoms: C4_7  and  C5_8 
REMARK    4  A    between atoms: C5_8  and  C6_9 
ROOT
HETATM    1  C2  UNL     1      22.851 -30.411  15.796  1.00  0.00     0.112 A 
HETATM    2  C3  UNL     1      22.481 -29.558  16.839  1.00  0.00     0.106 A 
HETATM    3  C4  UNL     1      22.483 -28.189  16.727  1.00  0.00    -0.018 A 
HETATM    4  C7  UNL     1      22.879 -27.701  15.501  1.00  0.00     0.047 A 
HETATM    5  C8  UNL     1      23.250 -28.515  14.455  1.00  0.00     0.081 A 
HETATM    6  C9  UNL     1      23.239 -29.933  14.607  1.00  0.00     0.025 A 
HETATM    7  C10 UNL     1      23.722 -30.615  13.430  1.00  0.00     0.101 C 
HETATM    8  C11 UNL     1      23.931 -32.021  13.330  1.00  0.00    -0.007 C 
HETATM    9  N1  UNL     1      24.815 -32.630  14.018  1.00  0.00    -0.405 N 
ATOM     10  H11 UNL     1      24.964 -33.636  13.947  1.00  0.00     0.155 HD
ATOM     11  H12 UNL     1      25.323 -32.022  14.660  1.00  0.00     0.155 HD
HETATM   12  C12 UNL     1      23.175 -32.924  12.375  1.00  0.00     0.057 C 
HETATM   13  C13 UNL     1      21.989 -32.258  11.799  1.00  0.00     0.040 C 
HETATM   14  C14 UNL     1      22.133 -30.797  11.510  1.00  0.00    -0.077 C 
HETATM   15  C15 UNL     1      21.403 -30.195  10.361  1.00  0.00     0.044 C 
HETATM   16  C16 UNL     1      22.921 -30.051  12.258  1.00  0.00    -0.030 C 
HETATM   17  C17 UNL     1      23.053 -28.596  11.995  1.00  0.00     0.085 C 
HETATM   18  C18 UNL     1      24.064 -28.297  10.920  1.00  0.00     0.051 C 
HETATM   19  C19 UNL     1      21.783 -27.845  11.850  1.00  0.00     0.051 C 
HETATM   20  O3  UNL     1      23.652 -28.038  13.199  1.00  0.00    -0.336 OA
ENDROOT
BRANCH   3  21
HETATM   21  C5  UNL     1      22.103 -27.270  17.801  1.00  0.00     0.056 C 
BRANCH  21  22
HETATM   22  C6  UNL     1      21.616 -25.930  17.321  1.00  0.00     0.119 C 
HETATM   23 CL1  UNL     1      22.830 -24.663  17.441  1.00  0.00    -0.130 Cl
ENDBRANCH  21  22
ENDBRANCH   3  21
BRANCH   2  24
HETATM   24  O2  UNL     1      22.092 -30.097  18.043  1.00  0.00    -0.357 OA
ATOM     25  H2  UNL     1      21.234 -29.886  18.391  1.00  0.00     0.217 HD
ENDBRANCH   2  24
BRANCH   1  26
HETATM   26  O1  UNL     1      22.808 -31.790  16.013  1.00  0.00    -0.352 OA
HETATM   27  C1  UNL     1      21.521 -32.407  16.069  1.00  0.00     0.210 C 
ENDBRANCH   1  26
TORSDOF 4
ENDMDL
MODEL 5
REMARK VINA RESULT: -6.480913269      7.034      9.981
REMARK  4 active torsions:
REMARK  status: ('A' for Active; 'I' for Inactive)
REMARK    1  A    between atoms: O1_2  and  C2_3 
REMARK    2  A    between atoms: C3_4  and  O2_5 
REMARK    3  A    between atoms: C4_7  and  C5_8 
REMARK    4  A    between atoms: C5_8  and  C6_9 
ROOT
HETATM    1  C2  UNL     1      19.357 -32.629  23.414  1.00  0.00     0.112 A 
HETATM    2  C3  UNL     1      19.361 -33.865  24.066  1.00  0.00     0.106 A 
HETATM    3  C4  UNL     1      19.817 -35.021  23.484  1.00  0.00    -0.018 A 
HETATM    4  C7  UNL     1      20.279 -34.886  22.193  1.00  0.00     0.047 A 
HETATM    5  C8  UNL     1      20.288 -33.684  21.523  1.00  0.00     0.081 A 
HETATM    6  C9  UNL     1      19.804 -32.502  22.158  1.00  0.00     0.025 A 
HETATM    7  C10 UNL     1      19.829 -31.357  21.279  1.00  0.00     0.101 C 
HETATM    8  C11 UNL     1      19.304 -30.072  21.598  1.00  0.00    -0.007 C 
HETATM    9  N1  UNL     1      18.059 -29.872  21.786  1.00  0.00    -0.405 N 
ATOM     10  H11 UNL     1      17.682 -28.951  22.015  1.00  0.00     0.155 HD
ATOM     11  H12 UNL     1      17.494 -30.718  21.719  1.00  0.00     0.155 HD
HETATM   12  C12 UNL     1      20.144 -28.814  21.698  1.00  0.00     0.057 C 
HETATM   13  C13 UNL     1      21.590 -29.111  21.750  1.00  0.00     0.040 C 
HETATM   14  C14 UNL     1      22.051 -30.269  20.922  1.00  0.00    -0.077 C 
HETATM   15  C15 UNL     1      23.410 -30.250  20.315  1.00  0.00     0.044 C 
HETATM   16  C16 UNL     1      21.246 -31.292  20.713  1.00  0.00    -0.030 C 
HETATM   17  C17 UNL     1      21.702 -32.457  19.913  1.00  0.00     0.085 C 
HETATM   18  C18 UNL     1      21.537 -32.236  18.432  1.00  0.00     0.051 C 
HETATM   19  C19 UNL     1      23.016 -33.030  20.291  1.00  0.00     0.051 C 
HETATM   20  O3  UNL     1      20.758 -33.525  20.211  1.00  0.00    -0.336 OA
ENDROOT
BRANCH   3  21
HETATM   21  C5  UNL     1      19.831 -36.330  24.140  1.00  0.00     0.056 C 
BRANCH  21  22
HETATM   22  C6  UNL     1      18.607 -37.164  23.877  1.00  0.00     0.119 C 
HETATM   23 CL1  UNL     1      18.825 -38.335  22.582  1.00  0.00    -0.130 Cl
ENDBRANCH  21  22
ENDBRANCH   3  21
BRANCH   2  24
HETATM   24  O2  UNL     1      18.889 -33.945  25.355  1.00  0.00    -0.357 OA
ATOM     25  H2  UNL     1      17.951 -33.945  25.508  1.00  0.00     0.217 HD
ENDBRANCH   2  24
BRANCH   1  26
HETATM   26  O1  UNL     1      18.877 -31.512  24.100  1.00  0.00    -0.352 OA
HETATM   27  C1  UNL     1      19.781 -30.841  24.979  1.00  0.00     0.210 C 
ENDBRANCH   1  26
TORSDOF 4
ENDMDL
