MODEL 1
REMARK VINA RESULT: -8.000770654      0.000      0.000
REMARK  6 active torsions:
REMARK  status: ('A' for Active; 'I' for Inactive)
REMARK    1  A    between atoms: C3_3  and  N1_4 
REMARK    2  A    between atoms: C4_5  and  O1_6 
REMARK    3  A    between atoms: C7_10  and  O2_11 
REMARK    4  A    between atoms: N2_19  and  C14_20 
REMARK    5  A    between atoms: C14_20  and  C15_21 
REMARK    6  A    between atoms: C15_21  and  C18_24 
ROOT
HETATM    1  C1  UNL     1      23.063 -28.866  14.522  1.00  0.00     0.070 C 
HETATM    2  C2  UNL     1      22.538 -28.898  13.117  1.00  0.00     0.035 A 
HETATM    3  C3  UNL     1      22.501 -27.758  12.327  1.00  0.00     0.067 A 
HETATM    4  C12 UNL     1      21.937 -28.137  11.134  1.00  0.00     0.049 A 
HETATM    5  C13 UNL     1      21.659 -29.473  11.249  1.00  0.00     0.093 A 
HETATM    6  N2  UNL     1      22.029 -29.941  12.466  1.00  0.00    -0.358 N 
ENDROOT
BRANCH   3   7
HETATM    7  N1  UNL     1      22.961 -26.462  12.697  1.00  0.00    -0.270 N 
HETATM    8  C4  UNL     1      22.458 -25.635  13.621  1.00  0.00     0.156 A 
HETATM    9  C5  UNL     1      23.185 -24.478  13.680  1.00  0.00     0.004 A 
HETATM   10  C6  UNL     1      24.193 -24.608  12.734  1.00  0.00     0.004 A 
HETATM   11  C11 UNL     1      23.147 -23.219  14.459  1.00  0.00     0.044 C 
HETATM   12  C7  UNL     1      24.020 -25.840  12.153  1.00  0.00     0.156 A 
HETATM   13  C8  UNL     1      25.193 -23.566  12.489  1.00  0.00     0.044 C 
HETATM   14  C9  UNL     1      24.752 -22.179  12.843  1.00  0.00     0.005 C 
HETATM   15  C10 UNL     1      23.399 -22.090  13.464  1.00  0.00     0.005 C 
BRANCH   8  16
HETATM   16  O1  UNL     1      21.359 -25.894  14.415  1.00  0.00    -0.345 OA
ATOM     17  H1  UNL     1      20.715 -25.253  14.691  1.00  0.00     0.219 HD
ENDBRANCH   8  16
BRANCH  12  18
HETATM   18  O2  UNL     1      24.834 -26.370  11.137  1.00  0.00    -0.345 OA
ATOM     19  H2  UNL     1      24.534 -26.616  10.270  1.00  0.00     0.219 HD
ENDBRANCH  12  18
ENDBRANCH   3   7
BRANCH   6  20
HETATM   20  C14 UNL     1      21.903 -31.287  12.883  1.00  0.00     0.140 C 
BRANCH  20  21
HETATM   21  C15 UNL     1      23.049 -32.190  12.805  1.00  0.00     0.004 C 
HETATM   22  C16 UNL     1      24.081 -31.551  11.853  1.00  0.00     0.020 C 
HETATM   23  C17 UNL     1      22.562 -33.402  11.958  1.00  0.00     0.020 C 
BRANCH  21  24
HETATM   24  C18 UNL     1      23.669 -32.773  13.995  1.00  0.00     0.104 C 
HETATM   25  C19 UNL     1      23.226 -32.174  15.307  1.00  0.00     0.052 C 
HETATM   26  C20 UNL     1      23.184 -34.244  14.073  1.00  0.00     0.052 C 
HETATM   27  F1  UNL     1      25.040 -32.877  14.005  1.00  0.00    -0.243 F 
ENDBRANCH  21  24
ENDBRANCH  20  21
ENDBRANCH   6  20
TORSDOF 6
ENDMDL
MODEL 2
REMARK VINA RESULT: -7.901608863      7.458      9.732
REMARK  6 active torsions:
REMARK  status: ('A' for Active; 'I' for Inactive)
REMARK    1  A    between atoms: C3_3  and  N1_4 
REMARK    2  A    between atoms: C4_5  and  O1_6 
REMARK    3  A    between atoms: C7_10  and  O2_11 
REMARK    4  A    between atoms: N2_19  and  C14_20 
REMARK    5  A    between atoms: C14_20  and  C15_21 
REMARK    6  A    between atoms: C15_21  and  C18_24 
ROOT
HETATM    1  C1  UNL     1      19.489 -31.597  21.182  1.00  0.00     0.070 C 
HETATM    2  C2  UNL     1      20.485 -32.715  21.279  1.00  0.00     0.035 A 
HETATM    3  C3  UNL     1      21.624 -32.745  20.489  1.00  0.00     0.067 A 
HETATM    4  C12 UNL     1      22.280 -33.909  20.807  1.00  0.00     0.049 A 
HETATM    5  C13 UNL     1      21.520 -34.526  21.765  1.00  0.00     0.093 A 
HETATM    6  N2  UNL     1      20.418 -33.793  22.056  1.00  0.00    -0.358 N 
ENDROOT
BRANCH   3   7
HETATM    7  N1  UNL     1      22.019 -31.758  19.541  1.00  0.00    -0.270 N 
HETATM    8  C4  UNL     1      22.607 -30.578  19.768  1.00  0.00     0.156 A 
HETATM    9  C5  UNL     1      22.827 -29.914  18.592  1.00  0.00     0.004 A 
HETATM   10  C6  UNL     1      22.342 -30.740  17.588  1.00  0.00     0.004 A 
HETATM   11  C11 UNL     1      23.416 -28.620  18.178  1.00  0.00     0.044 C 
HETATM   12  C7  UNL     1      21.855 -31.862  18.212  1.00  0.00     0.156 A 
HETATM   13  C8  UNL     1      22.394 -30.381  16.168  1.00  0.00     0.044 C 
HETATM   14  C9  UNL     1      22.428 -28.909  15.896  1.00  0.00     0.005 C 
HETATM   15  C10 UNL     1      22.488 -28.047  17.111  1.00  0.00     0.005 C 
BRANCH   8  16
HETATM   16  O1  UNL     1      22.954 -30.081  21.008  1.00  0.00    -0.345 OA
ATOM     17  H1  UNL     1      22.357 -29.674  21.625  1.00  0.00     0.219 HD
ENDBRANCH   8  16
BRANCH  12  18
HETATM   18  O2  UNL     1      21.270 -32.957  17.553  1.00  0.00    -0.345 OA
ATOM     19  H2  UNL     1      21.255 -33.084  16.612  1.00  0.00     0.219 HD
ENDBRANCH  12  18
ENDBRANCH   3   7
BRANCH   6  20
HETATM   20  C14 UNL     1      19.450 -34.145  23.025  1.00  0.00     0.140 C 
BRANCH  20  21
HETATM   21  C15 UNL     1      18.665 -35.367  22.868  1.00  0.00     0.004 C 
HETATM   22  C16 UNL     1      18.185 -35.427  21.404  1.00  0.00     0.020 C 
HETATM   23  C17 UNL     1      17.328 -35.098  23.618  1.00  0.00     0.020 C 
BRANCH  21  24
HETATM   24  C18 UNL     1      19.131 -36.665  23.360  1.00  0.00     0.104 C 
HETATM   25  C19 UNL     1      18.104 -37.470  24.116  1.00  0.00     0.052 C 
HETATM   26  C20 UNL     1      19.436 -37.529  22.109  1.00  0.00     0.052 C 
HETATM   27  F1  UNL     1      20.309 -36.684  24.069  1.00  0.00    -0.243 F 
ENDBRANCH  21  24
ENDBRANCH  20  21
ENDBRANCH   6  20
TORSDOF 6
ENDMDL
MODEL 3
REMARK VINA RESULT: -7.641038740      1.063      2.496
REMARK  6 active torsions:
REMARK  status: ('A' for Active; 'I' for Inactive)
REMARK    1  A    between atoms: C3_3  and  N1_4 
REMARK    2  A    between atoms: C4_5  and  O1_6 
REMARK    3  A    between atoms: C7_10  and  O2_11 
REMARK    4  A    between atoms: N2_19  and  C14_20 
REMARK    5  A    between atoms: C14_20  and  C15_21 
REMARK    6  A    between atoms: C15_21  and  C18_24 
ROOT
HETATM    1  C1  UNL     1      22.066 -28.444  11.538  1.00  0.00     0.070 C 
HETATM    2  C2  UNL     1      22.469 -28.866  12.920  1.00  0.00     0.035 A 
HETATM    3  C3  UNL     1      22.907 -27.948  13.863  1.00  0.00     0.067 A 
HETATM    4  C12 UNL     1      23.222 -28.673  14.985  1.00  0.00     0.049 A 
HETATM    5  C13 UNL     1      22.964 -29.983  14.680  1.00  0.00     0.093 A 
HETATM    6  N2  UNL     1      22.500 -30.102  13.412  1.00  0.00    -0.358 N 
ENDROOT
BRANCH   3   7
HETATM    7  N1  UNL     1      23.005 -26.539  13.684  1.00  0.00    -0.270 N 
HETATM    8  C4  UNL     1      23.691 -25.866  12.752  1.00  0.00     0.156 A 
HETATM    9  C5  UNL     1      23.531 -24.517  12.915  1.00  0.00     0.004 A 
HETATM   10  C6  UNL     1      22.697 -24.359  14.014  1.00  0.00     0.004 A 
HETATM   11  C11 UNL     1      24.005 -23.286  12.244  1.00  0.00     0.044 C 
HETATM   12  C7  UNL     1      22.397 -25.623  14.456  1.00  0.00     0.156 A 
HETATM   13  C8  UNL     1      22.282 -23.046  14.516  1.00  0.00     0.044 C 
HETATM   14  C9  UNL     1      23.227 -21.928  14.198  1.00  0.00     0.005 C 
HETATM   15  C10 UNL     1      24.394 -22.313  13.353  1.00  0.00     0.005 C 
BRANCH   8  16
HETATM   16  O1  UNL     1      24.459 -26.434  11.756  1.00  0.00    -0.345 OA
ATOM     17  H1  UNL     1      24.156 -26.649  10.881  1.00  0.00     0.219 HD
ENDBRANCH   8  16
BRANCH  12  18
HETATM   18  O2  UNL     1      21.573 -25.915  15.557  1.00  0.00    -0.345 OA
ATOM     19  H2  UNL     1      20.704 -25.558  15.699  1.00  0.00     0.219 HD
ENDBRANCH  12  18
ENDBRANCH   3   7
BRANCH   6  20
HETATM   20  C14 UNL     1      22.113 -31.321  12.807  1.00  0.00     0.140 C 
BRANCH  20  21
HETATM   21  C15 UNL     1      22.945 -32.513  12.960  1.00  0.00     0.004 C 
HETATM   22  C16 UNL     1      24.386 -32.127  12.567  1.00  0.00     0.020 C 
HETATM   23  C17 UNL     1      22.547 -33.448  11.781  1.00  0.00     0.020 C 
BRANCH  21  24
HETATM   24  C18 UNL     1      22.896 -33.353  14.156  1.00  0.00     0.104 C 
HETATM   25  C19 UNL     1      22.660 -34.821  13.899  1.00  0.00     0.052 C 
HETATM   26  C20 UNL     1      24.310 -33.307  14.790  1.00  0.00     0.052 C 
HETATM   27  F1  UNL     1      22.065 -32.950  15.175  1.00  0.00    -0.243 F 
ENDBRANCH  21  24
ENDBRANCH  20  21
ENDBRANCH   6  20
TORSDOF 6
ENDMDL
MODEL 4
REMARK VINA RESULT: -7.634837362      6.026      9.037
REMARK  6 active torsions:
REMARK  status: ('A' for Active; 'I' for Inactive)
REMARK    1  A    between atoms: C3_3  and  N1_4 
REMARK    2  A    between atoms: C4_5  and  O1_6 
REMARK    3  A    between atoms: C7_10  and  O2_11 
REMARK    4  A    between atoms: N2_19  and  C14_20 
REMARK    5  A    between atoms: C14_20  and  C15_21 
REMARK    6  A    between atoms: C15_21  and  C18_24 
ROOT
HETATM    1  C1  UNL     1      23.012 -30.591  19.768  1.00  0.00     0.070 C 
HETATM    2  C2  UNL     1      21.775 -31.440  19.750  1.00  0.00     0.035 A 
HETATM    3  C3  UNL     1      21.338 -32.064  18.591  1.00  0.00     0.067 A 
HETATM    4  C12 UNL     1      20.177 -32.718  18.922  1.00  0.00     0.049 A 
HETATM    5  C13 UNL     1      19.963 -32.466  20.252  1.00  0.00     0.093 A 
HETATM    6  N2  UNL     1      20.944 -31.683  20.760  1.00  0.00    -0.358 N 
ENDROOT
BRANCH   3   7
HETATM    7  N1  UNL     1      21.978 -32.024  17.319  1.00  0.00    -0.270 N 
HETATM    8  C4  UNL     1      22.124 -30.979  16.496  1.00  0.00     0.156 A 
HETATM    9  C5  UNL     1      22.801 -31.346  15.365  1.00  0.00     0.004 A 
HETATM   10  C6  UNL     1      23.085 -32.697  15.509  1.00  0.00     0.004 A 
HETATM   11  C11 UNL     1      23.264 -30.686  14.123  1.00  0.00     0.044 C 
HETATM   12  C7  UNL     1      22.563 -33.075  16.721  1.00  0.00     0.156 A 
HETATM   13  C8  UNL     1      23.809 -33.470  14.496  1.00  0.00     0.044 C 
HETATM   14  C9  UNL     1      23.703 -32.930  13.103  1.00  0.00     0.005 C 
HETATM   15  C10 UNL     1      22.950 -31.649  12.982  1.00  0.00     0.005 C 
BRANCH   8  16
HETATM   16  O1  UNL     1      21.663 -29.700  16.736  1.00  0.00    -0.345 OA
ATOM     17  H1  UNL     1      21.559 -29.303  17.592  1.00  0.00     0.219 HD
ENDBRANCH   8  16
BRANCH  12  18
HETATM   18  O2  UNL     1      22.633 -34.373  17.256  1.00  0.00    -0.345 OA
ATOM     19  H2  UNL     1      22.785 -35.164  16.752  1.00  0.00     0.219 HD
ENDBRANCH  12  18
ENDBRANCH   3   7
BRANCH   6  20
HETATM   20  C14 UNL     1      21.027 -31.270  22.111  1.00  0.00     0.140 C 
BRANCH  20  21
HETATM   21  C15 UNL     1      20.396 -30.022  22.537  1.00  0.00     0.004 C 
HETATM   22  C16 UNL     1      19.803 -30.257  23.941  1.00  0.00     0.020 C 
HETATM   23  C17 UNL     1      19.106 -29.897  21.676  1.00  0.00     0.020 C 
BRANCH  21  24
HETATM   24  C18 UNL     1      21.068 -28.727  22.420  1.00  0.00     0.104 C 
HETATM   25  C19 UNL     1      20.447 -27.770  21.434  1.00  0.00     0.052 C 
HETATM   26  C20 UNL     1      20.900 -28.016  23.788  1.00  0.00     0.052 C 
HETATM   27  F1  UNL     1      22.428 -28.739  22.219  1.00  0.00    -0.243 F 
ENDBRANCH  21  24
ENDBRANCH  20  21
ENDBRANCH   6  20
TORSDOF 6
ENDMDL
MODEL 5
REMARK VINA RESULT: -7.569915380      7.552      9.912
REMARK  6 active torsions:
REMARK  status: ('A' for Active; 'I' for Inactive)
REMARK    1  A    between atoms: C3_3  and  N1_4 
REMARK    2  A    between atoms: C4_5  and  O1_6 
REMARK    3  A    between atoms: C7_10  and  O2_11 
REMARK    4  A    between atoms: N2_19  and  C14_20 
REMARK    5  A    between atoms: C14_20  and  C15_21 
REMARK    6  A    between atoms: C15_21  and  C18_24 
ROOT
HETATM    1  C1  UNL     1      22.378 -34.412  20.904  1.00  0.00     0.070 C 
HETATM    2  C2  UNL     1      21.115 -33.784  21.417  1.00  0.00     0.035 A 
HETATM    3  C3  UNL     1      20.731 -32.506  21.039  1.00  0.00     0.067 A 
HETATM    4  C12 UNL     1      19.566 -32.241  21.714  1.00  0.00     0.049 A 
HETATM    5  C13 UNL     1      19.296 -33.355  22.464  1.00  0.00     0.093 A 
HETATM    6  N2  UNL     1      20.246 -34.303  22.281  1.00  0.00    -0.358 N 
ENDROOT
BRANCH   3   7
HETATM    7  N1  UNL     1      21.422 -31.654  20.130  1.00  0.00    -0.270 N 
HETATM    8  C4  UNL     1      22.208 -30.608  20.407  1.00  0.00     0.156 A 
HETATM    9  C5  UNL     1      22.688 -30.046  19.256  1.00  0.00     0.004 A 
HETATM   10  C6  UNL     1      22.162 -30.797  18.214  1.00  0.00     0.004 A 
HETATM   11  C11 UNL     1      23.570 -28.913  18.895  1.00  0.00     0.044 C 
HETATM   12  C7  UNL     1      21.390 -31.774  18.792  1.00  0.00     0.156 A 
HETATM   13  C8  UNL     1      22.444 -30.510  16.804  1.00  0.00     0.044 C 
HETATM   14  C9  UNL     1      22.806 -29.085  16.517  1.00  0.00     0.005 C 
HETATM   15  C10 UNL     1      22.903 -28.207  17.718  1.00  0.00     0.005 C 
BRANCH   8  16
HETATM   16  O1  UNL     1      22.506 -30.143  21.672  1.00  0.00    -0.345 OA
ATOM     17  H1  UNL     1      23.182 -29.509  21.881  1.00  0.00     0.219 HD
ENDBRANCH   8  16
BRANCH  12  18
HETATM   18  O2  UNL     1      20.673 -32.755  18.085  1.00  0.00    -0.345 OA
ATOM     19  H2  UNL     1      19.731 -32.875  18.122  1.00  0.00     0.219 HD
ENDBRANCH  12  18
ENDBRANCH   3   7
BRANCH   6  20
HETATM   20  C14 UNL     1      20.238 -35.580  22.890  1.00  0.00     0.140 C 
BRANCH  20  21
HETATM   21  C15 UNL     1      19.149 -36.516  22.618  1.00  0.00     0.004 C 
HETATM   22  C16 UNL     1      17.947 -35.695  22.109  1.00  0.00     0.020 C 
HETATM   23  C17 UNL     1      18.639 -36.974  24.015  1.00  0.00     0.020 C 
BRANCH  21  24
HETATM   24  C18 UNL     1      19.350 -37.749  21.856  1.00  0.00     0.104 C 
HETATM   25  C19 UNL     1      18.542 -37.857  20.587  1.00  0.00     0.052 C 
HETATM   26  C20 UNL     1      20.820 -37.731  21.363  1.00  0.00     0.052 C 
HETATM   27  F1  UNL     1      19.246 -38.937  22.541  1.00  0.00    -0.243 F 
ENDBRANCH  21  24
ENDBRANCH  20  21
ENDBRANCH   6  20
TORSDOF 6
ENDMDL
