MODEL 1
REMARK VINA RESULT: -8.064830585      0.000      0.000
REMARK  5 active torsions:
REMARK  status: ('A' for Active; 'I' for Inactive)
REMARK    1  A    between atoms: C2_2  and  O1_3 
REMARK    2  A    between atoms: O1_3  and  C3_4 
REMARK       I    between atoms: C3_4  and  N1_6 
REMARK    3  A    between atoms: N1_6  and  C4_8 
REMARK    4  A    between atoms: C9_14  and  O4_15 
REMARK    5  A    between atoms: C10_17  and  C11_18 
ROOT
HETATM    1  C4  UNL     1      22.539 -30.035  20.090  1.00  0.00     0.260 C 
HETATM    2  O3  UNL     1      22.614 -31.141  20.945  1.00  0.00    -0.362 OA
HETATM    3  C5  UNL     1      21.568 -32.047  20.736  1.00  0.00     0.179 C 
HETATM    4  C6  UNL     1      21.749 -32.746  19.401  1.00  0.00     0.042 C 
HETATM    5  C7  UNL     1      22.843 -33.796  19.581  1.00  0.00     0.017 C 
HETATM    6  C8  UNL     1      22.124 -31.762  18.355  1.00  0.00    -0.007 A 
HETATM    7  C9  UNL     1      22.078 -32.199  17.049  1.00  0.00     0.085 A 
HETATM    8  C10 UNL     1      22.425 -31.372  16.012  1.00  0.00     0.020 A 
HETATM    9  C15 UNL     1      22.816 -30.085  16.363  1.00  0.00     0.053 A 
HETATM   10 CL1  UNL     1      23.273 -28.964  15.094  1.00  0.00    -0.083 Cl
HETATM   11  C16 UNL     1      22.870 -29.621  17.654  1.00  0.00    -0.028 A 
HETATM   12  C17 UNL     1      23.292 -28.239  17.985  1.00  0.00     0.050 C 
HETATM   13  C18 UNL     1      22.513 -30.484  18.695  1.00  0.00     0.007 A 
ENDROOT
BRANCH   1  14
HETATM   14  N1  UNL     1      21.406 -29.196  20.453  1.00  0.00    -0.306 N 
HETATM   15  C3  UNL     1      21.343 -28.394  21.609  1.00  0.00     0.362 C 
HETATM   16  O2  UNL     1      22.281 -28.327  22.461  1.00  0.00    -0.238 OA
ATOM     17  H1  UNL     1      20.602 -29.187  19.826  1.00  0.00     0.167 HD
BRANCH  15  18
HETATM   18  O1  UNL     1      20.204 -27.624  21.858  1.00  0.00    -0.304 OA
BRANCH  18  19
HETATM   19  C2  UNL     1      19.187 -28.109  22.707  1.00  0.00     0.176 C 
HETATM   20  C1  UNL     1      18.158 -28.903  21.956  1.00  0.00     0.034 C 
ENDBRANCH  18  19
ENDBRANCH  15  18
ENDBRANCH   1  14
BRANCH   7  21
HETATM   21  O4  UNL     1      21.666 -33.509  16.735  1.00  0.00    -0.359 OA
ATOM     22  H4  UNL     1      22.198 -34.071  16.184  1.00  0.00     0.217 HD
ENDBRANCH   7  21
BRANCH   8  23
HETATM   23  C11 UNL     1      22.458 -31.744  14.610  1.00  0.00     0.018 C 
HETATM   24  C12 UNL     1      23.320 -32.487  13.988  1.00  0.00    -0.087 C 
HETATM   25  C13 UNL     1      23.174 -32.757  12.533  1.00  0.00     0.043 C 
HETATM   26  C14 UNL     1      24.499 -33.053  14.665  1.00  0.00     0.043 C 
ENDBRANCH   8  23
TORSDOF 5
ENDMDL
MODEL 2
REMARK VINA RESULT: -7.861820082      2.922      3.593
REMARK  5 active torsions:
REMARK  status: ('A' for Active; 'I' for Inactive)
REMARK    1  A    between atoms: C2_2  and  O1_3 
REMARK    2  A    between atoms: O1_3  and  C3_4 
REMARK       I    between atoms: C3_4  and  N1_6 
REMARK    3  A    between atoms: N1_6  and  C4_8 
REMARK    4  A    between atoms: C9_14  and  O4_15 
REMARK    5  A    between atoms: C10_17  and  C11_18 
ROOT
HETATM    1  C4  UNL     1      22.911 -27.694  17.804  1.00  0.00     0.260 C 
HETATM    2  O3  UNL     1      23.251 -27.841  19.154  1.00  0.00    -0.362 OA
HETATM    3  C5  UNL     1      22.301 -28.582  19.865  1.00  0.00     0.179 C 
HETATM    4  C6  UNL     1      22.351 -30.037  19.432  1.00  0.00     0.042 C 
HETATM    5  C7  UNL     1      23.578 -30.665  20.089  1.00  0.00     0.017 C 
HETATM    6  C8  UNL     1      22.438 -30.127  17.953  1.00  0.00    -0.007 A 
HETATM    7  C9  UNL     1      22.240 -31.372  17.396  1.00  0.00     0.085 A 
HETATM    8  C10 UNL     1      22.317 -31.563  16.041  1.00  0.00     0.020 A 
HETATM    9  C15 UNL     1      22.602 -30.434  15.281  1.00  0.00     0.053 A 
HETATM   10 CL1  UNL     1      22.716 -30.595  13.539  1.00  0.00    -0.083 Cl
HETATM   11  C16 UNL     1      22.803 -29.182  15.806  1.00  0.00    -0.028 A 
HETATM   12  C17 UNL     1      23.104 -28.004  14.959  1.00  0.00     0.050 C 
HETATM   13  C18 UNL     1      22.720 -29.012  17.193  1.00  0.00     0.007 A 
ENDROOT
BRANCH   1  14
HETATM   14  N1  UNL     1      21.758 -26.817  17.669  1.00  0.00    -0.306 N 
HETATM   15  C3  UNL     1      21.829 -25.444  17.358  1.00  0.00     0.362 C 
HETATM   16  O2  UNL     1      22.923 -24.831  17.165  1.00  0.00    -0.238 OA
ATOM     17  H1  UNL     1      20.833 -27.224  17.809  1.00  0.00     0.167 HD
BRANCH  15  18
HETATM   18  O1  UNL     1      20.654 -24.696  17.250  1.00  0.00    -0.304 OA
BRANCH  18  19
HETATM   19  C2  UNL     1      19.615 -25.120  16.395  1.00  0.00     0.176 C 
HETATM   20  C1  UNL     1      18.368 -24.307  16.580  1.00  0.00     0.034 C 
ENDBRANCH  18  19
ENDBRANCH  15  18
ENDBRANCH   1  14
BRANCH   7  21
HETATM   21  O4  UNL     1      21.943 -32.489  18.201  1.00  0.00    -0.359 OA
ATOM     22  H4  UNL     1      21.410 -33.203  17.871  1.00  0.00     0.217 HD
ENDBRANCH   7  21
BRANCH   8  23
HETATM   23  C11 UNL     1      22.174 -32.835  15.357  1.00  0.00     0.018 C 
HETATM   24  C12 UNL     1      23.098 -33.604  14.871  1.00  0.00    -0.087 C 
HETATM   25  C13 UNL     1      22.742 -34.884  14.205  1.00  0.00     0.043 C 
HETATM   26  C14 UNL     1      24.523 -33.231  14.903  1.00  0.00     0.043 C 
ENDBRANCH   8  23
TORSDOF 5
ENDMDL
MODEL 3
REMARK VINA RESULT: -7.744978415      3.757      4.720
REMARK  5 active torsions:
REMARK  status: ('A' for Active; 'I' for Inactive)
REMARK    1  A    between atoms: C2_2  and  O1_3 
REMARK    2  A    between atoms: O1_3  and  C3_4 
REMARK       I    between atoms: C3_4  and  N1_6 
REMARK    3  A    between atoms: N1_6  and  C4_8 
REMARK    4  A    between atoms: C9_14  and  O4_15 
REMARK    5  A    between atoms: C10_17  and  C11_18 
ROOT
HETATM    1  C4  UNL     1      22.831 -27.005  16.243  1.00  0.00     0.260 C 
HETATM    2  O3  UNL     1      23.213 -26.826  17.578  1.00  0.00    -0.362 OA
HETATM    3  C5  UNL     1      22.324 -27.433  18.472  1.00  0.00     0.179 C 
HETATM    4  C6  UNL     1      22.444 -28.944  18.374  1.00  0.00     0.042 C 
HETATM    5  C7  UNL     1      23.720 -29.348  19.109  1.00  0.00     0.017 C 
HETATM    6  C8  UNL     1      22.497 -29.361  16.951  1.00  0.00    -0.007 A 
HETATM    7  C9  UNL     1      22.354 -30.708  16.695  1.00  0.00     0.085 A 
HETATM    8  C10 UNL     1      22.407 -31.196  15.415  1.00  0.00     0.020 A 
HETATM    9  C15 UNL     1      22.610 -30.255  14.411  1.00  0.00     0.053 A 
HETATM   10 CL1  UNL     1      22.688 -30.799  12.746  1.00  0.00    -0.083 Cl
HETATM   11  C16 UNL     1      22.754 -28.909  14.635  1.00  0.00    -0.028 A 
HETATM   12  C17 UNL     1      22.967 -27.939  13.535  1.00  0.00     0.050 C 
HETATM   13  C18 UNL     1      22.698 -28.435  15.950  1.00  0.00     0.007 A 
ENDROOT
BRANCH   1  14
HETATM   14  N1  UNL     1      21.628 -26.237  15.958  1.00  0.00    -0.306 N 
HETATM   15  C3  UNL     1      21.609 -25.000  15.285  1.00  0.00     0.362 C 
HETATM   16  O2  UNL     1      22.657 -24.424  14.858  1.00  0.00    -0.238 OA
ATOM     17  H1  UNL     1      20.735 -26.622  16.267  1.00  0.00     0.167 HD
BRANCH  15  18
HETATM   18  O1  UNL     1      20.393 -24.349  15.063  1.00  0.00    -0.304 OA
BRANCH  18  19
HETATM   19  C2  UNL     1      19.963 -23.324  15.933  1.00  0.00     0.176 C 
HETATM   20  C1  UNL     1      18.671 -23.670  16.613  1.00  0.00     0.034 C 
ENDBRANCH  18  19
ENDBRANCH  15  18
ENDBRANCH   1  14
BRANCH   7  21
HETATM   21  O4  UNL     1      22.140 -31.627  17.740  1.00  0.00    -0.359 OA
ATOM     22  H4  UNL     1      21.922 -31.331  18.616  1.00  0.00     0.217 HD
ENDBRANCH   7  21
BRANCH   8  23
HETATM   23  C11 UNL     1      22.317 -32.595  15.040  1.00  0.00     0.018 C 
HETATM   24  C12 UNL     1      23.275 -33.426  14.770  1.00  0.00    -0.087 C 
HETATM   25  C13 UNL     1      22.973 -34.836  14.408  1.00  0.00     0.043 C 
HETATM   26  C14 UNL     1      24.689 -33.012  14.756  1.00  0.00     0.043 C 
ENDBRANCH   8  23
TORSDOF 5
ENDMDL
MODEL 4
REMARK VINA RESULT: -7.722674269      2.796      4.299
REMARK  5 active torsions:
REMARK  status: ('A' for Active; 'I' for Inactive)
REMARK    1  A    between atoms: C2_2  and  O1_3 
REMARK    2  A    between atoms: O1_3  and  C3_4 
REMARK       I    between atoms: C3_4  and  N1_6 
REMARK    3  A    between atoms: N1_6  and  C4_8 
REMARK    4  A    between atoms: C9_14  and  O4_15 
REMARK    5  A    between atoms: C10_17  and  C11_18 
ROOT
HETATM    1  C4  UNL     1      22.371 -32.472  17.431  1.00  0.00     0.260 C 
HETATM    2  O3  UNL     1      22.863 -33.719  17.031  1.00  0.00    -0.362 OA
HETATM    3  C5  UNL     1      22.355 -34.119  15.790  1.00  0.00     0.179 C 
HETATM    4  C6  UNL     1      22.938 -33.251  14.689  1.00  0.00     0.042 C 
HETATM    5  C7  UNL     1      24.368 -33.727  14.444  1.00  0.00     0.017 C 
HETATM    6  C8  UNL     1      22.917 -31.824  15.098  1.00  0.00    -0.007 A 
HETATM    7  C9  UNL     1      23.179 -30.895  14.115  1.00  0.00     0.085 A 
HETATM    8  C10 UNL     1      23.202 -29.553  14.395  1.00  0.00     0.020 A 
HETATM    9  C15 UNL     1      22.944 -29.202  15.716  1.00  0.00     0.053 A 
HETATM   10 CL1  UNL     1      22.953 -27.505  16.155  1.00  0.00    -0.083 Cl
HETATM   11  C16 UNL     1      22.679 -30.104  16.715  1.00  0.00    -0.028 A 
HETATM   12  C17 UNL     1      22.409 -29.686  18.111  1.00  0.00     0.050 C 
HETATM   13  C18 UNL     1      22.663 -31.468  16.405  1.00  0.00     0.007 A 
ENDROOT
BRANCH   1  14
HETATM   14  N1  UNL     1      20.957 -32.573  17.762  1.00  0.00    -0.306 N 
HETATM   15  C3  UNL     1      20.442 -32.610  19.073  1.00  0.00     0.362 C 
HETATM   16  O2  UNL     1      21.175 -32.562  20.109  1.00  0.00    -0.238 OA
ATOM     17  H1  UNL     1      20.292 -32.619  16.991  1.00  0.00     0.167 HD
BRANCH  15  18
HETATM   18  O1  UNL     1      19.064 -32.706  19.275  1.00  0.00    -0.304 OA
BRANCH  18  19
HETATM   19  C2  UNL     1      18.541 -32.812  20.582  1.00  0.00     0.176 C 
HETATM   20  C1  UNL     1      18.112 -34.214  20.903  1.00  0.00     0.034 C 
ENDBRANCH  18  19
ENDBRANCH  15  18
ENDBRANCH   1  14
BRANCH   7  21
HETATM   21  O4  UNL     1      23.425 -31.293  12.786  1.00  0.00    -0.359 OA
ATOM     22  H4  UNL     1      23.629 -30.654  12.113  1.00  0.00     0.217 HD
ENDBRANCH   7  21
BRANCH   8  23
HETATM   23  C11 UNL     1      23.512 -28.498  13.449  1.00  0.00     0.018 C 
HETATM   24  C12 UNL     1      22.904 -28.192  12.345  1.00  0.00    -0.087 C 
HETATM   25  C13 UNL     1      23.380 -27.058  11.510  1.00  0.00     0.043 C 
HETATM   26  C14 UNL     1      21.760 -28.971  11.841  1.00  0.00     0.043 C 
ENDBRANCH   8  23
TORSDOF 5
ENDMDL
MODEL 5
REMARK VINA RESULT: -7.370938201      5.377      7.752
REMARK  5 active torsions:
REMARK  status: ('A' for Active; 'I' for Inactive)
REMARK    1  A    between atoms: C2_2  and  O1_3 
REMARK    2  A    between atoms: O1_3  and  C3_4 
REMARK       I    between atoms: C3_4  and  N1_6 
REMARK    3  A    between atoms: N1_6  and  C4_8 
REMARK    4  A    between atoms: C9_14  and  O4_15 
REMARK    5  A    between atoms: C10_17  and  C11_18 
ROOT
HETATM    1  C4  UNL     1      22.561 -27.214  12.305  1.00  0.00     0.260 C 
HETATM    2  O3  UNL     1      22.055 -27.551  11.045  1.00  0.00    -0.362 OA
HETATM    3  C5  UNL     1      22.876 -28.459  10.367  1.00  0.00     0.179 C 
HETATM    4  C6  UNL     1      22.808 -29.819  11.039  1.00  0.00     0.042 C 
HETATM    5  C7  UNL     1      21.483 -30.460  10.635  1.00  0.00     0.017 C 
HETATM    6  C8  UNL     1      22.896 -29.665  12.513  1.00  0.00    -0.007 A 
HETATM    7  C9  UNL     1      23.099 -30.816  13.243  1.00  0.00     0.085 A 
HETATM    8  C10 UNL     1      23.176 -30.783  14.612  1.00  0.00     0.020 A 
HETATM    9  C15 UNL     1      23.038 -29.530  15.200  1.00  0.00     0.053 A 
HETATM   10 CL1  UNL     1      23.127 -29.403  16.946  1.00  0.00    -0.083 Cl
HETATM   11  C16 UNL     1      22.837 -28.368  14.499  1.00  0.00    -0.028 A 
HETATM   12  C17 UNL     1      22.697 -27.052  15.166  1.00  0.00     0.050 C 
HETATM   13  C18 UNL     1      22.761 -28.428  13.103  1.00  0.00     0.007 A 
ENDROOT
BRANCH   1  14
HETATM   14  N1  UNL     1      23.764 -26.406  12.165  1.00  0.00    -0.306 N 
HETATM   15  C3  UNL     1      23.841 -25.029  12.455  1.00  0.00     0.362 C 
HETATM   16  O2  UNL     1      22.852 -24.350  12.872  1.00  0.00    -0.238 OA
ATOM     17  H1  UNL     1      24.609 -26.868  11.832  1.00  0.00     0.167 HD
BRANCH  15  18
HETATM   18  O1  UNL     1      25.050 -24.351  12.285  1.00  0.00    -0.304 OA
BRANCH  18  19
HETATM   19  C2  UNL     1      25.187 -23.018  12.728  1.00  0.00     0.176 C 
HETATM   20  C1  UNL     1      25.103 -22.038  11.595  1.00  0.00     0.034 C 
ENDBRANCH  18  19
ENDBRANCH  15  18
ENDBRANCH   1  14
BRANCH   7  21
HETATM   21  O4  UNL     1      23.243 -32.065  12.608  1.00  0.00    -0.359 OA
ATOM     22  H4  UNL     1      23.723 -32.772  13.021  1.00  0.00     0.217 HD
ENDBRANCH   7  21
BRANCH   8  23
HETATM   23  C11 UNL     1      23.339 -31.936  15.477  1.00  0.00     0.018 C 
HETATM   24  C12 UNL     1      22.436 -32.581  16.148  1.00  0.00    -0.087 C 
HETATM   25  C13 UNL     1      22.809 -33.754  16.982  1.00  0.00     0.043 C 
HETATM   26  C14 UNL     1      21.023 -32.162  16.163  1.00  0.00     0.043 C 
ENDBRANCH   8  23
TORSDOF 5
ENDMDL
