MODEL 1
REMARK VINA RESULT: -8.553164293      0.000      0.000
REMARK  5 active torsions:
REMARK  status: ('A' for Active; 'I' for Inactive)
REMARK    1  A    between atoms: C2_2  and  C4_4 
REMARK    2  A    between atoms: C5_5  and  O1_6 
REMARK    3  A    between atoms: C6_8  and  O2_9 
REMARK    4  A    between atoms: O2_9  and  C7_10 
REMARK    5  A    between atoms: C16_20  and  O4_21 
ROOT
HETATM    1  C4  UNL     1      22.805 -32.512  15.651  1.00  0.00    -0.008 A 
HETATM    2  C5  UNL     1      22.252 -32.992  16.767  1.00  0.00     0.106 A 
HETATM    3  C6  UNL     1      21.627 -32.223  17.845  1.00  0.00     0.325 A 
HETATM    4  O3  UNL     1      21.634 -30.857  17.529  1.00  0.00    -0.313 OA
HETATM    5  C14 UNL     1      22.170 -30.286  16.428  1.00  0.00     0.086 A 
HETATM    6  C15 UNL     1      22.125 -28.895  16.254  1.00  0.00     0.076 A 
HETATM    7  C16 UNL     1      22.658 -28.294  15.148  1.00  0.00     0.090 A 
HETATM    8  C17 UNL     1      23.248 -29.072  14.190  1.00  0.00     0.068 A 
HETATM    9 CL1  UNL     1      23.942 -28.339  12.757  1.00  0.00    -0.081 Cl
HETATM   10  C18 UNL     1      23.287 -30.452  14.373  1.00  0.00     0.041 A 
HETATM   11  C19 UNL     1      22.764 -31.070  15.464  1.00  0.00     0.008 A 
ENDROOT
BRANCH   3  12
HETATM   12  O2  UNL     1      22.314 -32.470  19.030  1.00  0.00    -0.344 OA
BRANCH  12  13
HETATM   13  C7  UNL     1      21.606 -32.486  20.177  1.00  0.00     0.061 C 
HETATM   14  C8  UNL     1      21.878 -33.680  21.066  1.00  0.00     0.046 C 
HETATM   15  C9  UNL     1      21.785 -31.243  20.981  1.00  0.00     0.038 C 
HETATM   16  C10 UNL     1      20.925 -31.275  22.248  1.00  0.00     0.003 C 
HETATM   17  C11 UNL     1      19.489 -31.537  21.925  1.00  0.00     0.000 C 
HETATM   18  C12 UNL     1      19.236 -32.647  20.964  1.00  0.00     0.003 C 
HETATM   19  C13 UNL     1      20.126 -32.641  19.767  1.00  0.00     0.038 C 
ENDBRANCH  12  13
ENDBRANCH   3  12
BRANCH   2  20
HETATM   20  O1  UNL     1      22.316 -34.413  16.846  1.00  0.00    -0.359 OA
ATOM     21  H1  UNL     1      22.800 -34.716  17.605  1.00  0.00     0.217 HD
ENDBRANCH   2  20
BRANCH   1  22
HETATM   22  C2  UNL     1      23.420 -33.407  14.619  1.00  0.00     0.014 C 
HETATM   23  C1  UNL     1      22.605 -33.427  13.344  1.00  0.00     0.015 C 
HETATM   24  C3  UNL     1      24.875 -33.158  14.385  1.00  0.00     0.015 C 
ENDBRANCH   1  22
BRANCH   7  25
HETATM   25  O4  UNL     1      22.590 -26.903  15.019  1.00  0.00    -0.359 OA
ATOM     26  H4  UNL     1      22.481 -26.518  14.158  1.00  0.00     0.217 HD
ENDBRANCH   7  25
TORSDOF 5
ENDMDL
MODEL 2
REMARK VINA RESULT: -8.525992672      0.488      1.252
REMARK  5 active torsions:
REMARK  status: ('A' for Active; 'I' for Inactive)
REMARK    1  A    between atoms: C2_2  and  C4_4 
REMARK    2  A    between atoms: C5_5  and  O1_6 
REMARK    3  A    between atoms: C6_8  and  O2_9 
REMARK    4  A    between atoms: O2_9  and  C7_10 
REMARK    5  A    between atoms: C16_20  and  O4_21 
ROOT
HETATM    1  C4  UNL     1      22.805 -32.505  15.619  1.00  0.00    -0.008 A 
HETATM    2  C5  UNL     1      22.251 -32.994  16.730  1.00  0.00     0.106 A 
HETATM    3  C6  UNL     1      21.621 -32.236  17.811  1.00  0.00     0.325 A 
HETATM    4  O3  UNL     1      21.625 -30.867  17.506  1.00  0.00    -0.313 OA
HETATM    5  C14 UNL     1      22.161 -30.287  16.410  1.00  0.00     0.086 A 
HETATM    6  C15 UNL     1      22.112 -28.894  16.247  1.00  0.00     0.076 A 
HETATM    7  C16 UNL     1      22.646 -28.284  15.146  1.00  0.00     0.090 A 
HETATM    8  C17 UNL     1      23.240 -29.052  14.184  1.00  0.00     0.068 A 
HETATM    9 CL1  UNL     1      23.936 -28.307  12.758  1.00  0.00    -0.081 Cl
HETATM   10  C18 UNL     1      23.283 -30.434  14.357  1.00  0.00     0.041 A 
HETATM   11  C19 UNL     1      22.760 -31.061  15.442  1.00  0.00     0.008 A 
ENDROOT
BRANCH   3  12
HETATM   12  O2  UNL     1      22.306 -32.489  18.997  1.00  0.00    -0.344 OA
BRANCH  12  13
HETATM   13  C7  UNL     1      21.581 -32.671  20.117  1.00  0.00     0.061 C 
HETATM   14  C8  UNL     1      21.899 -31.704  21.237  1.00  0.00     0.046 C 
HETATM   15  C9  UNL     1      20.112 -32.639  19.863  1.00  0.00     0.038 C 
HETATM   16  C10 UNL     1      19.322 -32.903  21.149  1.00  0.00     0.003 C 
HETATM   17  C11 UNL     1      19.754 -34.177  21.801  1.00  0.00     0.000 C 
HETATM   18  C12 UNL     1      21.226 -34.377  21.915  1.00  0.00     0.003 C 
HETATM   19  C13 UNL     1      21.990 -34.051  20.675  1.00  0.00     0.038 C 
ENDBRANCH  12  13
ENDBRANCH   3  12
BRANCH   2  20
HETATM   20  O1  UNL     1      22.320 -34.416  16.798  1.00  0.00    -0.359 OA
ATOM     21  H1  UNL     1      21.679 -34.785  17.395  1.00  0.00     0.217 HD
ENDBRANCH   2  20
BRANCH   1  22
HETATM   22  C2  UNL     1      23.425 -33.390  14.581  1.00  0.00     0.014 C 
HETATM   23  C1  UNL     1      22.612 -33.405  13.305  1.00  0.00     0.015 C 
HETATM   24  C3  UNL     1      24.879 -33.133  14.350  1.00  0.00     0.015 C 
ENDBRANCH   1  22
BRANCH   7  25
HETATM   25  O4  UNL     1      22.574 -26.892  15.028  1.00  0.00    -0.359 OA
ATOM     26  H4  UNL     1      23.340 -26.366  15.221  1.00  0.00     0.217 HD
ENDBRANCH   7  25
TORSDOF 5
ENDMDL
MODEL 3
REMARK VINA RESULT: -8.457602398      2.724      6.224
REMARK  5 active torsions:
REMARK  status: ('A' for Active; 'I' for Inactive)
REMARK    1  A    between atoms: C2_2  and  C4_4 
REMARK    2  A    between atoms: C5_5  and  O1_6 
REMARK    3  A    between atoms: C6_8  and  O2_9 
REMARK    4  A    between atoms: O2_9  and  C7_10 
REMARK    5  A    between atoms: C16_20  and  O4_21 
ROOT
HETATM    1  C4  UNL     1      21.966 -32.072  18.828  1.00  0.00    -0.008 A 
HETATM    2  C5  UNL     1      22.421 -32.492  17.646  1.00  0.00     0.106 A 
HETATM    3  C6  UNL     1      23.000 -31.674  16.580  1.00  0.00     0.325 A 
HETATM    4  O3  UNL     1      23.071 -30.334  16.986  1.00  0.00    -0.313 OA
HETATM    5  C14 UNL     1      22.636 -29.822  18.158  1.00  0.00     0.086 A 
HETATM    6  C15 UNL     1      22.749 -28.448  18.421  1.00  0.00     0.076 A 
HETATM    7  C16 UNL     1      22.318 -27.907  19.600  1.00  0.00     0.090 A 
HETATM    8  C17 UNL     1      21.765 -28.727  20.543  1.00  0.00     0.068 A 
HETATM    9 CL1  UNL     1      21.201 -28.071  22.068  1.00  0.00    -0.081 Cl
HETATM   10  C18 UNL     1      21.657 -30.089  20.272  1.00  0.00     0.041 A 
HETATM   11  C19 UNL     1      22.078 -30.648  19.108  1.00  0.00     0.008 A 
ENDROOT
BRANCH   3  12
HETATM   12  O2  UNL     1      22.224 -31.813  15.433  1.00  0.00    -0.344 OA
BRANCH  12  13
HETATM   13  C7  UNL     1      22.758 -32.472  14.387  1.00  0.00     0.061 C 
HETATM   14  C8  UNL     1      24.217 -32.837  14.552  1.00  0.00     0.046 C 
HETATM   15  C9  UNL     1      21.996 -33.704  14.032  1.00  0.00     0.038 C 
HETATM   16  C10 UNL     1      22.601 -34.395  12.806  1.00  0.00     0.003 C 
HETATM   17  C11 UNL     1      22.718 -33.453  11.652  1.00  0.00     0.000 C 
HETATM   18  C12 UNL     1      23.293 -32.115  11.968  1.00  0.00     0.003 C 
HETATM   19  C13 UNL     1      22.743 -31.482  13.202  1.00  0.00     0.038 C 
ENDBRANCH  12  13
ENDBRANCH   3  12
BRANCH   2  20
HETATM   20  O1  UNL     1      22.293 -33.901  17.478  1.00  0.00    -0.359 OA
ATOM     21  H1  UNL     1      21.984 -34.140  16.611  1.00  0.00     0.217 HD
ENDBRANCH   2  20
BRANCH   1  22
HETATM   22  C2  UNL     1      21.388 -33.013  19.840  1.00  0.00     0.014 C 
HETATM   23  C1  UNL     1      22.382 -33.333  20.934  1.00  0.00     0.015 C 
HETATM   24  C3  UNL     1      20.049 -32.601  20.362  1.00  0.00     0.015 C 
ENDBRANCH   1  22
BRANCH   7  25
HETATM   25  O4  UNL     1      22.452 -26.532  19.816  1.00  0.00    -0.359 OA
ATOM     26  H4  UNL     1      23.255 -26.193  20.193  1.00  0.00     0.217 HD
ENDBRANCH   7  25
TORSDOF 5
ENDMDL
MODEL 4
REMARK VINA RESULT: -8.316120440      3.621      6.836
REMARK  5 active torsions:
REMARK  status: ('A' for Active; 'I' for Inactive)
REMARK    1  A    between atoms: C2_2  and  C4_4 
REMARK    2  A    between atoms: C5_5  and  O1_6 
REMARK    3  A    between atoms: C6_8  and  O2_9 
REMARK    4  A    between atoms: O2_9  and  C7_10 
REMARK    5  A    between atoms: C16_20  and  O4_21 
ROOT
HETATM    1  C4  UNL     1      22.949 -29.602  12.531  1.00  0.00    -0.008 A 
HETATM    2  C5  UNL     1      23.029 -28.325  12.911  1.00  0.00     0.106 A 
HETATM    3  C6  UNL     1      22.999 -27.806  14.279  1.00  0.00     0.325 A 
HETATM    4  O3  UNL     1      22.922 -28.866  15.195  1.00  0.00    -0.313 OA
HETATM    5  C14 UNL     1      22.837 -30.182  14.900  1.00  0.00     0.086 A 
HETATM    6  C15 UNL     1      22.740 -31.136  15.924  1.00  0.00     0.076 A 
HETATM    7  C16 UNL     1      22.655 -32.472  15.652  1.00  0.00     0.090 A 
HETATM    8  C17 UNL     1      22.666 -32.886  14.348  1.00  0.00     0.068 A 
HETATM    9 CL1  UNL     1      22.559 -34.591  13.958  1.00  0.00    -0.081 Cl
HETATM   10  C18 UNL     1      22.762 -31.930  13.339  1.00  0.00     0.041 A 
HETATM   11  C19 UNL     1      22.846 -30.597  13.587  1.00  0.00     0.008 A 
ENDROOT
BRANCH   3  12
HETATM   12  O2  UNL     1      21.913 -26.947  14.411  1.00  0.00    -0.344 OA
BRANCH  12  13
HETATM   13  C7  UNL     1      22.130 -25.735  14.959  1.00  0.00     0.061 C 
HETATM   14  C8  UNL     1      22.743 -25.772  16.343  1.00  0.00     0.046 C 
HETATM   15  C9  UNL     1      22.964 -24.853  14.093  1.00  0.00     0.038 C 
HETATM   16  C10 UNL     1      23.144 -23.469  14.724  1.00  0.00     0.003 C 
HETATM   17  C11 UNL     1      21.827 -22.847  15.061  1.00  0.00     0.000 C 
HETATM   18  C12 UNL     1      20.855 -23.735  15.759  1.00  0.00     0.003 C 
HETATM   19  C13 UNL     1      20.739 -25.103  15.174  1.00  0.00     0.038 C 
ENDBRANCH  12  13
ENDBRANCH   3  12
BRANCH   2  20
HETATM   20  O1  UNL     1      23.154 -27.430  11.809  1.00  0.00    -0.359 OA
ATOM     21  H1  UNL     1      22.555 -26.695  11.864  1.00  0.00     0.217 HD
ENDBRANCH   2  20
BRANCH   1  22
HETATM   22  C2  UNL     1      22.987 -30.008  11.089  1.00  0.00     0.014 C 
HETATM   23  C1  UNL     1      23.768 -31.289  10.893  1.00  0.00     0.015 C 
HETATM   24  C3  UNL     1      21.649 -30.025  10.425  1.00  0.00     0.015 C 
ENDBRANCH   1  22
BRANCH   7  25
HETATM   25  O4  UNL     1      22.559 -33.386  16.706  1.00  0.00    -0.359 OA
ATOM     26  H4  UNL     1      22.673 -34.313  16.534  1.00  0.00     0.217 HD
ENDBRANCH   7  25
TORSDOF 5
ENDMDL
MODEL 5
REMARK VINA RESULT: -8.304976432      3.911      5.944
REMARK  5 active torsions:
REMARK  status: ('A' for Active; 'I' for Inactive)
REMARK    1  A    between atoms: C2_2  and  C4_4 
REMARK    2  A    between atoms: C5_5  and  O1_6 
REMARK    3  A    between atoms: C6_8  and  O2_9 
REMARK    4  A    between atoms: O2_9  and  C7_10 
REMARK    5  A    between atoms: C16_20  and  O4_21 
ROOT
HETATM    1  C4  UNL     1      22.604 -27.763  13.373  1.00  0.00    -0.008 A 
HETATM    2  C5  UNL     1      22.604 -29.091  13.240  1.00  0.00     0.106 A 
HETATM    3  C6  UNL     1      22.611 -30.086  14.312  1.00  0.00     0.325 A 
HETATM    4  O3  UNL     1      22.565 -29.450  15.561  1.00  0.00    -0.313 OA
HETATM    5  C14 UNL     1      22.563 -28.118  15.788  1.00  0.00     0.086 A 
HETATM    6  C15 UNL     1      22.540 -27.620  17.100  1.00  0.00     0.076 A 
HETATM    7  C16 UNL     1      22.535 -26.277  17.354  1.00  0.00     0.090 A 
HETATM    8  C17 UNL     1      22.552 -25.402  16.304  1.00  0.00     0.068 A 
HETATM    9 CL1  UNL     1      22.547 -23.672  16.590  1.00  0.00    -0.081 Cl
HETATM   10  C18 UNL     1      22.575 -25.908  15.006  1.00  0.00     0.041 A 
HETATM   11  C19 UNL     1      22.581 -27.238  14.730  1.00  0.00     0.008 A 
ENDROOT
BRANCH   3  12
HETATM   12  O2  UNL     1      23.753 -30.873  14.189  1.00  0.00    -0.344 OA
BRANCH  12  13
HETATM   13  C7  UNL     1      23.603 -32.212  14.228  1.00  0.00     0.061 C 
HETATM   14  C8  UNL     1      24.894 -32.983  14.396  1.00  0.00     0.046 C 
HETATM   15  C9  UNL     1      22.644 -32.653  15.281  1.00  0.00     0.038 C 
HETATM   16  C10 UNL     1      22.459 -34.173  15.259  1.00  0.00     0.003 C 
HETATM   17  C11 UNL     1      22.066 -34.655  13.900  1.00  0.00     0.000 C 
HETATM   18  C12 UNL     1      22.856 -34.100  12.766  1.00  0.00     0.003 C 
HETATM   19  C13 UNL     1      23.085 -32.628  12.835  1.00  0.00     0.038 C 
ENDBRANCH  12  13
ENDBRANCH   3  12
BRANCH   2  20
HETATM   20  O1  UNL     1      22.598 -29.507  11.877  1.00  0.00    -0.359 OA
ATOM     21  H1  UNL     1      21.891 -30.111  11.681  1.00  0.00     0.217 HD
ENDBRANCH   2  20
BRANCH   1  22
HETATM   22  C2  UNL     1      22.600 -26.844  12.190  1.00  0.00     0.014 C 
HETATM   23  C1  UNL     1      24.004 -26.546  11.712  1.00  0.00     0.015 C 
HETATM   24  C3  UNL     1      21.681 -27.268  11.090  1.00  0.00     0.015 C 
ENDBRANCH   1  22
BRANCH   7  25
HETATM   25  O4  UNL     1      22.512 -25.827  18.678  1.00  0.00    -0.359 OA
ATOM     26  H4  UNL     1      21.680 -25.730  19.125  1.00  0.00     0.217 HD
ENDBRANCH   7  25
TORSDOF 5
ENDMDL
