MODEL 1
REMARK VINA RESULT: -8.903839101      0.000      0.000
REMARK  4 active torsions:
REMARK  status: ('A' for Active; 'I' for Inactive)
REMARK    1  A    between atoms: C3_3  and  O1_4 
REMARK    2  A    between atoms: O1_4  and  C4_5 
REMARK    3  A    between atoms: C12_14  and  O2_15 
REMARK    4  A    between atoms: N1_21  and  C17_22 
ROOT
HETATM    1  C1  UNL     1      22.541 -27.843  16.120  1.00  0.00     0.052 C 
HETATM    2  C2  UNL     1      22.835 -27.184  14.823  1.00  0.00    -0.016 A 
HETATM    3  C3  UNL     1      23.061 -27.934  13.692  1.00  0.00     0.078 A 
HETATM    4  C11 UNL     1      23.326 -27.184  12.532  1.00  0.00     0.076 A 
HETATM    5  C12 UNL     1      23.363 -25.826  12.497  1.00  0.00     0.096 A 
HETATM    6  C13 UNL     1      23.134 -25.111  13.635  1.00  0.00     0.080 A 
HETATM    7  C14 UNL     1      22.870 -25.803  14.798  1.00  0.00     0.004 A 
HETATM    8  C15 UNL     1      22.676 -24.862  15.798  1.00  0.00     0.031 A 
HETATM    9  C16 UNL     1      22.830 -23.638  15.200  1.00  0.00     0.094 A 
HETATM   10  N1  UNL     1      23.107 -23.785  13.893  1.00  0.00    -0.325 N 
ENDROOT
BRANCH   3  11
HETATM   11  O1  UNL     1      23.058 -29.256  13.573  1.00  0.00    -0.345 OA
BRANCH  11  12
HETATM   12  C4  UNL     1      22.262 -30.335  13.674  1.00  0.00     0.129 C 
HETATM   13  C5  UNL     1      22.316 -31.265  12.445  1.00  0.00     0.035 C 
HETATM   14  C6  UNL     1      23.589 -32.085  12.526  1.00  0.00     0.045 C 
HETATM   15  C7  UNL     1      23.369 -33.173  13.584  1.00  0.00     0.100 C 
HETATM   16  C8  UNL     1      22.655 -34.358  12.996  1.00  0.00     0.051 C 
HETATM   17  F1  UNL     1      24.593 -33.567  14.090  1.00  0.00    -0.243 F 
HETATM   18  C9  UNL     1      22.463 -32.624  14.693  1.00  0.00     0.045 C 
HETATM   19  C10 UNL     1      22.814 -31.165  14.858  1.00  0.00     0.035 C 
ENDBRANCH  11  12
ENDBRANCH   3  11
BRANCH   5  20
HETATM   20  O2  UNL     1      23.629 -25.095  11.330  1.00  0.00    -0.358 OA
ATOM     21  H2  UNL     1      24.246 -24.375  11.297  1.00  0.00     0.217 HD
ENDBRANCH   5  20
BRANCH  10  22
HETATM   22  C17 UNL     1      23.330 -22.692  12.967  1.00  0.00     0.290 C 
HETATM   23  C18 UNL     1      22.817 -21.381  13.453  1.00  0.00     0.057 C 
HETATM   24  C19 UNL     1      24.044 -20.572  13.798  1.00  0.00     0.031 C 
HETATM   25  C20 UNL     1      25.187 -21.308  13.195  1.00  0.00     0.235 C 
HETATM   26  N2  UNL     1      24.733 -22.550  12.675  1.00  0.00    -0.054 N 
ATOM     27  H22 UNL     1      25.283 -23.339  13.015  1.00  0.00     0.279 HD
ATOM     28  H21 UNL     1      24.936 -22.653  11.680  1.00  0.00     0.279 HD
ENDBRANCH  10  22
TORSDOF 4
ENDMDL
MODEL 2
REMARK VINA RESULT: -8.567786179      4.994      8.360
REMARK  4 active torsions:
REMARK  status: ('A' for Active; 'I' for Inactive)
REMARK    1  A    between atoms: C3_3  and  O1_4 
REMARK    2  A    between atoms: O1_4  and  C4_5 
REMARK    3  A    between atoms: C12_14  and  O2_15 
REMARK    4  A    between atoms: N1_21  and  C17_22 
ROOT
HETATM    1  C1  UNL     1      23.469 -27.923  17.692  1.00  0.00     0.052 C 
HETATM    2  C2  UNL     1      22.858 -29.259  17.483  1.00  0.00    -0.016 A 
HETATM    3  C3  UNL     1      22.599 -29.719  16.213  1.00  0.00     0.078 A 
HETATM    4  C11 UNL     1      22.021 -31.000  16.158  1.00  0.00     0.076 A 
HETATM    5  C12 UNL     1      21.728 -31.750  17.253  1.00  0.00     0.096 A 
HETATM    6  C13 UNL     1      21.997 -31.265  18.499  1.00  0.00     0.080 A 
HETATM    7  C14 UNL     1      22.564 -30.013  18.603  1.00  0.00     0.004 A 
HETATM    8  C15 UNL     1      22.736 -29.753  19.955  1.00  0.00     0.031 A 
HETATM    9  C16 UNL     1      22.265 -30.859  20.614  1.00  0.00     0.094 A 
HETATM   10  N1  UNL     1      21.818 -31.775  19.737  1.00  0.00    -0.325 N 
ENDROOT
BRANCH   3  11
HETATM   11  O1  UNL     1      22.828 -29.106  15.058  1.00  0.00    -0.345 OA
BRANCH  11  12
HETATM   12  C4  UNL     1      23.556 -29.190  13.931  1.00  0.00     0.129 C 
HETATM   13  C5  UNL     1      23.152 -30.363  13.015  1.00  0.00     0.035 C 
HETATM   14  C6  UNL     1      21.887 -29.974  12.276  1.00  0.00     0.045 C 
HETATM   15  C7  UNL     1      22.285 -28.992  11.168  1.00  0.00     0.100 C 
HETATM   16  C8  UNL     1      22.762 -29.724   9.946  1.00  0.00     0.051 C 
HETATM   17  F1  UNL     1      21.195 -28.205  10.848  1.00  0.00    -0.243 F 
HETATM   18  C9  UNL     1      23.461 -28.135  11.651  1.00  0.00     0.045 C 
HETATM   19  C10 UNL     1      23.253 -27.902  13.128  1.00  0.00     0.035 C 
ENDBRANCH  11  12
ENDBRANCH   3  11
BRANCH   5  20
HETATM   20  O2  UNL     1      21.151 -33.026  17.178  1.00  0.00    -0.358 OA
ATOM     21  H2  UNL     1      20.976 -33.563  17.942  1.00  0.00     0.217 HD
ENDBRANCH   5  20
BRANCH  10  22
HETATM   22  C17 UNL     1      21.254 -33.059  20.099  1.00  0.00     0.290 C 
HETATM   23  C18 UNL     1      21.431 -33.409  21.536  1.00  0.00     0.057 C 
HETATM   24  C19 UNL     1      20.058 -33.285  22.153  1.00  0.00     0.031 C 
HETATM   25  C20 UNL     1      19.115 -33.200  21.006  1.00  0.00     0.235 C 
HETATM   26  N2  UNL     1      19.847 -33.103  19.792  1.00  0.00    -0.054 N 
ATOM     27  H22 UNL     1      19.549 -32.314  19.220  1.00  0.00     0.279 HD
ATOM     28  H21 UNL     1      19.615 -33.850  19.137  1.00  0.00     0.279 HD
ENDBRANCH  10  22
TORSDOF 4
ENDMDL
MODEL 3
REMARK VINA RESULT: -8.385039443      0.968      1.334
REMARK  4 active torsions:
REMARK  status: ('A' for Active; 'I' for Inactive)
REMARK    1  A    between atoms: C3_3  and  O1_4 
REMARK    2  A    between atoms: O1_4  and  C4_5 
REMARK    3  A    between atoms: C12_14  and  O2_15 
REMARK    4  A    between atoms: N1_21  and  C17_22 
ROOT
HETATM    1  C1  UNL     1      22.452 -28.397  15.836  1.00  0.00     0.052 C 
HETATM    2  C2  UNL     1      22.673 -27.612  14.596  1.00  0.00    -0.016 A 
HETATM    3  C3  UNL     1      22.756 -28.240  13.375  1.00  0.00     0.078 A 
HETATM    4  C11 UNL     1      22.966 -27.379  12.283  1.00  0.00     0.076 A 
HETATM    5  C12 UNL     1      23.082 -26.029  12.392  1.00  0.00     0.096 A 
HETATM    6  C13 UNL     1      22.995 -25.436  13.616  1.00  0.00     0.080 A 
HETATM    7  C14 UNL     1      22.790 -26.240  14.717  1.00  0.00     0.004 A 
HETATM    8  C15 UNL     1      22.739 -25.409  15.826  1.00  0.00     0.031 A 
HETATM    9  C16 UNL     1      22.916 -24.135  15.352  1.00  0.00     0.094 A 
HETATM   10  N1  UNL     1      23.070 -24.148  14.017  1.00  0.00    -0.325 N 
ENDROOT
BRANCH   3  11
HETATM   11  O1  UNL     1      22.663 -29.538  13.115  1.00  0.00    -0.345 OA
BRANCH  11  12
HETATM   12  C4  UNL     1      23.404 -30.644  12.920  1.00  0.00     0.129 C 
HETATM   13  C5  UNL     1      23.947 -31.267  14.222  1.00  0.00     0.035 C 
HETATM   14  C6  UNL     1      22.819 -32.032  14.888  1.00  0.00     0.045 C 
HETATM   15  C7  UNL     1      22.629 -33.339  14.111  1.00  0.00     0.100 C 
HETATM   16  C8  UNL     1      23.600 -34.387  14.576  1.00  0.00     0.051 C 
HETATM   17  F1  UNL     1      21.334 -33.788  14.290  1.00  0.00    -0.243 F 
HETATM   18  C9  UNL     1      22.928 -33.094  12.627  1.00  0.00     0.045 C 
HETATM   19  C10 UNL     1      22.449 -31.698  12.312  1.00  0.00     0.035 C 
ENDBRANCH  11  12
ENDBRANCH   3  11
BRANCH   5  20
HETATM   20  O2  UNL     1      23.291 -25.186  11.290  1.00  0.00    -0.358 OA
ATOM     21  H2  UNL     1      22.644 -24.562  10.983  1.00  0.00     0.217 HD
ENDBRANCH   5  20
BRANCH  10  22
HETATM   22  C17 UNL     1      23.279 -22.971  13.198  1.00  0.00     0.290 C 
HETATM   23  C18 UNL     1      22.876 -21.700  13.861  1.00  0.00     0.057 C 
HETATM   24  C19 UNL     1      24.168 -20.989  14.188  1.00  0.00     0.031 C 
HETATM   25  C20 UNL     1      25.219 -21.704  13.417  1.00  0.00     0.235 C 
HETATM   26  N2  UNL     1      24.661 -22.860  12.807  1.00  0.00    -0.054 N 
ATOM     27  H22 UNL     1      25.192 -23.705  13.014  1.00  0.00     0.279 HD
ATOM     28  H21 UNL     1      24.780 -22.861  11.793  1.00  0.00     0.279 HD
ENDBRANCH  10  22
TORSDOF 4
ENDMDL
MODEL 4
REMARK VINA RESULT: -8.243455093      5.200      7.623
REMARK  4 active torsions:
REMARK  status: ('A' for Active; 'I' for Inactive)
REMARK    1  A    between atoms: C3_3  and  O1_4 
REMARK    2  A    between atoms: O1_4  and  C4_5 
REMARK    3  A    between atoms: C12_14  and  O2_15 
REMARK    4  A    between atoms: N1_21  and  C17_22 
ROOT
HETATM    1  C1  UNL     1      22.498 -33.805  16.966  1.00  0.00     0.052 C 
HETATM    2  C2  UNL     1      22.552 -32.416  16.447  1.00  0.00    -0.016 A 
HETATM    3  C3  UNL     1      22.384 -31.345  17.293  1.00  0.00     0.078 A 
HETATM    4  C11 UNL     1      22.459 -30.086  16.672  1.00  0.00     0.076 A 
HETATM    5  C12 UNL     1      22.680 -29.907  15.343  1.00  0.00     0.096 A 
HETATM    6  C13 UNL     1      22.843 -30.989  14.529  1.00  0.00     0.080 A 
HETATM    7  C14 UNL     1      22.777 -32.245  15.094  1.00  0.00     0.004 A 
HETATM    8  C15 UNL     1      22.972 -33.163  14.073  1.00  0.00     0.031 A 
HETATM    9  C16 UNL     1      23.147 -32.425  12.931  1.00  0.00     0.094 A 
HETATM   10  N1  UNL     1      23.071 -31.111  13.203  1.00  0.00    -0.325 N 
ENDROOT
BRANCH   3  11
HETATM   11  O1  UNL     1      22.162 -31.365  18.602  1.00  0.00    -0.345 OA
BRANCH  11  12
HETATM   12  C4  UNL     1      21.850 -32.186  19.620  1.00  0.00     0.129 C 
HETATM   13  C5  UNL     1      22.067 -31.562  21.013  1.00  0.00     0.035 C 
HETATM   14  C6  UNL     1      20.910 -30.623  21.298  1.00  0.00     0.045 C 
HETATM   15  C7  UNL     1      19.696 -31.486  21.659  1.00  0.00     0.100 C 
HETATM   16  C8  UNL     1      19.725 -31.875  23.110  1.00  0.00     0.051 C 
HETATM   17  F1  UNL     1      18.541 -30.779  21.386  1.00  0.00    -0.243 F 
HETATM   18  C9  UNL     1      19.747 -32.792  20.857  1.00  0.00     0.045 C 
HETATM   19  C10 UNL     1      20.330 -32.450  19.506  1.00  0.00     0.035 C 
ENDBRANCH  11  12
ENDBRANCH   3  11
BRANCH   5  20
HETATM   20  O2  UNL     1      22.752 -28.642  14.741  1.00  0.00    -0.358 OA
ATOM     21  H2  UNL     1      23.440 -28.394  14.136  1.00  0.00     0.217 HD
ENDBRANCH   5  20
BRANCH  10  22
HETATM   22  C17 UNL     1      23.211 -30.054  12.223  1.00  0.00     0.290 C 
HETATM   23  C18 UNL     1      23.578 -30.541  10.864  1.00  0.00     0.057 C 
HETATM   24  C19 UNL     1      22.336 -30.364  10.023  1.00  0.00     0.031 C 
HETATM   25  C20 UNL     1      21.436 -29.492  10.825  1.00  0.00     0.235 C 
HETATM   26  N2  UNL     1      21.994 -29.291  12.117  1.00  0.00    -0.054 N 
ATOM     27  H22 UNL     1      21.334 -29.507  12.863  1.00  0.00     0.279 HD
ATOM     28  H21 UNL     1      22.133 -28.303  12.331  1.00  0.00     0.279 HD
ENDBRANCH  10  22
TORSDOF 4
ENDMDL
MODEL 5
REMARK VINA RESULT: -8.227664465      5.190      7.613
REMARK  4 active torsions:
REMARK  status: ('A' for Active; 'I' for Inactive)
REMARK    1  A    between atoms: C3_3  and  O1_4 
REMARK    2  A    between atoms: O1_4  and  C4_5 
REMARK    3  A    between atoms: C12_14  and  O2_15 
REMARK    4  A    between atoms: N1_21  and  C17_22 
ROOT
HETATM    1  C1  UNL     1      22.481 -33.781  16.885  1.00  0.00     0.052 C 
HETATM    2  C2  UNL     1      22.469 -32.390  16.369  1.00  0.00    -0.016 A 
HETATM    3  C3  UNL     1      22.159 -31.338  17.199  1.00  0.00     0.078 A 
HETATM    4  C11 UNL     1      22.186 -30.074  16.583  1.00  0.00     0.076 A 
HETATM    5  C12 UNL     1      22.492 -29.874  15.274  1.00  0.00     0.096 A 
HETATM    6  C13 UNL     1      22.796 -30.937  14.476  1.00  0.00     0.080 A 
HETATM    7  C14 UNL     1      22.781 -32.197  15.037  1.00  0.00     0.004 A 
HETATM    8  C15 UNL     1      23.120 -33.094  14.034  1.00  0.00     0.031 A 
HETATM    9  C16 UNL     1      23.325 -32.340  12.908  1.00  0.00     0.094 A 
HETATM   10  N1  UNL     1      23.130 -31.037  13.171  1.00  0.00    -0.325 N 
ENDROOT
BRANCH   3  11
HETATM   11  O1  UNL     1      21.842 -31.379  18.488  1.00  0.00    -0.345 OA
BRANCH  11  12
HETATM   12  C4  UNL     1      22.335 -31.142  19.716  1.00  0.00     0.129 C 
HETATM   13  C5  UNL     1      22.912 -29.723  19.892  1.00  0.00     0.035 C 
HETATM   14  C6  UNL     1      21.755 -28.759  20.073  1.00  0.00     0.045 C 
HETATM   15  C7  UNL     1      21.231 -28.935  21.503  1.00  0.00     0.100 C 
HETATM   16  C8  UNL     1      22.042 -28.127  22.476  1.00  0.00     0.051 C 
HETATM   17  F1  UNL     1      19.908 -28.537  21.552  1.00  0.00    -0.243 F 
HETATM   18  C9  UNL     1      21.381 -30.402  21.920  1.00  0.00     0.045 C 
HETATM   19  C10 UNL     1      21.133 -31.234  20.685  1.00  0.00     0.035 C 
ENDBRANCH  11  12
ENDBRANCH   3  11
BRANCH   5  20
HETATM   20  O2  UNL     1      22.514 -28.605  14.676  1.00  0.00    -0.358 OA
ATOM     21  H2  UNL     1      22.072 -28.407  13.860  1.00  0.00     0.217 HD
ENDBRANCH   5  20
BRANCH  10  22
HETATM   22  C17 UNL     1      23.264 -29.968  12.202  1.00  0.00     0.290 C 
HETATM   23  C18 UNL     1      23.683 -30.433  10.851  1.00  0.00     0.057 C 
HETATM   24  C19 UNL     1      22.460 -30.288   9.977  1.00  0.00     0.031 C 
HETATM   25  C20 UNL     1      21.512 -29.451  10.759  1.00  0.00     0.235 C 
HETATM   26  N2  UNL     1      22.027 -29.243  12.068  1.00  0.00    -0.054 N 
ATOM     27  H22 UNL     1      21.353 -29.486  12.794  1.00  0.00     0.279 HD
ATOM     28  H21 UNL     1      22.129 -28.253  12.293  1.00  0.00     0.279 HD
ENDBRANCH  10  22
TORSDOF 4
ENDMDL
