MODEL 1
REMARK VINA RESULT: -7.405074120      0.000      0.000
REMARK  4 active torsions:
REMARK  status: ('A' for Active; 'I' for Inactive)
REMARK    1  A    between atoms: C2_2  and  C3_3 
REMARK    2  A    between atoms: C3_3  and  S1_4 
REMARK    3  A    between atoms: S1_4  and  C4_5 
REMARK    4  A    between atoms: C12_19  and  O1_20 
ROOT
HETATM    1  C4  UNL     1      22.890 -27.827  13.299  1.00  0.00     0.106 A 
HETATM    2  N1  UNL     1      22.925 -28.519  12.141  1.00  0.00    -0.339 N 
ATOM      3  H1  UNL     1      22.957 -27.984  11.273  1.00  0.00     0.167 HD
HETATM    4  C5  UNL     1      22.921 -29.859  12.044  1.00  0.00     0.114 A 
HETATM    5  S2  UNL     1      22.965 -30.601  10.601  1.00  0.00    -0.059 SA
HETATM    6  C6  UNL     1      22.880 -30.635  13.173  1.00  0.00     0.039 A 
HETATM    7  C7  UNL     1      22.877 -32.030  13.065  1.00  0.00    -0.028 A 
HETATM    8  C8  UNL     1      22.915 -32.786  11.825  1.00  0.00     0.050 C 
HETATM    9  C9  UNL     1      22.832 -32.662  14.322  1.00  0.00     0.033 A 
HETATM   10 BR1  UNL     1      22.820 -34.579  14.375  1.00  0.00    -0.049 Br
HETATM   11  C10 UNL     1      22.795 -32.017  15.509  1.00  0.00     0.108 A 
HETATM   12  N2  UNL     1      22.800 -30.699  15.548  1.00  0.00    -0.361 N 
ATOM     13  H2  UNL     1      22.772 -30.212  16.444  1.00  0.00     0.165 HD
HETATM   14  C11 UNL     1      22.841 -30.007  14.409  1.00  0.00     0.082 A 
HETATM   15  C12 UNL     1      22.847 -28.617  14.423  1.00  0.00     0.127 A 
ENDROOT
BRANCH   1  16
HETATM   16  S1  UNL     1      22.858 -26.063  13.289  1.00  0.00    -0.109 SA
BRANCH  16  17
HETATM   17  C3  UNL     1      23.849 -25.230  12.105  1.00  0.00     0.080 C 
BRANCH  17  18
HETATM   18  C2  UNL     1      24.455 -23.924  12.518  1.00  0.00     0.006 C 
HETATM   19  C1  UNL     1      23.668 -23.355  13.702  1.00  0.00     0.006 C 
ENDBRANCH  17  18
ENDBRANCH  16  17
ENDBRANCH   1  16
BRANCH  15  20
HETATM   20  O1  UNL     1      22.803 -28.016  15.660  1.00  0.00    -0.356 OA
ATOM     21  H1  UNL     1      22.909 -28.552  16.436  1.00  0.00     0.218 HD
ENDBRANCH  15  20
TORSDOF 4
ENDMDL
MODEL 2
REMARK VINA RESULT: -7.398708870      3.619      7.025
REMARK  4 active torsions:
REMARK  status: ('A' for Active; 'I' for Inactive)
REMARK    1  A    between atoms: C2_2  and  C3_3 
REMARK    2  A    between atoms: C3_3  and  S1_4 
REMARK    3  A    between atoms: S1_4  and  C4_5 
REMARK    4  A    between atoms: C12_19  and  O1_20 
ROOT
HETATM    1  C4  UNL     1      22.861 -28.612  12.226  1.00  0.00     0.106 A 
HETATM    2  N1  UNL     1      22.657 -28.474  13.552  1.00  0.00    -0.339 N 
ATOM      3  H1  UNL     1      22.445 -29.316  14.088  1.00  0.00     0.167 HD
HETATM    4  C5  UNL     1      22.713 -27.310  14.223  1.00  0.00     0.114 A 
HETATM    5  S2  UNL     1      22.452 -27.247  15.824  1.00  0.00    -0.059 SA
HETATM    6  C6  UNL     1      22.994 -26.143  13.563  1.00  0.00     0.039 A 
HETATM    7  C7  UNL     1      23.051 -24.936  14.267  1.00  0.00    -0.028 A 
HETATM    8  C8  UNL     1      22.835 -24.774  15.695  1.00  0.00     0.050 C 
HETATM    9  C9  UNL     1      23.350 -23.844  13.430  1.00  0.00     0.033 A 
HETATM   10 BR1  UNL     1      23.470 -22.100  14.220  1.00  0.00    -0.049 Br
HETATM   11  C10 UNL     1      23.561 -23.928  12.099  1.00  0.00     0.108 A 
HETATM   12  N2  UNL     1      23.494 -25.095  11.489  1.00  0.00    -0.361 N 
ATOM     13  H2  UNL     1      23.654 -25.159  10.483  1.00  0.00     0.165 HD
HETATM   14  C11 UNL     1      23.216 -26.192  12.194  1.00  0.00     0.082 A 
HETATM   15  C12 UNL     1      23.140 -27.434  11.575  1.00  0.00     0.127 A 
ENDROOT
BRANCH   1  16
HETATM   16  S1  UNL     1      22.718 -30.193  11.457  1.00  0.00    -0.109 SA
BRANCH  16  17
HETATM   17  C3  UNL     1      22.904 -31.617  12.466  1.00  0.00     0.080 C 
BRANCH  17  18
HETATM   18  C2  UNL     1      22.938 -32.945  11.774  1.00  0.00     0.006 C 
HETATM   19  C1  UNL     1      22.613 -34.049  12.783  1.00  0.00     0.006 C 
ENDBRANCH  17  18
ENDBRANCH  16  17
ENDBRANCH   1  16
BRANCH  15  20
HETATM   20  O1  UNL     1      23.359 -27.456  10.218  1.00  0.00    -0.356 OA
ATOM     21  H1  UNL     1      23.731 -26.690   9.798  1.00  0.00     0.218 HD
ENDBRANCH  15  20
TORSDOF 4
ENDMDL
MODEL 3
REMARK VINA RESULT: -7.385952632      2.089      2.825
REMARK  4 active torsions:
REMARK  status: ('A' for Active; 'I' for Inactive)
REMARK    1  A    between atoms: C2_2  and  C3_3 
REMARK    2  A    between atoms: C3_3  and  S1_4 
REMARK    3  A    between atoms: S1_4  and  C4_5 
REMARK    4  A    between atoms: C12_19  and  O1_20 
ROOT
HETATM    1  C4  UNL     1      23.227 -27.589  12.528  1.00  0.00     0.106 A 
HETATM    2  N1  UNL     1      23.138 -27.968  13.820  1.00  0.00    -0.339 N 
ATOM      3  H1  UNL     1      23.171 -27.235  14.530  1.00  0.00     0.167 HD
HETATM    4  C5  UNL     1      23.009 -29.237  14.243  1.00  0.00     0.114 A 
HETATM    5  S2  UNL     1      22.909 -29.592  15.825  1.00  0.00    -0.059 SA
HETATM    6  C6  UNL     1      22.957 -30.266  13.341  1.00  0.00     0.039 A 
HETATM    7  C7  UNL     1      22.821 -31.584  13.788  1.00  0.00    -0.028 A 
HETATM    8  C8  UNL     1      22.723 -32.005  15.176  1.00  0.00     0.050 C 
HETATM    9  C9  UNL     1      22.786 -32.507  12.726  1.00  0.00     0.033 A 
HETATM   10 BR1  UNL     1      22.605 -34.370  13.146  1.00  0.00    -0.049 Br
HETATM   11  C10 UNL     1      22.872 -32.181  11.418  1.00  0.00     0.108 A 
HETATM   12  N2  UNL     1      22.999 -30.920  11.056  1.00  0.00    -0.361 N 
ATOM     13  H2  UNL     1      23.065 -30.673  10.068  1.00  0.00     0.165 HD
HETATM   14  C11 UNL     1      23.043 -29.968  11.989  1.00  0.00     0.082 A 
HETATM   15  C12 UNL     1      23.176 -28.631  11.633  1.00  0.00     0.127 A 
ENDROOT
BRANCH   1  16
HETATM   16  S1  UNL     1      23.437 -25.889  12.104  1.00  0.00    -0.109 SA
BRANCH  16  17
HETATM   17  C3  UNL     1      23.234 -24.695  13.374  1.00  0.00     0.080 C 
BRANCH  17  18
HETATM   18  C2  UNL     1      23.964 -23.397  13.213  1.00  0.00     0.006 C 
HETATM   19  C1  UNL     1      25.270 -23.643  12.454  1.00  0.00     0.006 C 
ENDBRANCH  17  18
ENDBRANCH  16  17
ENDBRANCH   1  16
BRANCH  15  20
HETATM   20  O1  UNL     1      23.264 -28.361  10.288  1.00  0.00    -0.356 OA
ATOM     21  H1  UNL     1      24.120 -28.338   9.877  1.00  0.00     0.218 HD
ENDBRANCH  15  20
TORSDOF 4
ENDMDL
MODEL 4
REMARK VINA RESULT: -7.331070389      3.871      6.060
REMARK  4 active torsions:
REMARK  status: ('A' for Active; 'I' for Inactive)
REMARK    1  A    between atoms: C2_2  and  C3_3 
REMARK    2  A    between atoms: C3_3  and  S1_4 
REMARK    3  A    between atoms: S1_4  and  C4_5 
REMARK    4  A    between atoms: C12_19  and  O1_20 
ROOT
HETATM    1  C4  UNL     1      22.268 -32.575  17.360  1.00  0.00     0.106 A 
HETATM    2  N1  UNL     1      22.396 -33.610  16.504  1.00  0.00    -0.339 N 
ATOM      3  H1  UNL     1      22.362 -34.552  16.894  1.00  0.00     0.167 HD
HETATM    4  C5  UNL     1      22.566 -33.494  15.176  1.00  0.00     0.114 A 
HETATM    5  S2  UNL     1      22.711 -34.803  14.227  1.00  0.00    -0.059 SA
HETATM    6  C6  UNL     1      22.620 -32.257  14.590  1.00  0.00     0.039 A 
HETATM    7  C7  UNL     1      22.797 -32.143  13.207  1.00  0.00    -0.028 A 
HETATM    8  C8  UNL     1      22.935 -33.249  12.274  1.00  0.00     0.050 C 
HETATM    9  C9  UNL     1      22.828 -30.802  12.781  1.00  0.00     0.033 A 
HETATM   10 BR1  UNL     1      23.064 -30.447  10.911  1.00  0.00    -0.049 Br
HETATM   11  C10 UNL     1      22.706 -29.731  13.596  1.00  0.00     0.108 A 
HETATM   12  N2  UNL     1      22.542 -29.900  14.893  1.00  0.00    -0.361 N 
ATOM     13  H2  UNL     1      22.449 -29.092  15.509  1.00  0.00     0.165 HD
HETATM   14  C11 UNL     1      22.498 -31.134  15.396  1.00  0.00     0.082 A 
HETATM   15  C12 UNL     1      22.326 -31.339  16.760  1.00  0.00     0.127 A 
ENDROOT
BRANCH   1  16
HETATM   16  S1  UNL     1      22.091 -32.860  19.092  1.00  0.00    -0.109 SA
BRANCH  16  17
HETATM   17  C3  UNL     1      20.609 -32.326  19.865  1.00  0.00     0.080 C 
BRANCH  17  18
HETATM   18  C2  UNL     1      20.716 -31.190  20.835  1.00  0.00     0.006 C 
HETATM   19  C1  UNL     1      22.187 -30.794  20.989  1.00  0.00     0.006 C 
ENDBRANCH  17  18
ENDBRANCH  16  17
ENDBRANCH   1  16
BRANCH  15  20
HETATM   20  O1  UNL     1      22.212 -30.213  17.540  1.00  0.00    -0.356 OA
ATOM     21  H1  UNL     1      22.881 -30.032  18.189  1.00  0.00     0.218 HD
ENDBRANCH  15  20
TORSDOF 4
ENDMDL
MODEL 5
REMARK VINA RESULT: -7.314468890      2.308      3.065
REMARK  4 active torsions:
REMARK  status: ('A' for Active; 'I' for Inactive)
REMARK    1  A    between atoms: C2_2  and  C3_3 
REMARK    2  A    between atoms: C3_3  and  S1_4 
REMARK    3  A    between atoms: S1_4  and  C4_5 
REMARK    4  A    between atoms: C12_19  and  O1_20 
ROOT
HETATM    1  C4  UNL     1      23.223 -26.912  12.465  1.00  0.00     0.106 A 
HETATM    2  N1  UNL     1      23.109 -27.366  13.730  1.00  0.00    -0.339 N 
ATOM      3  H1  UNL     1      23.109 -26.676  14.481  1.00  0.00     0.167 HD
HETATM    4  C5  UNL     1      22.994 -28.660  14.076  1.00  0.00     0.114 A 
HETATM    5  S2  UNL     1      22.862 -29.109  15.631  1.00  0.00    -0.059 SA
HETATM    6  C6  UNL     1      22.986 -29.636  13.114  1.00  0.00     0.039 A 
HETATM    7  C7  UNL     1      22.865 -30.981  13.481  1.00  0.00    -0.028 A 
HETATM    8  C8  UNL     1      22.741 -31.483  14.839  1.00  0.00     0.050 C 
HETATM    9  C9  UNL     1      22.875 -31.840  12.367  1.00  0.00     0.033 A 
HETATM   10 BR1  UNL     1      22.721 -33.727  12.674  1.00  0.00    -0.049 Br
HETATM   11  C10 UNL     1      22.988 -31.437  11.082  1.00  0.00     0.108 A 
HETATM   12  N2  UNL     1      23.099 -30.155  10.797  1.00  0.00    -0.361 N 
ATOM     13  H2  UNL     1      23.184 -29.850   9.827  1.00  0.00     0.165 HD
HETATM   14  C11 UNL     1      23.100 -29.258  11.784  1.00  0.00     0.082 A 
HETATM   15  C12 UNL     1      23.215 -27.901  11.510  1.00  0.00     0.127 A 
ENDROOT
BRANCH   1  16
HETATM   16  S1  UNL     1      23.409 -25.187  12.145  1.00  0.00    -0.109 SA
BRANCH  16  17
HETATM   17  C3  UNL     1      23.701 -24.125  13.512  1.00  0.00     0.080 C 
BRANCH  17  18
HETATM   18  C2  UNL     1      22.562 -23.901  14.458  1.00  0.00     0.006 C 
HETATM   19  C1  UNL     1      22.938 -24.445  15.839  1.00  0.00     0.006 C 
ENDBRANCH  17  18
ENDBRANCH  16  17
ENDBRANCH   1  16
BRANCH  15  20
HETATM   20  O1  UNL     1      23.332 -27.551  10.185  1.00  0.00    -0.356 OA
ATOM     21  H1  UNL     1      22.571 -27.621   9.621  1.00  0.00     0.218 HD
ENDBRANCH  15  20
TORSDOF 4
ENDMDL
