MODEL 1
REMARK VINA RESULT: -8.131630564      0.000      0.000
REMARK  5 active torsions:
REMARK  status: ('A' for Active; 'I' for Inactive)
REMARK    1  A    between atoms: C2_2  and  O1_3 
REMARK    2  A    between atoms: O1_3  and  C3_4 
REMARK    3  A    between atoms: C3_4  and  C4_6 
REMARK    4  A    between atoms: C5_7  and  N1_8 
REMARK       I    between atoms: N1_8  and  C6_10 
REMARK       I    between atoms: C6_10  and  N2_12 
REMARK       I    between atoms: N2_12  and  C7_14 
REMARK    5  A    between atoms: C7_14  and  C8_16 
ROOT
HETATM    1  N1  UNL     1      21.380 -32.223  18.420  1.00  0.00    -0.302 N 
ATOM      2  H1  UNL     1      21.055 -31.727  17.590  1.00  0.00     0.171 HD
HETATM    3  C6  UNL     1      22.370 -33.206  18.315  1.00  0.00     0.327 C 
HETATM    4  O3  UNL     1      22.734 -33.791  19.400  1.00  0.00    -0.247 OA
HETATM    5  N2  UNL     1      22.991 -33.604  17.147  1.00  0.00    -0.279 N 
ATOM      6  H2  UNL     1      23.698 -34.335  17.216  1.00  0.00     0.173 HD
HETATM    7  C7  UNL     1      22.725 -33.082  15.882  1.00  0.00     0.229 C 
HETATM    8  O4  UNL     1      21.899 -32.199  15.650  1.00  0.00    -0.273 OA
ENDROOT
BRANCH   1   9
HETATM    9  C5  UNL     1      20.823 -31.916  19.722  1.00  0.00     0.095 A 
HETATM   10  C4  UNL     1      21.217 -31.058  20.699  1.00  0.00     0.080 A 
HETATM   11  C15 UNL     1      20.448 -31.022  21.814  1.00  0.00    -0.030 A 
HETATM   12  C13 UNL     1      19.358 -31.843  21.857  1.00  0.00    -0.012 A 
HETATM   13  C16 UNL     1      20.739 -30.125  23.006  1.00  0.00     0.050 C 
HETATM   14  S1  UNL     1      19.414 -32.647  20.361  1.00  0.00    -0.076 SA
HETATM   15  C14 UNL     1      18.349 -31.989  22.979  1.00  0.00     0.057 C 
BRANCH  10  16
HETATM   16  C3  UNL     1      22.426 -30.204  20.548  1.00  0.00     0.296 C 
HETATM   17  O2  UNL     1      23.564 -30.582  20.867  1.00  0.00    -0.259 OA
BRANCH  16  18
HETATM   18  O1  UNL     1      22.356 -28.918  20.034  1.00  0.00    -0.318 OA
BRANCH  18  19
HETATM   19  C2  UNL     1      23.216 -28.465  19.004  1.00  0.00     0.174 C 
HETATM   20  C1  UNL     1      22.856 -29.020  17.666  1.00  0.00     0.034 C 
ENDBRANCH  18  19
ENDBRANCH  16  18
ENDBRANCH  10  16
ENDBRANCH   1   9
BRANCH   7  21
HETATM   21  C8  UNL     1      23.539 -33.679  14.730  1.00  0.00     0.078 A 
HETATM   22  C9  UNL     1      22.690 -34.744  14.152  1.00  0.00     0.014 A 
HETATM   23  C10 UNL     1      22.333 -34.310  12.768  1.00  0.00     0.001 A 
HETATM   24  C11 UNL     1      23.014 -33.008  12.503  1.00  0.00     0.001 A 
HETATM   25  C12 UNL     1      23.782 -32.642  13.731  1.00  0.00     0.014 A 
ENDBRANCH   7  21
TORSDOF 5
ENDMDL
MODEL 2
REMARK VINA RESULT: -7.898711555      3.260      6.265
REMARK  5 active torsions:
REMARK  status: ('A' for Active; 'I' for Inactive)
REMARK    1  A    between atoms: C2_2  and  O1_3 
REMARK    2  A    between atoms: O1_3  and  C3_4 
REMARK    3  A    between atoms: C3_4  and  C4_6 
REMARK    4  A    between atoms: C5_7  and  N1_8 
REMARK       I    between atoms: N1_8  and  C6_10 
REMARK       I    between atoms: C6_10  and  N2_12 
REMARK       I    between atoms: N2_12  and  C7_14 
REMARK    5  A    between atoms: C7_14  and  C8_16 
ROOT
HETATM    1  N1  UNL     1      21.508 -32.696  20.127  1.00  0.00    -0.302 N 
ATOM      2  H1  UNL     1      20.633 -32.666  20.650  1.00  0.00     0.171 HD
HETATM    3  C6  UNL     1      22.299 -33.850  20.136  1.00  0.00     0.327 C 
HETATM    4  O3  UNL     1      23.388 -33.821  19.456  1.00  0.00    -0.247 OA
HETATM    5  N2  UNL     1      22.011 -35.019  20.812  1.00  0.00    -0.279 N 
ATOM      6  H2  UNL     1      22.678 -35.786  20.732  1.00  0.00     0.173 HD
HETATM    7  C7  UNL     1      20.878 -35.232  21.597  1.00  0.00     0.229 C 
HETATM    8  O4  UNL     1      19.991 -34.398  21.783  1.00  0.00    -0.273 OA
ENDROOT
BRANCH   1   9
HETATM    9  C5  UNL     1      21.947 -31.544  19.365  1.00  0.00     0.095 A 
HETATM   10  C4  UNL     1      21.831 -31.228  18.049  1.00  0.00     0.080 A 
HETATM   11  C15 UNL     1      22.367 -30.044  17.664  1.00  0.00    -0.030 A 
HETATM   12  C13 UNL     1      22.971 -29.283  18.623  1.00  0.00    -0.012 A 
HETATM   13  C16 UNL     1      22.332 -29.532  16.234  1.00  0.00     0.050 C 
HETATM   14  S1  UNL     1      22.787 -30.212  20.034  1.00  0.00    -0.076 SA
HETATM   15  C14 UNL     1      23.640 -27.934  18.452  1.00  0.00     0.057 C 
BRANCH  10  16
HETATM   16  C3  UNL     1      21.149 -32.134  17.085  1.00  0.00     0.296 C 
HETATM   17  O2  UNL     1      19.981 -32.526  17.237  1.00  0.00    -0.259 OA
BRANCH  16  18
HETATM   18  O1  UNL     1      21.782 -32.601  15.944  1.00  0.00    -0.318 OA
BRANCH  18  19
HETATM   19  C2  UNL     1      22.939 -33.416  16.000  1.00  0.00     0.174 C 
HETATM   20  C1  UNL     1      23.920 -33.101  14.920  1.00  0.00     0.034 C 
ENDBRANCH  18  19
ENDBRANCH  16  18
ENDBRANCH  10  16
ENDBRANCH   1   9
BRANCH   7  21
HETATM   21  C8  UNL     1      20.771 -36.612  22.253  1.00  0.00     0.078 A 
HETATM   22  C9  UNL     1      19.339 -36.785  22.586  1.00  0.00     0.014 A 
HETATM   23  C10 UNL     1      18.829 -37.904  21.738  1.00  0.00     0.001 A 
HETATM   24  C11 UNL     1      19.972 -38.432  20.937  1.00  0.00     0.001 A 
HETATM   25  C12 UNL     1      21.181 -37.629  21.289  1.00  0.00     0.014 A 
ENDBRANCH   7  21
TORSDOF 5
ENDMDL
MODEL 3
REMARK VINA RESULT: -7.837149089      3.010      6.454
REMARK  5 active torsions:
REMARK  status: ('A' for Active; 'I' for Inactive)
REMARK    1  A    between atoms: C2_2  and  O1_3 
REMARK    2  A    between atoms: O1_3  and  C3_4 
REMARK    3  A    between atoms: C3_4  and  C4_6 
REMARK    4  A    between atoms: C5_7  and  N1_8 
REMARK       I    between atoms: N1_8  and  C6_10 
REMARK       I    between atoms: C6_10  and  N2_12 
REMARK       I    between atoms: N2_12  and  C7_14 
REMARK    5  A    between atoms: C7_14  and  C8_16 
ROOT
HETATM    1  N1  UNL     1      22.148 -32.473  19.749  1.00  0.00    -0.302 N 
ATOM      2  H1  UNL     1      22.948 -33.089  19.884  1.00  0.00     0.171 HD
HETATM    3  C6  UNL     1      20.915 -32.773  20.339  1.00  0.00     0.327 C 
HETATM    4  O3  UNL     1      19.948 -31.953  20.128  1.00  0.00    -0.247 OA
HETATM    5  N2  UNL     1      20.646 -33.872  21.130  1.00  0.00    -0.279 N 
ATOM      6  H2  UNL     1      19.699 -33.968  21.497  1.00  0.00     0.173 HD
HETATM    7  C7  UNL     1      21.569 -34.862  21.464  1.00  0.00     0.229 C 
HETATM    8  O4  UNL     1      22.743 -34.876  21.094  1.00  0.00    -0.273 OA
ENDROOT
BRANCH   1   9
HETATM    9  C5  UNL     1      22.273 -31.275  18.943  1.00  0.00     0.095 A 
HETATM   10  C4  UNL     1      22.086 -31.049  17.616  1.00  0.00     0.080 A 
HETATM   11  C15 UNL     1      22.294 -29.782  17.185  1.00  0.00    -0.030 A 
HETATM   12  C13 UNL     1      22.671 -28.854  18.112  1.00  0.00    -0.012 A 
HETATM   13  C16 UNL     1      22.135 -29.350  15.737  1.00  0.00     0.050 C 
HETATM   14  S1  UNL     1      22.729 -29.745  19.558  1.00  0.00    -0.076 SA
HETATM   15  C14 UNL     1      22.963 -27.383  17.888  1.00  0.00     0.057 C 
BRANCH  10  16
HETATM   16  C3  UNL     1      21.672 -32.139  16.689  1.00  0.00     0.296 C 
HETATM   17  O2  UNL     1      20.570 -32.705  16.763  1.00  0.00    -0.259 OA
BRANCH  16  18
HETATM   18  O1  UNL     1      22.500 -32.593  15.675  1.00  0.00    -0.318 OA
BRANCH  18  19
HETATM   19  C2  UNL     1      22.322 -33.856  15.059  1.00  0.00     0.174 C 
HETATM   20  C1  UNL     1      22.509 -33.808  13.579  1.00  0.00     0.034 C 
ENDBRANCH  18  19
ENDBRANCH  16  18
ENDBRANCH  10  16
ENDBRANCH   1   9
BRANCH   7  21
HETATM   21  C8  UNL     1      21.042 -35.990  22.357  1.00  0.00     0.078 A 
HETATM   22  C9  UNL     1      19.641 -35.630  22.670  1.00  0.00     0.014 A 
HETATM   23  C10 UNL     1      18.775 -36.660  22.023  1.00  0.00     0.001 A 
HETATM   24  C11 UNL     1      19.663 -37.665  21.369  1.00  0.00     0.001 A 
HETATM   25  C12 UNL     1      21.076 -37.244  21.608  1.00  0.00     0.014 A 
ENDBRANCH   7  21
TORSDOF 5
ENDMDL
MODEL 4
REMARK VINA RESULT: -7.604428490      2.871      6.779
REMARK  5 active torsions:
REMARK  status: ('A' for Active; 'I' for Inactive)
REMARK    1  A    between atoms: C2_2  and  O1_3 
REMARK    2  A    between atoms: O1_3  and  C3_4 
REMARK    3  A    between atoms: C3_4  and  C4_6 
REMARK    4  A    between atoms: C5_7  and  N1_8 
REMARK       I    between atoms: N1_8  and  C6_10 
REMARK       I    between atoms: C6_10  and  N2_12 
REMARK       I    between atoms: N2_12  and  C7_14 
REMARK    5  A    between atoms: C7_14  and  C8_16 
ROOT
HETATM    1  N1  UNL     1      22.188 -32.622  19.092  1.00  0.00    -0.302 N 
ATOM      2  H1  UNL     1      22.972 -33.237  19.308  1.00  0.00     0.171 HD
HETATM    3  C6  UNL     1      20.978 -32.746  19.785  1.00  0.00     0.327 C 
HETATM    4  O3  UNL     1      20.032 -31.938  19.463  1.00  0.00    -0.247 OA
HETATM    5  N2  UNL     1      20.712 -33.661  20.784  1.00  0.00    -0.279 N 
ATOM      6  H2  UNL     1      19.783 -33.641  21.205  1.00  0.00     0.173 HD
HETATM    7  C7  UNL     1      21.616 -34.610  21.262  1.00  0.00     0.229 C 
HETATM    8  O4  UNL     1      22.766 -34.748  20.848  1.00  0.00    -0.273 OA
ENDROOT
BRANCH   1   9
HETATM    9  C5  UNL     1      22.313 -31.608  18.065  1.00  0.00     0.095 A 
HETATM   10  C4  UNL     1      22.351 -31.688  16.708  1.00  0.00     0.080 A 
HETATM   11  C15 UNL     1      22.479 -30.518  16.039  1.00  0.00    -0.030 A 
HETATM   12  C13 UNL     1      22.559 -29.373  16.778  1.00  0.00    -0.012 A 
HETATM   13  C16 UNL     1      22.541 -30.419  14.524  1.00  0.00     0.050 C 
HETATM   14  S1  UNL     1      22.455 -29.932  18.379  1.00  0.00    -0.076 SA
HETATM   15  C14 UNL     1      22.705 -27.951  16.274  1.00  0.00     0.057 C 
BRANCH  10  16
HETATM   16  C3  UNL     1      22.254 -32.994  16.001  1.00  0.00     0.296 C 
HETATM   17  O2  UNL     1      22.438 -34.083  16.566  1.00  0.00    -0.259 OA
BRANCH  16  18
HETATM   18  O1  UNL     1      21.948 -33.076  14.651  1.00  0.00    -0.318 OA
BRANCH  18  19
HETATM   19  C2  UNL     1      22.524 -34.052  13.801  1.00  0.00     0.174 C 
HETATM   20  C1  UNL     1      22.648 -33.586  12.388  1.00  0.00     0.034 C 
ENDBRANCH  18  19
ENDBRANCH  16  18
ENDBRANCH  10  16
ENDBRANCH   1   9
BRANCH   7  21
HETATM   21  C8  UNL     1      21.096 -35.521  22.379  1.00  0.00     0.078 A 
HETATM   22  C9  UNL     1      19.702 -35.091  22.628  1.00  0.00     0.014 A 
HETATM   23  C10 UNL     1      18.820 -36.226  22.225  1.00  0.00     0.001 A 
HETATM   24  C11 UNL     1      19.693 -37.354  21.784  1.00  0.00     0.001 A 
HETATM   25  C12 UNL     1      21.111 -36.904  21.910  1.00  0.00     0.014 A 
ENDBRANCH   7  21
TORSDOF 5
ENDMDL
MODEL 5
REMARK VINA RESULT: -7.581405333      2.600      7.705
REMARK  5 active torsions:
REMARK  status: ('A' for Active; 'I' for Inactive)
REMARK    1  A    between atoms: C2_2  and  O1_3 
REMARK    2  A    between atoms: O1_3  and  C3_4 
REMARK    3  A    between atoms: C3_4  and  C4_6 
REMARK    4  A    between atoms: C5_7  and  N1_8 
REMARK       I    between atoms: N1_8  and  C6_10 
REMARK       I    between atoms: C6_10  and  N2_12 
REMARK       I    between atoms: N2_12  and  C7_14 
REMARK    5  A    between atoms: C7_14  and  C8_16 
ROOT
HETATM    1  N1  UNL     1      22.887 -29.954  16.378  1.00  0.00    -0.302 N 
ATOM      2  H1  UNL     1      23.644 -29.363  16.720  1.00  0.00     0.171 HD
HETATM    3  C6  UNL     1      21.970 -30.518  17.272  1.00  0.00     0.327 C 
HETATM    4  O3  UNL     1      21.040 -31.252  16.774  1.00  0.00    -0.247 OA
HETATM    5  N2  UNL     1      21.977 -30.356  18.643  1.00  0.00    -0.279 N 
ATOM      6  H2  UNL     1      21.247 -30.827  19.176  1.00  0.00     0.173 HD
HETATM    7  C7  UNL     1      22.907 -29.598  19.354  1.00  0.00     0.229 C 
HETATM    8  O4  UNL     1      23.839 -28.978  18.844  1.00  0.00    -0.273 OA
ENDROOT
BRANCH   1   9
HETATM    9  C5  UNL     1      22.746 -30.218  14.960  1.00  0.00     0.095 A 
HETATM   10  C4  UNL     1      23.128 -31.270  14.190  1.00  0.00     0.080 A 
HETATM   11  C15 UNL     1      22.833 -31.189  12.870  1.00  0.00    -0.030 A 
HETATM   12  C13 UNL     1      22.184 -30.069  12.435  1.00  0.00    -0.012 A 
HETATM   13  C16 UNL     1      23.187 -32.270  11.862  1.00  0.00     0.050 C 
HETATM   14  S1  UNL     1      21.994 -29.151  13.853  1.00  0.00    -0.076 SA
HETATM   15  C14 UNL     1      21.746 -29.740  11.022  1.00  0.00     0.057 C 
BRANCH  10  16
HETATM   16  C3  UNL     1      23.832 -32.447  14.769  1.00  0.00     0.296 C 
HETATM   17  O2  UNL     1      25.004 -32.738  14.487  1.00  0.00    -0.259 OA
BRANCH  16  18
HETATM   18  O1  UNL     1      23.213 -33.300  15.670  1.00  0.00    -0.318 OA
BRANCH  18  19
HETATM   19  C2  UNL     1      22.174 -34.183  15.287  1.00  0.00     0.174 C 
HETATM   20  C1  UNL     1      22.501 -34.958  14.053  1.00  0.00     0.034 C 
ENDBRANCH  18  19
ENDBRANCH  16  18
ENDBRANCH  10  16
ENDBRANCH   1   9
BRANCH   7  21
HETATM   21  C8  UNL     1      22.715 -29.564  20.874  1.00  0.00     0.078 A 
HETATM   22  C9  UNL     1      22.079 -28.260  21.166  1.00  0.00     0.014 A 
HETATM   23  C10 UNL     1      20.710 -28.554  21.686  1.00  0.00     0.001 A 
HETATM   24  C11 UNL     1      20.550 -30.036  21.754  1.00  0.00     0.001 A 
HETATM   25  C12 UNL     1      21.821 -30.650  21.265  1.00  0.00     0.014 A 
ENDBRANCH   7  21
TORSDOF 5
ENDMDL
