MODEL 1
REMARK VINA RESULT: -8.374967013      0.000      0.000
REMARK  3 active torsions:
REMARK  status: ('A' for Active; 'I' for Inactive)
REMARK    1  A    between atoms: C6_6  and  C7_7 
REMARK       I    between atoms: C7_7  and  N1_9 
REMARK    2  A    between atoms: N1_9  and  C8_11 
REMARK    3  A    between atoms: C9_12  and  N2_13 
ROOT
HETATM    1  C8  UNL     1      22.187 -30.437  20.038  1.00  0.00     0.093 A 
HETATM    2  C9  UNL     1      21.304 -30.923  20.946  1.00  0.00     0.066 A 
HETATM    3  C14 UNL     1      20.994 -30.111  22.008  1.00  0.00     0.083 A 
HETATM    4  S1  UNL     1      21.922 -28.717  21.722  1.00  0.00    -0.083 SA
HETATM    5  C15 UNL     1      22.679 -29.177  20.277  1.00  0.00     0.116 A 
HETATM    6  N3  UNL     1      23.624 -28.475  19.443  1.00  0.00    -0.092 NA
ENDROOT
BRANCH   1   7
HETATM    7  N1  UNL     1      22.621 -31.200  18.865  1.00  0.00    -0.323 N 
HETATM    8  C7  UNL     1      22.222 -30.813  17.562  1.00  0.00     0.226 C 
HETATM    9  O1  UNL     1      21.471 -29.789  17.420  1.00  0.00    -0.273 OA
ATOM     10  H1  UNL     1      23.217 -32.018  18.988  1.00  0.00     0.169 HD
BRANCH   8  11
HETATM   11  C6  UNL     1      22.652 -31.561  16.379  1.00  0.00     0.078 C 
HETATM   12  C5  UNL     1      22.185 -30.847  15.129  1.00  0.00     0.015 C 
HETATM   13  C4  UNL     1      23.029 -31.344  13.981  1.00  0.00     0.010 C 
HETATM   14  C2  UNL     1      23.066 -32.840  14.005  1.00  0.00    -0.048 C 
HETATM   15  C1  UNL     1      22.756 -33.324  12.583  1.00  0.00     0.015 C 
HETATM   16  C3  UNL     1      24.456 -33.292  14.349  1.00  0.00     0.015 C 
HETATM   17  C17 UNL     1      22.013 -33.431  14.898  1.00  0.00     0.010 C 
HETATM   18  C16 UNL     1      22.097 -32.967  16.319  1.00  0.00     0.015 C 
ENDBRANCH   8  11
ENDBRANCH   1   7
BRANCH   2  19
HETATM   19  N2  UNL     1      20.667 -32.234  20.842  1.00  0.00    -0.374 N 
HETATM   20  C10 UNL     1      21.348 -33.462  21.154  1.00  0.00     0.149 C 
HETATM   21  C11 UNL     1      20.426 -34.454  21.846  1.00  0.00     0.187 C 
HETATM   22  O2  UNL     1      19.232 -33.837  22.223  1.00  0.00    -0.388 OA
HETATM   23  C12 UNL     1      18.525 -33.422  21.086  1.00  0.00     0.187 C 
HETATM   24  C13 UNL     1      19.283 -32.320  20.407  1.00  0.00     0.149 C 
ENDBRANCH   2  19
TORSDOF 3
ENDMDL
MODEL 2
REMARK VINA RESULT: -8.182262641      1.791      2.527
REMARK  3 active torsions:
REMARK  status: ('A' for Active; 'I' for Inactive)
REMARK    1  A    between atoms: C6_6  and  C7_7 
REMARK       I    between atoms: C7_7  and  N1_9 
REMARK    2  A    between atoms: N1_9  and  C8_11 
REMARK    3  A    between atoms: C9_12  and  N2_13 
ROOT
HETATM    1  C8  UNL     1      22.518 -28.256  18.646  1.00  0.00     0.093 A 
HETATM    2  C9  UNL     1      22.108 -28.490  19.919  1.00  0.00     0.066 A 
HETATM    3  C14 UNL     1      21.694 -27.403  20.648  1.00  0.00     0.083 A 
HETATM    4  S1  UNL     1      21.881 -26.108  19.565  1.00  0.00    -0.083 SA
HETATM    5  C15 UNL     1      22.473 -26.951  18.220  1.00  0.00     0.116 A 
HETATM    6  N3  UNL     1      22.861 -26.485  16.911  1.00  0.00    -0.092 NA
ENDROOT
BRANCH   1   7
HETATM    7  N1  UNL     1      23.001 -29.318  17.761  1.00  0.00    -0.323 N 
HETATM    8  C7  UNL     1      22.184 -29.815  16.715  1.00  0.00     0.226 C 
HETATM    9  O1  UNL     1      21.013 -29.330  16.556  1.00  0.00    -0.273 OA
ATOM     10  H1  UNL     1      23.935 -29.703  17.897  1.00  0.00     0.169 HD
BRANCH   8  11
HETATM   11  C6  UNL     1      22.654 -30.872  15.817  1.00  0.00     0.078 C 
HETATM   12  C5  UNL     1      22.277 -30.531  14.391  1.00  0.00     0.015 C 
HETATM   13  C4  UNL     1      23.167 -31.343  13.482  1.00  0.00     0.010 C 
HETATM   14  C2  UNL     1      23.155 -32.772  13.925  1.00  0.00    -0.048 C 
HETATM   15  C1  UNL     1      22.908 -33.631  12.678  1.00  0.00     0.015 C 
HETATM   16  C3  UNL     1      24.509 -33.129  14.465  1.00  0.00     0.015 C 
HETATM   17  C17 UNL     1      22.038 -33.072  14.881  1.00  0.00     0.010 C 
HETATM   18  C16 UNL     1      22.059 -32.230  16.118  1.00  0.00     0.015 C 
ENDBRANCH   8  11
ENDBRANCH   1   7
BRANCH   2  19
HETATM   19  N2  UNL     1      22.071 -29.815  20.533  1.00  0.00    -0.374 N 
HETATM   20  C10 UNL     1      20.880 -30.373  21.118  1.00  0.00     0.149 C 
HETATM   21  C11 UNL     1      20.770 -31.865  20.847  1.00  0.00     0.187 C 
HETATM   22  O2  UNL     1      21.713 -32.266  19.899  1.00  0.00    -0.388 OA
HETATM   23  C12 UNL     1      23.008 -32.088  20.404  1.00  0.00     0.187 C 
HETATM   24  C13 UNL     1      23.280 -30.620  20.562  1.00  0.00     0.149 C 
ENDBRANCH   2  19
TORSDOF 3
ENDMDL
MODEL 3
REMARK VINA RESULT: -8.118184233      4.085      6.775
REMARK  3 active torsions:
REMARK  status: ('A' for Active; 'I' for Inactive)
REMARK    1  A    between atoms: C6_6  and  C7_7 
REMARK       I    between atoms: C7_7  and  N1_9 
REMARK    2  A    between atoms: N1_9  and  C8_11 
REMARK    3  A    between atoms: C9_12  and  N2_13 
ROOT
HETATM    1  C8  UNL     1      22.829 -26.756  16.370  1.00  0.00     0.093 A 
HETATM    2  C9  UNL     1      22.505 -25.683  15.606  1.00  0.00     0.066 A 
HETATM    3  C14 UNL     1      22.116 -24.544  16.267  1.00  0.00     0.083 A 
HETATM    4  S1  UNL     1      22.211 -24.987  17.904  1.00  0.00    -0.083 SA
HETATM    5  C15 UNL     1      22.735 -26.589  17.730  1.00  0.00     0.116 A 
HETATM    6  N3  UNL     1      23.031 -27.596  18.720  1.00  0.00    -0.092 NA
ENDROOT
BRANCH   1   7
HETATM    7  N1  UNL     1      23.243 -28.040  15.800  1.00  0.00    -0.323 N 
HETATM    8  C7  UNL     1      22.370 -29.156  15.818  1.00  0.00     0.226 C 
HETATM    9  O1  UNL     1      21.212 -29.031  16.345  1.00  0.00    -0.273 OA
ATOM     10  H1  UNL     1      24.171 -28.132  15.386  1.00  0.00     0.169 HD
BRANCH   8  11
HETATM   11  C6  UNL     1      22.766 -30.444  15.247  1.00  0.00     0.078 C 
HETATM   12  C5  UNL     1      22.273 -30.541  13.819  1.00  0.00     0.015 C 
HETATM   13  C4  UNL     1      23.086 -31.609  13.131  1.00  0.00     0.010 C 
HETATM   14  C2  UNL     1      23.113 -32.837  13.985  1.00  0.00    -0.048 C 
HETATM   15  C1  UNL     1      22.766 -34.027  13.080  1.00  0.00     0.015 C 
HETATM   16  C3  UNL     1      24.508 -33.047  14.499  1.00  0.00     0.015 C 
HETATM   17  C17 UNL     1      22.079 -32.809  15.073  1.00  0.00     0.010 C 
HETATM   18  C16 UNL     1      22.201 -31.634  15.992  1.00  0.00     0.015 C 
ENDBRANCH   8  11
ENDBRANCH   1   7
BRANCH   2  19
HETATM   19  N2  UNL     1      22.564 -25.673  14.147  1.00  0.00    -0.374 N 
HETATM   20  C10 UNL     1      23.174 -24.609  13.395  1.00  0.00     0.149 C 
HETATM   21  C11 UNL     1      23.918 -25.137  12.178  1.00  0.00     0.187 C 
HETATM   22  O2  UNL     1      24.029 -26.528  12.233  1.00  0.00    -0.388 OA
HETATM   23  C12 UNL     1      22.758 -27.114  12.160  1.00  0.00     0.187 C 
HETATM   24  C13 UNL     1      21.987 -26.781  13.403  1.00  0.00     0.149 C 
ENDBRANCH   2  19
TORSDOF 3
ENDMDL
MODEL 4
REMARK VINA RESULT: -7.754072403      2.993      5.274
REMARK  3 active torsions:
REMARK  status: ('A' for Active; 'I' for Inactive)
REMARK    1  A    between atoms: C6_6  and  C7_7 
REMARK       I    between atoms: C7_7  and  N1_9 
REMARK    2  A    between atoms: N1_9  and  C8_11 
REMARK    3  A    between atoms: C9_12  and  N2_13 
ROOT
HETATM    1  C8  UNL     1      22.595 -28.210  18.680  1.00  0.00     0.093 A 
HETATM    2  C9  UNL     1      21.965 -27.025  18.480  1.00  0.00     0.066 A 
HETATM    3  C14 UNL     1      21.599 -26.318  19.598  1.00  0.00     0.083 A 
HETATM    4  S1  UNL     1      22.131 -27.302  20.877  1.00  0.00    -0.083 SA
HETATM    5  C15 UNL     1      22.802 -28.579  19.987  1.00  0.00     0.116 A 
HETATM    6  N3  UNL     1      23.449 -29.793  20.422  1.00  0.00    -0.092 NA
ENDROOT
BRANCH   1   7
HETATM    7  N1  UNL     1      23.027 -29.076  17.581  1.00  0.00    -0.323 N 
HETATM    8  C7  UNL     1      22.333 -30.277  17.290  1.00  0.00     0.226 C 
HETATM    9  O1  UNL     1      21.325 -30.601  18.005  1.00  0.00    -0.273 OA
ATOM     10  H1  UNL     1      23.835 -28.812  17.018  1.00  0.00     0.169 HD
BRANCH   8  11
HETATM   11  C6  UNL     1      22.747 -31.150  16.190  1.00  0.00     0.078 C 
HETATM   12  C5  UNL     1      22.347 -30.529  14.870  1.00  0.00     0.015 C 
HETATM   13  C4  UNL     1      23.188 -31.172  13.794  1.00  0.00     0.010 C 
HETATM   14  C2  UNL     1      23.142 -32.659  13.952  1.00  0.00    -0.048 C 
HETATM   15  C1  UNL     1      22.837 -33.252  12.571  1.00  0.00     0.015 C 
HETATM   16  C3  UNL     1      24.497 -33.150  14.372  1.00  0.00     0.015 C 
HETATM   17  C17 UNL     1      22.039 -33.110  14.866  1.00  0.00     0.010 C 
HETATM   18  C16 UNL     1      22.117 -32.525  16.241  1.00  0.00     0.015 C 
ENDBRANCH   8  11
ENDBRANCH   1   7
BRANCH   2  19
HETATM   19  N2  UNL     1      21.680 -26.467  17.160  1.00  0.00    -0.374 N 
HETATM   20  C10 UNL     1      20.390 -25.945  16.794  1.00  0.00     0.149 C 
HETATM   21  C11 UNL     1      20.514 -24.712  15.912  1.00  0.00     0.187 C 
HETATM   22  O2  UNL     1      21.833 -24.256  15.885  1.00  0.00    -0.388 OA
HETATM   23  C12 UNL     1      22.660 -25.214  15.282  1.00  0.00     0.187 C 
HETATM   24  C13 UNL     1      22.733 -26.429  16.160  1.00  0.00     0.149 C 
ENDBRANCH   2  19
TORSDOF 3
ENDMDL
MODEL 5
REMARK VINA RESULT: -7.751368046      1.750      3.832
REMARK  3 active torsions:
REMARK  status: ('A' for Active; 'I' for Inactive)
REMARK    1  A    between atoms: C6_6  and  C7_7 
REMARK       I    between atoms: C7_7  and  N1_9 
REMARK    2  A    between atoms: N1_9  and  C8_11 
REMARK    3  A    between atoms: C9_12  and  N2_13 
ROOT
HETATM    1  C8  UNL     1      21.786 -31.122  20.389  1.00  0.00     0.093 A 
HETATM    2  C9  UNL     1      21.704 -29.848  20.850  1.00  0.00     0.066 A 
HETATM    3  C14 UNL     1      21.027 -29.654  22.028  1.00  0.00     0.083 A 
HETATM    4  S1  UNL     1      20.530 -31.221  22.458  1.00  0.00    -0.083 SA
HETATM    5  C15 UNL     1      21.180 -32.088  21.155  1.00  0.00     0.116 A 
HETATM    6  N3  UNL     1      21.147 -33.498  20.851  1.00  0.00    -0.092 NA
ENDROOT
BRANCH   1   7
HETATM    7  N1  UNL     1      22.463 -31.472  19.139  1.00  0.00    -0.323 N 
HETATM    8  C7  UNL     1      21.719 -31.865  17.999  1.00  0.00     0.226 C 
HETATM    9  O1  UNL     1      20.444 -31.916  18.075  1.00  0.00    -0.273 OA
ATOM     10  H1  UNL     1      23.481 -31.433  19.088  1.00  0.00     0.169 HD
BRANCH   8  11
HETATM   11  C6  UNL     1      22.380 -32.212  16.739  1.00  0.00     0.078 C 
HETATM   12  C5  UNL     1      22.016 -31.196  15.677  1.00  0.00     0.015 C 
HETATM   13  C4  UNL     1      23.055 -31.290  14.587  1.00  0.00     0.010 C 
HETATM   14  C2  UNL     1      23.240 -32.724  14.202  1.00  0.00    -0.048 C 
HETATM   15  C1  UNL     1      23.178 -32.793  12.670  1.00  0.00     0.015 C 
HETATM   16  C3  UNL     1      24.609 -33.173  14.624  1.00  0.00     0.015 C 
HETATM   17  C17 UNL     1      22.142 -33.608  14.717  1.00  0.00     0.010 C 
HETATM   18  C16 UNL     1      21.985 -33.571  16.205  1.00  0.00     0.015 C 
ENDBRANCH   8  11
ENDBRANCH   1   7
BRANCH   2  19
HETATM   19  N2  UNL     1      22.304 -28.698  20.177  1.00  0.00    -0.374 N 
HETATM   20  C10 UNL     1      23.437 -28.810  19.296  1.00  0.00     0.149 C 
HETATM   21  C11 UNL     1      23.321 -27.863  18.112  1.00  0.00     0.187 C 
HETATM   22  O2  UNL     1      22.041 -27.309  18.047  1.00  0.00    -0.388 OA
HETATM   23  C12 UNL     1      21.808 -26.506  19.173  1.00  0.00     0.187 C 
HETATM   24  C13 UNL     1      21.745 -27.374  20.395  1.00  0.00     0.149 C 
ENDBRANCH   2  19
TORSDOF 3
ENDMDL
