MODEL 1
REMARK VINA RESULT: -8.511759878      0.000      0.000
REMARK  5 active torsions:
REMARK  status: ('A' for Active; 'I' for Inactive)
REMARK    1  A    between atoms: O1_2  and  C2_3 
REMARK    2  A    between atoms: C9_10  and  O2_11 
REMARK    3  A    between atoms: N1_13  and  C10_14 
REMARK    4  A    between atoms: C10_14  and  C11_15 
REMARK    5  A    between atoms: C14_18  and  O3_19 
ROOT
HETATM    1  C2  UNL     1      22.866 -31.953  13.080  1.00  0.00     0.091 C 
HETATM    2  C3  UNL     1      24.334 -32.277  13.236  1.00  0.00     0.009 C 
HETATM    3  C4  UNL     1      24.425 -33.215  14.175  1.00  0.00    -0.018 C 
HETATM    4  C5  UNL     1      23.116 -33.584  14.697  1.00  0.00     0.049 C 
HETATM    5  C6  UNL     1      22.223 -33.238  13.478  1.00  0.00     0.057 C 
HETATM    6  C7  UNL     1      22.603 -32.661  15.731  1.00  0.00     0.012 A 
HETATM    7  C8  UNL     1      22.327 -31.360  15.410  1.00  0.00     0.016 A 
HETATM    8  C9  UNL     1      21.824 -30.822  16.602  1.00  0.00     0.152 A 
HETATM    9  N1  UNL     1      21.807 -31.752  17.570  1.00  0.00    -0.307 N 
HETATM   10  C14 UNL     1      22.283 -32.897  17.057  1.00  0.00     0.151 A 
HETATM   11  C15 UNL     1      22.575 -30.817  14.089  1.00  0.00     0.027 C 
HETATM   12  C16 UNL     1      23.824 -29.980  14.087  1.00  0.00     0.025 C 
HETATM   13  C17 UNL     1      23.672 -28.540  14.446  1.00  0.00     0.079 C 
HETATM   14  C18 UNL     1      22.538 -27.949  13.697  1.00  0.00     0.127 C 
HETATM   15  O4  UNL     1      22.178 -26.812  13.870  1.00  0.00    -0.298 OA
HETATM   16  C19 UNL     1      21.859 -28.832  12.710  1.00  0.00     0.079 C 
HETATM   17  C20 UNL     1      21.428 -30.059  13.499  1.00  0.00     0.025 C 
ENDROOT
BRANCH   1  18
HETATM   18  O1  UNL     1      22.578 -31.516  11.815  1.00  0.00    -0.380 OA
HETATM   19  C1  UNL     1      23.612 -31.640  10.940  1.00  0.00     0.203 C 
ENDBRANCH   1  18
BRANCH   8  20
HETATM   20  O2  UNL     1      21.401 -29.537  16.779  1.00  0.00    -0.345 OA
ATOM     21  H2  UNL     1      21.050 -29.175  17.584  1.00  0.00     0.219 HD
ENDBRANCH   8  20
BRANCH  10  22
HETATM   22  O3  UNL     1      22.448 -34.125  17.700  1.00  0.00    -0.345 OA
ATOM     23  H3  UNL     1      21.821 -34.838  17.661  1.00  0.00     0.219 HD
ENDBRANCH  10  22
BRANCH   9  24
HETATM   24  C10 UNL     1      21.354 -31.551  18.931  1.00  0.00     0.137 C 
BRANCH  24  25
HETATM   25  C11 UNL     1      22.437 -31.719  19.956  1.00  0.00    -0.004 C 
HETATM   26  C12 UNL     1      22.016 -32.850  20.874  1.00  0.00     0.011 C 
HETATM   27  C13 UNL     1      22.640 -30.467  20.742  1.00  0.00     0.011 C 
ENDBRANCH  24  25
ENDBRANCH   9  24
TORSDOF 5
ENDMDL
MODEL 2
REMARK VINA RESULT: -7.191225607      2.096      2.831
REMARK  5 active torsions:
REMARK  status: ('A' for Active; 'I' for Inactive)
REMARK    1  A    between atoms: O1_2  and  C2_3 
REMARK    2  A    between atoms: C9_10  and  O2_11 
REMARK    3  A    between atoms: N1_13  and  C10_14 
REMARK    4  A    between atoms: C10_14  and  C11_15 
REMARK    5  A    between atoms: C14_18  and  O3_19 
ROOT
HETATM    1  C2  UNL     1      22.708 -32.390  13.289  1.00  0.00     0.091 C 
HETATM    2  C3  UNL     1      24.153 -32.667  13.637  1.00  0.00     0.009 C 
HETATM    3  C4  UNL     1      24.225 -32.732  14.963  1.00  0.00    -0.018 C 
HETATM    4  C5  UNL     1      22.926 -32.521  15.586  1.00  0.00     0.049 C 
HETATM    5  C6  UNL     1      21.990 -33.000  14.446  1.00  0.00     0.057 C 
HETATM    6  C7  UNL     1      22.551 -31.098  15.720  1.00  0.00     0.012 A 
HETATM    7  C8  UNL     1      22.360 -30.334  14.601  1.00  0.00     0.016 A 
HETATM    8  C9  UNL     1      21.974 -29.087  15.112  1.00  0.00     0.152 A 
HETATM    9  N1  UNL     1      21.942 -29.114  16.454  1.00  0.00    -0.307 N 
HETATM   10  C14 UNL     1      22.294 -30.346  16.854  1.00  0.00     0.151 A 
HETATM   11  C15 UNL     1      22.569 -30.849  13.262  1.00  0.00     0.027 C 
HETATM   12  C16 UNL     1      23.879 -30.361  12.707  1.00  0.00     0.025 C 
HETATM   13  C17 UNL     1      23.863 -29.050  11.997  1.00  0.00     0.079 C 
HETATM   14  C18 UNL     1      22.736 -29.008  11.035  1.00  0.00     0.127 C 
HETATM   15  O4  UNL     1      22.478 -28.023  10.392  1.00  0.00    -0.298 OA
HETATM   16  C19 UNL     1      21.930 -30.252  10.899  1.00  0.00     0.079 C 
HETATM   17  C20 UNL     1      21.452 -30.577  12.305  1.00  0.00     0.025 C 
ENDROOT
BRANCH   1  18
HETATM   18  O1  UNL     1      22.379 -32.893  12.060  1.00  0.00    -0.380 OA
HETATM   19  C1  UNL     1      22.291 -34.250  12.024  1.00  0.00     0.203 C 
ENDBRANCH   1  18
BRANCH   8  20
HETATM   20  O2  UNL     1      21.666 -27.984  14.369  1.00  0.00    -0.345 OA
ATOM     21  H2  UNL     1      20.831 -27.531  14.371  1.00  0.00     0.219 HD
ENDBRANCH   8  20
BRANCH  10  22
HETATM   22  O3  UNL     1      22.399 -30.829  18.159  1.00  0.00    -0.345 OA
ATOM     23  H3  UNL     1      22.090 -30.365  18.928  1.00  0.00     0.219 HD
ENDBRANCH  10  22
BRANCH   9  24
HETATM   24  C10 UNL     1      21.589 -28.006  17.316  1.00  0.00     0.137 C 
BRANCH  24  25
HETATM   25  C11 UNL     1      22.776 -27.274  17.870  1.00  0.00    -0.004 C 
HETATM   26  C12 UNL     1      22.781 -27.495  19.371  1.00  0.00     0.011 C 
HETATM   27  C13 UNL     1      22.706 -25.815  17.565  1.00  0.00     0.011 C 
ENDBRANCH  24  25
ENDBRANCH   9  24
TORSDOF 5
ENDMDL
MODEL 3
REMARK VINA RESULT: -7.096883391      1.989      6.876
REMARK  5 active torsions:
REMARK  status: ('A' for Active; 'I' for Inactive)
REMARK    1  A    between atoms: O1_2  and  C2_3 
REMARK    2  A    between atoms: C9_10  and  O2_11 
REMARK    3  A    between atoms: N1_13  and  C10_14 
REMARK    4  A    between atoms: C10_14  and  C11_15 
REMARK    5  A    between atoms: C14_18  and  O3_19 
ROOT
HETATM    1  C2  UNL     1      22.032 -29.436  19.988  1.00  0.00     0.091 C 
HETATM    2  C3  UNL     1      23.505 -29.115  20.100  1.00  0.00     0.009 C 
HETATM    3  C4  UNL     1      23.889 -28.646  18.916  1.00  0.00    -0.018 C 
HETATM    4  C5  UNL     1      22.785 -28.609  17.967  1.00  0.00     0.049 C 
HETATM    5  C6  UNL     1      21.585 -28.474  18.940  1.00  0.00     0.057 C 
HETATM    6  C7  UNL     1      22.513 -29.907  17.315  1.00  0.00     0.012 A 
HETATM    7  C8  UNL     1      22.094 -30.973  18.063  1.00  0.00     0.016 A 
HETATM    8  C9  UNL     1      21.893 -31.986  17.117  1.00  0.00     0.152 A 
HETATM    9  N1  UNL     1      22.181 -31.545  15.882  1.00  0.00    -0.307 N 
HETATM   10  C14 UNL     1      22.566 -30.262  15.978  1.00  0.00     0.151 A 
HETATM   11  C15 UNL     1      21.955 -30.904  19.505  1.00  0.00     0.027 C 
HETATM   12  C16 UNL     1      23.114 -31.585  20.180  1.00  0.00     0.025 C 
HETATM   13  C17 UNL     1      22.985 -33.050  20.426  1.00  0.00     0.079 C 
HETATM   14  C18 UNL     1      21.664 -33.348  21.028  1.00  0.00     0.127 C 
HETATM   15  O4  UNL     1      21.301 -34.474  21.255  1.00  0.00    -0.298 OA
HETATM   16  C19 UNL     1      20.797 -32.180  21.344  1.00  0.00     0.079 C 
HETATM   17  C20 UNL     1      20.655 -31.420  20.035  1.00  0.00     0.025 C 
ENDROOT
BRANCH   1  18
HETATM   18  O1  UNL     1      21.398 -29.327  21.197  1.00  0.00    -0.380 OA
HETATM   19  C1  UNL     1      21.974 -28.430  22.042  1.00  0.00     0.203 C 
ENDBRANCH   1  18
BRANCH   8  20
HETATM   20  O2  UNL     1      21.464 -33.254  17.386  1.00  0.00    -0.345 OA
ATOM     21  H2  UNL     1      21.994 -34.040  17.339  1.00  0.00     0.219 HD
ENDBRANCH   8  20
BRANCH  10  22
HETATM   22  O3  UNL     1      22.959 -29.403  14.950  1.00  0.00    -0.345 OA
ATOM     23  H3  UNL     1      23.041 -28.461  15.042  1.00  0.00     0.219 HD
ENDBRANCH  10  22
BRANCH   9  24
HETATM   24  C10 UNL     1      22.091 -32.319  14.662  1.00  0.00     0.137 C 
BRANCH  24  25
HETATM   25  C11 UNL     1      23.368 -32.350  13.875  1.00  0.00    -0.004 C 
HETATM   26  C12 UNL     1      23.062 -33.015  12.546  1.00  0.00     0.011 C 
HETATM   27  C13 UNL     1      24.432 -33.108  14.596  1.00  0.00     0.011 C 
ENDBRANCH  24  25
ENDBRANCH   9  24
TORSDOF 5
ENDMDL
MODEL 4
REMARK VINA RESULT: -6.785261764      2.862      6.072
REMARK  5 active torsions:
REMARK  status: ('A' for Active; 'I' for Inactive)
REMARK    1  A    between atoms: O1_2  and  C2_3 
REMARK    2  A    between atoms: C9_10  and  O2_11 
REMARK    3  A    between atoms: N1_13  and  C10_14 
REMARK    4  A    between atoms: C10_14  and  C11_15 
REMARK    5  A    between atoms: C14_18  and  O3_19 
ROOT
HETATM    1  C2  UNL     1      23.009 -29.756  11.792  1.00  0.00     0.091 C 
HETATM    2  C3  UNL     1      21.621 -29.721  11.194  1.00  0.00     0.009 C 
HETATM    3  C4  UNL     1      21.460 -28.513  10.663  1.00  0.00    -0.018 C 
HETATM    4  C5  UNL     1      22.643 -27.683  10.841  1.00  0.00     0.049 C 
HETATM    5  C6  UNL     1      23.738 -28.776  10.936  1.00  0.00     0.057 C 
HETATM    6  C7  UNL     1      22.729 -27.039  12.169  1.00  0.00     0.012 A 
HETATM    7  C8  UNL     1      22.856 -27.809  13.293  1.00  0.00     0.016 A 
HETATM    8  C9  UNL     1      22.957 -26.870  14.329  1.00  0.00     0.152 A 
HETATM    9  N1  UNL     1      22.889 -25.620  13.843  1.00  0.00    -0.307 N 
HETATM   10  C14 UNL     1      22.748 -25.698  12.511  1.00  0.00     0.151 A 
HETATM   11  C15 UNL     1      22.853 -29.258  13.248  1.00  0.00     0.027 C 
HETATM   12  C16 UNL     1      21.522 -29.798  13.693  1.00  0.00     0.025 C 
HETATM   13  C17 UNL     1      21.342 -30.030  15.155  1.00  0.00     0.079 C 
HETATM   14  C18 UNL     1      22.512 -30.760  15.699  1.00  0.00     0.127 C 
HETATM   15  O4  UNL     1      22.627 -31.003  16.873  1.00  0.00    -0.298 OA
HETATM   16  C19 UNL     1      23.548 -31.184  14.718  1.00  0.00     0.079 C 
HETATM   17  C20 UNL     1      23.969 -29.909  14.003  1.00  0.00     0.025 C 
ENDROOT
BRANCH   1  18
HETATM   18  O1  UNL     1      23.522 -31.025  11.803  1.00  0.00    -0.380 OA
HETATM   19  C1  UNL     1      22.891 -31.882  10.956  1.00  0.00     0.203 C 
ENDBRANCH   1  18
BRANCH   8  20
HETATM   20  O2  UNL     1      23.106 -27.160  15.654  1.00  0.00    -0.345 OA
ATOM     21  H2  UNL     1      22.402 -27.366  16.258  1.00  0.00     0.219 HD
ENDBRANCH   8  20
BRANCH  10  22
HETATM   22  O3  UNL     1      22.636 -24.651  11.595  1.00  0.00    -0.345 OA
ATOM     23  H3  UNL     1      23.228 -23.908  11.556  1.00  0.00     0.219 HD
ENDBRANCH  10  22
BRANCH   9  24
HETATM   24  C10 UNL     1      22.956 -24.402  14.623  1.00  0.00     0.137 C 
BRANCH  24  25
HETATM   25  C11 UNL     1      21.664 -24.051  15.300  1.00  0.00    -0.004 C 
HETATM   26  C12 UNL     1      21.209 -22.718  14.736  1.00  0.00     0.011 C 
HETATM   27  C13 UNL     1      21.835 -23.951  16.779  1.00  0.00     0.011 C 
ENDBRANCH  24  25
ENDBRANCH   9  24
TORSDOF 5
ENDMDL
MODEL 5
REMARK VINA RESULT: -6.641592296      4.407      9.538
REMARK  5 active torsions:
REMARK  status: ('A' for Active; 'I' for Inactive)
REMARK    1  A    between atoms: O1_2  and  C2_3 
REMARK    2  A    between atoms: C9_10  and  O2_11 
REMARK    3  A    between atoms: N1_13  and  C10_14 
REMARK    4  A    between atoms: C10_14  and  C11_15 
REMARK    5  A    between atoms: C14_18  and  O3_19 
ROOT
HETATM    1  C2  UNL     1      18.122 -33.069  23.555  1.00  0.00     0.091 C 
HETATM    2  C3  UNL     1      18.812 -32.913  24.891  1.00  0.00     0.009 C 
HETATM    3  C4  UNL     1      19.408 -31.724  24.881  1.00  0.00    -0.018 C 
HETATM    4  C5  UNL     1      19.186 -31.019  23.626  1.00  0.00     0.049 C 
HETATM    5  C6  UNL     1      17.840 -31.651  23.186  1.00  0.00     0.057 C 
HETATM    6  C7  UNL     1      20.096 -31.434  22.538  1.00  0.00     0.012 A 
HETATM    7  C8  UNL     1      20.047 -32.714  22.057  1.00  0.00     0.016 A 
HETATM    8  C9  UNL     1      20.994 -32.718  21.025  1.00  0.00     0.152 A 
HETATM    9  N1  UNL     1      21.571 -31.512  20.907  1.00  0.00    -0.307 N 
HETATM   10  C14 UNL     1      21.033 -30.701  21.831  1.00  0.00     0.151 A 
HETATM   11  C15 UNL     1      19.165 -33.721  22.615  1.00  0.00     0.027 C 
HETATM   12  C16 UNL     1      19.933 -34.665  23.499  1.00  0.00     0.025 C 
HETATM   13  C17 UNL     1      20.559 -35.847  22.841  1.00  0.00     0.079 C 
HETATM   14  C18 UNL     1      19.577 -36.506  21.946  1.00  0.00     0.127 C 
HETATM   15  O4  UNL     1      19.872 -37.447  21.253  1.00  0.00    -0.298 OA
HETATM   16  C19 UNL     1      18.197 -35.949  21.946  1.00  0.00     0.079 C 
HETATM   17  C20 UNL     1      18.359 -34.476  21.606  1.00  0.00     0.025 C 
ENDROOT
BRANCH   1  18
HETATM   18  O1  UNL     1      17.027 -33.884  23.644  1.00  0.00    -0.380 OA
HETATM   19  C1  UNL     1      16.464 -33.918  24.883  1.00  0.00     0.203 C 
ENDBRANCH   1  18
BRANCH   8  20
HETATM   20  O2  UNL     1      21.305 -33.787  20.234  1.00  0.00    -0.345 OA
ATOM     21  H2  UNL     1      22.110 -33.897  19.743  1.00  0.00     0.219 HD
ENDBRANCH   8  20
BRANCH  10  22
HETATM   22  O3  UNL     1      21.329 -29.359  22.074  1.00  0.00    -0.345 OA
ATOM     23  H3  UNL     1      22.149 -29.050  22.443  1.00  0.00     0.219 HD
ENDBRANCH  10  22
BRANCH   9  24
HETATM   24  C10 UNL     1      22.595 -31.152  19.949  1.00  0.00     0.137 C 
BRANCH  24  25
HETATM   25  C11 UNL     1      22.062 -30.449  18.735  1.00  0.00    -0.004 C 
HETATM   26  C12 UNL     1      22.080 -31.447  17.593  1.00  0.00     0.011 C 
HETATM   27  C13 UNL     1      22.890 -29.257  18.389  1.00  0.00     0.011 C 
ENDBRANCH  24  25
ENDBRANCH   9  24
TORSDOF 5
ENDMDL
