MODEL 1
REMARK VINA RESULT: -6.187328844      0.000      0.000
REMARK  12 active torsions:
REMARK  status: ('A' for Active; 'I' for Inactive)
REMARK    1  A    between atoms: N1_1  and  C1_4 
REMARK    2  A    between atoms: N5_15  and  C5_16 
REMARK    3  A    between atoms: C5_16  and  C6_17 
REMARK    4  A    between atoms: C6_17  and  S1_18 
REMARK    5  A    between atoms: S1_18  and  S2_19 
REMARK    6  A    between atoms: S2_19  and  C7_20 
REMARK    7  A    between atoms: C7_20  and  C8_21 
REMARK    8  A    between atoms: C8_21  and  N6_22 
REMARK    9  A    between atoms: N6_22  and  C9_24 
REMARK   10  A    between atoms: C9_24  and  C10_25 
REMARK   11  A    between atoms: C10_25  and  N7_26 
REMARK   12  A    between atoms: N7_26  and  N8_27 
ROOT
HETATM    1  C1  UNL     1       9.008  88.657  -8.773  1.00  0.00     0.679 A 
HETATM    2  N2  UNL     1       8.432  89.593  -7.999  1.00  0.00    -0.175 N 
ATOM      3  H2  UNL     1       8.881  90.505  -7.914  1.00  0.00     0.186 HD
HETATM    4  C2  UNL     1       7.304  89.375  -7.344  1.00  0.00     0.145 A 
HETATM    5  N3  UNL     1       6.774  90.293  -6.610  1.00  0.00    -0.383 N 
ATOM      6  H31 UNL     1       5.905  90.125  -6.105  1.00  0.00     0.157 HD
ATOM      7  H32 UNL     1       7.217  91.208  -6.519  1.00  0.00     0.157 HD
HETATM    8  C3  UNL     1       6.705  88.138  -7.466  1.00  0.00     0.123 A 
HETATM    9  N4  UNL     1       5.585  87.604  -6.949  1.00  0.00    -0.346 N 
ATOM     10  H4  UNL     1       4.940  88.084  -6.321  1.00  0.00     0.167 HD
HETATM   11  C4  UNL     1       5.445  86.336  -7.389  1.00  0.00     0.185 A 
HETATM   12  N5  UNL     1       6.485  86.045  -8.200  1.00  0.00    -0.326 N 
HETATM   13  C11 UNL     1       7.258  87.138  -8.252  1.00  0.00     0.155 A 
HETATM   14  N9  UNL     1       8.422  87.449  -8.892  1.00  0.00    -0.174 N 
ATOM     15  H9  UNL     1       8.864  86.744  -9.480  1.00  0.00     0.186 HD
ENDROOT
BRANCH  12  16
HETATM   16  C5  UNL     1       6.715  84.780  -8.890  1.00  0.00     0.142 C 
BRANCH  16  17
HETATM   17  C6  UNL     1       6.033  83.696  -8.105  1.00  0.00     0.106 C 
BRANCH  17  18
HETATM   18  S1  UNL     1       4.634  82.942  -8.927  1.00  0.00    -0.096 SA
BRANCH  18  19
HETATM   19  S2  UNL     1       2.833  83.237  -7.882  1.00  0.00    -0.096 SA
BRANCH  19  20
HETATM   20  C7  UNL     1       2.020  84.775  -8.389  1.00  0.00     0.105 C 
BRANCH  20  21
HETATM   21  C8  UNL     1       1.820  85.707  -7.208  1.00  0.00     0.124 C 
BRANCH  21  22
HETATM   22  N6  UNL     1       0.774  86.656  -7.431  1.00  0.00    -0.419 N 
ATOM     23  H6  UNL     1       0.027  86.478  -8.103  1.00  0.00     0.153 HD
BRANCH  22  24
HETATM   24  C9  UNL     1       0.820  87.850  -6.680  1.00  0.00     0.131 C 
BRANCH  24  25
HETATM   25  C10 UNL     1      -0.442  88.665  -6.679  1.00  0.00     0.153 C 
BRANCH  25  26
HETATM   26  N7  UNL     1      -0.121  90.092  -6.680  1.00  0.00    -0.147 NA
BRANCH  26  27
HETATM   27  N8  UNL     1      -1.146  90.843  -6.106  1.00  0.00    -0.348 N 
ATOM     28  H82 UNL     1      -1.996  91.108  -6.603  1.00  0.00     0.172 HD
ATOM     29  H81 UNL     1      -0.931  91.084  -5.139  1.00  0.00     0.172 HD
ENDBRANCH  26  27
ENDBRANCH  25  26
ENDBRANCH  24  25
ENDBRANCH  22  24
ENDBRANCH  21  22
ENDBRANCH  20  21
ENDBRANCH  19  20
ENDBRANCH  18  19
ENDBRANCH  17  18
ENDBRANCH  16  17
ENDBRANCH  12  16
BRANCH   1  30
HETATM   30  N1  UNL     1      10.128  88.920  -9.402  1.00  0.00    -0.234 N 
ATOM     31  H12 UNL     1      10.246  88.658 -10.381  1.00  0.00     0.174 HD
ATOM     32  H11 UNL     1      10.892  89.389  -8.916  1.00  0.00     0.174 HD
ENDBRANCH   1  30
TORSDOF 12
ENDMDL
MODEL 2
REMARK VINA RESULT: -6.125301581      3.198      8.005
REMARK  12 active torsions:
REMARK  status: ('A' for Active; 'I' for Inactive)
REMARK    1  A    between atoms: N1_1  and  C1_4 
REMARK    2  A    between atoms: N5_15  and  C5_16 
REMARK    3  A    between atoms: C5_16  and  C6_17 
REMARK    4  A    between atoms: C6_17  and  S1_18 
REMARK    5  A    between atoms: S1_18  and  S2_19 
REMARK    6  A    between atoms: S2_19  and  C7_20 
REMARK    7  A    between atoms: C7_20  and  C8_21 
REMARK    8  A    between atoms: C8_21  and  N6_22 
REMARK    9  A    between atoms: N6_22  and  C9_24 
REMARK   10  A    between atoms: C9_24  and  C10_25 
REMARK   11  A    between atoms: C10_25  and  N7_26 
REMARK   12  A    between atoms: N7_26  and  N8_27 
ROOT
HETATM    1  C1  UNL     1       5.677  83.966  -7.761  1.00  0.00     0.679 A 
HETATM    2  N2  UNL     1       4.492  83.427  -8.095  1.00  0.00    -0.175 N 
ATOM      3  H2  UNL     1       4.456  82.442  -8.358  1.00  0.00     0.186 HD
HETATM    4  C2  UNL     1       3.370  84.126  -8.094  1.00  0.00     0.145 A 
HETATM    5  N3  UNL     1       2.247  83.581  -8.416  1.00  0.00    -0.383 N 
ATOM      6  H31 UNL     1       1.382  84.121  -8.416  1.00  0.00     0.157 HD
ATOM      7  H32 UNL     1       2.203  82.597  -8.681  1.00  0.00     0.157 HD
HETATM    8  C3  UNL     1       3.429  85.458  -7.735  1.00  0.00     0.123 A 
HETATM    9  N4  UNL     1       2.500  86.424  -7.633  1.00  0.00    -0.346 N 
ATOM     10  H4  UNL     1       1.505  86.307  -7.825  1.00  0.00     0.167 HD
HETATM   11  C4  UNL     1       3.086  87.573  -7.236  1.00  0.00     0.185 A 
HETATM   12  N5  UNL     1       4.409  87.349  -7.079  1.00  0.00    -0.326 N 
HETATM   13  C11 UNL     1       4.626  86.063  -7.382  1.00  0.00     0.155 A 
HETATM   14  N9  UNL     1       5.734  85.267  -7.411  1.00  0.00    -0.174 N 
ATOM     15  H9  UNL     1       6.636  85.670  -7.159  1.00  0.00     0.186 HD
ENDROOT
BRANCH  12  16
HETATM   16  C5  UNL     1       5.406  88.326  -6.656  1.00  0.00     0.142 C 
BRANCH  16  17
HETATM   17  C6  UNL     1       6.118  88.820  -7.882  1.00  0.00     0.106 C 
BRANCH  17  18
HETATM   18  S1  UNL     1       7.747  88.123  -8.136  1.00  0.00    -0.096 SA
BRANCH  18  19
HETATM   19  S2  UNL     1       9.256  89.587  -8.142  1.00  0.00    -0.096 SA
BRANCH  19  20
HETATM   20  C7  UNL     1      10.883  88.858  -7.814  1.00  0.00     0.105 C 
BRANCH  20  21
HETATM   21  C8  UNL     1      11.938  89.425  -8.745  1.00  0.00     0.124 C 
BRANCH  21  22
HETATM   22  N6  UNL     1      11.373  90.009  -9.921  1.00  0.00    -0.419 N 
ATOM     23  H6  UNL     1      10.859  90.890  -9.885  1.00  0.00     0.153 HD
BRANCH  22  24
HETATM   24  C9  UNL     1      11.557  89.314 -11.135  1.00  0.00     0.131 C 
BRANCH  24  25
HETATM   25  C10 UNL     1      10.315  88.719 -11.737  1.00  0.00     0.153 C 
BRANCH  25  26
HETATM   26  N7  UNL     1      10.457  87.268 -11.856  1.00  0.00    -0.147 NA
BRANCH  26  27
HETATM   27  N8  UNL     1       9.988  86.618 -10.715  1.00  0.00    -0.348 N 
ATOM     28  H82 UNL     1      10.522  86.544  -9.849  1.00  0.00     0.172 HD
ATOM     29  H81 UNL     1       9.055  86.235 -10.865  1.00  0.00     0.172 HD
ENDBRANCH  26  27
ENDBRANCH  25  26
ENDBRANCH  24  25
ENDBRANCH  22  24
ENDBRANCH  21  22
ENDBRANCH  20  21
ENDBRANCH  19  20
ENDBRANCH  18  19
ENDBRANCH  17  18
ENDBRANCH  16  17
ENDBRANCH  12  16
BRANCH   1  30
HETATM   30  N1  UNL     1       6.763  83.233  -7.778  1.00  0.00    -0.234 N 
ATOM     31  H12 UNL     1       7.519  83.441  -8.431  1.00  0.00     0.174 HD
ATOM     32  H11 UNL     1       6.862  82.446  -7.137  1.00  0.00     0.174 HD
ENDBRANCH   1  30
TORSDOF 12
ENDMDL
MODEL 3
REMARK VINA RESULT: -5.960216840      3.141      4.650
REMARK  12 active torsions:
REMARK  status: ('A' for Active; 'I' for Inactive)
REMARK    1  A    between atoms: N1_1  and  C1_4 
REMARK    2  A    between atoms: N5_15  and  C5_16 
REMARK    3  A    between atoms: C5_16  and  C6_17 
REMARK    4  A    between atoms: C6_17  and  S1_18 
REMARK    5  A    between atoms: S1_18  and  S2_19 
REMARK    6  A    between atoms: S2_19  and  C7_20 
REMARK    7  A    between atoms: C7_20  and  C8_21 
REMARK    8  A    between atoms: C8_21  and  N6_22 
REMARK    9  A    between atoms: N6_22  and  C9_24 
REMARK   10  A    between atoms: C9_24  and  C10_25 
REMARK   11  A    between atoms: C10_25  and  N7_26 
REMARK   12  A    between atoms: N7_26  and  N8_27 
ROOT
HETATM    1  C1  UNL     1       9.793  87.488 -10.155  1.00  0.00     0.679 A 
HETATM    2  N2  UNL     1      10.558  88.531  -9.788  1.00  0.00    -0.175 N 
ATOM      3  H2  UNL     1      11.446  88.681 -10.268  1.00  0.00     0.186 HD
HETATM    4  C2  UNL     1      10.203  89.368  -8.829  1.00  0.00     0.145 A 
HETATM    5  N3  UNL     1      10.958  90.360  -8.500  1.00  0.00    -0.383 N 
ATOM      6  H31 UNL     1      10.684  91.006  -7.760  1.00  0.00     0.157 HD
ATOM      7  H32 UNL     1      11.847  90.518  -8.974  1.00  0.00     0.157 HD
HETATM    8  C3  UNL     1       9.000  89.155  -8.187  1.00  0.00     0.123 A 
HETATM    9  N4  UNL     1       8.360  89.801  -7.197  1.00  0.00    -0.346 N 
ATOM     10  H4  UNL     1       8.703  90.634  -6.720  1.00  0.00     0.167 HD
HETATM   11  C4  UNL     1       7.193  89.177  -6.932  1.00  0.00     0.185 A 
HETATM   12  N5  UNL     1       7.075  88.117  -7.760  1.00  0.00    -0.326 N 
HETATM   13  C11 UNL     1       8.172  88.096  -8.528  1.00  0.00     0.155 A 
HETATM   14  N9  UNL     1       8.617  87.282  -9.528  1.00  0.00    -0.174 N 
ATOM     15  H9  UNL     1       8.041  86.489  -9.811  1.00  0.00     0.186 HD
ENDROOT
BRANCH  12  16
HETATM   16  C5  UNL     1       5.959  87.177  -7.807  1.00  0.00     0.142 C 
BRANCH  16  17
HETATM   17  C6  UNL     1       4.937  87.624  -6.802  1.00  0.00     0.106 C 
BRANCH  17  18
HETATM   18  S1  UNL     1       3.409  88.234  -7.505  1.00  0.00    -0.096 SA
BRANCH  18  19
HETATM   19  S2  UNL     1       1.714  87.316  -6.665  1.00  0.00    -0.096 SA
BRANCH  19  20
HETATM   20  C7  UNL     1       1.299  85.779  -7.532  1.00  0.00     0.105 C 
BRANCH  20  21
HETATM   21  C8  UNL     1       2.362  84.719  -7.311  1.00  0.00     0.124 C 
BRANCH  21  22
HETATM   22  N6  UNL     1       3.248  84.592  -8.425  1.00  0.00    -0.419 N 
ATOM     23  H6  UNL     1       3.044  85.034  -9.322  1.00  0.00     0.153 HD
BRANCH  22  24
HETATM   24  C9  UNL     1       4.418  83.828  -8.231  1.00  0.00     0.131 C 
BRANCH  24  25
HETATM   25  C10 UNL     1       5.007  83.881  -6.849  1.00  0.00     0.153 C 
BRANCH  25  26
HETATM   26  N7  UNL     1       6.440  83.593  -6.899  1.00  0.00    -0.147 NA
BRANCH  26  27
HETATM   27  N8  UNL     1       6.868  83.381  -8.209  1.00  0.00    -0.348 N 
ATOM     28  H82 UNL     1       6.702  82.515  -8.723  1.00  0.00     0.172 HD
ATOM     29  H81 UNL     1       7.361  84.196  -8.574  1.00  0.00     0.172 HD
ENDBRANCH  26  27
ENDBRANCH  25  26
ENDBRANCH  24  25
ENDBRANCH  22  24
ENDBRANCH  21  22
ENDBRANCH  20  21
ENDBRANCH  19  20
ENDBRANCH  18  19
ENDBRANCH  17  18
ENDBRANCH  16  17
ENDBRANCH  12  16
BRANCH   1  30
HETATM   30  N1  UNL     1      10.188  86.684 -11.112  1.00  0.00    -0.234 N 
ATOM     31  H12 UNL     1      11.051  86.148 -11.015  1.00  0.00     0.174 HD
ATOM     32  H11 UNL     1       9.635  86.588 -11.963  1.00  0.00     0.174 HD
ENDBRANCH   1  30
TORSDOF 12
ENDMDL
MODEL 4
REMARK VINA RESULT: -5.935393695      3.391      7.723
REMARK  12 active torsions:
REMARK  status: ('A' for Active; 'I' for Inactive)
REMARK    1  A    between atoms: N1_1  and  C1_4 
REMARK    2  A    between atoms: N5_15  and  C5_16 
REMARK    3  A    between atoms: C5_16  and  C6_17 
REMARK    4  A    between atoms: C6_17  and  S1_18 
REMARK    5  A    between atoms: S1_18  and  S2_19 
REMARK    6  A    between atoms: S2_19  and  C7_20 
REMARK    7  A    between atoms: C7_20  and  C8_21 
REMARK    8  A    between atoms: C8_21  and  N6_22 
REMARK    9  A    between atoms: N6_22  and  C9_24 
REMARK   10  A    between atoms: C9_24  and  C10_25 
REMARK   11  A    between atoms: C10_25  and  N7_26 
REMARK   12  A    between atoms: N7_26  and  N8_27 
ROOT
HETATM    1  C1  UNL     1       5.809  83.914  -7.852  1.00  0.00     0.679 A 
HETATM    2  N2  UNL     1       4.748  83.280  -8.380  1.00  0.00    -0.175 N 
ATOM      3  H2  UNL     1       4.866  82.327  -8.723  1.00  0.00     0.186 HD
HETATM    4  C2  UNL     1       3.557  83.846  -8.471  1.00  0.00     0.145 A 
HETATM    5  N3  UNL     1       2.557  83.213  -8.980  1.00  0.00    -0.383 N 
ATOM      6  H31 UNL     1       1.639  83.650  -9.050  1.00  0.00     0.157 HD
ATOM      7  H32 UNL     1       2.666  82.259  -9.326  1.00  0.00     0.157 HD
HETATM    8  C3  UNL     1       3.409  85.137  -8.003  1.00  0.00     0.123 A 
HETATM    9  N4  UNL     1       2.363  85.979  -7.947  1.00  0.00    -0.346 N 
ATOM     10  H4  UNL     1       1.421  85.770  -8.276  1.00  0.00     0.167 HD
HETATM   11  C4  UNL     1       2.751  87.144  -7.387  1.00  0.00     0.185 A 
HETATM   12  N5  UNL     1       4.063  87.055  -7.076  1.00  0.00    -0.326 N 
HETATM   13  C11 UNL     1       4.471  85.835  -7.449  1.00  0.00     0.155 A 
HETATM   14  N9  UNL     1       5.663  85.174  -7.395  1.00  0.00    -0.174 N 
ATOM     15  H9  UNL     1       6.472  85.650  -6.996  1.00  0.00     0.186 HD
ENDROOT
BRANCH  12  16
HETATM   16  C5  UNL     1       4.874  88.093  -6.449  1.00  0.00     0.142 C 
BRANCH  16  17
HETATM   17  C6  UNL     1       5.605  88.827  -7.537  1.00  0.00     0.106 C 
BRANCH  17  18
HETATM   18  S1  UNL     1       7.190  89.501  -7.053  1.00  0.00    -0.096 SA
BRANCH  18  19
HETATM   19  S2  UNL     1       8.803  88.449  -7.896  1.00  0.00    -0.096 SA
BRANCH  19  20
HETATM   20  C7  UNL     1       8.226  87.091  -8.950  1.00  0.00     0.105 C 
BRANCH  20  21
HETATM   21  C8  UNL     1       9.022  87.020 -10.240  1.00  0.00     0.124 C 
BRANCH  21  22
HETATM   22  N6  UNL     1      10.288  87.676 -10.139  1.00  0.00    -0.419 N 
ATOM     23  H6  UNL     1      10.926  87.486  -9.366  1.00  0.00     0.153 HD
BRANCH  22  24
HETATM   24  C9  UNL     1      10.616  88.597 -11.156  1.00  0.00     0.131 C 
BRANCH  24  25
HETATM   25  C10 UNL     1      11.563  89.695 -10.757  1.00  0.00     0.153 C 
BRANCH  25  26
HETATM   26  N7  UNL     1      12.223  89.357  -9.496  1.00  0.00    -0.147 NA
BRANCH  26  27
HETATM   27  N8  UNL     1      11.963  90.313  -8.516  1.00  0.00    -0.348 N 
ATOM     28  H82 UNL     1      11.398  91.147  -8.679  1.00  0.00     0.172 HD
ATOM     29  H81 UNL     1      12.408  90.068  -7.632  1.00  0.00     0.172 HD
ENDBRANCH  26  27
ENDBRANCH  25  26
ENDBRANCH  24  25
ENDBRANCH  22  24
ENDBRANCH  21  22
ENDBRANCH  20  21
ENDBRANCH  19  20
ENDBRANCH  18  19
ENDBRANCH  17  18
ENDBRANCH  16  17
ENDBRANCH  12  16
BRANCH   1  30
HETATM   30  N1  UNL     1       6.971  83.311  -7.784  1.00  0.00    -0.234 N 
ATOM     31  H12 UNL     1       7.336  82.797  -8.587  1.00  0.00     0.174 HD
ATOM     32  H11 UNL     1       7.521  83.351  -6.927  1.00  0.00     0.174 HD
ENDBRANCH   1  30
TORSDOF 12
ENDMDL
MODEL 5
REMARK VINA RESULT: -5.818586721      1.231      1.986
REMARK  12 active torsions:
REMARK  status: ('A' for Active; 'I' for Inactive)
REMARK    1  A    between atoms: N1_1  and  C1_4 
REMARK    2  A    between atoms: N5_15  and  C5_16 
REMARK    3  A    between atoms: C5_16  and  C6_17 
REMARK    4  A    between atoms: C6_17  and  S1_18 
REMARK    5  A    between atoms: S1_18  and  S2_19 
REMARK    6  A    between atoms: S2_19  and  C7_20 
REMARK    7  A    between atoms: C7_20  and  C8_21 
REMARK    8  A    between atoms: C8_21  and  N6_22 
REMARK    9  A    between atoms: N6_22  and  C9_24 
REMARK   10  A    between atoms: C9_24  and  C10_25 
REMARK   11  A    between atoms: C10_25  and  N7_26 
REMARK   12  A    between atoms: N7_26  and  N8_27 
ROOT
HETATM    1  C1  UNL     1       9.758  87.540 -10.279  1.00  0.00     0.679 A 
HETATM    2  N2  UNL     1      10.393  88.614  -9.778  1.00  0.00    -0.175 N 
ATOM      3  H2  UNL     1      11.266  88.915 -10.211  1.00  0.00     0.186 HD
HETATM    4  C2  UNL     1       9.926  89.295  -8.745  1.00  0.00     0.145 A 
HETATM    5  N3  UNL     1      10.556  90.323  -8.289  1.00  0.00    -0.383 N 
ATOM      6  H31 UNL     1      10.196  90.848  -7.492  1.00  0.00     0.157 HD
ATOM      7  H32 UNL     1      11.430  90.631  -8.716  1.00  0.00     0.157 HD
HETATM    8  C3  UNL     1       8.744  88.879  -8.167  1.00  0.00     0.123 A 
HETATM    9  N4  UNL     1       8.016  89.336  -7.134  1.00  0.00    -0.346 N 
ATOM     10  H4  UNL     1       8.253  90.144  -6.559  1.00  0.00     0.167 HD
HETATM   11  C4  UNL     1       6.924  88.560  -6.973  1.00  0.00     0.185 A 
HETATM   12  N5  UNL     1       6.944  87.590  -7.913  1.00  0.00    -0.326 N 
HETATM   13  C11 UNL     1       8.050  87.778  -8.645  1.00  0.00     0.155 A 
HETATM   14  N9  UNL     1       8.603  87.135  -9.713  1.00  0.00    -0.174 N 
ATOM     15  H9  UNL     1       8.127  86.319 -10.097  1.00  0.00     0.186 HD
ENDROOT
BRANCH  12  16
HETATM   16  C5  UNL     1       5.944  86.543  -8.096  1.00  0.00     0.142 C 
BRANCH  16  17
HETATM   17  C6  UNL     1       6.585  85.229  -7.754  1.00  0.00     0.106 C 
BRANCH  17  18
HETATM   18  S1  UNL     1       5.440  83.930  -7.302  1.00  0.00    -0.096 SA
BRANCH  18  19
HETATM   19  S2  UNL     1       3.618  84.065  -8.343  1.00  0.00    -0.096 SA
BRANCH  19  20
HETATM   20  C7  UNL     1       2.309  84.752  -7.295  1.00  0.00     0.105 C 
BRANCH  20  21
HETATM   21  C8  UNL     1       2.271  86.266  -7.382  1.00  0.00     0.124 C 
BRANCH  21  22
HETATM   22  N6  UNL     1       0.938  86.781  -7.400  1.00  0.00    -0.419 N 
ATOM     23  H6  UNL     1       0.254  86.464  -8.088  1.00  0.00     0.153 HD
BRANCH  22  24
HETATM   24  C9  UNL     1       0.609  87.746  -6.426  1.00  0.00     0.131 C 
BRANCH  24  25
HETATM   25  C10 UNL     1      -0.556  88.636  -6.760  1.00  0.00     0.153 C 
BRANCH  25  26
HETATM   26  N7  UNL     1      -0.146  90.040  -6.718  1.00  0.00    -0.147 NA
BRANCH  26  27
HETATM   27  N8  UNL     1      -1.090  90.823  -6.055  1.00  0.00    -0.348 N 
ATOM     28  H82 UNL     1      -1.333  90.700  -5.071  1.00  0.00     0.172 HD
ATOM     29  H81 UNL     1      -1.496  91.520  -6.678  1.00  0.00     0.172 HD
ENDBRANCH  26  27
ENDBRANCH  25  26
ENDBRANCH  24  25
ENDBRANCH  22  24
ENDBRANCH  21  22
ENDBRANCH  20  21
ENDBRANCH  19  20
ENDBRANCH  18  19
ENDBRANCH  17  18
ENDBRANCH  16  17
ENDBRANCH  12  16
BRANCH   1  30
HETATM   30  N1  UNL     1      10.261  86.896 -11.304  1.00  0.00    -0.234 N 
ATOM     31  H12 UNL     1      10.979  86.185 -11.168  1.00  0.00     0.174 HD
ATOM     32  H11 UNL     1       9.936  87.101 -12.248  1.00  0.00     0.174 HD
ENDBRANCH   1  30
TORSDOF 12
ENDMDL
