MODEL 1
REMARK VINA RESULT: -6.727554322      0.000      0.000
REMARK  13 active torsions:
REMARK  status: ('A' for Active; 'I' for Inactive)
REMARK    1  A    between atoms: N1_1  and  C1_4 
REMARK    2  A    between atoms: C6_14  and  N5_15 
REMARK    3  A    between atoms: N5_15  and  N6_17 
REMARK    4  A    between atoms: N7_20  and  C7_21 
REMARK    5  A    between atoms: C7_21  and  C8_22 
REMARK    6  A    between atoms: C8_22  and  N8_23 
REMARK    7  A    between atoms: N8_23  and  C9_24 
REMARK    8  A    between atoms: N8_23  and  C11_28 
REMARK    9  A    between atoms: C9_24  and  C10_25 
REMARK   10  A    between atoms: C10_25  and  O1_26 
REMARK   11  A    between atoms: C11_28  and  C12_29 
REMARK   12  A    between atoms: C12_29  and  C13_30 
REMARK   13  A    between atoms: C13_30  and  N9_31 
ROOT
HETATM    1  C1  UNL     1       2.372  86.575  -7.249  1.00  0.00     0.115 A 
HETATM    2  N2  UNL     1       1.892  87.859  -7.283  1.00  0.00    -0.338 N 
ATOM      3  H2  UNL     1       0.894  88.063  -7.229  1.00  0.00     0.168 HD
HETATM    4  C2  UNL     1       2.808  88.829  -7.392  1.00  0.00     0.183 A 
HETATM    5  N3  UNL     1       4.117  88.560  -7.463  1.00  0.00    -0.338 N 
ATOM      6  H3  UNL     1       4.761  89.347  -7.544  1.00  0.00     0.168 HD
HETATM    7  C3  UNL     1       4.645  87.313  -7.434  1.00  0.00     0.126 A 
HETATM    8  C4  UNL     1       3.715  86.289  -7.321  1.00  0.00     0.080 A 
HETATM    9  C5  UNL     1       4.465  85.133  -7.321  1.00  0.00     0.109 A 
HETATM   10  N4  UNL     1       3.937  83.819  -7.226  1.00  0.00    -0.097 NA
HETATM   11  C6  UNL     1       5.819  85.461  -7.433  1.00  0.00     0.149 A 
HETATM   12  N7  UNL     1       5.874  86.800  -7.498  1.00  0.00    -0.314 N 
ENDROOT
BRANCH  12  13
HETATM   13  C7  UNL     1       7.103  87.521  -7.587  1.00  0.00     0.162 C 
BRANCH  13  14
HETATM   14  C8  UNL     1       7.869  87.399  -8.842  1.00  0.00     0.292 C 
BRANCH  14  15
HETATM   15  N8  UNL     1       8.965  88.315  -9.046  1.00  0.00     0.092 N 
BRANCH  15  16
HETATM   16  C9  UNL     1       9.522  88.684  -7.721  1.00  0.00     0.298 C 
BRANCH  16  17
HETATM   17  C10 UNL     1      10.996  88.857  -7.757  1.00  0.00     0.194 C 
BRANCH  17  18
HETATM   18  O1  UNL     1      11.490  88.562  -6.478  1.00  0.00    -0.399 OA
ATOM     19  H1  UNL     1      12.203  89.164  -6.299  1.00  0.00     0.209 HD
ENDBRANCH  17  18
ENDBRANCH  16  17
ENDBRANCH  15  16
BRANCH  15  20
HETATM   20  C11 UNL     1      10.066  87.688  -9.759  1.00  0.00     0.274 C 
BRANCH  20  21
HETATM   21  C12 UNL     1      10.170  88.026 -11.200  1.00  0.00     0.057 C 
BRANCH  21  22
HETATM   22  C13 UNL     1      10.136  89.562 -11.279  1.00  0.00     0.231 C 
BRANCH  22  23
HETATM   23  N9  UNL     1      11.373  90.160 -10.899  1.00  0.00    -0.079 N 
ATOM     24  H93 UNL     1      11.374  90.400  -9.908  1.00  0.00     0.274 HD
ATOM     25  H92 UNL     1      12.127  89.474 -10.904  1.00  0.00     0.274 HD
ATOM     26  H91 UNL     1      11.610  90.970 -11.473  1.00  0.00     0.274 HD
ENDBRANCH  22  23
ENDBRANCH  21  22
ENDBRANCH  20  21
ENDBRANCH  15  20
ENDBRANCH  14  15
ENDBRANCH  13  14
ENDBRANCH  12  13
BRANCH  11  27
HETATM   27  N5  UNL     1       6.827  84.475  -7.459  1.00  0.00    -0.290 N 
ATOM     28  H5  UNL     1       7.680  84.678  -6.939  1.00  0.00     0.188 HD
BRANCH  27  29
HETATM   29  N6  UNL     1       6.776  83.263  -8.115  1.00  0.00    -0.344 N 
ATOM     30  H62 UNL     1       6.931  83.301  -9.122  1.00  0.00     0.176 HD
ATOM     31  H61 UNL     1       6.602  82.350  -7.694  1.00  0.00     0.176 HD
ENDBRANCH  27  29
ENDBRANCH  11  27
BRANCH   1  32
HETATM   32  N1  UNL     1       1.472  85.681  -7.141  1.00  0.00    -0.385 N 
ATOM     33  H12 UNL     1       0.992  85.472  -6.266  1.00  0.00     0.157 HD
ATOM     34  H11 UNL     1       1.263  85.189  -8.010  1.00  0.00     0.157 HD
ENDBRANCH   1  32
TORSDOF 13
ENDMDL
MODEL 2
REMARK VINA RESULT: -6.553869876      1.154      2.795
REMARK  13 active torsions:
REMARK  status: ('A' for Active; 'I' for Inactive)
REMARK    1  A    between atoms: N1_1  and  C1_4 
REMARK    2  A    between atoms: C6_14  and  N5_15 
REMARK    3  A    between atoms: N5_15  and  N6_17 
REMARK    4  A    between atoms: N7_20  and  C7_21 
REMARK    5  A    between atoms: C7_21  and  C8_22 
REMARK    6  A    between atoms: C8_22  and  N8_23 
REMARK    7  A    between atoms: N8_23  and  C9_24 
REMARK    8  A    between atoms: N8_23  and  C11_28 
REMARK    9  A    between atoms: C9_24  and  C10_25 
REMARK   10  A    between atoms: C10_25  and  O1_26 
REMARK   11  A    between atoms: C11_28  and  C12_29 
REMARK   12  A    between atoms: C12_29  and  C13_30 
REMARK   13  A    between atoms: C13_30  and  N9_31 
ROOT
HETATM    1  C1  UNL     1       2.560  86.036  -7.404  1.00  0.00     0.115 A 
HETATM    2  N2  UNL     1       2.574  84.665  -7.383  1.00  0.00    -0.338 N 
ATOM      3  H2  UNL     1       1.715  84.118  -7.320  1.00  0.00     0.168 HD
HETATM    4  C2  UNL     1       3.779  84.085  -7.450  1.00  0.00     0.183 A 
HETATM    5  N3  UNL     1       4.905  84.804  -7.533  1.00  0.00    -0.338 N 
ATOM      6  H3  UNL     1       5.790  84.299  -7.582  1.00  0.00     0.168 HD
HETATM    7  C3  UNL     1       4.949  86.158  -7.558  1.00  0.00     0.126 A 
HETATM    8  C4  UNL     1       3.712  86.782  -7.490  1.00  0.00     0.080 A 
HETATM    9  C5  UNL     1       3.997  88.130  -7.519  1.00  0.00     0.109 A 
HETATM   10  N4  UNL     1       3.032  89.169  -7.469  1.00  0.00    -0.097 NA
HETATM   11  C6  UNL     1       5.382  88.307  -7.602  1.00  0.00     0.149 A 
HETATM   12  N7  UNL     1       5.913  87.075  -7.623  1.00  0.00    -0.314 N 
ENDROOT
BRANCH  12  13
HETATM   13  C7  UNL     1       7.318  86.840  -7.736  1.00  0.00     0.162 C 
BRANCH  13  14
HETATM   14  C8  UNL     1       7.929  87.025  -9.066  1.00  0.00     0.292 C 
BRANCH  14  15
HETATM   15  N8  UNL     1       8.912  88.072  -9.208  1.00  0.00     0.092 N 
BRANCH  15  16
HETATM   16  C9  UNL     1       9.364  88.479  -7.854  1.00  0.00     0.298 C 
BRANCH  16  17
HETATM   17  C10 UNL     1      10.793  88.881  -7.834  1.00  0.00     0.194 C 
BRANCH  17  18
HETATM   18  O1  UNL     1      11.316  88.527  -6.582  1.00  0.00    -0.399 OA
ATOM     19  H1  UNL     1      11.979  89.168  -6.355  1.00  0.00     0.209 HD
ENDBRANCH  17  18
ENDBRANCH  16  17
ENDBRANCH  15  16
BRANCH  15  20
HETATM   20  C11 UNL     1      10.110  87.598  -9.881  1.00  0.00     0.274 C 
BRANCH  20  21
HETATM   21  C12 UNL     1      10.194  87.908 -11.331  1.00  0.00     0.057 C 
BRANCH  21  22
HETATM   22  C13 UNL     1      10.963  89.235 -11.437  1.00  0.00     0.231 C 
BRANCH  22  23
HETATM   23  N9  UNL     1      10.172  90.361 -11.066  1.00  0.00    -0.079 N 
ATOM     24  H93 UNL     1      10.047  90.995 -11.854  1.00  0.00     0.274 HD
ATOM     25  H92 UNL     1       9.200  90.091 -10.915  1.00  0.00     0.274 HD
ATOM     26  H91 UNL     1      10.545  90.854 -10.254  1.00  0.00     0.274 HD
ENDBRANCH  22  23
ENDBRANCH  21  22
ENDBRANCH  20  21
ENDBRANCH  15  20
ENDBRANCH  14  15
ENDBRANCH  13  14
ENDBRANCH  12  13
BRANCH  11  27
HETATM   27  N5  UNL     1       5.969  89.588  -7.649  1.00  0.00    -0.290 N 
ATOM     28  H5  UNL     1       5.877  90.102  -8.525  1.00  0.00     0.188 HD
BRANCH  27  29
HETATM   29  N6  UNL     1       6.656  90.216  -6.633  1.00  0.00    -0.344 N 
ATOM     30  H62 UNL     1       6.109  90.428  -5.798  1.00  0.00     0.176 HD
ATOM     31  H61 UNL     1       7.640  90.483  -6.637  1.00  0.00     0.176 HD
ENDBRANCH  27  29
ENDBRANCH  11  27
BRANCH   1  32
HETATM   32  N1  UNL     1       1.397  86.549  -7.343  1.00  0.00    -0.385 N 
ATOM     33  H12 UNL     1       1.225  87.517  -7.068  1.00  0.00     0.157 HD
ATOM     34  H11 UNL     1       0.643  85.911  -7.596  1.00  0.00     0.157 HD
ENDBRANCH   1  32
TORSDOF 13
ENDMDL
MODEL 3
REMARK VINA RESULT: -6.432931589      2.539      7.211
REMARK  13 active torsions:
REMARK  status: ('A' for Active; 'I' for Inactive)
REMARK    1  A    between atoms: N1_1  and  C1_4 
REMARK    2  A    between atoms: C6_14  and  N5_15 
REMARK    3  A    between atoms: N5_15  and  N6_17 
REMARK    4  A    between atoms: N7_20  and  C7_21 
REMARK    5  A    between atoms: C7_21  and  C8_22 
REMARK    6  A    between atoms: C8_22  and  N8_23 
REMARK    7  A    between atoms: N8_23  and  C9_24 
REMARK    8  A    between atoms: N8_23  and  C11_28 
REMARK    9  A    between atoms: C9_24  and  C10_25 
REMARK   10  A    between atoms: C10_25  and  O1_26 
REMARK   11  A    between atoms: C11_28  and  C12_29 
REMARK   12  A    between atoms: C12_29  and  C13_30 
REMARK   13  A    between atoms: C13_30  and  N9_31 
ROOT
HETATM    1  C1  UNL     1      10.758  89.073 -10.483  1.00  0.00     0.115 A 
HETATM    2  N2  UNL     1      10.979  88.197 -11.514  1.00  0.00    -0.338 N 
ATOM      3  H2  UNL     1      11.694  88.365 -12.222  1.00  0.00     0.168 HD
HETATM    4  C2  UNL     1      10.201  87.107 -11.539  1.00  0.00     0.183 A 
HETATM    5  N3  UNL     1       9.263  86.888 -10.610  1.00  0.00    -0.338 N 
ATOM      6  H3  UNL     1       8.706  86.037 -10.688  1.00  0.00     0.168 HD
HETATM    7  C3  UNL     1       9.003  87.719  -9.572  1.00  0.00     0.126 A 
HETATM    8  C4  UNL     1       9.797  88.856  -9.524  1.00  0.00     0.080 A 
HETATM    9  C5  UNL     1       9.357  89.544  -8.414  1.00  0.00     0.109 A 
HETATM   10  N4  UNL     1       9.881  90.784  -7.963  1.00  0.00    -0.097 NA
HETATM   11  C6  UNL     1       8.318  88.830  -7.810  1.00  0.00     0.149 A 
HETATM   12  N7  UNL     1       8.143  87.727  -8.554  1.00  0.00    -0.314 N 
ENDROOT
BRANCH  12  13
HETATM   13  C7  UNL     1       7.180  86.722  -8.235  1.00  0.00     0.162 C 
BRANCH  13  14
HETATM   14  C8  UNL     1       5.764  87.136  -8.178  1.00  0.00     0.292 C 
BRANCH  14  15
HETATM   15  N8  UNL     1       4.981  86.678  -7.056  1.00  0.00     0.092 N 
BRANCH  15  16
HETATM   16  C9  UNL     1       4.075  87.775  -6.635  1.00  0.00     0.298 C 
BRANCH  16  17
HETATM   17  C10 UNL     1       3.583  88.573  -7.787  1.00  0.00     0.194 C 
BRANCH  17  18
HETATM   18  O1  UNL     1       2.260  88.947  -7.510  1.00  0.00    -0.399 OA
ATOM     19  H1  UNL     1       2.056  89.702  -8.050  1.00  0.00     0.209 HD
ENDBRANCH  17  18
ENDBRANCH  16  17
ENDBRANCH  15  16
BRANCH  15  20
HETATM   20  C11 UNL     1       4.102  85.581  -7.427  1.00  0.00     0.274 C 
BRANCH  20  21
HETATM   21  C12 UNL     1       4.557  84.229  -7.016  1.00  0.00     0.057 C 
BRANCH  21  22
HETATM   22  C13 UNL     1       5.112  83.565  -8.287  1.00  0.00     0.231 C 
BRANCH  22  23
HETATM   23  N9  UNL     1       6.492  83.224  -8.171  1.00  0.00    -0.079 N 
ATOM     24  H93 UNL     1       7.083  84.042  -8.318  1.00  0.00     0.274 HD
ATOM     25  H92 UNL     1       6.737  83.014  -7.205  1.00  0.00     0.274 HD
ATOM     26  H91 UNL     1       6.762  82.461  -8.792  1.00  0.00     0.274 HD
ENDBRANCH  22  23
ENDBRANCH  21  22
ENDBRANCH  20  21
ENDBRANCH  15  20
ENDBRANCH  14  15
ENDBRANCH  13  14
ENDBRANCH  12  13
BRANCH  11  27
HETATM   27  N5  UNL     1       7.670  89.294  -6.647  1.00  0.00    -0.290 N 
ATOM     28  H5  UNL     1       7.907  88.827  -5.773  1.00  0.00     0.188 HD
BRANCH  27  29
HETATM   29  N6  UNL     1       6.748  90.316  -6.572  1.00  0.00    -0.344 N 
ATOM     30  H62 UNL     1       6.089  90.373  -7.348  1.00  0.00     0.176 HD
ATOM     31  H61 UNL     1       6.665  91.007  -5.825  1.00  0.00     0.176 HD
ENDBRANCH  27  29
ENDBRANCH  11  27
BRANCH   1  32
HETATM   32  N1  UNL     1      11.519  90.094 -10.491  1.00  0.00    -0.385 N 
ATOM     33  H12 UNL     1      12.515  90.052 -10.277  1.00  0.00     0.157 HD
ATOM     34  H11 UNL     1      11.049  90.966 -10.736  1.00  0.00     0.157 HD
ENDBRANCH   1  32
TORSDOF 13
ENDMDL
MODEL 4
REMARK VINA RESULT: -6.350945701      1.871      3.818
REMARK  13 active torsions:
REMARK  status: ('A' for Active; 'I' for Inactive)
REMARK    1  A    between atoms: N1_1  and  C1_4 
REMARK    2  A    between atoms: C6_14  and  N5_15 
REMARK    3  A    between atoms: N5_15  and  N6_17 
REMARK    4  A    between atoms: N7_20  and  C7_21 
REMARK    5  A    between atoms: C7_21  and  C8_22 
REMARK    6  A    between atoms: C8_22  and  N8_23 
REMARK    7  A    between atoms: N8_23  and  C9_24 
REMARK    8  A    between atoms: N8_23  and  C11_28 
REMARK    9  A    between atoms: C9_24  and  C10_25 
REMARK   10  A    between atoms: C10_25  and  O1_26 
REMARK   11  A    between atoms: C11_28  and  C12_29 
REMARK   12  A    between atoms: C12_29  and  C13_30 
REMARK   13  A    between atoms: C13_30  and  N9_31 
ROOT
HETATM    1  C1  UNL     1       4.598  83.638  -8.381  1.00  0.00     0.115 A 
HETATM    2  N2  UNL     1       5.800  82.991  -8.249  1.00  0.00    -0.338 N 
ATOM      3  H2  UNL     1       5.903  81.998  -8.459  1.00  0.00     0.168 HD
HETATM    4  C2  UNL     1       6.830  83.737  -7.830  1.00  0.00     0.183 A 
HETATM    5  N3  UNL     1       6.692  85.040  -7.556  1.00  0.00    -0.338 N 
ATOM      6  H3  UNL     1       7.518  85.549  -7.241  1.00  0.00     0.168 HD
HETATM    7  C3  UNL     1       5.531  85.728  -7.668  1.00  0.00     0.126 A 
HETATM    8  C4  UNL     1       4.448  84.976  -8.101  1.00  0.00     0.080 A 
HETATM    9  C5  UNL     1       3.395  85.864  -8.130  1.00  0.00     0.109 A 
HETATM   10  N4  UNL     1       2.067  85.541  -8.514  1.00  0.00    -0.097 NA
HETATM   11  C6  UNL     1       3.841  87.124  -7.720  1.00  0.00     0.149 A 
HETATM   12  N7  UNL     1       5.148  86.986  -7.451  1.00  0.00    -0.314 N 
ENDROOT
BRANCH  12  13
HETATM   13  C7  UNL     1       5.970  88.074  -7.029  1.00  0.00     0.162 C 
BRANCH  13  14
HETATM   14  C8  UNL     1       6.890  88.653  -8.027  1.00  0.00     0.292 C 
BRANCH  14  15
HETATM   15  N8  UNL     1       8.181  88.028  -8.185  1.00  0.00     0.092 N 
BRANCH  15  16
HETATM   16  C9  UNL     1       8.569  88.103  -9.615  1.00  0.00     0.298 C 
BRANCH  16  17
HETATM   17  C10 UNL     1       8.956  86.779 -10.165  1.00  0.00     0.194 C 
BRANCH  17  18
HETATM   18  O1  UNL     1       7.786  86.018 -10.305  1.00  0.00    -0.399 OA
ATOM     19  H1  UNL     1       7.212  86.236  -9.580  1.00  0.00     0.209 HD
ENDBRANCH  17  18
ENDBRANCH  16  17
ENDBRANCH  15  16
BRANCH  15  20
HETATM   20  C11 UNL     1       9.220  88.751  -7.472  1.00  0.00     0.274 C 
BRANCH  20  21
HETATM   21  C12 UNL     1       9.933  89.789  -8.258  1.00  0.00     0.057 C 
BRANCH  21  22
HETATM   22  C13 UNL     1      11.429  89.446  -8.155  1.00  0.00     0.231 C 
BRANCH  22  23
HETATM   23  N9  UNL     1      12.260  90.604  -8.164  1.00  0.00    -0.079 N 
ATOM     24  H93 UNL     1      12.013  91.225  -8.934  1.00  0.00     0.274 HD
ATOM     25  H92 UNL     1      12.041  91.217  -7.380  1.00  0.00     0.274 HD
ATOM     26  H91 UNL     1      13.254  90.374  -8.183  1.00  0.00     0.274 HD
ENDBRANCH  22  23
ENDBRANCH  21  22
ENDBRANCH  20  21
ENDBRANCH  15  20
ENDBRANCH  14  15
ENDBRANCH  13  14
ENDBRANCH  12  13
BRANCH  11  27
HETATM   27  N5  UNL     1       2.977  88.236  -7.651  1.00  0.00    -0.290 N 
ATOM     28  H5  UNL     1       3.324  89.110  -8.043  1.00  0.00     0.188 HD
BRANCH  27  29
HETATM   29  N6  UNL     1       1.710  88.261  -7.107  1.00  0.00    -0.344 N 
ATOM     30  H62 UNL     1       0.952  88.434  -7.766  1.00  0.00     0.176 HD
ATOM     31  H61 UNL     1       1.466  88.125  -6.126  1.00  0.00     0.176 HD
ENDBRANCH  27  29
ENDBRANCH  11  27
BRANCH   1  32
HETATM   32  N1  UNL     1       3.645  82.897  -8.785  1.00  0.00    -0.385 N 
ATOM     33  H12 UNL     1       3.436  81.984  -8.382  1.00  0.00     0.157 HD
ATOM     34  H11 UNL     1       3.099  83.295  -9.548  1.00  0.00     0.157 HD
ENDBRANCH   1  32
TORSDOF 13
ENDMDL
MODEL 5
REMARK VINA RESULT: -6.215721662      1.485      2.040
REMARK  13 active torsions:
REMARK  status: ('A' for Active; 'I' for Inactive)
REMARK    1  A    between atoms: N1_1  and  C1_4 
REMARK    2  A    between atoms: C6_14  and  N5_15 
REMARK    3  A    between atoms: N5_15  and  N6_17 
REMARK    4  A    between atoms: N7_20  and  C7_21 
REMARK    5  A    between atoms: C7_21  and  C8_22 
REMARK    6  A    between atoms: C8_22  and  N8_23 
REMARK    7  A    between atoms: N8_23  and  C9_24 
REMARK    8  A    between atoms: N8_23  and  C11_28 
REMARK    9  A    between atoms: C9_24  and  C10_25 
REMARK   10  A    between atoms: C10_25  and  O1_26 
REMARK   11  A    between atoms: C11_28  and  C12_29 
REMARK   12  A    between atoms: C12_29  and  C13_30 
REMARK   13  A    between atoms: C13_30  and  N9_31 
ROOT
HETATM    1  C1  UNL     1       2.393  86.503  -7.281  1.00  0.00     0.115 A 
HETATM    2  N2  UNL     1       1.869  87.769  -7.257  1.00  0.00    -0.338 N 
ATOM      3  H2  UNL     1       0.863  87.936  -7.214  1.00  0.00     0.168 HD
HETATM    4  C2  UNL     1       2.753  88.775  -7.294  1.00  0.00     0.183 A 
HETATM    5  N3  UNL     1       4.071  88.554  -7.350  1.00  0.00    -0.338 N 
ATOM      6  H3  UNL     1       4.689  89.366  -7.376  1.00  0.00     0.168 HD
HETATM    7  C3  UNL     1       4.642  87.326  -7.377  1.00  0.00     0.126 A 
HETATM    8  C4  UNL     1       3.747  86.267  -7.339  1.00  0.00     0.080 A 
HETATM    9  C5  UNL     1       4.536  85.139  -7.385  1.00  0.00     0.109 A 
HETATM   10  N4  UNL     1       4.053  83.804  -7.371  1.00  0.00    -0.097 NA
HETATM   11  C6  UNL     1       5.881  85.518  -7.449  1.00  0.00     0.149 A 
HETATM   12  N7  UNL     1       5.889  86.860  -7.441  1.00  0.00    -0.314 N 
ENDROOT
BRANCH  12  13
HETATM   13  C7  UNL     1       7.093  87.627  -7.464  1.00  0.00     0.162 C 
BRANCH  13  14
HETATM   14  C8  UNL     1       7.668  87.943  -8.787  1.00  0.00     0.292 C 
BRANCH  14  15
HETATM   15  N8  UNL     1       9.024  87.520  -9.043  1.00  0.00     0.092 N 
BRANCH  15  16
HETATM   16  C9  UNL     1       9.086  86.937 -10.405  1.00  0.00     0.298 C 
BRANCH  16  17
HETATM   17  C10 UNL     1      10.138  87.568 -11.241  1.00  0.00     0.194 C 
BRANCH  17  18
HETATM   18  O1  UNL     1      10.859  86.540 -11.865  1.00  0.00    -0.399 OA
ATOM     19  H1  UNL     1      11.291  86.911 -12.625  1.00  0.00     0.209 HD
ENDBRANCH  17  18
ENDBRANCH  16  17
ENDBRANCH  15  16
BRANCH  15  20
HETATM   20  C11 UNL     1       9.942  88.647  -9.069  1.00  0.00     0.274 C 
BRANCH  20  21
HETATM   21  C12 UNL     1      10.680  88.901  -7.807  1.00  0.00     0.057 C 
BRANCH  21  22
HETATM   22  C13 UNL     1      12.082  89.374  -8.223  1.00  0.00     0.231 C 
BRANCH  22  23
HETATM   23  N9  UNL     1      12.243  90.786  -8.110  1.00  0.00    -0.079 N 
ATOM     24  H93 UNL     1      11.350  91.242  -7.923  1.00  0.00     0.274 HD
ATOM     25  H92 UNL     1      12.736  91.030  -7.251  1.00  0.00     0.274 HD
ATOM     26  H91 UNL     1      12.701  91.197  -8.924  1.00  0.00     0.274 HD
ENDBRANCH  22  23
ENDBRANCH  21  22
ENDBRANCH  20  21
ENDBRANCH  15  20
ENDBRANCH  14  15
ENDBRANCH  13  14
ENDBRANCH  12  13
BRANCH  11  27
HETATM   27  N5  UNL     1       6.923  84.570  -7.506  1.00  0.00    -0.290 N 
ATOM     28  H5  UNL     1       7.816  84.846  -7.098  1.00  0.00     0.188 HD
BRANCH  27  29
HETATM   29  N6  UNL     1       6.857  83.308  -8.055  1.00  0.00    -0.344 N 
ATOM     30  H62 UNL     1       6.441  83.253  -8.984  1.00  0.00     0.176 HD
ATOM     31  H61 UNL     1       7.181  82.440  -7.627  1.00  0.00     0.176 HD
ENDBRANCH  27  29
ENDBRANCH  11  27
BRANCH   1  32
HETATM   32  N1  UNL     1       1.523  85.574  -7.241  1.00  0.00    -0.385 N 
ATOM     33  H12 UNL     1       0.878  85.444  -6.461  1.00  0.00     0.157 HD
ATOM     34  H11 UNL     1       1.519  84.967  -8.060  1.00  0.00     0.157 HD
ENDBRANCH   1  32
TORSDOF 13
ENDMDL
