MODEL 1
REMARK VINA RESULT: -6.517886159      0.000      0.000
REMARK  14 active torsions:
REMARK  status: ('A' for Active; 'I' for Inactive)
REMARK    1  A    between atoms: N1_2  and  C2_5 
REMARK    2  A    between atoms: C2_5  and  C3_6 
REMARK    3  A    between atoms: C3_6  and  N2_7 
REMARK    4  A    between atoms: N2_7  and  C4_9 
REMARK    5  A    between atoms: C5_12  and  N4_13 
REMARK    6  A    between atoms: C6_16  and  C7_17 
REMARK    7  A    between atoms: C7_17  and  N5_18 
REMARK    8  A    between atoms: N5_18  and  O1_19 
REMARK    9  A    between atoms: O1_19  and  C8_20 
REMARK   10  A    between atoms: C8_20  and  C9_21 
REMARK   11  A    between atoms: C9_21  and  C11_23 
REMARK   12  A    between atoms: C11_23  and  O2_24 
REMARK   13  A    between atoms: C11_23  and  C12_26 
REMARK   14  A    between atoms: C12_26  and  N6_27 
ROOT
HETATM    1  C4  UNL     1       7.500  88.553  -7.923  1.00  0.00     0.681 A 
HETATM    2  N3  UNL     1       6.385  89.285  -7.808  1.00  0.00    -0.176 N 
ATOM      3  H3  UNL     1       6.460  90.302  -7.839  1.00  0.00     0.186 HD
HETATM    4  C5  UNL     1       5.145  88.718  -7.651  1.00  0.00     0.131 A 
HETATM    5  C6  UNL     1       5.064  87.337  -7.611  1.00  0.00     0.081 A 
HETATM    6  C13 UNL     1       6.202  86.559  -7.727  1.00  0.00     0.148 A 
HETATM    7  N7  UNL     1       6.167  85.147  -7.691  1.00  0.00    -0.081 NA
HETATM    8  N8  UNL     1       7.371  87.235  -7.879  1.00  0.00    -0.178 N 
ATOM      9  H8  UNL     1       8.223  86.681  -7.966  1.00  0.00     0.185 HD
ENDROOT
BRANCH   5  10
HETATM   10  C7  UNL     1       3.753  86.699  -7.442  1.00  0.00     0.236 C 
BRANCH  10  11
HETATM   11  N5  UNL     1       2.839  87.012  -6.726  1.00  0.00    -0.293 NA
BRANCH  11  12
HETATM   12  O1  UNL     1       1.838  87.107  -5.984  1.00  0.00    -0.209 OA
BRANCH  12  13
HETATM   13  C8  UNL     1       0.517  86.587  -6.034  1.00  0.00     0.224 C 
BRANCH  13  14
HETATM   14  C9  UNL     1      -0.414  87.692  -5.613  1.00  0.00     0.039 C 
HETATM   15  C10 UNL     1      -1.793  87.158  -5.286  1.00  0.00     0.015 C 
BRANCH  14  16
HETATM   16  C11 UNL     1      -0.550  88.759  -6.665  1.00  0.00     0.149 C 
BRANCH  16  17
HETATM   17  O2  UNL     1       0.655  89.441  -6.808  1.00  0.00    -0.393 OA
ATOM     18  H2  UNL     1       0.710  89.822  -7.676  1.00  0.00     0.210 HD
ENDBRANCH  16  17
BRANCH  16  19
HETATM   19  C12 UNL     1      -1.663  89.695  -6.254  1.00  0.00     0.261 C 
BRANCH  19  20
HETATM   20  N6  UNL     1      -1.060  90.993  -5.936  1.00  0.00    -0.077 N 
ATOM     21  H63 UNL     1      -1.450  91.416  -5.093  1.00  0.00     0.274 HD
ATOM     22  H62 UNL     1      -0.096  90.914  -5.612  1.00  0.00     0.274 HD
ATOM     23  H61 UNL     1      -1.154  91.589  -6.758  1.00  0.00     0.274 HD
ENDBRANCH  19  20
ENDBRANCH  16  19
ENDBRANCH  14  16
ENDBRANCH  13  14
ENDBRANCH  12  13
ENDBRANCH  11  12
ENDBRANCH  10  11
ENDBRANCH   5  10
BRANCH   4  24
HETATM   24  N4  UNL     1       4.133  89.485  -7.548  1.00  0.00    -0.384 N 
ATOM     25  H42 UNL     1       3.249  89.196  -7.131  1.00  0.00     0.157 HD
ATOM     26  H41 UNL     1       4.207  90.439  -7.900  1.00  0.00     0.157 HD
ENDBRANCH   4  24
BRANCH   1  27
HETATM   27  N2  UNL     1       8.755  89.214  -8.081  1.00  0.00    -0.224 N 
ATOM     28  H2  UNL     1       8.920  90.120  -7.644  1.00  0.00     0.177 HD
BRANCH  27  29
HETATM   29  C3  UNL     1       9.788  88.583  -8.867  1.00  0.00     0.165 C 
BRANCH  29  30
HETATM   30  C2  UNL     1      11.177  88.986  -8.356  1.00  0.00     0.252 C 
BRANCH  30  31
HETATM   31  N1  UNL     1      11.699  89.953  -9.305  1.00  0.00    -0.077 N 
HETATM   32  C1  UNL     1      11.359  89.486 -10.635  1.00  0.00     0.267 C 
ATOM     33  H12 UNL     1      12.697  90.126  -9.188  1.00  0.00     0.276 HD
ATOM     34  H11 UNL     1      11.376  90.903  -9.122  1.00  0.00     0.276 HD
ENDBRANCH  30  31
ENDBRANCH  29  30
ENDBRANCH  27  29
ENDBRANCH   1  27
TORSDOF 14
ENDMDL
MODEL 2
REMARK VINA RESULT: -6.433926337      3.504      9.062
REMARK  14 active torsions:
REMARK  status: ('A' for Active; 'I' for Inactive)
REMARK    1  A    between atoms: N1_2  and  C2_5 
REMARK    2  A    between atoms: C2_5  and  C3_6 
REMARK    3  A    between atoms: C3_6  and  N2_7 
REMARK    4  A    between atoms: N2_7  and  C4_9 
REMARK    5  A    between atoms: C5_12  and  N4_13 
REMARK    6  A    between atoms: C6_16  and  C7_17 
REMARK    7  A    between atoms: C7_17  and  N5_18 
REMARK    8  A    between atoms: N5_18  and  O1_19 
REMARK    9  A    between atoms: O1_19  and  C8_20 
REMARK   10  A    between atoms: C8_20  and  C9_21 
REMARK   11  A    between atoms: C9_21  and  C11_23 
REMARK   12  A    between atoms: C11_23  and  O2_24 
REMARK   13  A    between atoms: C11_23  and  C12_26 
REMARK   14  A    between atoms: C12_26  and  N6_27 
ROOT
HETATM    1  C4  UNL     1       2.661  85.209  -7.647  1.00  0.00     0.681 A 
HETATM    2  N3  UNL     1       3.985  85.014  -7.602  1.00  0.00    -0.176 N 
ATOM      3  H3  UNL     1       4.343  84.060  -7.654  1.00  0.00     0.186 HD
HETATM    4  C5  UNL     1       4.877  86.050  -7.489  1.00  0.00     0.131 A 
HETATM    5  C6  UNL     1       4.373  87.336  -7.419  1.00  0.00     0.081 A 
HETATM    6  C13 UNL     1       3.009  87.563  -7.464  1.00  0.00     0.148 A 
HETATM    7  N7  UNL     1       2.449  88.858  -7.396  1.00  0.00    -0.081 NA
HETATM    8  N8  UNL     1       2.226  86.458  -7.578  1.00  0.00    -0.178 N 
ATOM      9  H8  UNL     1       1.217  86.602  -7.612  1.00  0.00     0.185 HD
ENDROOT
BRANCH   5  10
HETATM   10  C7  UNL     1       5.301  88.466  -7.296  1.00  0.00     0.236 C 
BRANCH  10  11
HETATM   11  N5  UNL     1       6.314  88.691  -7.903  1.00  0.00    -0.293 NA
BRANCH  11  12
HETATM   12  O1  UNL     1       7.367  88.693  -8.576  1.00  0.00    -0.209 OA
BRANCH  12  13
HETATM   13  C8  UNL     1       8.638  88.076  -8.428  1.00  0.00     0.224 C 
BRANCH  13  14
HETATM   14  C9  UNL     1       9.676  89.157  -8.553  1.00  0.00     0.039 C 
HETATM   15  C10 UNL     1       9.757  89.684  -9.972  1.00  0.00     0.015 C 
BRANCH  14  16
HETATM   16  C11 UNL     1      11.045  88.689  -8.138  1.00  0.00     0.149 C 
BRANCH  16  17
HETATM   17  O2  UNL     1      11.143  88.684  -6.749  1.00  0.00    -0.393 OA
ATOM     18  H2  UNL     1      11.168  89.576  -6.424  1.00  0.00     0.210 HD
ENDBRANCH  16  17
BRANCH  16  19
HETATM   19  C12 UNL     1      12.072  89.609  -8.755  1.00  0.00     0.261 C 
BRANCH  19  20
HETATM   20  N6  UNL     1      12.245  90.754  -7.854  1.00  0.00    -0.077 N 
ATOM     21  H63 UNL     1      11.724  91.577  -8.156  1.00  0.00     0.274 HD
ATOM     22  H62 UNL     1      11.782  90.624  -6.955  1.00  0.00     0.274 HD
ATOM     23  H61 UNL     1      13.246  90.928  -7.763  1.00  0.00     0.274 HD
ENDBRANCH  19  20
ENDBRANCH  16  19
ENDBRANCH  14  16
ENDBRANCH  13  14
ENDBRANCH  12  13
ENDBRANCH  11  12
ENDBRANCH  10  11
ENDBRANCH   5  10
BRANCH   4  24
HETATM   24  N4  UNL     1       6.122  85.780  -7.452  1.00  0.00    -0.384 N 
ATOM     25  H42 UNL     1       6.795  86.134  -8.131  1.00  0.00     0.157 HD
ATOM     26  H41 UNL     1       6.469  85.179  -6.704  1.00  0.00     0.157 HD
ENDBRANCH   4  24
BRANCH   1  27
HETATM   27  N2  UNL     1       1.793  84.081  -7.763  1.00  0.00    -0.224 N 
ATOM     28  H2  UNL     1       1.063  84.063  -8.475  1.00  0.00     0.177 HD
BRANCH  27  29
HETATM   29  C3  UNL     1       1.962  82.968  -6.861  1.00  0.00     0.165 C 
BRANCH  29  30
HETATM   30  C2  UNL     1       2.089  81.654  -7.644  1.00  0.00     0.252 C 
BRANCH  30  31
HETATM   31  N1  UNL     1       1.533  80.617  -6.794  1.00  0.00    -0.077 N 
HETATM   32  C1  UNL     1       0.982  81.262  -5.619  1.00  0.00     0.267 C 
ATOM     33  H12 UNL     1       2.207  79.886  -6.567  1.00  0.00     0.276 HD
ATOM     34  H11 UNL     1       0.856  80.027  -7.279  1.00  0.00     0.276 HD
ENDBRANCH  30  31
ENDBRANCH  29  30
ENDBRANCH  27  29
ENDBRANCH   1  27
TORSDOF 14
ENDMDL
MODEL 3
REMARK VINA RESULT: -6.405725844      3.570      8.670
REMARK  14 active torsions:
REMARK  status: ('A' for Active; 'I' for Inactive)
REMARK    1  A    between atoms: N1_2  and  C2_5 
REMARK    2  A    between atoms: C2_5  and  C3_6 
REMARK    3  A    between atoms: C3_6  and  N2_7 
REMARK    4  A    between atoms: N2_7  and  C4_9 
REMARK    5  A    between atoms: C5_12  and  N4_13 
REMARK    6  A    between atoms: C6_16  and  C7_17 
REMARK    7  A    between atoms: C7_17  and  N5_18 
REMARK    8  A    between atoms: N5_18  and  O1_19 
REMARK    9  A    between atoms: O1_19  and  C8_20 
REMARK   10  A    between atoms: C8_20  and  C9_21 
REMARK   11  A    between atoms: C9_21  and  C11_23 
REMARK   12  A    between atoms: C11_23  and  O2_24 
REMARK   13  A    between atoms: C11_23  and  C12_26 
REMARK   14  A    between atoms: C12_26  and  N6_27 
ROOT
HETATM    1  C4  UNL     1       3.613  85.487  -7.534  1.00  0.00     0.681 A 
HETATM    2  N3  UNL     1       4.951  85.431  -7.519  1.00  0.00    -0.176 N 
ATOM      3  H3  UNL     1       5.403  84.522  -7.424  1.00  0.00     0.186 HD
HETATM    4  C5  UNL     1       5.735  86.552  -7.627  1.00  0.00     0.131 A 
HETATM    5  C6  UNL     1       5.103  87.776  -7.755  1.00  0.00     0.081 A 
HETATM    6  C13 UNL     1       3.722  87.860  -7.773  1.00  0.00     0.148 A 
HETATM    7  N7  UNL     1       3.035  89.087  -7.901  1.00  0.00    -0.081 NA
HETATM    8  N8  UNL     1       3.054  86.681  -7.658  1.00  0.00    -0.178 N 
ATOM      9  H8  UNL     1       2.035  86.720  -7.669  1.00  0.00     0.185 HD
ENDROOT
BRANCH   5  10
HETATM   10  C7  UNL     1       5.914  88.994  -7.871  1.00  0.00     0.236 C 
BRANCH  10  11
HETATM   11  N5  UNL     1       6.956  89.165  -8.445  1.00  0.00    -0.293 NA
BRANCH  11  12
HETATM   12  O1  UNL     1       8.119  89.171  -8.903  1.00  0.00    -0.209 OA
BRANCH  12  13
HETATM   13  C8  UNL     1       9.366  89.658  -8.429  1.00  0.00     0.224 C 
BRANCH  13  14
HETATM   14  C9  UNL     1      10.444  88.837  -9.084  1.00  0.00     0.039 C 
HETATM   15  C10 UNL     1      11.735  88.889  -8.295  1.00  0.00     0.015 C 
BRANCH  14  16
HETATM   16  C11 UNL     1      10.725  89.281 -10.494  1.00  0.00     0.149 C 
BRANCH  16  17
HETATM   17  O2  UNL     1       9.965  90.407 -10.797  1.00  0.00    -0.393 OA
ATOM     18  H2  UNL     1      10.267  91.148 -10.286  1.00  0.00     0.210 HD
ENDBRANCH  16  17
BRANCH  16  19
HETATM   19  C12 UNL     1      10.404  88.137 -11.428  1.00  0.00     0.261 C 
BRANCH  19  20
HETATM   20  N6  UNL     1       9.706  87.109 -10.650  1.00  0.00    -0.077 N 
ATOM     21  H63 UNL     1      10.074  87.009  -9.704  1.00  0.00     0.274 HD
ATOM     22  H62 UNL     1       8.756  87.380 -10.397  1.00  0.00     0.274 HD
ATOM     23  H61 UNL     1       9.741  86.239 -11.183  1.00  0.00     0.274 HD
ENDBRANCH  19  20
ENDBRANCH  16  19
ENDBRANCH  14  16
ENDBRANCH  13  14
ENDBRANCH  12  13
ENDBRANCH  11  12
ENDBRANCH  10  11
ENDBRANCH   5  10
BRANCH   4  24
HETATM   24  N4  UNL     1       7.001  86.413  -7.603  1.00  0.00    -0.384 N 
ATOM     25  H42 UNL     1       7.534  85.982  -8.358  1.00  0.00     0.157 HD
ATOM     26  H41 UNL     1       7.514  86.751  -6.789  1.00  0.00     0.157 HD
ENDBRANCH   4  24
BRANCH   1  27
HETATM   27  N2  UNL     1       2.862  84.279  -7.414  1.00  0.00    -0.224 N 
ATOM     28  H2  UNL     1       1.918  84.294  -7.028  1.00  0.00     0.177 HD
BRANCH  27  29
HETATM   29  C3  UNL     1       3.456  83.036  -7.844  1.00  0.00     0.165 C 
BRANCH  29  30
HETATM   30  C2  UNL     1       2.373  81.976  -8.086  1.00  0.00     0.252 C 
BRANCH  30  31
HETATM   31  N1  UNL     1       2.968  80.973  -8.950  1.00  0.00    -0.077 N 
HETATM   32  C1  UNL     1       4.033  81.614  -9.696  1.00  0.00     0.267 C 
ATOM     33  H12 UNL     1       2.286  80.510  -9.550  1.00  0.00     0.276 HD
ATOM     34  H11 UNL     1       3.282  80.146  -8.441  1.00  0.00     0.276 HD
ENDBRANCH  30  31
ENDBRANCH  29  30
ENDBRANCH  27  29
ENDBRANCH   1  27
TORSDOF 14
ENDMDL
MODEL 4
REMARK VINA RESULT: -6.380054954      3.556      8.948
REMARK  14 active torsions:
REMARK  status: ('A' for Active; 'I' for Inactive)
REMARK    1  A    between atoms: N1_2  and  C2_5 
REMARK    2  A    between atoms: C2_5  and  C3_6 
REMARK    3  A    between atoms: C3_6  and  N2_7 
REMARK    4  A    between atoms: N2_7  and  C4_9 
REMARK    5  A    between atoms: C5_12  and  N4_13 
REMARK    6  A    between atoms: C6_16  and  C7_17 
REMARK    7  A    between atoms: C7_17  and  N5_18 
REMARK    8  A    between atoms: N5_18  and  O1_19 
REMARK    9  A    between atoms: O1_19  and  C8_20 
REMARK   10  A    between atoms: C8_20  and  C9_21 
REMARK   11  A    between atoms: C9_21  and  C11_23 
REMARK   12  A    between atoms: C11_23  and  O2_24 
REMARK   13  A    between atoms: C11_23  and  C12_26 
REMARK   14  A    between atoms: C12_26  and  N6_27 
ROOT
HETATM    1  C4  UNL     1       3.196  85.506  -7.655  1.00  0.00     0.681 A 
HETATM    2  N3  UNL     1       4.505  85.226  -7.647  1.00  0.00    -0.176 N 
ATOM      3  H3  UNL     1       4.798  84.248  -7.640  1.00  0.00     0.186 HD
HETATM    4  C5  UNL     1       5.467  86.204  -7.647  1.00  0.00     0.131 A 
HETATM    5  C6  UNL     1       5.051  87.523  -7.656  1.00  0.00     0.081 A 
HETATM    6  C13 UNL     1       3.704  87.838  -7.663  1.00  0.00     0.148 A 
HETATM    7  N7  UNL     1       3.233  89.170  -7.672  1.00  0.00    -0.081 NA
HETATM    8  N8  UNL     1       2.846  86.784  -7.662  1.00  0.00    -0.178 N 
ATOM      9  H8  UNL     1       1.848  86.993  -7.668  1.00  0.00     0.185 HD
ENDROOT
BRANCH   5  10
HETATM   10  C7  UNL     1       6.055  88.593  -7.654  1.00  0.00     0.236 C 
BRANCH  10  11
HETATM   11  N5  UNL     1       7.005  88.749  -8.375  1.00  0.00    -0.293 NA
BRANCH  11  12
HETATM   12  O1  UNL     1       8.093  89.007  -8.933  1.00  0.00    -0.209 OA
BRANCH  12  13
HETATM   13  C8  UNL     1       9.315  89.586  -8.499  1.00  0.00     0.224 C 
BRANCH  13  14
HETATM   14  C9  UNL     1      10.431  88.803  -9.137  1.00  0.00     0.039 C 
HETATM   15  C10 UNL     1      11.709  88.908  -8.331  1.00  0.00     0.015 C 
BRANCH  14  16
HETATM   16  C11 UNL     1      10.714  89.251 -10.545  1.00  0.00     0.149 C 
BRANCH  16  17
HETATM   17  O2  UNL     1       9.973  90.393 -10.837  1.00  0.00    -0.393 OA
ATOM     18  H2  UNL     1      10.546  91.074 -11.167  1.00  0.00     0.210 HD
ENDBRANCH  16  17
BRANCH  16  19
HETATM   19  C12 UNL     1      10.367  88.119 -11.484  1.00  0.00     0.261 C 
BRANCH  19  20
HETATM   20  N6  UNL     1       9.803  87.030 -10.681  1.00  0.00    -0.077 N 
ATOM     21  H63 UNL     1      10.007  86.107 -11.066  1.00  0.00     0.274 HD
ATOM     22  H62 UNL     1      10.276  86.910  -9.786  1.00  0.00     0.274 HD
ATOM     23  H61 UNL     1       8.803  87.205 -10.580  1.00  0.00     0.274 HD
ENDBRANCH  19  20
ENDBRANCH  16  19
ENDBRANCH  14  16
ENDBRANCH  13  14
ENDBRANCH  12  13
ENDBRANCH  11  12
ENDBRANCH  10  11
ENDBRANCH   5  10
BRANCH   4  24
HETATM   24  N4  UNL     1       6.692  85.853  -7.639  1.00  0.00    -0.384 N 
ATOM     25  H42 UNL     1       7.042  85.020  -8.111  1.00  0.00     0.157 HD
ATOM     26  H41 UNL     1       7.362  86.434  -7.135  1.00  0.00     0.157 HD
ENDBRANCH   4  24
BRANCH   1  27
HETATM   27  N2  UNL     1       2.253  84.435  -7.651  1.00  0.00    -0.224 N 
ATOM     28  H2  UNL     1       1.339  84.550  -8.090  1.00  0.00     0.177 HD
BRANCH  27  29
HETATM   29  C3  UNL     1       2.607  83.188  -7.018  1.00  0.00     0.165 C 
BRANCH  29  30
HETATM   30  C2  UNL     1       2.633  82.049  -8.046  1.00  0.00     0.252 C 
BRANCH  30  31
HETATM   31  N1  UNL     1       1.892  80.949  -7.458  1.00  0.00    -0.077 N 
HETATM   32  C1  UNL     1       1.451  81.372  -6.143  1.00  0.00     0.267 C 
ATOM     33  H12 UNL     1       2.422  80.078  -7.437  1.00  0.00     0.276 HD
ATOM     34  H11 UNL     1       1.126  80.625  -8.049  1.00  0.00     0.276 HD
ENDBRANCH  30  31
ENDBRANCH  29  30
ENDBRANCH  27  29
ENDBRANCH   1  27
TORSDOF 14
ENDMDL
MODEL 5
REMARK VINA RESULT: -6.374801448      3.226      5.583
REMARK  14 active torsions:
REMARK  status: ('A' for Active; 'I' for Inactive)
REMARK    1  A    between atoms: N1_2  and  C2_5 
REMARK    2  A    between atoms: C2_5  and  C3_6 
REMARK    3  A    between atoms: C3_6  and  N2_7 
REMARK    4  A    between atoms: N2_7  and  C4_9 
REMARK    5  A    between atoms: C5_12  and  N4_13 
REMARK    6  A    between atoms: C6_16  and  C7_17 
REMARK    7  A    between atoms: C7_17  and  N5_18 
REMARK    8  A    between atoms: N5_18  and  O1_19 
REMARK    9  A    between atoms: O1_19  and  C8_20 
REMARK   10  A    between atoms: C8_20  and  C9_21 
REMARK   11  A    between atoms: C9_21  and  C11_23 
REMARK   12  A    between atoms: C11_23  and  O2_24 
REMARK   13  A    between atoms: C11_23  and  C12_26 
REMARK   14  A    between atoms: C12_26  and  N6_27 
ROOT
HETATM    1  C4  UNL     1       7.215  88.800  -7.736  1.00  0.00     0.681 A 
HETATM    2  N3  UNL     1       7.337  87.468  -7.702  1.00  0.00    -0.176 N 
ATOM      3  H3  UNL     1       8.272  87.061  -7.691  1.00  0.00     0.186 HD
HETATM    4  C5  UNL     1       6.251  86.630  -7.681  1.00  0.00     0.131 A 
HETATM    5  C6  UNL     1       4.991  87.201  -7.697  1.00  0.00     0.081 A 
HETATM    6  C13 UNL     1       4.839  88.576  -7.733  1.00  0.00     0.148 A 
HETATM    7  N7  UNL     1       3.573  89.202  -7.750  1.00  0.00    -0.081 NA
HETATM    8  N8  UNL     1       5.988  89.300  -7.750  1.00  0.00    -0.178 N 
ATOM      9  H8  UNL     1       5.899  90.316  -7.776  1.00  0.00     0.185 HD
ENDROOT
BRANCH   5  10
HETATM   10  C7  UNL     1       3.808  86.332  -7.677  1.00  0.00     0.236 C 
BRANCH  10  11
HETATM   11  N5  UNL     1       3.226  85.815  -8.593  1.00  0.00    -0.293 NA
BRANCH  11  12
HETATM   12  O1  UNL     1       2.747  85.424  -9.680  1.00  0.00    -0.209 OA
BRANCH  12  13
HETATM   13  C8  UNL     1       2.386  84.154 -10.202  1.00  0.00     0.224 C 
BRANCH  13  14
HETATM   14  C9  UNL     1       3.199  83.938 -11.450  1.00  0.00     0.039 C 
HETATM   15  C10 UNL     1       2.479  83.033 -12.429  1.00  0.00     0.015 C 
BRANCH  14  16
HETATM   16  C11 UNL     1       4.552  83.346 -11.157  1.00  0.00     0.149 C 
BRANCH  16  17
HETATM   17  O2  UNL     1       5.291  84.221 -10.366  1.00  0.00    -0.393 OA
ATOM     18  H2  UNL     1       5.199  83.986  -9.451  1.00  0.00     0.210 HD
ENDBRANCH  16  17
BRANCH  16  19
HETATM   19  C12 UNL     1       5.248  83.075 -12.470  1.00  0.00     0.261 C 
BRANCH  19  20
HETATM   20  N6  UNL     1       6.002  81.826 -12.326  1.00  0.00    -0.077 N 
ATOM     21  H63 UNL     1       6.310  81.657 -11.368  1.00  0.00     0.274 HD
ATOM     22  H62 UNL     1       5.418  80.996 -12.427  1.00  0.00     0.274 HD
ATOM     23  H61 UNL     1       6.774  81.850 -12.992  1.00  0.00     0.274 HD
ENDBRANCH  19  20
ENDBRANCH  16  19
ENDBRANCH  14  16
ENDBRANCH  13  14
ENDBRANCH  12  13
ENDBRANCH  11  12
ENDBRANCH  10  11
ENDBRANCH   5  10
BRANCH   4  24
HETATM   24  N4  UNL     1       6.452  85.372  -7.650  1.00  0.00    -0.384 N 
ATOM     25  H42 UNL     1       6.854  84.887  -6.848  1.00  0.00     0.157 HD
ATOM     26  H41 UNL     1       6.198  84.817  -8.467  1.00  0.00     0.157 HD
ENDBRANCH   4  24
BRANCH   1  27
HETATM   27  N2  UNL     1       8.391  89.609  -7.759  1.00  0.00    -0.224 N 
ATOM     28  H2  UNL     1       8.343  90.598  -7.514  1.00  0.00     0.177 HD
BRANCH  27  29
HETATM   29  C3  UNL     1       9.649  89.010  -8.133  1.00  0.00     0.165 C 
BRANCH  29  30
HETATM   30  C2  UNL     1      10.128  89.558  -9.484  1.00  0.00     0.252 C 
BRANCH  30  31
HETATM   31  N1  UNL     1      11.517  89.938  -9.303  1.00  0.00    -0.077 N 
HETATM   32  C1  UNL     1      12.013  89.239  -8.134  1.00  0.00     0.267 C 
ATOM     33  H12 UNL     1      11.648  90.948  -9.247  1.00  0.00     0.276 HD
ATOM     34  H11 UNL     1      12.084  89.776 -10.134  1.00  0.00     0.276 HD
ENDBRANCH  30  31
ENDBRANCH  29  30
ENDBRANCH  27  29
ENDBRANCH   1  27
TORSDOF 14
ENDMDL
