MODEL 1
REMARK VINA RESULT: -6.972835568      0.000      0.000
REMARK  13 active torsions:
REMARK  status: ('A' for Active; 'I' for Inactive)
REMARK    1  A    between atoms: C2_2  and  N1_3 
REMARK    2  A    between atoms: C2_2  and  C3_7 
REMARK    3  A    between atoms: C3_7  and  C4_8 
REMARK    4  A    between atoms: C5_11  and  C6_12 
REMARK    5  A    between atoms: C6_12  and  N3_13 
REMARK    6  A    between atoms: N3_13  and  C7_15 
REMARK    7  A    between atoms: C7_15  and  O1_16 
REMARK    8  A    between atoms: C7_15  and  C8_18 
REMARK    9  A    between atoms: C8_18  and  N4_20 
REMARK   10  A    between atoms: N4_20  and  C10_23 
REMARK   11  A    between atoms: C10_23  and  O2_24 
REMARK   12  A    between atoms: C10_23  and  N5_26 
REMARK   13  A    between atoms: N5_26  and  C11_28 
ROOT
HETATM    1  N3  UNL     1       6.832  88.460  -6.463  1.00  0.00    -0.367 N 
ATOM      2  H3  UNL     1       7.463  88.024  -5.791  1.00  0.00     0.161 HD
ENDROOT
BRANCH   1   3
HETATM    3  C6  UNL     1       5.419  88.415  -6.245  1.00  0.00     0.182 C 
BRANCH   3   4
HETATM    4  C5  UNL     1       4.816  87.356  -7.109  1.00  0.00     0.077 A 
HETATM    5  N2  UNL     1       4.935  86.012  -6.899  1.00  0.00    -0.339 N 
HETATM    6  C4  UNL     1       4.122  85.352  -7.790  1.00  0.00     0.128 A 
ATOM      7  H2  UNL     1       5.528  85.571  -6.197  1.00  0.00     0.167 HD
HETATM    8  O3  UNL     1       3.536  86.240  -8.510  1.00  0.00    -0.281 OA
HETATM    9  C14 UNL     1       3.925  87.467  -8.138  1.00  0.00     0.183 A 
HETATM   10  N6  UNL     1       3.439  88.662  -8.780  1.00  0.00    -0.072 NA
BRANCH   6  11
HETATM   11  C3  UNL     1       4.005  83.889  -7.862  1.00  0.00     0.116 C 
BRANCH  11  12
HETATM   12  C2  UNL     1       4.973  83.164  -8.725  1.00  0.00     0.187 C 
HETATM   13  C1  UNL     1       4.946  83.576 -10.188  1.00  0.00     0.040 C 
BRANCH  12  14
HETATM   14  N1  UNL     1       6.341  83.247  -8.252  1.00  0.00    -0.075 N 
ATOM     15  H13 UNL     1       7.018  83.286  -9.015  1.00  0.00     0.274 HD
ATOM     16  H12 UNL     1       6.555  84.150  -7.830  1.00  0.00     0.274 HD
ATOM     17  H11 UNL     1       6.509  82.467  -7.617  1.00  0.00     0.274 HD
ENDBRANCH  12  14
ENDBRANCH  11  12
ENDBRANCH   6  11
ENDBRANCH   3   4
ENDBRANCH   1   3
BRANCH   1  18
HETATM   18  C7  UNL     1       7.351  89.099  -7.594  1.00  0.00     0.142 C 
BRANCH  18  19
HETATM   19  O1  UNL     1       6.468  89.673  -8.486  1.00  0.00    -0.348 OA
ATOM     20  H1  UNL     1       6.797  89.949  -9.333  1.00  0.00     0.219 HD
ENDBRANCH  18  19
BRANCH  18  21
HETATM   21  C8  UNL     1       8.562  88.546  -8.241  1.00  0.00     0.260 C 
HETATM   22  C9  UNL     1       8.166  87.189  -8.859  1.00  0.00     0.049 C 
BRANCH  21  23
HETATM   23  N4  UNL     1       9.802  88.541  -7.577  1.00  0.00    -0.020 N 
ATOM     24  H42 UNL     1       9.807  89.239  -6.833  1.00  0.00     0.283 HD
ATOM     25  H41 UNL     1       9.902  87.691  -7.022  1.00  0.00     0.283 HD
BRANCH  23  26
HETATM   26  C10 UNL     1      10.960  88.718  -8.444  1.00  0.00     0.423 C 
BRANCH  26  27
HETATM   27  O2  UNL     1      12.116  88.614  -7.685  1.00  0.00    -0.355 OA
ATOM     28  H2  UNL     1      12.786  88.176  -8.197  1.00  0.00     0.213 HD
ENDBRANCH  26  27
BRANCH  26  29
HETATM   29  N5  UNL     1      10.923  89.839  -9.305  1.00  0.00    -0.371 N 
ATOM     30  H5  UNL     1      10.953  90.778  -8.907  1.00  0.00     0.157 HD
BRANCH  29  31
HETATM   31  C11 UNL     1      10.847  89.684 -10.701  1.00  0.00     0.072 C 
HETATM   32  C12 UNL     1      10.796  88.247 -11.190  1.00  0.00     0.031 C 
HETATM   33  C13 UNL     1       9.665  90.367 -11.325  1.00  0.00     0.031 C 
ENDBRANCH  29  31
ENDBRANCH  26  29
ENDBRANCH  23  26
ENDBRANCH  21  23
ENDBRANCH  18  21
ENDBRANCH   1  18
TORSDOF 13
ENDMDL
MODEL 2
REMARK VINA RESULT: -6.823180741      2.009      2.985
REMARK  13 active torsions:
REMARK  status: ('A' for Active; 'I' for Inactive)
REMARK    1  A    between atoms: C2_2  and  N1_3 
REMARK    2  A    between atoms: C2_2  and  C3_7 
REMARK    3  A    between atoms: C3_7  and  C4_8 
REMARK    4  A    between atoms: C5_11  and  C6_12 
REMARK    5  A    between atoms: C6_12  and  N3_13 
REMARK    6  A    between atoms: N3_13  and  C7_15 
REMARK    7  A    between atoms: C7_15  and  O1_16 
REMARK    8  A    between atoms: C7_15  and  C8_18 
REMARK    9  A    between atoms: C8_18  and  N4_20 
REMARK   10  A    between atoms: N4_20  and  C10_23 
REMARK   11  A    between atoms: C10_23  and  O2_24 
REMARK   12  A    between atoms: C10_23  and  N5_26 
REMARK   13  A    between atoms: N5_26  and  C11_28 
ROOT
HETATM    1  N3  UNL     1       6.237  86.480  -7.266  1.00  0.00    -0.367 N 
ATOM      2  H3  UNL     1       6.712  86.100  -6.448  1.00  0.00     0.161 HD
ENDROOT
BRANCH   1   3
HETATM    3  C6  UNL     1       4.880  86.120  -7.534  1.00  0.00     0.182 C 
BRANCH   3   4
HETATM    4  C5  UNL     1       4.838  84.756  -8.143  1.00  0.00     0.077 A 
HETATM    5  N2  UNL     1       3.974  84.362  -9.124  1.00  0.00    -0.339 N 
HETATM    6  C4  UNL     1       4.331  83.104  -9.549  1.00  0.00     0.128 A 
ATOM      7  H2  UNL     1       3.193  84.911  -9.483  1.00  0.00     0.167 HD
HETATM    8  O3  UNL     1       5.357  82.743  -8.866  1.00  0.00    -0.281 OA
HETATM    9  C14 UNL     1       5.700  83.706  -8.001  1.00  0.00     0.183 A 
HETATM   10  N6  UNL     1       6.811  83.573  -7.093  1.00  0.00    -0.072 NA
BRANCH   6  11
HETATM   11  C3  UNL     1       3.612  82.358 -10.591  1.00  0.00     0.116 C 
BRANCH  11  12
HETATM   12  C2  UNL     1       4.426  81.623 -11.595  1.00  0.00     0.187 C 
HETATM   13  C1  UNL     1       5.292  82.508 -12.476  1.00  0.00     0.040 C 
BRANCH  12  14
HETATM   14  N1  UNL     1       5.266  80.595 -11.012  1.00  0.00    -0.075 N 
ATOM     15  H13 UNL     1       6.224  80.911 -10.860  1.00  0.00     0.274 HD
ATOM     16  H12 UNL     1       5.028  80.398 -10.040  1.00  0.00     0.274 HD
ATOM     17  H11 UNL     1       5.216  79.766 -11.604  1.00  0.00     0.274 HD
ENDBRANCH  12  14
ENDBRANCH  11  12
ENDBRANCH   6  11
ENDBRANCH   3   4
ENDBRANCH   1   3
BRANCH   1  18
HETATM   18  C7  UNL     1       6.917  87.353  -8.123  1.00  0.00     0.142 C 
BRANCH  18  19
HETATM   19  O1  UNL     1       7.542  86.825  -9.235  1.00  0.00    -0.348 OA
ATOM     20  H1  UNL     1       8.487  86.728  -9.218  1.00  0.00     0.219 HD
ENDBRANCH  18  19
BRANCH  18  21
HETATM   21  C8  UNL     1       7.626  88.518  -7.550  1.00  0.00     0.260 C 
HETATM   22  C9  UNL     1       6.621  89.261  -6.646  1.00  0.00     0.049 C 
BRANCH  21  23
HETATM   23  N4  UNL     1       8.410  89.360  -8.359  1.00  0.00    -0.020 N 
ATOM     24  H42 UNL     1       8.110  89.296  -9.331  1.00  0.00     0.283 HD
ATOM     25  H41 UNL     1       8.190  90.338  -8.170  1.00  0.00     0.283 HD
BRANCH  23  26
HETATM   26  C10 UNL     1       9.848  89.138  -8.259  1.00  0.00     0.423 C 
BRANCH  26  27
HETATM   27  O2  UNL     1      10.486  90.359  -8.102  1.00  0.00    -0.355 OA
ATOM     28  H2  UNL     1      11.316  90.338  -8.564  1.00  0.00     0.213 HD
ENDBRANCH  26  27
BRANCH  26  29
HETATM   29  N5  UNL     1      10.416  88.303  -9.248  1.00  0.00    -0.371 N 
ATOM     30  H5  UNL     1      10.914  87.459  -8.965  1.00  0.00     0.157 HD
BRANCH  29  31
HETATM   31  C11 UNL     1      10.307  88.614 -10.616  1.00  0.00     0.072 C 
HETATM   32  C12 UNL     1      11.433  89.464 -11.177  1.00  0.00     0.031 C 
HETATM   33  C13 UNL     1      10.223  87.410 -11.509  1.00  0.00     0.031 C 
ENDBRANCH  29  31
ENDBRANCH  26  29
ENDBRANCH  23  26
ENDBRANCH  21  23
ENDBRANCH  18  21
ENDBRANCH   1  18
TORSDOF 13
ENDMDL
MODEL 3
REMARK VINA RESULT: -6.814633289      1.447      1.564
REMARK  13 active torsions:
REMARK  status: ('A' for Active; 'I' for Inactive)
REMARK    1  A    between atoms: C2_2  and  N1_3 
REMARK    2  A    between atoms: C2_2  and  C3_7 
REMARK    3  A    between atoms: C3_7  and  C4_8 
REMARK    4  A    between atoms: C5_11  and  C6_12 
REMARK    5  A    between atoms: C6_12  and  N3_13 
REMARK    6  A    between atoms: N3_13  and  C7_15 
REMARK    7  A    between atoms: C7_15  and  O1_16 
REMARK    8  A    between atoms: C7_15  and  C8_18 
REMARK    9  A    between atoms: C8_18  and  N4_20 
REMARK   10  A    between atoms: N4_20  and  C10_23 
REMARK   11  A    between atoms: C10_23  and  O2_24 
REMARK   12  A    between atoms: C10_23  and  N5_26 
REMARK   13  A    between atoms: N5_26  and  C11_28 
ROOT
HETATM    1  N3  UNL     1       5.449  89.069  -8.156  1.00  0.00    -0.367 N 
ATOM      2  H3  UNL     1       5.541  88.928  -9.162  1.00  0.00     0.161 HD
ENDROOT
BRANCH   1   3
HETATM    3  C6  UNL     1       4.150  89.125  -7.560  1.00  0.00     0.182 C 
BRANCH   3   4
HETATM    4  C5  UNL     1       3.601  87.742  -7.432  1.00  0.00     0.077 A 
HETATM    5  N2  UNL     1       4.263  86.600  -7.781  1.00  0.00    -0.339 N 
HETATM    6  C4  UNL     1       3.521  85.516  -7.375  1.00  0.00     0.128 A 
ATOM      7  H2  UNL     1       5.161  86.558  -8.262  1.00  0.00     0.167 HD
HETATM    8  O3  UNL     1       2.459  85.966  -6.809  1.00  0.00    -0.281 OA
HETATM    9  C14 UNL     1       2.460  87.305  -6.821  1.00  0.00     0.183 A 
HETATM   10  N6  UNL     1       1.385  88.086  -6.264  1.00  0.00    -0.072 NA
BRANCH   6  11
HETATM   11  C3  UNL     1       3.923  84.121  -7.597  1.00  0.00     0.116 C 
BRANCH  11  12
HETATM   12  C2  UNL     1       5.207  83.880  -8.304  1.00  0.00     0.187 C 
HETATM   13  C1  UNL     1       6.427  83.834  -7.400  1.00  0.00     0.040 C 
BRANCH  12  14
HETATM   14  N1  UNL     1       5.198  82.681  -9.120  1.00  0.00    -0.075 N 
ATOM     15  H13 UNL     1       5.850  82.735  -9.903  1.00  0.00     0.274 HD
ATOM     16  H12 UNL     1       5.615  81.881  -8.646  1.00  0.00     0.274 HD
ATOM     17  H11 UNL     1       4.239  82.504  -9.420  1.00  0.00     0.274 HD
ENDBRANCH  12  14
ENDBRANCH  11  12
ENDBRANCH   6  11
ENDBRANCH   3   4
ENDBRANCH   1   3
BRANCH   1  18
HETATM   18  C7  UNL     1       6.594  89.206  -7.363  1.00  0.00     0.142 C 
BRANCH  18  19
HETATM   19  O1  UNL     1       6.763  90.377  -6.653  1.00  0.00    -0.348 OA
ATOM     20  H1  UNL     1       6.457  90.408  -5.754  1.00  0.00     0.219 HD
ENDBRANCH  18  19
BRANCH  18  21
HETATM   21  C8  UNL     1       7.868  88.614  -7.831  1.00  0.00     0.260 C 
HETATM   22  C9  UNL     1       7.531  87.240  -8.444  1.00  0.00     0.049 C 
BRANCH  21  23
HETATM   23  N4  UNL     1       9.013  88.620  -7.014  1.00  0.00    -0.020 N 
ATOM     24  H42 UNL     1       8.958  89.379  -6.334  1.00  0.00     0.283 HD
ATOM     25  H41 UNL     1       9.002  87.818  -6.384  1.00  0.00     0.283 HD
BRANCH  23  26
HETATM   26  C10 UNL     1      10.278  88.679  -7.736  1.00  0.00     0.423 C 
BRANCH  26  27
HETATM   27  O2  UNL     1      11.323  88.645  -6.826  1.00  0.00    -0.355 OA
ATOM     28  H2  UNL     1      12.074  88.228  -7.230  1.00  0.00     0.213 HD
ENDBRANCH  26  27
BRANCH  26  29
HETATM   29  N5  UNL     1      10.386  89.694  -8.714  1.00  0.00    -0.371 N 
ATOM     30  H5  UNL     1      10.262  90.669  -8.440  1.00  0.00     0.157 HD
BRANCH  29  31
HETATM   31  C11 UNL     1      10.660  89.385 -10.059  1.00  0.00     0.072 C 
HETATM   32  C12 UNL     1      10.477  87.926 -10.437  1.00  0.00     0.031 C 
HETATM   33  C13 UNL     1       9.839  90.166 -11.043  1.00  0.00     0.031 C 
ENDBRANCH  29  31
ENDBRANCH  26  29
ENDBRANCH  23  26
ENDBRANCH  21  23
ENDBRANCH  18  21
ENDBRANCH   1  18
TORSDOF 13
ENDMDL
MODEL 4
REMARK VINA RESULT: -6.680734979      2.778      4.117
REMARK  13 active torsions:
REMARK  status: ('A' for Active; 'I' for Inactive)
REMARK    1  A    between atoms: C2_2  and  N1_3 
REMARK    2  A    between atoms: C2_2  and  C3_7 
REMARK    3  A    between atoms: C3_7  and  C4_8 
REMARK    4  A    between atoms: C5_11  and  C6_12 
REMARK    5  A    between atoms: C6_12  and  N3_13 
REMARK    6  A    between atoms: N3_13  and  C7_15 
REMARK    7  A    between atoms: C7_15  and  O1_16 
REMARK    8  A    between atoms: C7_15  and  C8_18 
REMARK    9  A    between atoms: C8_18  and  N4_20 
REMARK   10  A    between atoms: N4_20  and  C10_23 
REMARK   11  A    between atoms: C10_23  and  O2_24 
REMARK   12  A    between atoms: C10_23  and  N5_26 
REMARK   13  A    between atoms: N5_26  and  C11_28 
ROOT
HETATM    1  N3  UNL     1       5.632  87.024  -7.003  1.00  0.00    -0.367 N 
ATOM      2  H3  UNL     1       5.735  87.192  -6.003  1.00  0.00     0.161 HD
ENDROOT
BRANCH   1   3
HETATM    3  C6  UNL     1       4.527  86.256  -7.487  1.00  0.00     0.182 C 
BRANCH   3   4
HETATM    4  C5  UNL     1       3.284  87.082  -7.428  1.00  0.00     0.077 A 
HETATM    5  N2  UNL     1       2.166  86.765  -6.711  1.00  0.00    -0.339 N 
HETATM    6  C4  UNL     1       1.292  87.826  -6.762  1.00  0.00     0.128 A 
ATOM      7  H2  UNL     1       2.005  85.887  -6.218  1.00  0.00     0.167 HD
HETATM    8  O3  UNL     1       1.842  88.744  -7.473  1.00  0.00    -0.281 OA
HETATM    9  C14 UNL     1       3.045  88.341  -7.900  1.00  0.00     0.183 A 
HETATM   10  N6  UNL     1       3.888  89.163  -8.730  1.00  0.00    -0.072 NA
BRANCH   6  11
HETATM   11  C3  UNL     1      -0.024  87.833  -6.111  1.00  0.00     0.116 C 
BRANCH  11  12
HETATM   12  C2  UNL     1      -1.044  88.780  -6.633  1.00  0.00     0.187 C 
HETATM   13  C1  UNL     1      -2.462  88.506  -6.158  1.00  0.00     0.040 C 
BRANCH  12  14
HETATM   14  N1  UNL     1      -0.732  90.169  -6.362  1.00  0.00    -0.075 N 
ATOM     15  H13 UNL     1      -0.377  90.314  -5.416  1.00  0.00     0.274 HD
ATOM     16  H12 UNL     1       0.091  90.493  -6.870  1.00  0.00     0.274 HD
ATOM     17  H11 UNL     1      -1.561  90.729  -6.560  1.00  0.00     0.274 HD
ENDBRANCH  12  14
ENDBRANCH  11  12
ENDBRANCH   6  11
ENDBRANCH   3   4
ENDBRANCH   1   3
BRANCH   1  18
HETATM   18  C7  UNL     1       6.573  87.545  -7.898  1.00  0.00     0.142 C 
BRANCH  18  19
HETATM   19  O1  UNL     1       7.061  86.720  -8.891  1.00  0.00    -0.348 OA
ATOM     20  H1  UNL     1       7.461  87.120  -9.655  1.00  0.00     0.219 HD
ENDBRANCH  18  19
BRANCH  18  21
HETATM   21  C8  UNL     1       7.570  88.523  -7.407  1.00  0.00     0.260 C 
HETATM   22  C9  UNL     1       6.818  89.519  -6.500  1.00  0.00     0.049 C 
BRANCH  21  23
HETATM   23  N4  UNL     1       8.494  89.120  -8.283  1.00  0.00    -0.020 N 
ATOM     24  H42 UNL     1       8.140  89.096  -9.239  1.00  0.00     0.283 HD
ATOM     25  H41 UNL     1       8.525  90.128  -8.131  1.00  0.00     0.283 HD
BRANCH  23  26
HETATM   26  C10 UNL     1       9.838  88.559  -8.228  1.00  0.00     0.423 C 
BRANCH  26  27
HETATM   27  O2  UNL     1      10.235  88.459  -6.903  1.00  0.00    -0.355 OA
ATOM     28  H2  UNL     1      10.259  89.328  -6.519  1.00  0.00     0.213 HD
ENDBRANCH  26  27
BRANCH  26  29
HETATM   29  N5  UNL     1      10.794  89.155  -9.082  1.00  0.00    -0.371 N 
ATOM     30  H5  UNL     1      11.539  89.724  -8.680  1.00  0.00     0.157 HD
BRANCH  29  31
HETATM   31  C11 UNL     1      10.736  88.979 -10.477  1.00  0.00     0.072 C 
HETATM   32  C12 UNL     1      10.171  87.647 -10.937  1.00  0.00     0.031 C 
HETATM   33  C13 UNL     1       9.933  90.029 -11.190  1.00  0.00     0.031 C 
ENDBRANCH  29  31
ENDBRANCH  26  29
ENDBRANCH  23  26
ENDBRANCH  21  23
ENDBRANCH  18  21
ENDBRANCH   1  18
TORSDOF 13
ENDMDL
MODEL 5
REMARK VINA RESULT: -6.614486284      3.563      5.907
REMARK  13 active torsions:
REMARK  status: ('A' for Active; 'I' for Inactive)
REMARK    1  A    between atoms: C2_2  and  N1_3 
REMARK    2  A    between atoms: C2_2  and  C3_7 
REMARK    3  A    between atoms: C3_7  and  C4_8 
REMARK    4  A    between atoms: C5_11  and  C6_12 
REMARK    5  A    between atoms: C6_12  and  N3_13 
REMARK    6  A    between atoms: N3_13  and  C7_15 
REMARK    7  A    between atoms: C7_15  and  O1_16 
REMARK    8  A    between atoms: C7_15  and  C8_18 
REMARK    9  A    between atoms: C8_18  and  N4_20 
REMARK   10  A    between atoms: N4_20  and  C10_23 
REMARK   11  A    between atoms: C10_23  and  O2_24 
REMARK   12  A    between atoms: C10_23  and  N5_26 
REMARK   13  A    between atoms: N5_26  and  C11_28 
ROOT
HETATM    1  N3  UNL     1       3.116  85.550  -8.053  1.00  0.00    -0.367 N 
ATOM      2  H3  UNL     1       3.202  86.324  -8.710  1.00  0.00     0.161 HD
ENDROOT
BRANCH   1   3
HETATM    3  C6  UNL     1       1.890  85.348  -7.346  1.00  0.00     0.182 C 
BRANCH   3   4
HETATM    4  C5  UNL     1       1.235  86.667  -7.099  1.00  0.00     0.077 A 
HETATM    5  N2  UNL     1      -0.096  86.924  -7.263  1.00  0.00    -0.339 N 
HETATM    6  C4  UNL     1      -0.364  88.188  -6.791  1.00  0.00     0.128 A 
ATOM      7  H2  UNL     1      -0.779  86.284  -7.667  1.00  0.00     0.167 HD
HETATM    8  O3  UNL     1       0.741  88.682  -6.362  1.00  0.00    -0.281 OA
HETATM    9  C14 UNL     1       1.737  87.802  -6.529  1.00  0.00     0.183 A 
HETATM   10  N6  UNL     1       3.097  88.090  -6.149  1.00  0.00    -0.072 NA
BRANCH   6  11
HETATM   11  C3  UNL     1      -1.697  88.805  -6.818  1.00  0.00     0.116 C 
BRANCH  11  12
HETATM   12  C2  UNL     1      -1.974  89.886  -5.837  1.00  0.00     0.187 C 
HETATM   13  C1  UNL     1      -2.015  89.429  -4.389  1.00  0.00     0.040 C 
BRANCH  12  14
HETATM   14  N1  UNL     1      -1.054  91.003  -5.937  1.00  0.00    -0.075 N 
ATOM     15  H13 UNL     1      -0.641  91.253  -5.039  1.00  0.00     0.274 HD
ATOM     16  H12 UNL     1      -0.192  90.759  -6.424  1.00  0.00     0.274 HD
ATOM     17  H11 UNL     1      -1.544  91.784  -6.374  1.00  0.00     0.274 HD
ENDBRANCH  12  14
ENDBRANCH  11  12
ENDBRANCH   6  11
ENDBRANCH   3   4
ENDBRANCH   1   3
BRANCH   1  18
HETATM   18  C7  UNL     1       4.199  84.688  -7.846  1.00  0.00     0.142 C 
BRANCH  18  19
HETATM   19  O1  UNL     1       4.014  83.584  -7.038  1.00  0.00    -0.348 OA
ATOM     20  H1  UNL     1       3.682  82.786  -7.433  1.00  0.00     0.219 HD
ENDBRANCH  18  19
BRANCH  18  21
HETATM   21  C8  UNL     1       5.564  85.254  -7.762  1.00  0.00     0.260 C 
HETATM   22  C9  UNL     1       6.534  84.071  -7.563  1.00  0.00     0.049 C 
BRANCH  21  23
HETATM   23  N4  UNL     1       5.837  86.370  -6.951  1.00  0.00    -0.020 N 
ATOM     24  H42 UNL     1       5.042  86.569  -6.344  1.00  0.00     0.283 HD
ATOM     25  H41 UNL     1       6.540  86.134  -6.249  1.00  0.00     0.283 HD
BRANCH  23  26
HETATM   26  C10 UNL     1       6.233  87.571  -7.677  1.00  0.00     0.423 C 
BRANCH  26  27
HETATM   27  O2  UNL     1       5.129  88.086  -8.338  1.00  0.00    -0.355 OA
ATOM     28  H2  UNL     1       4.652  87.375  -8.749  1.00  0.00     0.213 HD
ENDBRANCH  26  27
BRANCH  26  29
HETATM   29  N5  UNL     1       7.394  87.456  -8.477  1.00  0.00    -0.371 N 
ATOM     30  H5  UNL     1       7.380  86.847  -9.295  1.00  0.00     0.157 HD
BRANCH  29  31
HETATM   31  C11 UNL     1       8.567  88.167  -8.165  1.00  0.00     0.072 C 
HETATM   32  C12 UNL     1       9.590  88.249  -9.284  1.00  0.00     0.031 C 
HETATM   33  C13 UNL     1       8.323  89.584  -7.733  1.00  0.00     0.031 C 
ENDBRANCH  29  31
ENDBRANCH  26  29
ENDBRANCH  23  26
ENDBRANCH  21  23
ENDBRANCH  18  21
ENDBRANCH   1  18
TORSDOF 13
ENDMDL
