MODEL 1
REMARK VINA RESULT: -6.984094740      0.000      0.000
REMARK  13 active torsions:
REMARK  status: ('A' for Active; 'I' for Inactive)
REMARK    1  A    between atoms: N1_2  and  C2_5 
REMARK    2  A    between atoms: C2_5  and  C3_6 
REMARK    3  A    between atoms: C3_6  and  C4_7 
REMARK    4  A    between atoms: C4_7  and  N2_8 
REMARK    5  A    between atoms: N2_8  and  C5_10 
REMARK    6  A    between atoms: C6_11  and  N3_12 
REMARK    7  A    between atoms: N3_12  and  C7_14 
REMARK    8  A    between atoms: C7_14  and  C8_15 
REMARK    9  A    between atoms: C7_14  and  C9_22 
REMARK   10  A    between atoms: C9_22  and  O1_23 
REMARK   11  A    between atoms: C9_22  and  C10_25 
REMARK   12  A    between atoms: C10_25  and  O2_27 
REMARK   13  A    between atoms: C12_32  and  N9_33 
ROOT
HETATM    1  C5  UNL     1       5.980  84.685  -7.902  1.00  0.00     0.127 A 
HETATM    2  C6  UNL     1       6.726  85.776  -8.237  1.00  0.00     0.197 A 
HETATM    3  O3  UNL     1       7.312  85.478  -9.403  1.00  0.00    -0.216 OA
HETATM    4  N8  UNL     1       6.980  84.298  -9.796  1.00  0.00    -0.241 N 
ATOM      5  H8  UNL     1       7.307  83.862 -10.658  1.00  0.00     0.196 HD
HETATM    6  C12 UNL     1       6.148  83.720  -8.921  1.00  0.00     0.150 A 
ENDROOT
BRANCH   2   7
HETATM    7  N3  UNL     1       6.884  87.003  -7.536  1.00  0.00    -0.353 N 
ATOM      8  H3  UNL     1       7.286  87.005  -6.599  1.00  0.00     0.162 HD
BRANCH   7   9
HETATM    9  C7  UNL     1       6.466  88.267  -8.161  1.00  0.00     0.184 C 
BRANCH   9  10
HETATM   10  C8  UNL     1       5.077  88.532  -7.586  1.00  0.00     0.132 A 
HETATM   11  N4  UNL     1       4.068  89.214  -8.117  1.00  0.00    -0.272 N 
HETATM   12  N5  UNL     1       3.048  89.175  -7.244  1.00  0.00    -0.007 NA
ATOM     13  H4  UNL     1       4.069  89.683  -9.023  1.00  0.00     0.185 HD
HETATM   14  N6  UNL     1       3.405  88.479  -6.176  1.00  0.00    -0.007 NA
HETATM   15  N7  UNL     1       4.663  88.085  -6.397  1.00  0.00    -0.272 N 
ATOM     16  H7  UNL     1       5.223  87.525  -5.753  1.00  0.00     0.185 HD
ENDBRANCH   9  10
BRANCH   9  17
HETATM   17  C9  UNL     1       7.263  89.448  -7.696  1.00  0.00     0.176 C 
BRANCH  17  18
HETATM   18  O1  UNL     1       6.913  89.943  -6.450  1.00  0.00    -0.391 OA
ATOM     19  H1  UNL     1       7.336  90.758  -6.204  1.00  0.00     0.210 HD
ENDBRANCH  17  18
BRANCH  17  20
HETATM   20  C10 UNL     1       8.752  89.344  -7.765  1.00  0.00     0.145 C 
HETATM   21  C11 UNL     1       9.242  88.638  -9.031  1.00  0.00     0.042 C 
BRANCH  20  22
HETATM   22  O2  UNL     1       9.154  88.430  -6.736  1.00  0.00    -0.393 OA
ATOM     23  H2  UNL     1       9.177  87.564  -7.128  1.00  0.00     0.210 HD
ENDBRANCH  20  22
ENDBRANCH  17  20
ENDBRANCH   9  17
ENDBRANCH   7   9
ENDBRANCH   2   7
BRANCH   1  24
HETATM   24  N2  UNL     1       5.158  84.475  -6.769  1.00  0.00    -0.383 N 
ATOM     25  H2  UNL     1       5.630  84.470  -5.866  1.00  0.00     0.159 HD
BRANCH  24  26
HETATM   26  C4  UNL     1       3.743  84.270  -6.741  1.00  0.00     0.121 C 
BRANCH  26  27
HETATM   27  C3  UNL     1       3.036  85.200  -7.734  1.00  0.00     0.047 C 
BRANCH  27  28
HETATM   28  C2  UNL     1       1.607  85.393  -7.350  1.00  0.00     0.233 C 
BRANCH  28  29
HETATM   29  N1  UNL     1       1.202  86.785  -7.407  1.00  0.00    -0.079 N 
HETATM   30  C1  UNL     1       0.026  87.081  -6.651  1.00  0.00     0.266 C 
ATOM     31  H12 UNL     1       1.090  87.086  -8.375  1.00  0.00     0.276 HD
ATOM     32  H11 UNL     1       1.971  87.393  -7.126  1.00  0.00     0.276 HD
ENDBRANCH  28  29
ENDBRANCH  27  28
ENDBRANCH  26  27
ENDBRANCH  24  26
ENDBRANCH   1  24
BRANCH   6  33
HETATM   33  N9  UNL     1       5.606  82.556  -8.965  1.00  0.00    -0.382 N 
ATOM     34  H92 UNL     1       4.741  82.232  -8.534  1.00  0.00     0.157 HD
ATOM     35  H91 UNL     1       5.967  81.738  -9.457  1.00  0.00     0.157 HD
ENDBRANCH   6  33
TORSDOF 13
ENDMDL
MODEL 2
REMARK VINA RESULT: -6.898078551      2.605      4.328
REMARK  13 active torsions:
REMARK  status: ('A' for Active; 'I' for Inactive)
REMARK    1  A    between atoms: N1_2  and  C2_5 
REMARK    2  A    between atoms: C2_5  and  C3_6 
REMARK    3  A    between atoms: C3_6  and  C4_7 
REMARK    4  A    between atoms: C4_7  and  N2_8 
REMARK    5  A    between atoms: N2_8  and  C5_10 
REMARK    6  A    between atoms: C6_11  and  N3_12 
REMARK    7  A    between atoms: N3_12  and  C7_14 
REMARK    8  A    between atoms: C7_14  and  C8_15 
REMARK    9  A    between atoms: C7_14  and  C9_22 
REMARK   10  A    between atoms: C9_22  and  O1_23 
REMARK   11  A    between atoms: C9_22  and  C10_25 
REMARK   12  A    between atoms: C10_25  and  O2_27 
REMARK   13  A    between atoms: C12_32  and  N9_33 
ROOT
HETATM    1  C5  UNL     1       6.422  86.822  -7.602  1.00  0.00     0.127 A 
HETATM    2  C6  UNL     1       7.352  87.064  -8.569  1.00  0.00     0.197 A 
HETATM    3  O3  UNL     1       7.422  85.947  -9.303  1.00  0.00    -0.216 OA
HETATM    4  N8  UNL     1       6.610  85.053  -8.856  1.00  0.00    -0.241 N 
ATOM      5  H8  UNL     1       6.494  84.123  -9.260  1.00  0.00     0.196 HD
HETATM    6  C12 UNL     1       5.938  85.507  -7.791  1.00  0.00     0.150 A 
ENDROOT
BRANCH   2   7
HETATM    7  N3  UNL     1       8.117  88.240  -8.801  1.00  0.00    -0.353 N 
ATOM      8  H3  UNL     1       7.647  89.121  -9.007  1.00  0.00     0.162 HD
BRANCH   7   9
HETATM    9  C7  UNL     1       9.587  88.186  -8.745  1.00  0.00     0.184 C 
BRANCH   9  10
HETATM   10  C8  UNL     1      10.009  87.908 -10.185  1.00  0.00     0.132 A 
HETATM   11  N4  UNL     1      10.161  86.741 -10.802  1.00  0.00    -0.272 N 
HETATM   12  N5  UNL     1      10.544  86.995 -12.064  1.00  0.00    -0.007 NA
ATOM     13  H4  UNL     1      10.013  85.819 -10.391  1.00  0.00     0.185 HD
HETATM   14  N6  UNL     1      10.635  88.304 -12.244  1.00  0.00    -0.007 NA
HETATM   15  N7  UNL     1      10.301  88.860 -11.076  1.00  0.00    -0.272 N 
ATOM     16  H7  UNL     1      10.274  89.863 -10.892  1.00  0.00     0.185 HD
ENDBRANCH   9  10
BRANCH   9  17
HETATM   17  C9  UNL     1      10.216  89.513  -8.451  1.00  0.00     0.176 C 
BRANCH  17  18
HETATM   18  O1  UNL     1       9.369  90.460  -7.898  1.00  0.00    -0.391 OA
ATOM     19  H1  UNL     1       9.591  91.364  -8.091  1.00  0.00     0.210 HD
ENDBRANCH  17  18
BRANCH  17  20
HETATM   20  C10 UNL     1      11.495  89.511  -7.678  1.00  0.00     0.145 C 
HETATM   21  C11 UNL     1      12.669  88.930  -8.469  1.00  0.00     0.042 C 
BRANCH  20  22
HETATM   22  O2  UNL     1      11.342  88.556  -6.620  1.00  0.00    -0.393 OA
ATOM     23  H2  UNL     1      11.925  87.831  -6.815  1.00  0.00     0.210 HD
ENDBRANCH  20  22
ENDBRANCH  17  20
ENDBRANCH   9  17
ENDBRANCH   7   9
ENDBRANCH   2   7
BRANCH   1  24
HETATM   24  N2  UNL     1       5.961  87.672  -6.569  1.00  0.00    -0.383 N 
ATOM     25  H2  UNL     1       6.202  87.396  -5.618  1.00  0.00     0.159 HD
BRANCH  24  26
HETATM   26  C4  UNL     1       5.196  88.874  -6.700  1.00  0.00     0.121 C 
BRANCH  26  27
HETATM   27  C3  UNL     1       4.022  88.671  -7.665  1.00  0.00     0.047 C 
BRANCH  27  28
HETATM   28  C2  UNL     1       2.867  88.037  -6.965  1.00  0.00     0.233 C 
BRANCH  28  29
HETATM   29  N1  UNL     1       2.286  86.948  -7.730  1.00  0.00    -0.079 N 
HETATM   30  C1  UNL     1       1.437  86.089  -6.967  1.00  0.00     0.266 C 
ATOM     31  H12 UNL     1       3.016  86.409  -8.195  1.00  0.00     0.276 HD
ATOM     32  H11 UNL     1       1.792  87.308  -8.546  1.00  0.00     0.276 HD
ENDBRANCH  28  29
ENDBRANCH  27  28
ENDBRANCH  26  27
ENDBRANCH  24  26
ENDBRANCH   1  24
BRANCH   6  33
HETATM   33  N9  UNL     1       5.051  84.912  -7.078  1.00  0.00    -0.382 N 
ATOM     34  H92 UNL     1       5.018  84.782  -6.067  1.00  0.00     0.157 HD
ATOM     35  H91 UNL     1       4.204  84.457  -7.421  1.00  0.00     0.157 HD
ENDBRANCH   6  33
TORSDOF 13
ENDMDL
MODEL 3
REMARK VINA RESULT: -6.870800911      2.875      5.141
REMARK  13 active torsions:
REMARK  status: ('A' for Active; 'I' for Inactive)
REMARK    1  A    between atoms: N1_2  and  C2_5 
REMARK    2  A    between atoms: C2_5  and  C3_6 
REMARK    3  A    between atoms: C3_6  and  C4_7 
REMARK    4  A    between atoms: C4_7  and  N2_8 
REMARK    5  A    between atoms: N2_8  and  C5_10 
REMARK    6  A    between atoms: C6_11  and  N3_12 
REMARK    7  A    between atoms: N3_12  and  C7_14 
REMARK    8  A    between atoms: C7_14  and  C8_15 
REMARK    9  A    between atoms: C7_14  and  C9_22 
REMARK   10  A    between atoms: C9_22  and  O1_23 
REMARK   11  A    between atoms: C9_22  and  C10_25 
REMARK   12  A    between atoms: C10_25  and  O2_27 
REMARK   13  A    between atoms: C12_32  and  N9_33 
ROOT
HETATM    1  C5  UNL     1       6.057  87.172  -7.716  1.00  0.00     0.127 A 
HETATM    2  C6  UNL     1       6.884  88.174  -8.130  1.00  0.00     0.197 A 
HETATM    3  O3  UNL     1       6.103  89.244  -8.318  1.00  0.00    -0.216 OA
HETATM    4  N8  UNL     1       4.874  88.968  -8.050  1.00  0.00    -0.241 N 
ATOM      5  H8  UNL     1       4.103  89.632  -8.122  1.00  0.00     0.196 HD
HETATM    6  C12 UNL     1       4.744  87.693  -7.664  1.00  0.00     0.150 A 
ENDROOT
BRANCH   2   7
HETATM    7  N3  UNL     1       8.291  88.146  -8.335  1.00  0.00    -0.353 N 
ATOM      8  H3  UNL     1       8.842  87.366  -7.978  1.00  0.00     0.162 HD
BRANCH   7   9
HETATM    9  C7  UNL     1       8.951  89.242  -9.062  1.00  0.00     0.184 C 
BRANCH   9  10
HETATM   10  C8  UNL     1      10.308  89.384  -8.378  1.00  0.00     0.132 A 
HETATM   11  N4  UNL     1      11.229  90.329  -8.534  1.00  0.00    -0.272 N 
HETATM   12  N5  UNL     1      12.256  90.033  -7.721  1.00  0.00    -0.007 NA
ATOM     13  H4  UNL     1      11.168  91.132  -9.159  1.00  0.00     0.185 HD
HETATM   14  N6  UNL     1      11.991  88.918  -7.059  1.00  0.00    -0.007 NA
HETATM   15  N7  UNL     1      10.783  88.523  -7.472  1.00  0.00    -0.272 N 
ATOM     16  H7  UNL     1      10.295  87.689  -7.145  1.00  0.00     0.185 HD
ENDBRANCH   9  10
BRANCH   9  17
HETATM   17  C9  UNL     1       9.311  88.885 -10.472  1.00  0.00     0.176 C 
BRANCH  17  18
HETATM   18  O1  UNL     1      10.069  89.829 -11.146  1.00  0.00    -0.391 OA
ATOM     19  H1  UNL     1       9.579  90.559 -11.505  1.00  0.00     0.210 HD
ENDBRANCH  17  18
BRANCH  17  20
HETATM   20  C10 UNL     1       9.912  87.537 -10.707  1.00  0.00     0.145 C 
HETATM   21  C11 UNL     1      10.573  87.411 -12.081  1.00  0.00     0.042 C 
BRANCH  20  22
HETATM   22  O2  UNL     1       8.825  86.607 -10.809  1.00  0.00    -0.393 OA
ATOM     23  H2  UNL     1       9.004  85.904 -10.195  1.00  0.00     0.210 HD
ENDBRANCH  20  22
ENDBRANCH  17  20
ENDBRANCH   9  17
ENDBRANCH   7   9
ENDBRANCH   2   7
BRANCH   1  24
HETATM   24  N2  UNL     1       6.371  85.835  -7.373  1.00  0.00    -0.383 N 
ATOM     25  H2  UNL     1       6.462  85.637  -6.377  1.00  0.00     0.159 HD
BRANCH  24  26
HETATM   26  C4  UNL     1       6.575  84.729  -8.256  1.00  0.00     0.121 C 
BRANCH  26  27
HETATM   27  C3  UNL     1       5.461  83.688  -8.094  1.00  0.00     0.047 C 
BRANCH  27  28
HETATM   28  C2  UNL     1       4.793  83.423  -9.402  1.00  0.00     0.233 C 
BRANCH  28  29
HETATM   29  N1  UNL     1       5.687  83.615 -10.528  1.00  0.00    -0.079 N 
HETATM   30  C1  UNL     1       5.120  83.256 -11.790  1.00  0.00     0.266 C 
ATOM     31  H12 UNL     1       6.565  83.119 -10.377  1.00  0.00     0.276 HD
ATOM     32  H11 UNL     1       6.033  84.574 -10.552  1.00  0.00     0.276 HD
ENDBRANCH  28  29
ENDBRANCH  27  28
ENDBRANCH  26  27
ENDBRANCH  24  26
ENDBRANCH   1  24
BRANCH   6  33
HETATM   33  N9  UNL     1       3.684  87.054  -7.319  1.00  0.00    -0.382 N 
ATOM     34  H92 UNL     1       3.278  86.212  -7.728  1.00  0.00     0.157 HD
ATOM     35  H91 UNL     1       3.055  87.294  -6.553  1.00  0.00     0.157 HD
ENDBRANCH   6  33
TORSDOF 13
ENDMDL
MODEL 4
REMARK VINA RESULT: -6.844342215      2.840      4.920
REMARK  13 active torsions:
REMARK  status: ('A' for Active; 'I' for Inactive)
REMARK    1  A    between atoms: N1_2  and  C2_5 
REMARK    2  A    between atoms: C2_5  and  C3_6 
REMARK    3  A    between atoms: C3_6  and  C4_7 
REMARK    4  A    between atoms: C4_7  and  N2_8 
REMARK    5  A    between atoms: N2_8  and  C5_10 
REMARK    6  A    between atoms: C6_11  and  N3_12 
REMARK    7  A    between atoms: N3_12  and  C7_14 
REMARK    8  A    between atoms: C7_14  and  C8_15 
REMARK    9  A    between atoms: C7_14  and  C9_22 
REMARK   10  A    between atoms: C9_22  and  O1_23 
REMARK   11  A    between atoms: C9_22  and  C10_25 
REMARK   12  A    between atoms: C10_25  and  O2_27 
REMARK   13  A    between atoms: C12_32  and  N9_33 
ROOT
HETATM    1  C5  UNL     1       5.979  87.354  -7.748  1.00  0.00     0.127 A 
HETATM    2  C6  UNL     1       6.842  88.323  -8.166  1.00  0.00     0.197 A 
HETATM    3  O3  UNL     1       6.097  89.413  -8.382  1.00  0.00    -0.216 OA
HETATM    4  N8  UNL     1       4.856  89.179  -8.128  1.00  0.00    -0.241 N 
ATOM      5  H8  UNL     1       4.107  89.865  -8.222  1.00  0.00     0.196 HD
HETATM    6  C12 UNL     1       4.682  87.915  -7.724  1.00  0.00     0.150 A 
ENDROOT
BRANCH   2   7
HETATM    7  N3  UNL     1       8.250  88.249  -8.349  1.00  0.00    -0.353 N 
ATOM      8  H3  UNL     1       8.771  87.457  -7.974  1.00  0.00     0.162 HD
BRANCH   7   9
HETATM    9  C7  UNL     1       8.955  89.315  -9.078  1.00  0.00     0.184 C 
BRANCH   9  10
HETATM   10  C8  UNL     1      10.312  89.411  -8.386  1.00  0.00     0.132 A 
HETATM   11  N4  UNL     1      11.282  90.301  -8.566  1.00  0.00    -0.272 N 
HETATM   12  N5  UNL     1      12.286  89.981  -7.733  1.00  0.00    -0.007 NA
ATOM     13  H4  UNL     1      11.267  91.084  -9.219  1.00  0.00     0.185 HD
HETATM   14  N6  UNL     1      11.958  88.905  -7.037  1.00  0.00    -0.007 NA
HETATM   15  N7  UNL     1      10.735  88.559  -7.447  1.00  0.00    -0.272 N 
ATOM     16  H7  UNL     1      10.202  87.762  -7.096  1.00  0.00     0.185 HD
ENDBRANCH   9  10
BRANCH   9  17
HETATM   17  C9  UNL     1       9.310  88.936 -10.483  1.00  0.00     0.176 C 
BRANCH  17  18
HETATM   18  O1  UNL     1      10.048  89.878 -11.181  1.00  0.00    -0.391 OA
ATOM     19  H1  UNL     1      10.931  90.021 -10.860  1.00  0.00     0.210 HD
ENDBRANCH  17  18
BRANCH  17  20
HETATM   20  C10 UNL     1       9.929  87.593 -10.697  1.00  0.00     0.145 C 
HETATM   21  C11 UNL     1      10.590  87.453 -12.069  1.00  0.00     0.042 C 
BRANCH  20  22
HETATM   22  O2  UNL     1       8.855  86.646 -10.782  1.00  0.00    -0.393 OA
ATOM     23  H2  UNL     1       9.235  85.785 -10.656  1.00  0.00     0.210 HD
ENDBRANCH  20  22
ENDBRANCH  17  20
ENDBRANCH   9  17
ENDBRANCH   7   9
ENDBRANCH   2   7
BRANCH   1  24
HETATM   24  N2  UNL     1       6.246  86.014  -7.379  1.00  0.00    -0.383 N 
ATOM     25  H2  UNL     1       6.154  85.794  -6.388  1.00  0.00     0.159 HD
BRANCH  24  26
HETATM   26  C4  UNL     1       6.631  84.931  -8.230  1.00  0.00     0.121 C 
BRANCH  26  27
HETATM   27  C3  UNL     1       5.728  83.712  -8.005  1.00  0.00     0.047 C 
BRANCH  27  28
HETATM   28  C2  UNL     1       4.803  83.946  -6.857  1.00  0.00     0.233 C 
BRANCH  28  29
HETATM   29  N1  UNL     1       3.439  83.551  -7.157  1.00  0.00    -0.079 N 
HETATM   30  C1  UNL     1       3.319  82.692  -8.293  1.00  0.00     0.266 C 
ATOM     31  H12 UNL     1       2.845  84.372  -7.265  1.00  0.00     0.276 HD
ATOM     32  H11 UNL     1       3.001  83.127  -6.339  1.00  0.00     0.276 HD
ENDBRANCH  28  29
ENDBRANCH  27  28
ENDBRANCH  26  27
ENDBRANCH  24  26
ENDBRANCH   1  24
BRANCH   6  33
HETATM   33  N9  UNL     1       3.597  87.314  -7.385  1.00  0.00    -0.382 N 
ATOM     34  H92 UNL     1       2.899  87.589  -6.695  1.00  0.00     0.157 HD
ATOM     35  H91 UNL     1       3.248  86.435  -7.766  1.00  0.00     0.157 HD
ENDBRANCH   6  33
TORSDOF 13
ENDMDL
MODEL 5
REMARK VINA RESULT: -6.631542242      1.511      2.004
REMARK  13 active torsions:
REMARK  status: ('A' for Active; 'I' for Inactive)
REMARK    1  A    between atoms: N1_2  and  C2_5 
REMARK    2  A    between atoms: C2_5  and  C3_6 
REMARK    3  A    between atoms: C3_6  and  C4_7 
REMARK    4  A    between atoms: C4_7  and  N2_8 
REMARK    5  A    between atoms: N2_8  and  C5_10 
REMARK    6  A    between atoms: C6_11  and  N3_12 
REMARK    7  A    between atoms: N3_12  and  C7_14 
REMARK    8  A    between atoms: C7_14  and  C8_15 
REMARK    9  A    between atoms: C7_14  and  C9_22 
REMARK   10  A    between atoms: C9_22  and  O1_23 
REMARK   11  A    between atoms: C9_22  and  C10_25 
REMARK   12  A    between atoms: C10_25  and  O2_27 
REMARK   13  A    between atoms: C12_32  and  N9_33 
ROOT
HETATM    1  C5  UNL     1       5.583  84.453  -8.235  1.00  0.00     0.127 A 
HETATM    2  C6  UNL     1       6.487  85.466  -8.359  1.00  0.00     0.197 A 
HETATM    3  O3  UNL     1       7.142  85.239  -9.503  1.00  0.00    -0.216 OA
HETATM    4  N8  UNL     1       6.706  84.172 -10.078  1.00  0.00    -0.241 N 
ATOM      5  H8  UNL     1       7.058  83.806 -10.963  1.00  0.00     0.196 HD
HETATM    6  C12 UNL     1       5.728  83.608  -9.359  1.00  0.00     0.150 A 
ENDROOT
BRANCH   2   7
HETATM    7  N3  UNL     1       6.726  86.564  -7.488  1.00  0.00    -0.353 N 
ATOM      8  H3  UNL     1       7.004  86.395  -6.521  1.00  0.00     0.162 HD
BRANCH   7   9
HETATM    9  C7  UNL     1       6.573  87.942  -7.980  1.00  0.00     0.184 C 
BRANCH   9  10
HETATM   10  C8  UNL     1       5.168  88.345  -7.541  1.00  0.00     0.132 A 
HETATM   11  N4  UNL     1       4.297  89.141  -8.152  1.00  0.00    -0.272 N 
HETATM   12  N5  UNL     1       3.193  89.198  -7.387  1.00  0.00    -0.007 NA
ATOM     13  H4  UNL     1       4.440  89.622  -9.040  1.00  0.00     0.185 HD
HETATM   14  N6  UNL     1       3.364  88.450  -6.308  1.00  0.00    -0.007 NA
HETATM   15  N7  UNL     1       4.588  87.927  -6.412  1.00  0.00    -0.272 N 
ATOM     16  H7  UNL     1       5.017  87.300  -5.730  1.00  0.00     0.185 HD
ENDBRANCH   9  10
BRANCH   9  17
HETATM   17  C9  UNL     1       7.452  88.925  -7.269  1.00  0.00     0.176 C 
BRANCH  17  18
HETATM   18  O1  UNL     1       7.500  88.787  -5.891  1.00  0.00    -0.391 OA
ATOM     19  H1  UNL     1       6.702  89.023  -5.432  1.00  0.00     0.210 HD
ENDBRANCH  17  18
BRANCH  17  20
HETATM   20  C10 UNL     1       8.847  89.094  -7.778  1.00  0.00     0.145 C 
HETATM   21  C11 UNL     1       9.095  88.354  -9.094  1.00  0.00     0.042 C 
BRANCH  20  22
HETATM   22  O2  UNL     1       9.710  88.395  -6.871  1.00  0.00    -0.393 OA
ATOM     23  H2  UNL     1       9.365  87.514  -6.785  1.00  0.00     0.210 HD
ENDBRANCH  20  22
ENDBRANCH  17  20
ENDBRANCH   9  17
ENDBRANCH   7   9
ENDBRANCH   2   7
BRANCH   1  24
HETATM   24  N2  UNL     1       4.635  84.218  -7.210  1.00  0.00    -0.383 N 
ATOM     25  H2  UNL     1       5.002  83.844  -6.336  1.00  0.00     0.159 HD
BRANCH  24  26
HETATM   26  C4  UNL     1       3.223  84.442  -7.256  1.00  0.00     0.121 C 
BRANCH  26  27
HETATM   27  C3  UNL     1       2.459  83.216  -6.741  1.00  0.00     0.047 C 
BRANCH  27  28
HETATM   28  C2  UNL     1       2.119  82.296  -7.866  1.00  0.00     0.233 C 
BRANCH  28  29
HETATM   29  N1  UNL     1       1.848  80.944  -7.412  1.00  0.00    -0.079 N 
HETATM   30  C1  UNL     1       1.140  80.878  -6.172  1.00  0.00     0.266 C 
ATOM     31  H12 UNL     1       2.711  80.404  -7.361  1.00  0.00     0.276 HD
ATOM     32  H11 UNL     1       1.356  80.416  -8.133  1.00  0.00     0.276 HD
ENDBRANCH  28  29
ENDBRANCH  27  28
ENDBRANCH  26  27
ENDBRANCH  24  26
ENDBRANCH   1  24
BRANCH   6  33
HETATM   33  N9  UNL     1       5.053  82.542  -9.603  1.00  0.00    -0.382 N 
ATOM     34  H92 UNL     1       4.870  81.743  -8.996  1.00  0.00     0.157 HD
ATOM     35  H91 UNL     1       4.574  82.315 -10.475  1.00  0.00     0.157 HD
ENDBRANCH   6  33
TORSDOF 13
ENDMDL
