MODEL 1
REMARK VINA RESULT: -5.447260880      0.000      0.000
REMARK  6 active torsions:
REMARK  status: ('A' for Active; 'I' for Inactive)
REMARK    1  A    between atoms: C2_2  and  C3_3 
REMARK    2  A    between atoms: C3_3  and  C4_4 
REMARK    3  A    between atoms: C4_4  and  C5_5 
REMARK    4  A    between atoms: C4_4  and  C7_10 
REMARK    5  A    between atoms: C5_5  and  N1_6 
REMARK    6  A    between atoms: C7_10  and  C8_11 
ROOT
HETATM    1  C4  UNL     1     -25.614   5.099 -16.585  1.00  0.00    -0.055 C 
ENDROOT
BRANCH   1   2
HETATM    2  C3  UNL     1     -24.497   4.321 -15.937  1.00  0.00    -0.000 C 
BRANCH   2   3
HETATM    3  C2  UNL     1     -23.190   4.190 -16.553  1.00  0.00    -0.031 C 
HETATM    4  C1  UNL     1     -22.700   2.932 -17.133  1.00  0.00     0.036 C 
ENDBRANCH   2   3
ENDBRANCH   1   2
BRANCH   1   5
HETATM    5  C5  UNL     1     -25.710   5.031 -18.043  1.00  0.00     0.266 C 
BRANCH   5   6
HETATM    6  N1  UNL     1     -25.628   6.240 -18.784  1.00  0.00    -0.075 N 
HETATM    7  C6  UNL     1     -24.344   6.345 -19.426  1.00  0.00     0.267 C 
ATOM      8  H12 UNL     1     -26.395   6.332 -19.450  1.00  0.00     0.277 HD
ATOM      9  H11 UNL     1     -25.832   7.056 -18.206  1.00  0.00     0.277 HD
ENDBRANCH   5   6
ENDBRANCH   1   5
BRANCH   1  10
HETATM   10  C7  UNL     1     -25.777   6.418 -15.900  1.00  0.00     0.040 C 
BRANCH  10  11
HETATM   11  C8  UNL     1     -27.033   6.681 -15.222  1.00  0.00    -0.011 C 
HETATM   12  C9  UNL     1     -27.926   7.560 -16.224  1.00  0.00     0.005 C 
HETATM   13  C10 UNL     1     -29.073   7.795 -15.266  1.00  0.00     0.000 C 
HETATM   14  C11 UNL     1     -29.289   6.434 -14.647  1.00  0.00     0.000 C 
HETATM   15  C12 UNL     1     -28.057   5.603 -15.084  1.00  0.00     0.005 C 
ENDBRANCH  10  11
ENDBRANCH   1  10
TORSDOF 6
ENDMDL
MODEL 2
REMARK VINA RESULT: -5.437376441      2.445      5.799
REMARK  6 active torsions:
REMARK  status: ('A' for Active; 'I' for Inactive)
REMARK    1  A    between atoms: C2_2  and  C3_3 
REMARK    2  A    between atoms: C3_3  and  C4_4 
REMARK    3  A    between atoms: C4_4  and  C5_5 
REMARK    4  A    between atoms: C4_4  and  C7_10 
REMARK    5  A    between atoms: C5_5  and  N1_6 
REMARK    6  A    between atoms: C7_10  and  C8_11 
ROOT
HETATM    1  C4  UNL     1     -25.079   6.019 -16.617  1.00  0.00    -0.055 C 
ENDROOT
BRANCH   1   2
HETATM    2  C3  UNL     1     -24.838   7.505 -16.687  1.00  0.00    -0.000 C 
BRANCH   2   3
HETATM    3  C2  UNL     1     -25.537   8.355 -17.634  1.00  0.00    -0.031 C 
HETATM    4  C1  UNL     1     -24.863   9.030 -18.752  1.00  0.00     0.036 C 
ENDBRANCH   2   3
ENDBRANCH   1   2
BRANCH   1   5
HETATM    5  C5  UNL     1     -25.939   5.537 -15.537  1.00  0.00     0.266 C 
BRANCH   5   6
HETATM    6  N1  UNL     1     -26.465   6.484 -14.616  1.00  0.00    -0.075 N 
HETATM    7  C6  UNL     1     -27.903   6.485 -14.670  1.00  0.00     0.267 C 
ATOM      8  H12 UNL     1     -26.120   6.327 -13.669  1.00  0.00     0.277 HD
ATOM      9  H11 UNL     1     -26.078   7.415 -14.766  1.00  0.00     0.277 HD
ENDBRANCH   5   6
ENDBRANCH   1   5
BRANCH   1  10
HETATM   10  C7  UNL     1     -23.816   5.284 -16.931  1.00  0.00     0.040 C 
BRANCH  10  11
HETATM   11  C8  UNL     1     -22.717   6.037 -17.508  1.00  0.00    -0.011 C 
HETATM   12  C9  UNL     1     -21.374   5.225 -17.177  1.00  0.00     0.005 C 
HETATM   13  C10 UNL     1     -20.415   6.245 -17.749  1.00  0.00     0.000 C 
HETATM   14  C11 UNL     1     -21.066   6.636 -19.055  1.00  0.00     0.000 C 
HETATM   15  C12 UNL     1     -22.488   6.027 -18.983  1.00  0.00     0.005 C 
ENDBRANCH  10  11
ENDBRANCH   1  10
TORSDOF 6
ENDMDL
MODEL 3
REMARK VINA RESULT: -5.436749085      1.779      5.205
REMARK  6 active torsions:
REMARK  status: ('A' for Active; 'I' for Inactive)
REMARK    1  A    between atoms: C2_2  and  C3_3 
REMARK    2  A    between atoms: C3_3  and  C4_4 
REMARK    3  A    between atoms: C4_4  and  C5_5 
REMARK    4  A    between atoms: C4_4  and  C7_10 
REMARK    5  A    between atoms: C5_5  and  N1_6 
REMARK    6  A    between atoms: C7_10  and  C8_11 
ROOT
HETATM    1  C4  UNL     1     -25.494   5.472 -16.669  1.00  0.00    -0.055 C 
ENDROOT
BRANCH   1   2
HETATM    2  C3  UNL     1     -24.898   6.857 -16.672  1.00  0.00    -0.000 C 
BRANCH   2   3
HETATM    3  C2  UNL     1     -24.693   7.605 -17.899  1.00  0.00    -0.031 C 
HETATM    4  C1  UNL     1     -23.723   7.206 -18.928  1.00  0.00     0.036 C 
ENDBRANCH   2   3
ENDBRANCH   1   2
BRANCH   1   5
HETATM    5  C5  UNL     1     -26.949   5.377 -16.553  1.00  0.00     0.266 C 
BRANCH   5   6
HETATM    6  N1  UNL     1     -27.498   4.776 -15.388  1.00  0.00    -0.075 N 
HETATM    7  C6  UNL     1     -27.943   5.788 -14.468  1.00  0.00     0.267 C 
ATOM      8  H12 UNL     1     -28.241   4.115 -15.615  1.00  0.00     0.277 HD
ATOM      9  H11 UNL     1     -26.845   4.125 -14.952  1.00  0.00     0.277 HD
ENDBRANCH   5   6
ENDBRANCH   1   5
BRANCH   1  10
HETATM   10  C7  UNL     1     -24.633   4.550 -15.866  1.00  0.00     0.040 C 
BRANCH  10  11
HETATM   11  C8  UNL     1     -23.631   3.771 -16.570  1.00  0.00    -0.011 C 
HETATM   12  C9  UNL     1     -24.149   3.602 -18.079  1.00  0.00     0.005 C 
HETATM   13  C10 UNL     1     -23.038   2.684 -18.537  1.00  0.00     0.000 C 
HETATM   14  C11 UNL     1     -21.800   3.327 -17.958  1.00  0.00     0.000 C 
HETATM   15  C12 UNL     1     -22.335   4.393 -16.971  1.00  0.00     0.005 C 
ENDBRANCH  10  11
ENDBRANCH   1  10
TORSDOF 6
ENDMDL
MODEL 4
REMARK VINA RESULT: -5.404858327      1.573      2.216
REMARK  6 active torsions:
REMARK  status: ('A' for Active; 'I' for Inactive)
REMARK    1  A    between atoms: C2_2  and  C3_3 
REMARK    2  A    between atoms: C3_3  and  C4_4 
REMARK    3  A    between atoms: C4_4  and  C5_5 
REMARK    4  A    between atoms: C4_4  and  C7_10 
REMARK    5  A    between atoms: C5_5  and  N1_6 
REMARK    6  A    between atoms: C7_10  and  C8_11 
ROOT
HETATM    1  C4  UNL     1     -25.695   7.035 -17.851  1.00  0.00    -0.055 C 
ENDROOT
BRANCH   1   2
HETATM    2  C3  UNL     1     -24.352   6.800 -17.207  1.00  0.00    -0.000 C 
BRANCH   2   3
HETATM    3  C2  UNL     1     -23.821   5.466 -16.997  1.00  0.00    -0.031 C 
HETATM    4  C1  UNL     1     -24.531   4.432 -16.232  1.00  0.00     0.036 C 
ENDBRANCH   2   3
ENDBRANCH   1   2
BRANCH   1   5
HETATM    5  C5  UNL     1     -25.697   7.384 -19.271  1.00  0.00     0.266 C 
BRANCH   5   6
HETATM    6  N1  UNL     1     -24.530   7.977 -19.825  1.00  0.00    -0.075 N 
HETATM    7  C6  UNL     1     -24.754   9.375 -20.077  1.00  0.00     0.267 C 
ATOM      8  H12 UNL     1     -23.709   7.822 -19.239  1.00  0.00     0.277 HD
ATOM      9  H11 UNL     1     -24.213   7.485 -20.660  1.00  0.00     0.277 HD
ENDBRANCH   5   6
ENDBRANCH   1   5
BRANCH   1  10
HETATM   10  C7  UNL     1     -26.585   7.782 -16.911  1.00  0.00     0.040 C 
BRANCH  10  11
HETATM   11  C8  UNL     1     -27.706   7.071 -16.326  1.00  0.00    -0.011 C 
HETATM   12  C9  UNL     1     -27.233   6.567 -14.878  1.00  0.00     0.005 C 
HETATM   13  C10 UNL     1     -28.484   5.781 -14.556  1.00  0.00     0.000 C 
HETATM   14  C11 UNL     1     -29.595   6.707 -14.992  1.00  0.00     0.000 C 
HETATM   15  C12 UNL     1     -28.884   7.821 -15.798  1.00  0.00     0.005 C 
ENDBRANCH  10  11
ENDBRANCH   1  10
TORSDOF 6
ENDMDL
MODEL 5
REMARK VINA RESULT: -5.395732063      1.726      3.383
REMARK  6 active torsions:
REMARK  status: ('A' for Active; 'I' for Inactive)
REMARK    1  A    between atoms: C2_2  and  C3_3 
REMARK    2  A    between atoms: C3_3  and  C4_4 
REMARK    3  A    between atoms: C4_4  and  C5_5 
REMARK    4  A    between atoms: C4_4  and  C7_10 
REMARK    5  A    between atoms: C5_5  and  N1_6 
REMARK    6  A    between atoms: C7_10  and  C8_11 
ROOT
HETATM    1  C4  UNL     1     -25.466   6.681 -18.028  1.00  0.00    -0.055 C 
ENDROOT
BRANCH   1   2
HETATM    2  C3  UNL     1     -24.471   7.775 -18.319  1.00  0.00    -0.000 C 
BRANCH   2   3
HETATM    3  C2  UNL     1     -24.885   9.103 -18.734  1.00  0.00    -0.031 C 
HETATM    4  C1  UNL     1     -24.842   9.554 -20.131  1.00  0.00     0.036 C 
ENDBRANCH   2   3
ENDBRANCH   1   2
BRANCH   1   5
HETATM    5  C5  UNL     1     -25.363   5.462 -18.829  1.00  0.00     0.266 C 
BRANCH   5   6
HETATM    6  N1  UNL     1     -25.355   4.209 -18.158  1.00  0.00    -0.075 N 
HETATM    7  C6  UNL     1     -24.390   4.222 -17.092  1.00  0.00     0.267 C 
ATOM      8  H12 UNL     1     -26.284   3.948 -17.828  1.00  0.00     0.277 HD
ATOM      9  H11 UNL     1     -25.201   3.433 -18.802  1.00  0.00     0.277 HD
ENDBRANCH   5   6
ENDBRANCH   1   5
BRANCH   1  10
HETATM   10  C7  UNL     1     -26.812   7.275 -17.767  1.00  0.00     0.040 C 
BRANCH  10  11
HETATM   11  C8  UNL     1     -27.600   6.724 -16.680  1.00  0.00    -0.011 C 
HETATM   12  C9  UNL     1     -26.656   6.709 -15.383  1.00  0.00     0.005 C 
HETATM   13  C10 UNL     1     -27.632   6.000 -14.471  1.00  0.00     0.000 C 
HETATM   14  C11 UNL     1     -28.942   6.694 -14.763  1.00  0.00     0.000 C 
HETATM   15  C12 UNL     1     -28.665   7.542 -16.028  1.00  0.00     0.005 C 
ENDBRANCH  10  11
ENDBRANCH   1  10
TORSDOF 6
ENDMDL
