MODEL 1
REMARK VINA RESULT: -4.859240736      0.000      0.000
REMARK  7 active torsions:
REMARK  status: ('A' for Active; 'I' for Inactive)
REMARK    1  A    between atoms: C2_2  and  C3_3 
REMARK    2  A    between atoms: C3_3  and  C4_4 
REMARK    3  A    between atoms: C4_4  and  C5_5 
REMARK    4  A    between atoms: C5_5  and  C6_6 
REMARK    5  A    between atoms: C6_6  and  N1_7 
REMARK    6  A    between atoms: N1_7  and  C7_9 
REMARK    7  A    between atoms: C7_9  and  C9_11 
ROOT
HETATM    1  C5  UNL     1     -24.001   4.356 -18.814  1.00  0.00     0.029 C 
ENDROOT
BRANCH   1   2
HETATM    2  C4  UNL     1     -23.744   4.979 -17.467  1.00  0.00    -0.036 A 
HETATM    3  C11 UNL     1     -24.317   4.252 -16.285  1.00  0.00     0.010 A 
HETATM    4  C12 UNL     1     -22.842   4.332 -16.493  1.00  0.00     0.010 A 
BRANCH   2   5
HETATM    5  C3  UNL     1     -23.909   6.495 -17.497  1.00  0.00     0.036 C 
BRANCH   5   6
HETATM    6  C2  UNL     1     -24.454   6.973 -18.776  1.00  0.00    -0.036 C 
HETATM    7  C1  UNL     1     -24.173   8.138 -19.320  1.00  0.00     0.007 C 
ENDBRANCH   5   6
ENDBRANCH   2   5
ENDBRANCH   1   2
BRANCH   1   8
HETATM    8  C6  UNL     1     -22.810   3.730 -19.462  1.00  0.00     0.115 C 
BRANCH   8   9
HETATM    9  N1  UNL     1     -22.199   4.634 -20.416  1.00  0.00    -0.417 N 
ATOM     10  H1  UNL     1     -22.703   4.992 -21.227  1.00  0.00     0.153 HD
BRANCH   9  11
HETATM   11  C7  UNL     1     -20.847   4.989 -20.144  1.00  0.00     0.072 C 
HETATM   12  C8  UNL     1     -20.183   4.119 -19.115  1.00  0.00     0.031 C 
BRANCH  11  13
HETATM   13  C9  UNL     1     -20.829   6.435 -19.672  1.00  0.00     0.020 C 
HETATM   14  C10 UNL     1     -20.329   6.523 -18.236  1.00  0.00     0.007 C 
ENDBRANCH  11  13
ENDBRANCH   9  11
ENDBRANCH   8   9
ENDBRANCH   1   8
TORSDOF 7
ENDMDL
MODEL 2
REMARK VINA RESULT: -4.832411873      3.454      5.520
REMARK  7 active torsions:
REMARK  status: ('A' for Active; 'I' for Inactive)
REMARK    1  A    between atoms: C2_2  and  C3_3 
REMARK    2  A    between atoms: C3_3  and  C4_4 
REMARK    3  A    between atoms: C4_4  and  C5_5 
REMARK    4  A    between atoms: C5_5  and  C6_6 
REMARK    5  A    between atoms: C6_6  and  N1_7 
REMARK    6  A    between atoms: N1_7  and  C7_9 
REMARK    7  A    between atoms: C7_9  and  C9_11 
ROOT
HETATM    1  C5  UNL     1     -25.665   5.089 -17.809  1.00  0.00     0.029 C 
ENDROOT
BRANCH   1   2
HETATM    2  C4  UNL     1     -24.330   4.995 -17.117  1.00  0.00    -0.036 A 
HETATM    3  C11 UNL     1     -24.294   4.174 -15.862  1.00  0.00     0.010 A 
HETATM    4  C12 UNL     1     -23.577   3.725 -17.090  1.00  0.00     0.010 A 
BRANCH   2   5
HETATM    5  C3  UNL     1     -23.605   6.338 -17.090  1.00  0.00     0.036 C 
BRANCH   5   6
HETATM    6  C2  UNL     1     -22.471   6.381 -18.024  1.00  0.00    -0.036 C 
HETATM    7  C1  UNL     1     -22.563   6.699 -19.298  1.00  0.00     0.007 C 
ENDBRANCH   5   6
ENDBRANCH   2   5
ENDBRANCH   1   2
BRANCH   1   8
HETATM    8  C6  UNL     1     -26.298   6.442 -17.787  1.00  0.00     0.115 C 
BRANCH   8   9
HETATM    9  N1  UNL     1     -27.445   6.467 -16.903  1.00  0.00    -0.417 N 
ATOM     10  H1  UNL     1     -28.348   6.076 -17.172  1.00  0.00     0.153 HD
BRANCH   9  11
HETATM   11  C7  UNL     1     -27.228   7.075 -15.634  1.00  0.00     0.072 C 
HETATM   12  C8  UNL     1     -27.169   6.100 -14.492  1.00  0.00     0.031 C 
BRANCH  11  13
HETATM   13  C9  UNL     1     -28.353   8.069 -15.392  1.00  0.00     0.020 C 
HETATM   14  C10 UNL     1     -29.672   7.341 -15.164  1.00  0.00     0.007 C 
ENDBRANCH  11  13
ENDBRANCH   9  11
ENDBRANCH   8   9
ENDBRANCH   1   8
TORSDOF 7
ENDMDL
MODEL 3
REMARK VINA RESULT: -4.818260767      1.996      4.075
REMARK  7 active torsions:
REMARK  status: ('A' for Active; 'I' for Inactive)
REMARK    1  A    between atoms: C2_2  and  C3_3 
REMARK    2  A    between atoms: C3_3  and  C4_4 
REMARK    3  A    between atoms: C4_4  and  C5_5 
REMARK    4  A    between atoms: C5_5  and  C6_6 
REMARK    5  A    between atoms: C6_6  and  N1_7 
REMARK    6  A    between atoms: N1_7  and  C7_9 
REMARK    7  A    between atoms: C7_9  and  C9_11 
ROOT
HETATM    1  C5  UNL     1     -24.935   5.166 -16.368  1.00  0.00     0.029 C 
ENDROOT
BRANCH   1   2
HETATM    2  C4  UNL     1     -23.694   4.845 -17.160  1.00  0.00    -0.036 A 
HETATM    3  C11 UNL     1     -23.071   3.506 -16.895  1.00  0.00     0.010 A 
HETATM    4  C12 UNL     1     -23.712   3.805 -18.208  1.00  0.00     0.010 A 
BRANCH   2   5
HETATM    5  C3  UNL     1     -22.753   6.042 -17.258  1.00  0.00     0.036 C 
BRANCH   5   6
HETATM    6  C2  UNL     1     -22.394   6.361 -18.647  1.00  0.00    -0.036 C 
HETATM    7  C1  UNL     1     -21.162   6.469 -19.096  1.00  0.00     0.007 C 
ENDBRANCH   5   6
ENDBRANCH   2   5
ENDBRANCH   1   2
BRANCH   1   8
HETATM    8  C6  UNL     1     -25.529   6.510 -16.636  1.00  0.00     0.115 C 
BRANCH   8   9
HETATM    9  N1  UNL     1     -26.434   6.464 -17.767  1.00  0.00    -0.417 N 
ATOM     10  H1  UNL     1     -27.147   5.742 -17.865  1.00  0.00     0.153 HD
BRANCH   9  11
HETATM   11  C7  UNL     1     -26.260   7.496 -18.733  1.00  0.00     0.072 C 
HETATM   12  C8  UNL     1     -25.646   7.029 -20.022  1.00  0.00     0.031 C 
BRANCH  11  13
HETATM   13  C9  UNL     1     -25.379   8.571 -18.114  1.00  0.00     0.020 C 
HETATM   14  C10 UNL     1     -24.670   9.373 -19.199  1.00  0.00     0.007 C 
ENDBRANCH  11  13
ENDBRANCH   9  11
ENDBRANCH   8   9
ENDBRANCH   1   8
TORSDOF 7
ENDMDL
MODEL 4
REMARK VINA RESULT: -4.808562333      1.581      2.927
REMARK  7 active torsions:
REMARK  status: ('A' for Active; 'I' for Inactive)
REMARK    1  A    between atoms: C2_2  and  C3_3 
REMARK    2  A    between atoms: C3_3  and  C4_4 
REMARK    3  A    between atoms: C4_4  and  C5_5 
REMARK    4  A    between atoms: C5_5  and  C6_6 
REMARK    5  A    between atoms: C6_6  and  N1_7 
REMARK    6  A    between atoms: N1_7  and  C7_9 
REMARK    7  A    between atoms: C7_9  and  C9_11 
ROOT
HETATM    1  C5  UNL     1     -22.691   3.199 -16.962  1.00  0.00     0.029 C 
ENDROOT
BRANCH   1   2
HETATM    2  C4  UNL     1     -23.900   4.068 -17.190  1.00  0.00    -0.036 A 
HETATM    3  C11 UNL     1     -24.751   4.341 -15.985  1.00  0.00     0.010 A 
HETATM    4  C12 UNL     1     -23.968   5.433 -16.632  1.00  0.00     0.010 A 
BRANCH   2   5
HETATM    5  C3  UNL     1     -24.623   3.711 -18.485  1.00  0.00     0.036 C 
BRANCH   5   6
HETATM    6  C2  UNL     1     -23.912   2.684 -19.260  1.00  0.00    -0.036 C 
HETATM    7  C1  UNL     1     -24.447   1.976 -20.232  1.00  0.00     0.007 C 
ENDBRANCH   5   6
ENDBRANCH   2   5
ENDBRANCH   1   2
BRANCH   1   8
HETATM    8  C6  UNL     1     -21.404   3.935 -16.786  1.00  0.00     0.115 C 
BRANCH   8   9
HETATM    9  N1  UNL     1     -20.614   3.904 -18.001  1.00  0.00    -0.417 N 
ATOM     10  H1  UNL     1     -20.289   3.032 -18.416  1.00  0.00     0.153 HD
BRANCH   9  11
HETATM   11  C7  UNL     1     -20.322   5.174 -18.574  1.00  0.00     0.072 C 
HETATM   12  C8  UNL     1     -20.408   6.317 -17.602  1.00  0.00     0.031 C 
BRANCH  11  13
HETATM   13  C9  UNL     1     -21.301   5.408 -19.716  1.00  0.00     0.020 C 
HETATM   14  C10 UNL     1     -22.185   6.613 -19.426  1.00  0.00     0.007 C 
ENDBRANCH  11  13
ENDBRANCH   9  11
ENDBRANCH   8   9
ENDBRANCH   1   8
TORSDOF 7
ENDMDL
MODEL 5
REMARK VINA RESULT: -4.800530890      2.001      3.823
REMARK  7 active torsions:
REMARK  status: ('A' for Active; 'I' for Inactive)
REMARK    1  A    between atoms: C2_2  and  C3_3 
REMARK    2  A    between atoms: C3_3  and  C4_4 
REMARK    3  A    between atoms: C4_4  and  C5_5 
REMARK    4  A    between atoms: C5_5  and  C6_6 
REMARK    5  A    between atoms: C6_6  and  N1_7 
REMARK    6  A    between atoms: N1_7  and  C7_9 
REMARK    7  A    between atoms: C7_9  and  C9_11 
ROOT
HETATM    1  C5  UNL     1     -25.138   6.233 -17.033  1.00  0.00     0.029 C 
ENDROOT
BRANCH   1   2
HETATM    2  C4  UNL     1     -23.917   5.364 -17.184  1.00  0.00    -0.036 A 
HETATM    3  C11 UNL     1     -23.848   4.164 -16.286  1.00  0.00     0.010 A 
HETATM    4  C12 UNL     1     -24.019   4.008 -17.760  1.00  0.00     0.010 A 
BRANCH   2   5
HETATM    5  C3  UNL     1     -22.644   6.190 -17.339  1.00  0.00     0.036 C 
BRANCH   5   6
HETATM    6  C2  UNL     1     -22.306   6.439 -18.748  1.00  0.00    -0.036 C 
HETATM    7  C1  UNL     1     -21.081   6.484 -19.227  1.00  0.00     0.007 C 
ENDBRANCH   5   6
ENDBRANCH   2   5
ENDBRANCH   1   2
BRANCH   1   8
HETATM    8  C6  UNL     1     -26.087   6.201 -18.185  1.00  0.00     0.115 C 
BRANCH   8   9
HETATM    9  N1  UNL     1     -26.179   7.500 -18.822  1.00  0.00    -0.417 N 
ATOM     10  H1  UNL     1     -26.458   8.338 -18.312  1.00  0.00     0.153 HD
BRANCH   9  11
HETATM   11  C7  UNL     1     -25.855   7.527 -20.208  1.00  0.00     0.072 C 
HETATM   12  C8  UNL     1     -25.319   6.226 -20.735  1.00  0.00     0.031 C 
BRANCH  11  13
HETATM   13  C9  UNL     1     -24.822   8.623 -20.426  1.00  0.00     0.020 C 
HETATM   14  C10 UNL     1     -24.653   9.458 -19.163  1.00  0.00     0.007 C 
ENDBRANCH  11  13
ENDBRANCH   9  11
ENDBRANCH   8   9
ENDBRANCH   1   8
TORSDOF 7
ENDMDL
