MODEL 1
REMARK VINA RESULT: -5.302710305      0.000      0.000
REMARK  6 active torsions:
REMARK  status: ('A' for Active; 'I' for Inactive)
REMARK    1  A    between atoms: C2_2  and  C3_3 
REMARK    2  A    between atoms: C3_3  and  C4_4 
REMARK    3  A    between atoms: N1_8  and  C8_9 
REMARK    4  A    between atoms: C8_9  and  C9_10 
REMARK    5  A    between atoms: C9_10  and  N2_11 
REMARK    6  A    between atoms: N2_11  and  C10_14 
ROOT
HETATM    1  C4  UNL     1     -24.790   6.480 -17.119  1.00  0.00     0.079 C 
HETATM    2  C5  UNL     1     -23.449   5.805 -17.184  1.00  0.00     0.026 C 
HETATM    3  C6  UNL     1     -23.648   4.404 -16.568  1.00  0.00     0.021 C 
HETATM    4  C7  UNL     1     -24.984   4.545 -15.874  1.00  0.00     0.117 C 
HETATM    5  N1  UNL     1     -25.653   5.469 -16.723  1.00  0.00    -0.407 N 
ENDROOT
BRANCH   5   6
HETATM    6  C8  UNL     1     -27.013   5.672 -16.528  1.00  0.00     0.144 C 
BRANCH   6   7
HETATM    7  C9  UNL     1     -27.202   6.597 -15.316  1.00  0.00     0.251 C 
BRANCH   7   8
HETATM    8  N2  UNL     1     -28.207   6.042 -14.469  1.00  0.00    -0.074 N 
ATOM      9  H22 UNL     1     -28.145   5.024 -14.447  1.00  0.00     0.277 HD
ATOM     10  H21 UNL     1     -28.011   6.242 -13.489  1.00  0.00     0.277 HD
BRANCH   8  11
HETATM   11  C10 UNL     1     -29.524   6.467 -14.825  1.00  0.00     0.228 C 
HETATM   12  C11 UNL     1     -29.566   7.970 -15.039  1.00  0.00     0.034 C 
ENDBRANCH   8  11
ENDBRANCH   7   8
ENDBRANCH   6   7
ENDBRANCH   5   6
BRANCH   1  13
HETATM   13  C3  UNL     1     -25.080   7.265 -18.312  1.00  0.00     0.024 C 
BRANCH  13  14
HETATM   14  C2  UNL     1     -25.076   8.758 -18.209  1.00  0.00    -0.002 C 
HETATM   15  C1  UNL     1     -24.680   9.536 -19.398  1.00  0.00     0.005 C 
ENDBRANCH  13  14
ENDBRANCH   1  13
TORSDOF 6
ENDMDL
MODEL 2
REMARK VINA RESULT: -5.288481365      1.685      2.110
REMARK  6 active torsions:
REMARK  status: ('A' for Active; 'I' for Inactive)
REMARK    1  A    between atoms: C2_2  and  C3_3 
REMARK    2  A    between atoms: C3_3  and  C4_4 
REMARK    3  A    between atoms: N1_8  and  C8_9 
REMARK    4  A    between atoms: C8_9  and  C9_10 
REMARK    5  A    between atoms: C9_10  and  N2_11 
REMARK    6  A    between atoms: N2_11  and  C10_14 
ROOT
HETATM    1  C4  UNL     1     -24.700   7.771 -18.407  1.00  0.00     0.079 C 
HETATM    2  C5  UNL     1     -23.705   7.057 -19.277  1.00  0.00     0.026 C 
HETATM    3  C6  UNL     1     -24.288   5.649 -19.523  1.00  0.00     0.021 C 
HETATM    4  C7  UNL     1     -25.373   5.563 -18.473  1.00  0.00     0.117 C 
HETATM    5  N1  UNL     1     -25.794   6.918 -18.383  1.00  0.00    -0.407 N 
ENDROOT
BRANCH   5   6
HETATM    6  C8  UNL     1     -26.953   7.199 -17.670  1.00  0.00     0.144 C 
BRANCH   6   7
HETATM    7  C9  UNL     1     -27.183   6.076 -16.647  1.00  0.00     0.251 C 
BRANCH   7   8
HETATM    8  N2  UNL     1     -27.672   6.655 -15.438  1.00  0.00    -0.074 N 
ATOM      9  H22 UNL     1     -28.339   6.034 -14.979  1.00  0.00     0.277 HD
ATOM     10  H21 UNL     1     -26.946   6.675 -14.722  1.00  0.00     0.277 HD
BRANCH   8  11
HETATM   11  C10 UNL     1     -28.234   7.953 -15.635  1.00  0.00     0.228 C 
HETATM   12  C11 UNL     1     -29.692   7.980 -15.211  1.00  0.00     0.034 C 
ENDBRANCH   8  11
ENDBRANCH   7   8
ENDBRANCH   6   7
ENDBRANCH   5   6
BRANCH   1  13
HETATM   13  C3  UNL     1     -24.869   9.169 -18.782  1.00  0.00     0.024 C 
BRANCH  13  14
HETATM   14  C2  UNL     1     -24.784   9.541 -20.229  1.00  0.00    -0.002 C 
HETATM   15  C1  UNL     1     -26.010   9.451 -21.045  1.00  0.00     0.005 C 
ENDBRANCH  13  14
ENDBRANCH   1  13
TORSDOF 6
ENDMDL
MODEL 3
REMARK VINA RESULT: -5.285772939      2.836      4.821
REMARK  6 active torsions:
REMARK  status: ('A' for Active; 'I' for Inactive)
REMARK    1  A    between atoms: C2_2  and  C3_3 
REMARK    2  A    between atoms: C3_3  and  C4_4 
REMARK    3  A    between atoms: N1_8  and  C8_9 
REMARK    4  A    between atoms: C8_9  and  C9_10 
REMARK    5  A    between atoms: C9_10  and  N2_11 
REMARK    6  A    between atoms: N2_11  and  C10_14 
ROOT
HETATM    1  C4  UNL     1     -25.150   7.400 -18.551  1.00  0.00     0.079 C 
HETATM    2  C5  UNL     1     -25.019   7.461 -17.056  1.00  0.00     0.026 C 
HETATM    3  C6  UNL     1     -25.127   6.004 -16.560  1.00  0.00     0.021 C 
HETATM    4  C7  UNL     1     -25.680   5.291 -17.773  1.00  0.00     0.117 C 
HETATM    5  N1  UNL     1     -25.104   6.042 -18.835  1.00  0.00    -0.407 N 
ENDROOT
BRANCH   5   6
HETATM    6  C8  UNL     1     -25.205   5.538 -20.125  1.00  0.00     0.144 C 
BRANCH   6   7
HETATM    7  C9  UNL     1     -23.986   4.643 -20.397  1.00  0.00     0.251 C 
BRANCH   7   8
HETATM    8  N2  UNL     1     -24.446   3.362 -20.824  1.00  0.00    -0.074 N 
ATOM      9  H22 UNL     1     -25.384   3.423 -21.220  1.00  0.00     0.277 HD
ATOM     10  H21 UNL     1     -23.938   3.047 -21.650  1.00  0.00     0.277 HD
BRANCH   8  11
HETATM   11  C10 UNL     1     -24.393   2.383 -19.785  1.00  0.00     0.228 C 
HETATM   12  C11 UNL     1     -23.202   2.629 -18.874  1.00  0.00     0.034 C 
ENDBRANCH   8  11
ENDBRANCH   7   8
ENDBRANCH   6   7
ENDBRANCH   5   6
BRANCH   1  13
HETATM   13  C3  UNL     1     -24.248   8.321 -19.231  1.00  0.00     0.024 C 
BRANCH  13  14
HETATM   14  C2  UNL     1     -24.825   9.520 -19.915  1.00  0.00    -0.002 C 
HETATM   15  C1  UNL     1     -25.775   9.300 -21.022  1.00  0.00     0.005 C 
ENDBRANCH  13  14
ENDBRANCH   1  13
TORSDOF 6
ENDMDL
MODEL 4
REMARK VINA RESULT: -5.281373149      1.237      3.133
REMARK  6 active torsions:
REMARK  status: ('A' for Active; 'I' for Inactive)
REMARK    1  A    between atoms: C2_2  and  C3_3 
REMARK    2  A    between atoms: C3_3  and  C4_4 
REMARK    3  A    between atoms: N1_8  and  C8_9 
REMARK    4  A    between atoms: C8_9  and  C9_10 
REMARK    5  A    between atoms: C9_10  and  N2_11 
REMARK    6  A    between atoms: N2_11  and  C10_14 
ROOT
HETATM    1  C4  UNL     1     -24.628   5.137 -16.918  1.00  0.00     0.079 C 
HETATM    2  C5  UNL     1     -23.764   6.261 -17.415  1.00  0.00     0.026 C 
HETATM    3  C6  UNL     1     -24.563   7.556 -17.162  1.00  0.00     0.021 C 
HETATM    4  C7  UNL     1     -25.954   7.028 -16.890  1.00  0.00     0.117 C 
HETATM    5  N1  UNL     1     -25.670   5.781 -16.267  1.00  0.00    -0.407 N 
ENDROOT
BRANCH   5   6
HETATM    6  C8  UNL     1     -26.716   5.098 -15.660  1.00  0.00     0.144 C 
BRANCH   6   7
HETATM    7  C9  UNL     1     -27.346   6.011 -14.597  1.00  0.00     0.251 C 
BRANCH   7   8
HETATM    8  N2  UNL     1     -28.719   5.652 -14.443  1.00  0.00    -0.074 N 
ATOM      9  H22 UNL     1     -28.884   4.697 -14.759  1.00  0.00     0.277 HD
ATOM     10  H21 UNL     1     -28.960   5.544 -13.458  1.00  0.00     0.277 HD
BRANCH   8  11
HETATM   11  C10 UNL     1     -29.604   6.567 -15.090  1.00  0.00     0.228 C 
HETATM   12  C11 UNL     1     -29.058   7.983 -15.023  1.00  0.00     0.034 C 
ENDBRANCH   8  11
ENDBRANCH   7   8
ENDBRANCH   6   7
ENDBRANCH   5   6
BRANCH   1  13
HETATM   13  C3  UNL     1     -23.862   4.104 -16.233  1.00  0.00     0.024 C 
BRANCH  13  14
HETATM   14  C2  UNL     1     -22.739   3.436 -16.963  1.00  0.00    -0.002 C 
HETATM   15  C1  UNL     1     -23.066   2.631 -18.155  1.00  0.00     0.005 C 
ENDBRANCH  13  14
ENDBRANCH   1  13
TORSDOF 6
ENDMDL
MODEL 5
REMARK VINA RESULT: -5.249399511      1.444      4.864
REMARK  6 active torsions:
REMARK  status: ('A' for Active; 'I' for Inactive)
REMARK    1  A    between atoms: C2_2  and  C3_3 
REMARK    2  A    between atoms: C3_3  and  C4_4 
REMARK    3  A    between atoms: N1_8  and  C8_9 
REMARK    4  A    between atoms: C8_9  and  C9_10 
REMARK    5  A    between atoms: C9_10  and  N2_11 
REMARK    6  A    between atoms: N2_11  and  C10_14 
ROOT
HETATM    1  C4  UNL     1     -26.940   6.052 -15.575  1.00  0.00     0.079 C 
HETATM    2  C5  UNL     1     -27.951   5.937 -14.469  1.00  0.00     0.026 C 
HETATM    3  C6  UNL     1     -29.105   6.889 -14.848  1.00  0.00     0.021 C 
HETATM    4  C7  UNL     1     -28.481   7.732 -15.937  1.00  0.00     0.117 C 
HETATM    5  N1  UNL     1     -27.588   6.806 -16.542  1.00  0.00    -0.407 N 
ENDROOT
BRANCH   5   6
HETATM    6  C8  UNL     1     -26.993   7.159 -17.746  1.00  0.00     0.144 C 
BRANCH   6   7
HETATM    7  C9  UNL     1     -25.939   8.243 -17.474  1.00  0.00     0.251 C 
BRANCH   7   8
HETATM    8  N2  UNL     1     -24.675   7.779 -17.945  1.00  0.00    -0.074 N 
ATOM      9  H22 UNL     1     -23.911   8.199 -17.416  1.00  0.00     0.277 HD
ATOM     10  H21 UNL     1     -24.529   6.801 -17.699  1.00  0.00     0.277 HD
BRANCH   8  11
HETATM   11  C10 UNL     1     -24.501   7.986 -19.348  1.00  0.00     0.228 C 
HETATM   12  C11 UNL     1     -24.661   9.455 -19.700  1.00  0.00     0.034 C 
ENDBRANCH   8  11
ENDBRANCH   7   8
ENDBRANCH   6   7
ENDBRANCH   5   6
BRANCH   1  13
HETATM   13  C3  UNL     1     -26.344   4.768 -15.923  1.00  0.00     0.024 C 
BRANCH  13  14
HETATM   14  C2  UNL     1     -24.854   4.632 -15.881  1.00  0.00    -0.002 C 
HETATM   15  C1  UNL     1     -24.157   4.235 -17.119  1.00  0.00     0.005 C 
ENDBRANCH  13  14
ENDBRANCH   1  13
TORSDOF 6
ENDMDL
