MODEL 1
REMARK VINA RESULT: -5.106222709      0.000      0.000
REMARK  7 active torsions:
REMARK  status: ('A' for Active; 'I' for Inactive)
REMARK    1  A    between atoms: C2_2  and  C3_3 
REMARK    2  A    between atoms: C3_3  and  N1_4 
REMARK    3  A    between atoms: N1_4  and  C4_6 
REMARK    4  A    between atoms: C4_6  and  C5_7 
REMARK    5  A    between atoms: C4_6  and  C10_12 
REMARK    6  A    between atoms: C5_7  and  C7_9 
REMARK    7  A    between atoms: C7_9  and  C8_10 
ROOT
HETATM    1  C4  UNL     1     -23.294   4.903 -17.608  1.00  0.00     0.088 C 
ENDROOT
BRANCH   1   2
HETATM    2  N1  UNL     1     -22.400   5.950 -17.859  1.00  0.00    -0.394 N 
ATOM      3  H1  UNL     1     -21.824   6.236 -17.068  1.00  0.00     0.159 HD
BRANCH   2   4
HETATM    4  C3  UNL     1     -22.195   6.643 -19.023  1.00  0.00     0.082 C 
BRANCH   4   5
HETATM    5  C2  UNL     1     -20.849   6.322 -19.567  1.00  0.00     0.006 C 
HETATM    6  C1  UNL     1     -20.670   5.277 -20.334  1.00  0.00     0.012 C 
ENDBRANCH   4   5
ENDBRANCH   2   4
ENDBRANCH   1   2
BRANCH   1   7
HETATM    7  C5  UNL     1     -22.615   3.642 -17.164  1.00  0.00     0.004 C 
HETATM    8  C6  UNL     1     -21.181   3.863 -16.811  1.00  0.00     0.012 C 
BRANCH   7   9
HETATM    9  C7  UNL     1     -22.797   2.451 -18.037  1.00  0.00     0.006 C 
BRANCH   9  10
HETATM   10  C8  UNL     1     -23.293   2.773 -19.454  1.00  0.00    -0.004 C 
HETATM   11  C9  UNL     1     -24.714   2.192 -19.528  1.00  0.00     0.005 C 
ENDBRANCH   9  10
ENDBRANCH   7   9
ENDBRANCH   1   7
BRANCH   1  12
HETATM   12  C10 UNL     1     -24.376   5.439 -16.734  1.00  0.00     0.009 A 
HETATM   13  C11 UNL     1     -25.322   4.713 -15.919  1.00  0.00     0.007 A 
HETATM   14  C12 UNL     1     -25.804   5.223 -17.247  1.00  0.00     0.007 A 
ENDBRANCH   1  12
TORSDOF 7
ENDMDL
MODEL 2
REMARK VINA RESULT: -5.018022872      1.303      3.418
REMARK  7 active torsions:
REMARK  status: ('A' for Active; 'I' for Inactive)
REMARK    1  A    between atoms: C2_2  and  C3_3 
REMARK    2  A    between atoms: C3_3  and  N1_4 
REMARK    3  A    between atoms: N1_4  and  C4_6 
REMARK    4  A    between atoms: C4_6  and  C5_7 
REMARK    5  A    between atoms: C4_6  and  C10_12 
REMARK    6  A    between atoms: C5_7  and  C7_9 
REMARK    7  A    between atoms: C7_9  and  C8_10 
ROOT
HETATM    1  C4  UNL     1     -22.042   4.721 -18.476  1.00  0.00     0.088 C 
ENDROOT
BRANCH   1   2
HETATM    2  N1  UNL     1     -20.901   5.171 -19.150  1.00  0.00    -0.394 N 
ATOM      3  H1  UNL     1     -20.633   6.138 -18.967  1.00  0.00     0.159 HD
BRANCH   2   4
HETATM    4  C3  UNL     1     -20.094   4.489 -20.024  1.00  0.00     0.082 C 
BRANCH   4   5
HETATM    5  C2  UNL     1     -19.652   5.399 -21.113  1.00  0.00     0.006 C 
HETATM    6  C1  UNL     1     -19.472   6.674 -20.885  1.00  0.00     0.012 C 
ENDBRANCH   4   5
ENDBRANCH   2   4
ENDBRANCH   1   2
BRANCH   1   7
HETATM    7  C5  UNL     1     -23.143   5.738 -18.440  1.00  0.00     0.004 C 
HETATM    8  C6  UNL     1     -22.880   6.894 -19.349  1.00  0.00     0.012 C 
BRANCH   7   9
HETATM    9  C7  UNL     1     -23.591   6.180 -17.092  1.00  0.00     0.006 C 
BRANCH   9  10
HETATM   10  C8  UNL     1     -25.003   5.715 -16.708  1.00  0.00    -0.004 C 
HETATM   11  C9  UNL     1     -24.799   4.435 -15.882  1.00  0.00     0.005 C 
ENDBRANCH   9  10
ENDBRANCH   7   9
ENDBRANCH   1   7
BRANCH   1  12
HETATM   12  C10 UNL     1     -22.375   3.372 -19.014  1.00  0.00     0.009 A 
HETATM   13  C11 UNL     1     -23.650   2.694 -19.023  1.00  0.00     0.007 A 
HETATM   14  C12 UNL     1     -22.665   2.298 -17.961  1.00  0.00     0.007 A 
ENDBRANCH   1  12
TORSDOF 7
ENDMDL
MODEL 3
REMARK VINA RESULT: -5.004060076      1.751      3.934
REMARK  7 active torsions:
REMARK  status: ('A' for Active; 'I' for Inactive)
REMARK    1  A    between atoms: C2_2  and  C3_3 
REMARK    2  A    between atoms: C3_3  and  N1_4 
REMARK    3  A    between atoms: N1_4  and  C4_6 
REMARK    4  A    between atoms: C4_6  and  C5_7 
REMARK    5  A    between atoms: C4_6  and  C10_12 
REMARK    6  A    between atoms: C5_7  and  C7_9 
REMARK    7  A    between atoms: C7_9  and  C8_10 
ROOT
HETATM    1  C4  UNL     1     -24.845   4.956 -18.460  1.00  0.00     0.088 C 
ENDROOT
BRANCH   1   2
HETATM    2  N1  UNL     1     -25.196   3.863 -19.260  1.00  0.00    -0.394 N 
ATOM      3  H1  UNL     1     -25.987   4.011 -19.887  1.00  0.00     0.159 HD
BRANCH   2   4
HETATM    4  C3  UNL     1     -24.622   2.619 -19.314  1.00  0.00     0.082 C 
BRANCH   4   5
HETATM    5  C2  UNL     1     -23.164   2.727 -19.042  1.00  0.00     0.006 C 
HETATM    6  C1  UNL     1     -22.661   2.291 -17.915  1.00  0.00     0.012 C 
ENDBRANCH   4   5
ENDBRANCH   2   4
ENDBRANCH   1   2
BRANCH   1   7
HETATM    7  C5  UNL     1     -24.818   6.252 -19.213  1.00  0.00     0.004 C 
HETATM    8  C6  UNL     1     -25.247   6.093 -20.635  1.00  0.00     0.012 C 
BRANCH   7   9
HETATM    9  C7  UNL     1     -23.575   7.060 -19.093  1.00  0.00     0.006 C 
BRANCH   9  10
HETATM   10  C8  UNL     1     -22.440   6.369 -18.325  1.00  0.00    -0.004 C 
HETATM   11  C9  UNL     1     -21.293   6.225 -19.337  1.00  0.00     0.005 C 
ENDBRANCH   9  10
ENDBRANCH   7   9
ENDBRANCH   1   7
BRANCH   1  12
HETATM   12  C10 UNL     1     -25.686   4.898 -17.230  1.00  0.00     0.009 A 
HETATM   13  C11 UNL     1     -25.722   5.818 -16.117  1.00  0.00     0.007 A 
HETATM   14  C12 UNL     1     -24.939   4.548 -15.939  1.00  0.00     0.007 A 
ENDBRANCH   1  12
TORSDOF 7
ENDMDL
MODEL 4
REMARK VINA RESULT: -4.903755965      3.026      5.412
REMARK  7 active torsions:
REMARK  status: ('A' for Active; 'I' for Inactive)
REMARK    1  A    between atoms: C2_2  and  C3_3 
REMARK    2  A    between atoms: C3_3  and  N1_4 
REMARK    3  A    between atoms: N1_4  and  C4_6 
REMARK    4  A    between atoms: C4_6  and  C5_7 
REMARK    5  A    between atoms: C4_6  and  C10_12 
REMARK    6  A    between atoms: C5_7  and  C7_9 
REMARK    7  A    between atoms: C7_9  and  C8_10 
ROOT
HETATM    1  C4  UNL     1     -25.811   6.085 -16.723  1.00  0.00     0.088 C 
ENDROOT
BRANCH   1   2
HETATM    2  N1  UNL     1     -26.537   6.430 -17.869  1.00  0.00    -0.394 N 
ATOM      3  H1  UNL     1     -27.259   5.766 -18.149  1.00  0.00     0.159 HD
BRANCH   2   4
HETATM    4  C3  UNL     1     -26.409   7.538 -18.666  1.00  0.00     0.082 C 
BRANCH   4   5
HETATM    5  C2  UNL     1     -25.361   8.436 -18.111  1.00  0.00     0.006 C 
HETATM    6  C1  UNL     1     -24.823   9.371 -18.852  1.00  0.00     0.012 C 
ENDBRANCH   4   5
ENDBRANCH   2   4
ENDBRANCH   1   2
BRANCH   1   7
HETATM    7  C5  UNL     1     -26.668   5.957 -15.499  1.00  0.00     0.004 C 
HETATM    8  C6  UNL     1     -27.479   4.703 -15.502  1.00  0.00     0.012 C 
BRANCH   7   9
HETATM    9  C7  UNL     1     -27.485   7.147 -15.137  1.00  0.00     0.006 C 
BRANCH   9  10
HETATM   10  C8  UNL     1     -28.938   6.828 -14.760  1.00  0.00    -0.004 C 
HETATM   11  C9  UNL     1     -29.781   7.926 -15.428  1.00  0.00     0.005 C 
ENDBRANCH   9  10
ENDBRANCH   7   9
ENDBRANCH   1   7
BRANCH   1  12
HETATM   12  C10 UNL     1     -24.946   4.924 -17.075  1.00  0.00     0.009 A 
HETATM   13  C11 UNL     1     -24.010   4.209 -16.239  1.00  0.00     0.007 A 
HETATM   14  C12 UNL     1     -23.449   5.230 -17.188  1.00  0.00     0.007 A 
ENDBRANCH   1  12
TORSDOF 7
ENDMDL
MODEL 5
REMARK VINA RESULT: -4.899615891      1.691      3.883
REMARK  7 active torsions:
REMARK  status: ('A' for Active; 'I' for Inactive)
REMARK    1  A    between atoms: C2_2  and  C3_3 
REMARK    2  A    between atoms: C3_3  and  N1_4 
REMARK    3  A    between atoms: N1_4  and  C4_6 
REMARK    4  A    between atoms: C4_6  and  C5_7 
REMARK    5  A    between atoms: C4_6  and  C10_12 
REMARK    6  A    between atoms: C5_7  and  C7_9 
REMARK    7  A    between atoms: C7_9  and  C8_10 
ROOT
HETATM    1  C4  UNL     1     -22.619   4.345 -19.508  1.00  0.00     0.088 C 
ENDROOT
BRANCH   1   2
HETATM    2  N1  UNL     1     -23.571   4.671 -20.480  1.00  0.00    -0.394 N 
ATOM      3  H1  UNL     1     -23.559   4.093 -21.320  1.00  0.00     0.159 HD
BRANCH   2   4
HETATM    4  C3  UNL     1     -24.519   5.661 -20.455  1.00  0.00     0.082 C 
BRANCH   4   5
HETATM    5  C2  UNL     1     -24.345   6.491 -19.234  1.00  0.00     0.006 C 
HETATM    6  C1  UNL     1     -23.977   7.744 -19.325  1.00  0.00     0.012 C 
ENDBRANCH   4   5
ENDBRANCH   2   4
ENDBRANCH   1   2
BRANCH   1   7
HETATM    7  C5  UNL     1     -22.797   2.966 -18.947  1.00  0.00     0.004 C 
HETATM    8  C6  UNL     1     -24.007   2.282 -19.492  1.00  0.00     0.012 C 
BRANCH   7   9
HETATM    9  C7  UNL     1     -22.704   2.838 -17.467  1.00  0.00     0.006 C 
BRANCH   9  10
HETATM   10  C8  UNL     1     -22.792   4.169 -16.708  1.00  0.00    -0.004 C 
HETATM   11  C9  UNL     1     -24.228   4.234 -16.165  1.00  0.00     0.005 C 
ENDBRANCH   9  10
ENDBRANCH   7   9
ENDBRANCH   1   7
BRANCH   1  12
HETATM   12  C10 UNL     1     -21.279   4.688 -20.064  1.00  0.00     0.009 A 
HETATM   13  C11 UNL     1     -19.973   4.370 -19.534  1.00  0.00     0.007 A 
HETATM   14  C12 UNL     1     -20.499   5.756 -19.290  1.00  0.00     0.007 A 
ENDBRANCH   1  12
TORSDOF 7
ENDMDL
