MODEL 1
REMARK VINA RESULT: -5.488380343      0.000      0.000
REMARK  7 active torsions:
REMARK  status: ('A' for Active; 'I' for Inactive)
REMARK    1  A    between atoms: C2_2  and  C3_3 
REMARK    2  A    between atoms: C3_3  and  O1_4 
REMARK    3  A    between atoms: C3_3  and  C4_6 
REMARK    4  A    between atoms: C4_6  and  C5_7 
REMARK    5  A    between atoms: C5_7  and  C8_10 
REMARK    6  A    between atoms: C8_10  and  C9_11 
REMARK    7  A    between atoms: C9_11  and  C10_12 
ROOT
HETATM    1  C5  UNL     1     -24.046   4.524 -17.170  1.00  0.00    -0.045 C 
HETATM    2  C6  UNL     1     -23.077   3.360 -17.144  1.00  0.00     0.015 C 
HETATM    3  C7  UNL     1     -24.737   4.421 -15.779  1.00  0.00     0.015 C 
ENDROOT
BRANCH   1   4
HETATM    4  C4  UNL     1     -25.082   4.225 -18.182  1.00  0.00     0.044 C 
BRANCH   4   5
HETATM    5  C3  UNL     1     -24.737   3.401 -19.354  1.00  0.00     0.141 C 
BRANCH   5   6
HETATM    6  C2  UNL     1     -24.532   4.128 -20.630  1.00  0.00    -0.006 C 
HETATM    7  C1  UNL     1     -24.936   5.385 -20.717  1.00  0.00     0.009 C 
ENDBRANCH   5   6
BRANCH   5   8
HETATM    8  O1  UNL     1     -25.864   2.569 -19.592  1.00  0.00    -0.392 OA
ATOM      9  H1  UNL     1     -25.675   1.768 -19.117  1.00  0.00     0.210 HD
ENDBRANCH   5   8
ENDBRANCH   4   5
ENDBRANCH   1   4
BRANCH   1  10
HETATM   10  C8  UNL     1     -23.451   5.867 -17.203  1.00  0.00     0.009 C 
BRANCH  10  11
HETATM   11  C9  UNL     1     -22.027   6.025 -17.556  1.00  0.00     0.005 C 
BRANCH  11  12
HETATM   12  C10 UNL     1     -21.765   6.381 -18.981  1.00  0.00    -0.014 A 
HETATM   13  C11 UNL     1     -21.201   5.390 -19.892  1.00  0.00     0.005 A 
HETATM   14  C12 UNL     1     -20.364   6.528 -19.479  1.00  0.00     0.005 A 
ENDBRANCH  11  12
ENDBRANCH  10  11
ENDBRANCH   1  10
TORSDOF 7
ENDMDL
MODEL 2
REMARK VINA RESULT: -5.410803954      3.110      4.128
REMARK  7 active torsions:
REMARK  status: ('A' for Active; 'I' for Inactive)
REMARK    1  A    between atoms: C2_2  and  C3_3 
REMARK    2  A    between atoms: C3_3  and  O1_4 
REMARK    3  A    between atoms: C3_3  and  C4_6 
REMARK    4  A    between atoms: C4_6  and  C5_7 
REMARK    5  A    between atoms: C5_7  and  C8_10 
REMARK    6  A    between atoms: C8_10  and  C9_11 
REMARK    7  A    between atoms: C9_11  and  C10_12 
ROOT
HETATM    1  C5  UNL     1     -24.815   5.344 -16.983  1.00  0.00    -0.045 C 
HETATM    2  C6  UNL     1     -25.298   4.612 -18.218  1.00  0.00     0.015 C 
HETATM    3  C7  UNL     1     -24.001   4.248 -16.236  1.00  0.00     0.015 C 
ENDROOT
BRANCH   1   4
HETATM    4  C4  UNL     1     -25.996   5.642 -16.145  1.00  0.00     0.044 C 
BRANCH   4   5
HETATM    5  C3  UNL     1     -27.192   6.243 -16.761  1.00  0.00     0.141 C 
BRANCH   5   6
HETATM    6  C2  UNL     1     -27.532   7.620 -16.329  1.00  0.00    -0.006 C 
HETATM    7  C1  UNL     1     -28.622   7.805 -15.600  1.00  0.00     0.009 C 
ENDBRANCH   5   6
BRANCH   5   8
HETATM    8  O1  UNL     1     -28.291   5.451 -16.335  1.00  0.00    -0.392 OA
ATOM      9  H1  UNL     1     -28.108   4.583 -16.676  1.00  0.00     0.210 HD
ENDBRANCH   5   8
ENDBRANCH   4   5
ENDBRANCH   1   4
BRANCH   1  10
HETATM   10  C8  UNL     1     -23.863   6.442 -17.206  1.00  0.00     0.009 C 
BRANCH  10  11
HETATM   11  C9  UNL     1     -23.831   7.125 -18.514  1.00  0.00     0.005 C 
BRANCH  11  12
HETATM   12  C10 UNL     1     -24.704   8.330 -18.618  1.00  0.00    -0.014 A 
HETATM   13  C11 UNL     1     -25.781   8.371 -19.604  1.00  0.00     0.005 A 
HETATM   14  C12 UNL     1     -24.606   9.235 -19.803  1.00  0.00     0.005 A 
ENDBRANCH  11  12
ENDBRANCH  10  11
ENDBRANCH   1  10
TORSDOF 7
ENDMDL
MODEL 3
REMARK VINA RESULT: -5.368490605      1.161      1.907
REMARK  7 active torsions:
REMARK  status: ('A' for Active; 'I' for Inactive)
REMARK    1  A    between atoms: C2_2  and  C3_3 
REMARK    2  A    between atoms: C3_3  and  O1_4 
REMARK    3  A    between atoms: C3_3  and  C4_6 
REMARK    4  A    between atoms: C4_6  and  C5_7 
REMARK    5  A    between atoms: C5_7  and  C8_10 
REMARK    6  A    between atoms: C8_10  and  C9_11 
REMARK    7  A    between atoms: C9_11  and  C10_12 
ROOT
HETATM    1  C5  UNL     1     -24.282   5.602 -17.285  1.00  0.00    -0.045 C 
HETATM    2  C6  UNL     1     -24.597   4.701 -16.109  1.00  0.00     0.015 C 
HETATM    3  C7  UNL     1     -25.165   6.852 -16.998  1.00  0.00     0.015 C 
ENDROOT
BRANCH   1   4
HETATM    4  C4  UNL     1     -24.830   4.965 -18.501  1.00  0.00     0.044 C 
BRANCH   4   5
HETATM    5  C3  UNL     1     -24.837   3.495 -18.611  1.00  0.00     0.141 C 
BRANCH   5   6
HETATM    6  C2  UNL     1     -23.616   2.873 -19.177  1.00  0.00    -0.006 C 
HETATM    7  C1  UNL     1     -22.683   2.437 -18.346  1.00  0.00     0.009 C 
ENDBRANCH   5   6
BRANCH   5   8
HETATM    8  O1  UNL     1     -25.864   3.178 -19.540  1.00  0.00    -0.392 OA
ATOM      9  H1  UNL     1     -25.640   3.668 -20.323  1.00  0.00     0.210 HD
ENDBRANCH   5   8
ENDBRANCH   4   5
ENDBRANCH   1   4
BRANCH   1  10
HETATM   10  C8  UNL     1     -22.907   6.115 -17.364  1.00  0.00     0.009 C 
BRANCH  10  11
HETATM   11  C9  UNL     1     -22.345   6.496 -18.674  1.00  0.00     0.005 C 
BRANCH  11  12
HETATM   12  C10 UNL     1     -21.024   5.884 -18.996  1.00  0.00    -0.014 A 
HETATM   13  C11 UNL     1     -20.185   6.462 -20.043  1.00  0.00     0.005 A 
HETATM   14  C12 UNL     1     -20.820   5.157 -20.285  1.00  0.00     0.005 A 
ENDBRANCH  11  12
ENDBRANCH  10  11
ENDBRANCH   1  10
TORSDOF 7
ENDMDL
MODEL 4
REMARK VINA RESULT: -5.338253321      2.952      5.079
REMARK  7 active torsions:
REMARK  status: ('A' for Active; 'I' for Inactive)
REMARK    1  A    between atoms: C2_2  and  C3_3 
REMARK    2  A    between atoms: C3_3  and  O1_4 
REMARK    3  A    between atoms: C3_3  and  C4_6 
REMARK    4  A    between atoms: C4_6  and  C5_7 
REMARK    5  A    between atoms: C5_7  and  C8_10 
REMARK    6  A    between atoms: C8_10  and  C9_11 
REMARK    7  A    between atoms: C9_11  and  C10_12 
ROOT
HETATM    1  C5  UNL     1     -25.503   5.465 -17.079  1.00  0.00    -0.045 C 
HETATM    2  C6  UNL     1     -24.649   6.706 -16.923  1.00  0.00     0.015 C 
HETATM    3  C7  UNL     1     -24.861   4.481 -16.057  1.00  0.00     0.015 C 
ENDROOT
BRANCH   1   4
HETATM    4  C4  UNL     1     -25.247   4.907 -18.424  1.00  0.00     0.044 C 
BRANCH   4   5
HETATM    5  C3  UNL     1     -24.998   3.463 -18.577  1.00  0.00     0.141 C 
BRANCH   5   6
HETATM    6  C2  UNL     1     -23.740   3.082 -19.262  1.00  0.00    -0.006 C 
HETATM    7  C1  UNL     1     -22.728   2.641 -18.532  1.00  0.00     0.009 C 
ENDBRANCH   5   6
BRANCH   5   8
HETATM    8  O1  UNL     1     -26.030   2.976 -19.424  1.00  0.00    -0.392 OA
ATOM      9  H1  UNL     1     -26.323   2.173 -19.009  1.00  0.00     0.210 HD
ENDBRANCH   5   8
ENDBRANCH   4   5
ENDBRANCH   1   4
BRANCH   1  10
HETATM   10  C8  UNL     1     -26.908   5.584 -16.663  1.00  0.00     0.009 C 
BRANCH  10  11
HETATM   11  C9  UNL     1     -27.526   6.919 -16.555  1.00  0.00     0.005 C 
BRANCH  11  12
HETATM   12  C10 UNL     1     -28.131   7.229 -15.227  1.00  0.00    -0.014 A 
HETATM   13  C11 UNL     1     -29.350   6.547 -14.800  1.00  0.00     0.005 A 
HETATM   14  C12 UNL     1     -29.421   7.978 -15.139  1.00  0.00     0.005 A 
ENDBRANCH  11  12
ENDBRANCH  10  11
ENDBRANCH   1  10
TORSDOF 7
ENDMDL
MODEL 5
REMARK VINA RESULT: -5.250112674      2.024      2.650
REMARK  7 active torsions:
REMARK  status: ('A' for Active; 'I' for Inactive)
REMARK    1  A    between atoms: C2_2  and  C3_3 
REMARK    2  A    between atoms: C3_3  and  O1_4 
REMARK    3  A    between atoms: C3_3  and  C4_6 
REMARK    4  A    between atoms: C4_6  and  C5_7 
REMARK    5  A    between atoms: C5_7  and  C8_10 
REMARK    6  A    between atoms: C8_10  and  C9_11 
REMARK    7  A    between atoms: C9_11  and  C10_12 
ROOT
HETATM    1  C5  UNL     1     -24.916   5.454 -16.886  1.00  0.00    -0.045 C 
HETATM    2  C6  UNL     1     -24.071   4.338 -16.309  1.00  0.00     0.015 C 
HETATM    3  C7  UNL     1     -25.983   5.680 -15.775  1.00  0.00     0.015 C 
ENDROOT
BRANCH   1   4
HETATM    4  C4  UNL     1     -25.634   4.916 -18.061  1.00  0.00     0.044 C 
BRANCH   4   5
HETATM    5  C3  UNL     1     -24.976   3.914 -18.918  1.00  0.00     0.141 C 
BRANCH   5   6
HETATM    6  C2  UNL     1     -24.353   4.422 -20.164  1.00  0.00    -0.006 C 
HETATM    7  C1  UNL     1     -23.105   4.862 -20.115  1.00  0.00     0.009 C 
ENDBRANCH   5   6
BRANCH   5   8
HETATM    8  O1  UNL     1     -26.007   3.043 -19.362  1.00  0.00    -0.392 OA
ATOM      9  H1  UNL     1     -26.781   3.328 -18.892  1.00  0.00     0.210 HD
ENDBRANCH   5   8
ENDBRANCH   4   5
ENDBRANCH   1   4
BRANCH   1  10
HETATM   10  C8  UNL     1     -24.254   6.756 -17.049  1.00  0.00     0.009 C 
BRANCH  10  11
HETATM   11  C9  UNL     1     -24.943   7.838 -17.779  1.00  0.00     0.005 C 
BRANCH  11  12
HETATM   12  C10 UNL     1     -24.315   8.225 -19.075  1.00  0.00    -0.014 A 
HETATM   13  C11 UNL     1     -24.738   9.444 -19.760  1.00  0.00     0.005 A 
HETATM   14  C12 UNL     1     -25.093   8.142 -20.348  1.00  0.00     0.005 A 
ENDBRANCH  11  12
ENDBRANCH  10  11
ENDBRANCH   1  10
TORSDOF 7
ENDMDL
