MODEL 1
REMARK VINA RESULT: -5.232404923      0.000      0.000
REMARK  6 active torsions:
REMARK  status: ('A' for Active; 'I' for Inactive)
REMARK    1  A    between atoms: C2_2  and  C3_3 
REMARK    2  A    between atoms: C3_3  and  C4_4 
REMARK    3  A    between atoms: C6_6  and  N1_7 
REMARK    4  A    between atoms: N1_7  and  C7_10 
REMARK    5  A    between atoms: C7_10  and  C8_11 
REMARK    6  A    between atoms: C8_11  and  C9_12 
ROOT
HETATM    1  N1  UNL     1     -24.373   4.114 -20.963  1.00  0.00    -0.070 N 
ATOM      2  H11 UNL     1     -24.547   3.661 -21.860  1.00  0.00     0.277 HD
ATOM      3  H12 UNL     1     -23.355   4.106 -21.026  1.00  0.00     0.277 HD
ENDROOT
BRANCH   1   4
HETATM    4  C6  UNL     1     -24.904   3.383 -19.814  1.00  0.00     0.190 A 
HETATM    5  C4  UNL     1     -23.996   2.620 -18.904  1.00  0.00     0.018 A 
HETATM    6  C5  UNL     1     -24.614   1.882 -20.015  1.00  0.00     0.040 A 
BRANCH   5   7
HETATM    7  C3  UNL     1     -22.561   3.062 -18.844  1.00  0.00     0.006 C 
BRANCH   7   8
HETATM    8  C2  UNL     1     -22.161   3.352 -17.383  1.00  0.00    -0.004 C 
HETATM    9  C1  UNL     1     -23.276   4.044 -16.624  1.00  0.00     0.005 C 
ENDBRANCH   7   8
ENDBRANCH   5   7
ENDBRANCH   1   4
BRANCH   1  10
HETATM   10  C7  UNL     1     -24.957   5.465 -20.848  1.00  0.00     0.233 C 
BRANCH  10  11
HETATM   11  C8  UNL     1     -25.150   5.821 -19.406  1.00  0.00     0.036 C 
BRANCH  11  12
HETATM   12  C9  UNL     1     -24.316   6.991 -18.998  1.00  0.00    -0.043 A 
HETATM   13  C10 UNL     1     -22.820   6.757 -19.220  1.00  0.00     0.015 C 
HETATM   14  C11 UNL     1     -24.584   7.463 -17.587  1.00  0.00     0.010 A 
HETATM   15  C12 UNL     1     -24.771   8.354 -18.808  1.00  0.00     0.010 A 
ENDBRANCH  11  12
ENDBRANCH  10  11
ENDBRANCH   1  10
TORSDOF 6
ENDMDL
MODEL 2
REMARK VINA RESULT: -5.163133248      2.392      3.904
REMARK  6 active torsions:
REMARK  status: ('A' for Active; 'I' for Inactive)
REMARK    1  A    between atoms: C2_2  and  C3_3 
REMARK    2  A    between atoms: C3_3  and  C4_4 
REMARK    3  A    between atoms: C6_6  and  N1_7 
REMARK    4  A    between atoms: N1_7  and  C7_10 
REMARK    5  A    between atoms: C7_10  and  C8_11 
REMARK    6  A    between atoms: C8_11  and  C9_12 
ROOT
HETATM    1  N1  UNL     1     -23.444   5.652 -17.509  1.00  0.00    -0.070 N 
ATOM      2  H11 UNL     1     -22.551   5.407 -17.083  1.00  0.00     0.277 HD
ATOM      3  H12 UNL     1     -23.587   6.516 -16.988  1.00  0.00     0.277 HD
ENDROOT
BRANCH   1   4
HETATM    4  C6  UNL     1     -24.494   4.654 -17.308  1.00  0.00     0.190 A 
HETATM    5  C4  UNL     1     -25.632   4.916 -16.375  1.00  0.00     0.018 A 
HETATM    6  C5  UNL     1     -24.464   4.208 -15.832  1.00  0.00     0.040 A 
BRANCH   5   7
HETATM    7  C3  UNL     1     -25.980   6.354 -16.109  1.00  0.00     0.006 C 
BRANCH   7   8
HETATM    8  C2  UNL     1     -27.389   6.664 -16.653  1.00  0.00    -0.004 C 
HETATM    9  C1  UNL     1     -28.021   7.839 -15.934  1.00  0.00     0.005 C 
ENDBRANCH   7   8
ENDBRANCH   5   7
ENDBRANCH   1   4
BRANCH   1  10
HETATM   10  C7  UNL     1     -23.380   5.836 -18.973  1.00  0.00     0.233 C 
BRANCH  10  11
HETATM   11  C8  UNL     1     -23.281   7.294 -19.304  1.00  0.00     0.036 C 
BRANCH  11  12
HETATM   12  C9  UNL     1     -24.614   7.968 -19.284  1.00  0.00    -0.043 A 
HETATM   13  C10 UNL     1     -25.713   7.124 -19.934  1.00  0.00     0.015 C 
HETATM   14  C11 UNL     1     -24.595   9.365 -19.861  1.00  0.00     0.010 A 
HETATM   15  C12 UNL     1     -25.015   9.066 -18.429  1.00  0.00     0.010 A 
ENDBRANCH  11  12
ENDBRANCH  10  11
ENDBRANCH   1  10
TORSDOF 6
ENDMDL
MODEL 3
REMARK VINA RESULT: -5.148013719      3.445      4.886
REMARK  6 active torsions:
REMARK  status: ('A' for Active; 'I' for Inactive)
REMARK    1  A    between atoms: C2_2  and  C3_3 
REMARK    2  A    between atoms: C3_3  and  C4_4 
REMARK    3  A    between atoms: C6_6  and  N1_7 
REMARK    4  A    between atoms: N1_7  and  C7_10 
REMARK    5  A    between atoms: C7_10  and  C8_11 
REMARK    6  A    between atoms: C8_11  and  C9_12 
ROOT
HETATM    1  N1  UNL     1     -25.866   7.107 -16.500  1.00  0.00    -0.070 N 
ATOM      2  H11 UNL     1     -24.849   7.067 -16.440  1.00  0.00     0.277 HD
ATOM      3  H12 UNL     1     -26.021   7.487 -15.566  1.00  0.00     0.277 HD
ENDROOT
BRANCH   1   4
HETATM    4  C6  UNL     1     -26.501   5.810 -16.727  1.00  0.00     0.190 A 
HETATM    5  C4  UNL     1     -27.215   5.100 -15.622  1.00  0.00     0.018 A 
HETATM    6  C5  UNL     1     -25.801   4.762 -15.838  1.00  0.00     0.040 A 
BRANCH   5   7
HETATM    7  C3  UNL     1     -27.746   5.947 -14.499  1.00  0.00     0.006 C 
BRANCH   7   8
HETATM    8  C2  UNL     1     -29.181   6.410 -14.823  1.00  0.00    -0.004 C 
HETATM    9  C1  UNL     1     -29.245   7.904 -15.068  1.00  0.00     0.005 C 
ENDBRANCH   7   8
ENDBRANCH   5   7
ENDBRANCH   1   4
BRANCH   1  10
HETATM   10  C7  UNL     1     -26.371   7.965 -17.589  1.00  0.00     0.233 C 
BRANCH  10  11
HETATM   11  C8  UNL     1     -25.996   7.383 -18.918  1.00  0.00     0.036 C 
BRANCH  11  12
HETATM   12  C9  UNL     1     -24.806   8.061 -19.516  1.00  0.00    -0.043 A 
HETATM   13  C10 UNL     1     -23.508   7.285 -19.288  1.00  0.00     0.015 C 
HETATM   14  C11 UNL     1     -24.655   9.504 -19.090  1.00  0.00     0.010 A 
HETATM   15  C12 UNL     1     -24.818   9.082 -20.544  1.00  0.00     0.010 A 
ENDBRANCH  11  12
ENDBRANCH  10  11
ENDBRANCH   1  10
TORSDOF 6
ENDMDL
MODEL 4
REMARK VINA RESULT: -5.131134685      2.471      3.920
REMARK  6 active torsions:
REMARK  status: ('A' for Active; 'I' for Inactive)
REMARK    1  A    between atoms: C2_2  and  C3_3 
REMARK    2  A    between atoms: C3_3  and  C4_4 
REMARK    3  A    between atoms: C6_6  and  N1_7 
REMARK    4  A    between atoms: N1_7  and  C7_10 
REMARK    5  A    between atoms: C7_10  and  C8_11 
REMARK    6  A    between atoms: C8_11  and  C9_12 
ROOT
HETATM    1  N1  UNL     1     -20.678   3.423 -17.248  1.00  0.00    -0.070 N 
ATOM      2  H11 UNL     1     -20.295   2.558 -16.867  1.00  0.00     0.277 HD
ATOM      3  H12 UNL     1     -20.919   3.846 -16.352  1.00  0.00     0.277 HD
ENDROOT
BRANCH   1   4
HETATM    4  C6  UNL     1     -21.821   3.226 -18.139  1.00  0.00     0.190 A 
HETATM    5  C4  UNL     1     -23.215   3.486 -17.668  1.00  0.00     0.018 A 
HETATM    6  C5  UNL     1     -22.709   2.111 -17.553  1.00  0.00     0.040 A 
BRANCH   5   7
HETATM    7  C3  UNL     1     -23.382   4.450 -16.527  1.00  0.00     0.006 C 
BRANCH   7   8
HETATM    8  C2  UNL     1     -24.491   5.469 -16.857  1.00  0.00    -0.004 C 
HETATM    9  C1  UNL     1     -25.188   5.136 -18.162  1.00  0.00     0.005 C 
ENDBRANCH   7   8
ENDBRANCH   5   7
ENDBRANCH   1   4
BRANCH   1  10
HETATM   10  C7  UNL     1     -19.715   4.208 -18.044  1.00  0.00     0.233 C 
BRANCH  10  11
HETATM   11  C8  UNL     1     -20.265   4.461 -19.415  1.00  0.00     0.036 C 
BRANCH  11  12
HETATM   12  C9  UNL     1     -20.525   5.911 -19.660  1.00  0.00    -0.043 A 
HETATM   13  C10 UNL     1     -19.598   6.506 -20.721  1.00  0.00     0.015 C 
HETATM   14  C11 UNL     1     -20.513   6.749 -18.402  1.00  0.00     0.010 A 
HETATM   15  C12 UNL     1     -21.726   6.645 -19.316  1.00  0.00     0.010 A 
ENDBRANCH  11  12
ENDBRANCH  10  11
ENDBRANCH   1  10
TORSDOF 6
ENDMDL
MODEL 5
REMARK VINA RESULT: -5.098716656      2.629      3.317
REMARK  6 active torsions:
REMARK  status: ('A' for Active; 'I' for Inactive)
REMARK    1  A    between atoms: C2_2  and  C3_3 
REMARK    2  A    between atoms: C3_3  and  C4_4 
REMARK    3  A    between atoms: C6_6  and  N1_7 
REMARK    4  A    between atoms: N1_7  and  C7_10 
REMARK    5  A    between atoms: C7_10  and  C8_11 
REMARK    6  A    between atoms: C8_11  and  C9_12 
ROOT
HETATM    1  N1  UNL     1     -25.964   5.667 -17.730  1.00  0.00    -0.070 N 
ATOM      2  H11 UNL     1     -26.640   4.940 -17.496  1.00  0.00     0.277 HD
ATOM      3  H12 UNL     1     -25.651   5.254 -18.608  1.00  0.00     0.277 HD
ENDROOT
BRANCH   1   4
HETATM    4  C6  UNL     1     -24.901   5.834 -16.739  1.00  0.00     0.190 A 
HETATM    5  C4  UNL     1     -23.476   5.548 -17.087  1.00  0.00     0.018 A 
HETATM    6  C5  UNL     1     -24.254   4.458 -16.482  1.00  0.00     0.040 A 
BRANCH   5   7
HETATM    7  C3  UNL     1     -23.095   5.645 -18.537  1.00  0.00     0.006 C 
BRANCH   7   8
HETATM    8  C2  UNL     1     -21.804   6.475 -18.687  1.00  0.00    -0.004 C 
HETATM    9  C1  UNL     1     -20.825   6.197 -17.564  1.00  0.00     0.005 C 
ENDBRANCH   7   8
ENDBRANCH   5   7
ENDBRANCH   1   4
BRANCH   1  10
HETATM   10  C7  UNL     1     -26.553   7.012 -17.875  1.00  0.00     0.233 C 
BRANCH  10  11
HETATM   11  C8  UNL     1     -26.308   7.536 -19.257  1.00  0.00     0.036 C 
BRANCH  11  12
HETATM   12  C9  UNL     1     -25.264   8.605 -19.278  1.00  0.00    -0.043 A 
HETATM   13  C10 UNL     1     -25.067   9.265 -17.911  1.00  0.00     0.015 C 
HETATM   14  C11 UNL     1     -25.484   9.644 -20.352  1.00  0.00     0.010 A 
HETATM   15  C12 UNL     1     -24.230   8.784 -20.276  1.00  0.00     0.010 A 
ENDBRANCH  11  12
ENDBRANCH  10  11
ENDBRANCH   1  10
TORSDOF 6
ENDMDL
