MODEL 1
REMARK VINA RESULT: -8.052073112      0.000      0.000
REMARK  9 active torsions:
REMARK  status: ('A' for Active; 'I' for Inactive)
REMARK    1  A    between atoms: O1_2  and  C2_3 
REMARK    2  A    between atoms: C2_3  and  C3_5 
REMARK    3  A    between atoms: C6_8  and  N1_9 
REMARK    4  A    between atoms: N1_9  and  N2_11 
REMARK    5  A    between atoms: N2_11  and  C7_13 
REMARK    6  A    between atoms: C7_13  and  C10_19 
REMARK    7  A    between atoms: N3_14  and  C8_16 
REMARK    8  A    between atoms: C11_25  and  N7_26 
REMARK    9  A    between atoms: C12_29  and  N8_30 
ROOT
HETATM    1  C8  UNL     1     113.173  96.335  24.275  1.00  0.00     0.245 C 
HETATM    2  C9  UNL     1     113.858  95.486  25.267  1.00  0.00     0.078 C 
HETATM    3  N4  UNL     1     114.387  94.809  26.059  1.00  0.00    -0.196 NA
ENDROOT
BRANCH   1   4
HETATM    4  N3  UNL     1     112.788  95.556  23.126  1.00  0.00    -0.361 N 
HETATM    5  C7  UNL     1     111.571  95.196  22.952  1.00  0.00     0.149 C 
ATOM      6  H3  UNL     1     113.494  95.288  22.441  1.00  0.00     0.162 HD
BRANCH   5   7
HETATM    7  N2  UNL     1     110.606  95.570  23.900  1.00  0.00    -0.283 N 
ATOM      8  H2  UNL     1     110.583  96.557  24.156  1.00  0.00     0.188 HD
BRANCH   7   9
HETATM    9  N1  UNL     1     109.675  94.746  24.531  1.00  0.00    -0.297 N 
ATOM     10  H1  UNL     1     108.713  95.051  24.682  1.00  0.00     0.187 HD
BRANCH   9  11
HETATM   11  C6  UNL     1     110.126  93.441  24.963  1.00  0.00     0.081 A 
HETATM   12  C5  UNL     1     110.993  93.378  26.070  1.00  0.00     0.034 A 
HETATM   13  C4  UNL     1     111.452  92.164  26.524  1.00  0.00     0.020 A 
HETATM   14  C3  UNL     1     111.089  90.983  25.922  1.00  0.00     0.042 A 
HETATM   15  C13 UNL     1     110.241  91.078  24.839  1.00  0.00     0.056 A 
HETATM   16  C12 UNL     1     109.751  92.282  24.345  1.00  0.00     0.131 A 
BRANCH  14  17
HETATM   17  C2  UNL     1     111.583  89.717  26.437  1.00  0.00     0.293 C 
HETATM   18  O2  UNL     1     111.547  88.634  25.806  1.00  0.00    -0.259 OA
BRANCH  17  19
HETATM   19  O1  UNL     1     112.127  89.693  27.701  1.00  0.00    -0.323 OA
HETATM   20  C1  UNL     1     112.534  88.554  28.414  1.00  0.00     0.213 C 
ENDBRANCH  17  19
ENDBRANCH  14  17
BRANCH  16  21
HETATM   21  N8  UNL     1     108.893  92.334  23.222  1.00  0.00    -0.113 N 
HETATM   22  O4  UNL     1     107.905  93.041  23.191  1.00  0.00    -0.532 OA
HETATM   23  O5  UNL     1     109.207  91.557  22.136  1.00  0.00    -0.532 OA
ENDBRANCH  16  21
ENDBRANCH   9  11
ENDBRANCH   7   9
ENDBRANCH   5   7
BRANCH   5  24
HETATM   24  C10 UNL     1     111.229  94.420  21.754  1.00  0.00     0.146 A 
HETATM   25  N5  UNL     1     111.845  93.261  21.376  1.00  0.00    -0.234 N 
HETATM   26  O3  UNL     1     111.294  92.832  20.288  1.00  0.00    -0.155 OA
ATOM     27  H5  UNL     1     112.613  92.809  21.872  1.00  0.00     0.197 HD
HETATM   28  N6  UNL     1     110.355  93.641  19.934  1.00  0.00    -0.224 N 
HETATM   29  C11 UNL     1     110.261  94.682  20.833  1.00  0.00     0.154 A 
ATOM     30  H6  UNL     1     109.767  93.528  19.108  1.00  0.00     0.198 HD
BRANCH  29  31
HETATM   31  N7  UNL     1     109.404  95.635  20.727  1.00  0.00    -0.382 N 
ATOM     32  H72 UNL     1     109.357  96.423  21.373  1.00  0.00     0.157 HD
ATOM     33  H71 UNL     1     108.659  95.815  20.055  1.00  0.00     0.157 HD
ENDBRANCH  29  31
ENDBRANCH   5  24
ENDBRANCH   1   4
TORSDOF 9
ENDMDL
MODEL 2
REMARK VINA RESULT: -7.971772294      0.593      1.157
REMARK  9 active torsions:
REMARK  status: ('A' for Active; 'I' for Inactive)
REMARK    1  A    between atoms: O1_2  and  C2_3 
REMARK    2  A    between atoms: C2_3  and  C3_5 
REMARK    3  A    between atoms: C6_8  and  N1_9 
REMARK    4  A    between atoms: N1_9  and  N2_11 
REMARK    5  A    between atoms: N2_11  and  C7_13 
REMARK    6  A    between atoms: C7_13  and  C10_19 
REMARK    7  A    between atoms: N3_14  and  C8_16 
REMARK    8  A    between atoms: C11_25  and  N7_26 
REMARK    9  A    between atoms: C12_29  and  N8_30 
ROOT
HETATM    1  C8  UNL     1     112.897  96.327  24.263  1.00  0.00     0.245 C 
HETATM    2  C9  UNL     1     113.753  95.509  25.143  1.00  0.00     0.078 C 
HETATM    3  N4  UNL     1     114.417  94.854  25.847  1.00  0.00    -0.196 NA
ENDROOT
BRANCH   1   4
HETATM    4  N3  UNL     1     112.556  95.595  23.070  1.00  0.00    -0.361 N 
HETATM    5  C7  UNL     1     111.356  95.202  22.859  1.00  0.00     0.149 C 
ATOM      6  H3  UNL     1     113.282  95.386  22.385  1.00  0.00     0.162 HD
BRANCH   5   7
HETATM    7  N2  UNL     1     110.365  95.494  23.808  1.00  0.00    -0.283 N 
ATOM      8  H2  UNL     1     110.303  96.465  24.113  1.00  0.00     0.188 HD
BRANCH   7   9
HETATM    9  N1  UNL     1     109.454  94.607  24.382  1.00  0.00    -0.297 N 
ATOM     10  H1  UNL     1     108.459  94.828  24.434  1.00  0.00     0.187 HD
BRANCH   9  11
HETATM   11  C6  UNL     1     109.976  93.361  24.901  1.00  0.00     0.081 A 
HETATM   12  C5  UNL     1     110.837  93.421  26.012  1.00  0.00     0.034 A 
HETATM   13  C4  UNL     1     111.362  92.267  26.545  1.00  0.00     0.020 A 
HETATM   14  C3  UNL     1     111.070  91.030  26.023  1.00  0.00     0.042 A 
HETATM   15  C13 UNL     1     110.224  91.005  24.933  1.00  0.00     0.056 A 
HETATM   16  C12 UNL     1     109.670  92.144  24.360  1.00  0.00     0.131 A 
BRANCH  14  17
HETATM   17  C2  UNL     1     111.631  89.831  26.621  1.00  0.00     0.293 C 
HETATM   18  O2  UNL     1     111.681  88.714  26.054  1.00  0.00    -0.259 OA
BRANCH  17  19
HETATM   19  O1  UNL     1     112.142  89.915  27.897  1.00  0.00    -0.323 OA
HETATM   20  C1  UNL     1     112.495  88.839  28.728  1.00  0.00     0.213 C 
ENDBRANCH  17  19
ENDBRANCH  14  17
BRANCH  16  21
HETATM   21  N8  UNL     1     108.817  92.074  23.233  1.00  0.00    -0.113 N 
HETATM   22  O4  UNL     1     107.721  92.597  23.215  1.00  0.00    -0.532 OA
HETATM   23  O5  UNL     1     109.265  91.391  22.130  1.00  0.00    -0.532 OA
ENDBRANCH  16  21
ENDBRANCH   9  11
ENDBRANCH   7   9
ENDBRANCH   5   7
BRANCH   5  24
HETATM   24  C10 UNL     1     111.059  94.476  21.617  1.00  0.00     0.146 A 
HETATM   25  N5  UNL     1     110.240  94.936  20.626  1.00  0.00    -0.234 N 
HETATM   26  O3  UNL     1     110.207  94.063  19.674  1.00  0.00    -0.155 OA
ATOM     27  H5  UNL     1     109.736  95.823  20.636  1.00  0.00     0.197 HD
HETATM   28  N6  UNL     1     110.956  93.060  19.984  1.00  0.00    -0.224 N 
HETATM   29  C11 UNL     1     111.532  93.264  21.220  1.00  0.00     0.154 A 
ATOM     30  H6  UNL     1     111.101  92.237  19.401  1.00  0.00     0.198 HD
BRANCH  29  31
HETATM   31  N7  UNL     1     112.333  92.424  21.776  1.00  0.00    -0.382 N 
ATOM     32  H72 UNL     1     112.800  92.598  22.666  1.00  0.00     0.157 HD
ATOM     33  H71 UNL     1     112.652  91.496  21.500  1.00  0.00     0.157 HD
ENDBRANCH  29  31
ENDBRANCH   5  24
ENDBRANCH   1   4
TORSDOF 9
ENDMDL
MODEL 3
REMARK VINA RESULT: -7.963636956      4.737      8.136
REMARK  9 active torsions:
REMARK  status: ('A' for Active; 'I' for Inactive)
REMARK    1  A    between atoms: O1_2  and  C2_3 
REMARK    2  A    between atoms: C2_3  and  C3_5 
REMARK    3  A    between atoms: C6_8  and  N1_9 
REMARK    4  A    between atoms: N1_9  and  N2_11 
REMARK    5  A    between atoms: N2_11  and  C7_13 
REMARK    6  A    between atoms: C7_13  and  C10_19 
REMARK    7  A    between atoms: N3_14  and  C8_16 
REMARK    8  A    between atoms: C11_25  and  N7_26 
REMARK    9  A    between atoms: C12_29  and  N8_30 
ROOT
HETATM    1  C8  UNL     1     110.003  93.056  30.845  1.00  0.00     0.245 C 
HETATM    2  C9  UNL     1     108.979  94.024  31.281  1.00  0.00     0.078 C 
HETATM    3  N4  UNL     1     108.165  94.781  31.640  1.00  0.00    -0.196 NA
ENDROOT
BRANCH   1   4
HETATM    4  N3  UNL     1     111.279  93.374  31.434  1.00  0.00    -0.361 N 
HETATM    5  C7  UNL     1     112.298  92.622  31.243  1.00  0.00     0.149 C 
ATOM      6  H3  UNL     1     111.371  94.209  32.011  1.00  0.00     0.162 HD
BRANCH   5   7
HETATM    7  N2  UNL     1     112.161  91.475  30.447  1.00  0.00    -0.283 N 
ATOM      8  H2  UNL     1     111.432  90.817  30.723  1.00  0.00     0.188 HD
BRANCH   7   9
HETATM    9  N1  UNL     1     112.909  91.131  29.321  1.00  0.00    -0.297 N 
ATOM     10  H1  UNL     1     113.865  90.783  29.406  1.00  0.00     0.187 HD
BRANCH   9  11
HETATM   11  C6  UNL     1     112.277  91.286  28.030  1.00  0.00     0.081 A 
HETATM   12  C5  UNL     1     111.829  90.125  27.373  1.00  0.00     0.034 A 
HETATM   13  C4  UNL     1     111.220  90.214  26.143  1.00  0.00     0.020 A 
HETATM   14  C3  UNL     1     111.029  91.422  25.517  1.00  0.00     0.042 A 
HETATM   15  C13 UNL     1     111.481  92.541  26.185  1.00  0.00     0.056 A 
HETATM   16  C12 UNL     1     112.101  92.500  27.428  1.00  0.00     0.131 A 
BRANCH  14  17
HETATM   17  C2  UNL     1     110.370  91.480  24.223  1.00  0.00     0.293 C 
HETATM   18  O2  UNL     1     110.969  91.486  23.122  1.00  0.00    -0.259 OA
BRANCH  17  19
HETATM   19  O1  UNL     1     108.994  91.537  24.193  1.00  0.00    -0.323 OA
HETATM   20  C1  UNL     1     108.196  91.866  23.085  1.00  0.00     0.213 C 
ENDBRANCH  17  19
ENDBRANCH  14  17
BRANCH  16  21
HETATM   21  N8  UNL     1     112.562  93.673  28.072  1.00  0.00    -0.113 N 
HETATM   22  O4  UNL     1     113.738  93.863  28.312  1.00  0.00    -0.532 OA
HETATM   23  O5  UNL     1     111.633  94.620  28.424  1.00  0.00    -0.532 OA
ENDBRANCH  16  21
ENDBRANCH   9  11
ENDBRANCH   7   9
ENDBRANCH   5   7
BRANCH   5  24
HETATM   24  C10 UNL     1     113.579  93.003  31.850  1.00  0.00     0.146 A 
HETATM   25  N5  UNL     1     114.635  93.536  31.167  1.00  0.00    -0.234 N 
HETATM   26  O3  UNL     1     115.597  93.767  32.000  1.00  0.00    -0.155 OA
ATOM     27  H5  UNL     1     114.660  93.722  30.165  1.00  0.00     0.197 HD
HETATM   28  N6  UNL     1     115.232  93.416  33.186  1.00  0.00    -0.224 N 
HETATM   29  C11 UNL     1     113.946  92.918  33.159  1.00  0.00     0.154 A 
ATOM     30  H6  UNL     1     115.809  93.496  34.022  1.00  0.00     0.198 HD
BRANCH  29  31
HETATM   31  N7  UNL     1     113.326  92.498  34.204  1.00  0.00    -0.382 N 
ATOM     32  H72 UNL     1     112.312  92.524  34.304  1.00  0.00     0.157 HD
ATOM     33  H71 UNL     1     113.656  92.085  35.076  1.00  0.00     0.157 HD
ENDBRANCH  29  31
ENDBRANCH   5  24
ENDBRANCH   1   4
TORSDOF 9
ENDMDL
MODEL 4
REMARK VINA RESULT: -7.892608649      4.877      8.258
REMARK  9 active torsions:
REMARK  status: ('A' for Active; 'I' for Inactive)
REMARK    1  A    between atoms: O1_2  and  C2_3 
REMARK    2  A    between atoms: C2_3  and  C3_5 
REMARK    3  A    between atoms: C6_8  and  N1_9 
REMARK    4  A    between atoms: N1_9  and  N2_11 
REMARK    5  A    between atoms: N2_11  and  C7_13 
REMARK    6  A    between atoms: C7_13  and  C10_19 
REMARK    7  A    between atoms: N3_14  and  C8_16 
REMARK    8  A    between atoms: C11_25  and  N7_26 
REMARK    9  A    between atoms: C12_29  and  N8_30 
ROOT
HETATM    1  C8  UNL     1     110.318  92.989  30.890  1.00  0.00     0.245 C 
HETATM    2  C9  UNL     1     109.277  93.999  31.160  1.00  0.00     0.078 C 
HETATM    3  N4  UNL     1     108.449  94.791  31.387  1.00  0.00    -0.196 NA
ENDROOT
BRANCH   1   4
HETATM    4  N3  UNL     1     111.561  93.370  31.511  1.00  0.00    -0.361 N 
HETATM    5  C7  UNL     1     112.604  92.637  31.399  1.00  0.00     0.149 C 
ATOM      6  H3  UNL     1     111.609  94.235  32.048  1.00  0.00     0.162 HD
BRANCH   5   7
HETATM    7  N2  UNL     1     112.528  91.448  30.658  1.00  0.00    -0.283 N 
ATOM      8  H2  UNL     1     111.884  90.738  31.007  1.00  0.00     0.188 HD
BRANCH   7   9
HETATM    9  N1  UNL     1     113.233  91.125  29.498  1.00  0.00    -0.297 N 
ATOM     10  H1  UNL     1     114.228  90.900  29.528  1.00  0.00     0.187 HD
BRANCH   9  11
HETATM   11  C6  UNL     1     112.498  91.122  28.253  1.00  0.00     0.081 A 
HETATM   12  C5  UNL     1     112.170  92.365  27.679  1.00  0.00     0.034 A 
HETATM   13  C4  UNL     1     111.472  92.420  26.495  1.00  0.00     0.020 A 
HETATM   14  C3  UNL     1     111.075  91.282  25.836  1.00  0.00     0.042 A 
HETATM   15  C13 UNL     1     111.410  90.080  26.424  1.00  0.00     0.056 A 
HETATM   16  C12 UNL     1     112.113  89.975  27.619  1.00  0.00     0.131 A 
BRANCH  14  17
HETATM   17  C2  UNL     1     110.351  91.379  24.580  1.00  0.00     0.293 C 
HETATM   18  O2  UNL     1     109.102  91.427  24.484  1.00  0.00    -0.259 OA
BRANCH  17  19
HETATM   19  O1  UNL     1     111.075  91.418  23.409  1.00  0.00    -0.323 OA
HETATM   20  C1  UNL     1     111.505  92.570  22.731  1.00  0.00     0.213 C 
ENDBRANCH  17  19
ENDBRANCH  14  17
BRANCH  16  21
HETATM   21  N8  UNL     1     112.424  88.720  28.193  1.00  0.00    -0.113 N 
HETATM   22  O4  UNL     1     112.661  88.589  29.378  1.00  0.00    -0.532 OA
HETATM   23  O5  UNL     1     112.446  87.623  27.369  1.00  0.00    -0.532 OA
ENDBRANCH  16  21
ENDBRANCH   9  11
ENDBRANCH   7   9
ENDBRANCH   5   7
BRANCH   5  24
HETATM   24  C10 UNL     1     113.851  93.081  32.035  1.00  0.00     0.146 A 
HETATM   25  N5  UNL     1     114.917  93.612  31.368  1.00  0.00    -0.234 N 
HETATM   26  O3  UNL     1     115.840  93.908  32.224  1.00  0.00    -0.155 OA
ATOM     27  H5  UNL     1     114.976  93.752  30.359  1.00  0.00     0.197 HD
HETATM   28  N6  UNL     1     115.439  93.602  33.411  1.00  0.00    -0.224 N 
HETATM   29  C11 UNL     1     114.169  93.066  33.359  1.00  0.00     0.154 A 
ATOM     30  H6  UNL     1     115.981  93.736  34.264  1.00  0.00     0.198 HD
BRANCH  29  31
HETATM   31  N7  UNL     1     113.520  92.678  34.399  1.00  0.00    -0.382 N 
ATOM     32  H72 UNL     1     113.311  91.699  34.598  1.00  0.00     0.157 HD
ATOM     33  H71 UNL     1     113.113  93.187  35.183  1.00  0.00     0.157 HD
ENDBRANCH  29  31
ENDBRANCH   5  24
ENDBRANCH   1   4
TORSDOF 9
ENDMDL
MODEL 5
REMARK VINA RESULT: -7.799442540      2.299      4.305
REMARK  9 active torsions:
REMARK  status: ('A' for Active; 'I' for Inactive)
REMARK    1  A    between atoms: O1_2  and  C2_3 
REMARK    2  A    between atoms: C2_3  and  C3_5 
REMARK    3  A    between atoms: C6_8  and  N1_9 
REMARK    4  A    between atoms: N1_9  and  N2_11 
REMARK    5  A    between atoms: N2_11  and  C7_13 
REMARK    6  A    between atoms: C7_13  and  C10_19 
REMARK    7  A    between atoms: N3_14  and  C8_16 
REMARK    8  A    between atoms: C11_25  and  N7_26 
REMARK    9  A    between atoms: C12_29  and  N8_30 
ROOT
HETATM    1  C8  UNL     1     110.805  91.689  20.322  1.00  0.00     0.245 C 
HETATM    2  C9  UNL     1     110.413  91.823  18.907  1.00  0.00     0.078 C 
HETATM    3  N4  UNL     1     110.086  91.931  17.790  1.00  0.00    -0.196 NA
ENDROOT
BRANCH   1   4
HETATM    4  N3  UNL     1     110.998  92.986  20.917  1.00  0.00    -0.361 N 
HETATM    5  C7  UNL     1     111.019  93.131  22.188  1.00  0.00     0.149 C 
ATOM      6  H3  UNL     1     111.120  93.801  20.316  1.00  0.00     0.162 HD
BRANCH   5   7
HETATM    7  N2  UNL     1     110.852  92.005  23.008  1.00  0.00    -0.283 N 
ATOM      8  H2  UNL     1     111.345  91.159  22.720  1.00  0.00     0.188 HD
BRANCH   7   9
HETATM    9  N1  UNL     1     110.087  91.909  24.170  1.00  0.00    -0.297 N 
ATOM     10  H1  UNL     1     109.096  92.149  24.174  1.00  0.00     0.187 HD
BRANCH   9  11
HETATM   11  C6  UNL     1     110.755  91.454  25.370  1.00  0.00     0.081 A 
HETATM   12  C5  UNL     1     110.938  90.068  25.536  1.00  0.00     0.034 A 
HETATM   13  C4  UNL     1     111.567  89.581  26.658  1.00  0.00     0.020 A 
HETATM   14  C3  UNL     1     112.035  90.415  27.645  1.00  0.00     0.042 A 
HETATM   15  C13 UNL     1     111.839  91.767  27.453  1.00  0.00     0.056 A 
HETATM   16  C12 UNL     1     111.209  92.305  26.337  1.00  0.00     0.131 A 
BRANCH  14  17
HETATM   17  C2  UNL     1     112.707  89.866  28.810  1.00  0.00     0.293 C 
HETATM   18  O2  UNL     1     112.789  88.642  29.069  1.00  0.00    -0.259 OA
BRANCH  17  19
HETATM   19  O1  UNL     1     113.294  90.739  29.698  1.00  0.00    -0.323 OA
HETATM   20  C1  UNL     1     112.750  91.188  30.912  1.00  0.00     0.213 C 
ENDBRANCH  17  19
ENDBRANCH  14  17
BRANCH  16  21
HETATM   21  N8  UNL     1     111.017  93.699  26.188  1.00  0.00    -0.113 N 
HETATM   22  O4  UNL     1     109.933  94.182  25.928  1.00  0.00    -0.532 OA
HETATM   23  O5  UNL     1     112.105  94.519  26.355  1.00  0.00    -0.532 OA
ENDBRANCH  16  21
ENDBRANCH   9  11
ENDBRANCH   7   9
ENDBRANCH   5   7
BRANCH   5  24
HETATM   24  C10 UNL     1     111.239  94.473  22.743  1.00  0.00     0.146 A 
HETATM   25  N5  UNL     1     110.251  95.380  22.999  1.00  0.00    -0.234 N 
HETATM   26  O3  UNL     1     110.783  96.449  23.493  1.00  0.00    -0.155 OA
ATOM     27  H5  UNL     1     109.255  95.236  22.829  1.00  0.00     0.197 HD
HETATM   28  N6  UNL     1     112.061  96.295  23.575  1.00  0.00    -0.224 N 
HETATM   29  C11 UNL     1     112.418  95.047  23.109  1.00  0.00     0.154 A 
ATOM     30  H6  UNL     1     112.712  96.993  23.932  1.00  0.00     0.198 HD
BRANCH  29  31
HETATM   31  N7  UNL     1     113.632  94.622  23.079  1.00  0.00    -0.382 N 
ATOM     32  H72 UNL     1     114.037  94.132  22.282  1.00  0.00     0.157 HD
ATOM     33  H71 UNL     1     114.391  94.670  23.758  1.00  0.00     0.157 HD
ENDBRANCH  29  31
ENDBRANCH   5  24
ENDBRANCH   1   4
TORSDOF 9
ENDMDL
