MODEL 1
REMARK VINA RESULT: -8.167444978      0.000      0.000
REMARK  13 active torsions:
REMARK  status: ('A' for Active; 'I' for Inactive)
REMARK    1  A    between atoms: C2_2  and  C3_3 
REMARK    2  A    between atoms: C3_3  and  O1_4 
REMARK    3  A    between atoms: O1_4  and  C4_5 
REMARK    4  A    between atoms: C7_8  and  C8_9 
REMARK    5  A    between atoms: C8_9  and  C9_10 
REMARK    6  A    between atoms: C9_10  and  N1_11 
REMARK    7  A    between atoms: N1_11  and  C10_13 
REMARK    8  A    between atoms: C10_13  and  C11_14 
REMARK    9  A    between atoms: C11_14  and  O2_15 
REMARK   10  A    between atoms: C11_14  and  C12_17 
REMARK   11  A    between atoms: C16_21  and  N2_22 
REMARK   12  A    between atoms: N2_22  and  S1_24 
REMARK   13  A    between atoms: S1_24  and  N3_25 
ROOT
HETATM    1  C11 UNL     1       1.241  21.788  67.254  1.00  0.00     0.168 C 
ENDROOT
BRANCH   1   2
HETATM    2  C10 UNL     1       1.541  21.695  68.697  1.00  0.00     0.150 C 
BRANCH   2   3
HETATM    3  N1  UNL     1       2.938  21.384  68.884  1.00  0.00    -0.418 N 
ATOM      4  H1  UNL     1       3.682  22.016  68.591  1.00  0.00     0.153 HD
BRANCH   3   5
HETATM    5  C9  UNL     1       3.202  20.129  69.509  1.00  0.00     0.118 C 
BRANCH   5   6
HETATM    6  C8  UNL     1       3.554  19.041  68.516  1.00  0.00     0.057 C 
BRANCH   6   7
HETATM    7  C7  UNL     1       4.832  19.444  67.859  1.00  0.00    -0.057 A 
HETATM    8  C6  UNL     1       5.944  19.772  68.568  1.00  0.00     0.010 A 
HETATM    9  C5  UNL     1       7.125  20.144  67.967  1.00  0.00     0.037 A 
HETATM   10  C4  UNL     1       7.188  20.188  66.605  1.00  0.00     0.069 A 
HETATM   11  C19 UNL     1       6.066  19.858  65.852  1.00  0.00     0.037 A 
HETATM   12  C18 UNL     1       4.893  19.488  66.473  1.00  0.00     0.010 A 
BRANCH  10  13
HETATM   13  O1  UNL     1       8.352  20.556  65.945  1.00  0.00    -0.348 OA
BRANCH  13  14
HETATM   14  C3  UNL     1       8.461  20.373  64.552  1.00  0.00     0.202 C 
BRANCH  14  15
HETATM   15  C2  UNL     1       9.228  19.141  64.262  1.00  0.00    -0.011 C 
HETATM   16  C1  UNL     1      10.304  18.857  64.968  1.00  0.00     0.009 C 
ENDBRANCH  14  15
ENDBRANCH  13  14
ENDBRANCH  10  13
ENDBRANCH   6   7
ENDBRANCH   5   6
ENDBRANCH   3   5
ENDBRANCH   2   3
ENDBRANCH   1   2
BRANCH   1  17
HETATM   17  O2  UNL     1       2.442  21.722  66.539  1.00  0.00    -0.389 OA
ATOM     18  H2  UNL     1       2.801  20.846  66.624  1.00  0.00     0.210 HD
ENDBRANCH   1  17
BRANCH   1  19
HETATM   19  C12 UNL     1       0.381  20.729  66.719  1.00  0.00    -0.026 A 
HETATM   20  C13 UNL     1      -0.969  20.980  66.585  1.00  0.00     0.010 A 
HETATM   21  C14 UNL     1      -1.844  20.039  66.086  1.00  0.00     0.003 A 
HETATM   22  C15 UNL     1      -1.410  18.791  65.696  1.00  0.00     0.030 A 
HETATM   23  C16 UNL     1      -0.068  18.506  65.818  1.00  0.00     0.044 A 
HETATM   24  C17 UNL     1       0.806  19.483  66.329  1.00  0.00     0.039 A 
BRANCH  23  25
HETATM   25  N2  UNL     1       0.499  17.261  65.440  1.00  0.00    -0.268 N 
ATOM     26  H2  UNL     1       0.086  16.409  65.821  1.00  0.00     0.180 HD
BRANCH  25  27
HETATM   27  S1  UNL     1       1.827  17.105  64.389  1.00  0.00     0.317 S 
HETATM   28  O3  UNL     1       3.118  16.873  65.168  1.00  0.00    -0.183 OA
HETATM   29  O4  UNL     1       2.046  18.296  63.514  1.00  0.00    -0.183 OA
BRANCH  27  30
HETATM   30  N3  UNL     1       1.611  15.702  63.404  1.00  0.00    -0.311 N 
ATOM     31  H32 UNL     1       2.261  14.917  63.363  1.00  0.00     0.170 HD
ATOM     32  H31 UNL     1       0.739  15.790  62.881  1.00  0.00     0.170 HD
ENDBRANCH  27  30
ENDBRANCH  25  27
ENDBRANCH  23  25
ENDBRANCH   1  19
TORSDOF 13
ENDMDL
MODEL 2
REMARK VINA RESULT: -8.036876910      2.152      4.049
REMARK  13 active torsions:
REMARK  status: ('A' for Active; 'I' for Inactive)
REMARK    1  A    between atoms: C2_2  and  C3_3 
REMARK    2  A    between atoms: C3_3  and  O1_4 
REMARK    3  A    between atoms: O1_4  and  C4_5 
REMARK    4  A    between atoms: C7_8  and  C8_9 
REMARK    5  A    between atoms: C8_9  and  C9_10 
REMARK    6  A    between atoms: C9_10  and  N1_11 
REMARK    7  A    between atoms: N1_11  and  C10_13 
REMARK    8  A    between atoms: C10_13  and  C11_14 
REMARK    9  A    between atoms: C11_14  and  O2_15 
REMARK   10  A    between atoms: C11_14  and  C12_17 
REMARK   11  A    between atoms: C16_21  and  N2_22 
REMARK   12  A    between atoms: N2_22  and  S1_24 
REMARK   13  A    between atoms: S1_24  and  N3_25 
ROOT
HETATM    1  C11 UNL     1      -0.225  18.688  65.389  1.00  0.00     0.168 C 
ENDROOT
BRANCH   1   2
HETATM    2  C10 UNL     1       1.193  18.493  65.026  1.00  0.00     0.150 C 
BRANCH   2   3
HETATM    3  N1  UNL     1       1.634  17.192  65.469  1.00  0.00    -0.418 N 
ATOM      4  H1  UNL     1       1.115  16.339  65.261  1.00  0.00     0.153 HD
BRANCH   3   5
HETATM    5  C9  UNL     1       2.848  17.185  66.217  1.00  0.00     0.118 C 
BRANCH   5   6
HETATM    6  C8  UNL     1       2.949  18.348  67.183  1.00  0.00     0.057 C 
BRANCH   6   7
HETATM    7  C7  UNL     1       4.332  18.897  67.064  1.00  0.00    -0.057 A 
HETATM    8  C6  UNL     1       5.095  19.192  68.149  1.00  0.00     0.010 A 
HETATM    9  C5  UNL     1       6.371  19.697  68.044  1.00  0.00     0.037 A 
HETATM   10  C4  UNL     1       6.896  19.914  66.804  1.00  0.00     0.069 A 
HETATM   11  C19 UNL     1       6.139  19.622  65.674  1.00  0.00     0.037 A 
HETATM   12  C18 UNL     1       4.863  19.116  65.800  1.00  0.00     0.010 A 
BRANCH  10  13
HETATM   13  O1  UNL     1       8.176  20.422  66.639  1.00  0.00    -0.348 OA
BRANCH  13  14
HETATM   14  C3  UNL     1       9.279  19.546  66.566  1.00  0.00     0.202 C 
BRANCH  14  15
HETATM   15  C2  UNL     1       9.905  19.632  65.228  1.00  0.00    -0.011 C 
HETATM   16  C1  UNL     1       9.490  18.843  64.257  1.00  0.00     0.009 C 
ENDBRANCH  14  15
ENDBRANCH  13  14
ENDBRANCH  10  13
ENDBRANCH   6   7
ENDBRANCH   5   6
ENDBRANCH   3   5
ENDBRANCH   2   3
ENDBRANCH   1   2
BRANCH   1  17
HETATM   17  O2  UNL     1      -0.628  17.633  66.215  1.00  0.00    -0.389 OA
ATOM     18  H2  UNL     1      -1.572  17.538  66.154  1.00  0.00     0.210 HD
ENDBRANCH   1  17
BRANCH   1  19
HETATM   19  C12 UNL     1      -0.527  19.923  66.116  1.00  0.00    -0.026 A 
HETATM   20  C13 UNL     1      -1.810  20.119  66.581  1.00  0.00     0.010 A 
HETATM   21  C14 UNL     1      -2.174  21.252  67.278  1.00  0.00     0.003 A 
HETATM   22  C15 UNL     1      -1.265  22.253  67.544  1.00  0.00     0.030 A 
HETATM   23  C16 UNL     1       0.026  22.090  67.093  1.00  0.00     0.044 A 
HETATM   24  C17 UNL     1       0.374  20.926  66.385  1.00  0.00     0.039 A 
BRANCH  23  25
HETATM   25  N2  UNL     1       1.053  23.046  67.315  1.00  0.00    -0.268 N 
ATOM     26  H2  UNL     1       0.973  23.952  66.853  1.00  0.00     0.180 HD
BRANCH  25  27
HETATM   27  S1  UNL     1       2.407  22.768  68.305  1.00  0.00     0.317 S 
HETATM   28  O3  UNL     1       3.615  22.344  67.474  1.00  0.00    -0.183 OA
HETATM   29  O4  UNL     1       2.190  21.715  69.341  1.00  0.00    -0.183 OA
BRANCH  27  30
HETATM   30  N3  UNL     1       2.859  24.247  69.077  1.00  0.00    -0.311 N 
ATOM     31  H32 UNL     1       2.216  24.861  69.576  1.00  0.00     0.170 HD
ATOM     32  H31 UNL     1       3.860  24.399  68.950  1.00  0.00     0.170 HD
ENDBRANCH  27  30
ENDBRANCH  25  27
ENDBRANCH  23  25
ENDBRANCH   1  19
TORSDOF 13
ENDMDL
MODEL 3
REMARK VINA RESULT: -7.985679172      1.066      1.315
REMARK  13 active torsions:
REMARK  status: ('A' for Active; 'I' for Inactive)
REMARK    1  A    between atoms: C2_2  and  C3_3 
REMARK    2  A    between atoms: C3_3  and  O1_4 
REMARK    3  A    between atoms: O1_4  and  C4_5 
REMARK    4  A    between atoms: C7_8  and  C8_9 
REMARK    5  A    between atoms: C8_9  and  C9_10 
REMARK    6  A    between atoms: C9_10  and  N1_11 
REMARK    7  A    between atoms: N1_11  and  C10_13 
REMARK    8  A    between atoms: C10_13  and  C11_14 
REMARK    9  A    between atoms: C11_14  and  O2_15 
REMARK   10  A    between atoms: C11_14  and  C12_17 
REMARK   11  A    between atoms: C16_21  and  N2_22 
REMARK   12  A    between atoms: N2_22  and  S1_24 
REMARK   13  A    between atoms: S1_24  and  N3_25 
ROOT
HETATM    1  C11 UNL     1       1.551  21.491  67.597  1.00  0.00     0.168 C 
ENDROOT
BRANCH   1   2
HETATM    2  C10 UNL     1       2.983  21.133  67.555  1.00  0.00     0.150 C 
BRANCH   2   3
HETATM    3  N1  UNL     1       3.409  20.676  68.856  1.00  0.00    -0.418 N 
ATOM      4  H1  UNL     1       2.878  20.872  69.705  1.00  0.00     0.153 HD
BRANCH   3   5
HETATM    5  C9  UNL     1       4.625  19.931  68.870  1.00  0.00     0.118 C 
BRANCH   5   6
HETATM    6  C8  UNL     1       4.743  18.978  67.698  1.00  0.00     0.057 C 
BRANCH   6   7
HETATM    7  C7  UNL     1       6.081  19.208  67.080  1.00  0.00    -0.057 A 
HETATM    8  C6  UNL     1       7.242  18.924  67.728  1.00  0.00     0.010 A 
HETATM    9  C5  UNL     1       8.479  19.134  67.162  1.00  0.00     0.037 A 
HETATM   10  C4  UNL     1       8.550  19.647  65.900  1.00  0.00     0.069 A 
HETATM   11  C19 UNL     1       7.379  19.947  65.211  1.00  0.00     0.037 A 
HETATM   12  C18 UNL     1       6.150  19.730  65.795  1.00  0.00     0.010 A 
BRANCH  10  13
HETATM   13  O1  UNL     1       9.769  19.879  65.280  1.00  0.00    -0.348 OA
BRANCH  13  14
HETATM   14  C3  UNL     1      10.654  18.808  65.042  1.00  0.00     0.202 C 
BRANCH  14  15
HETATM   15  C2  UNL     1      10.113  17.931  63.980  1.00  0.00    -0.011 C 
HETATM   16  C1  UNL     1      10.756  16.830  63.648  1.00  0.00     0.009 C 
ENDBRANCH  14  15
ENDBRANCH  13  14
ENDBRANCH  10  13
ENDBRANCH   6   7
ENDBRANCH   5   6
ENDBRANCH   3   5
ENDBRANCH   2   3
ENDBRANCH   1   2
BRANCH   1  17
HETATM   17  O2  UNL     1       1.376  22.725  66.962  1.00  0.00    -0.389 OA
ATOM     18  H2  UNL     1       2.225  23.143  66.866  1.00  0.00     0.210 HD
ENDBRANCH   1  17
BRANCH   1  19
HETATM   19  C12 UNL     1       0.646  20.550  66.931  1.00  0.00    -0.026 A 
HETATM   20  C13 UNL     1      -0.671  20.917  66.750  1.00  0.00     0.010 A 
HETATM   21  C14 UNL     1      -1.584  20.092  66.129  1.00  0.00     0.003 A 
HETATM   22  C15 UNL     1      -1.224  18.848  65.658  1.00  0.00     0.030 A 
HETATM   23  C16 UNL     1       0.084  18.449  65.824  1.00  0.00     0.044 A 
HETATM   24  C17 UNL     1       0.998  19.308  66.460  1.00  0.00     0.039 A 
BRANCH  23  25
HETATM   25  N2  UNL     1       0.577  17.196  65.373  1.00  0.00    -0.268 N 
ATOM     26  H2  UNL     1       0.107  16.350  65.696  1.00  0.00     0.180 HD
BRANCH  25  27
HETATM   27  S1  UNL     1       1.905  17.024  64.324  1.00  0.00     0.317 S 
HETATM   28  O3  UNL     1       3.202  16.849  65.109  1.00  0.00    -0.183 OA
HETATM   29  O4  UNL     1       2.098  18.181  63.401  1.00  0.00    -0.183 OA
BRANCH  27  30
HETATM   30  N3  UNL     1       1.714  15.577  63.398  1.00  0.00    -0.311 N 
ATOM     31  H32 UNL     1       1.613  14.643  63.796  1.00  0.00     0.170 HD
ATOM     32  H31 UNL     1       1.717  15.811  62.405  1.00  0.00     0.170 HD
ENDBRANCH  27  30
ENDBRANCH  25  27
ENDBRANCH  23  25
ENDBRANCH   1  19
TORSDOF 13
ENDMDL
MODEL 4
REMARK VINA RESULT: -7.932812531      1.282      2.153
REMARK  13 active torsions:
REMARK  status: ('A' for Active; 'I' for Inactive)
REMARK    1  A    between atoms: C2_2  and  C3_3 
REMARK    2  A    between atoms: C3_3  and  O1_4 
REMARK    3  A    between atoms: O1_4  and  C4_5 
REMARK    4  A    between atoms: C7_8  and  C8_9 
REMARK    5  A    between atoms: C8_9  and  C9_10 
REMARK    6  A    between atoms: C9_10  and  N1_11 
REMARK    7  A    between atoms: N1_11  and  C10_13 
REMARK    8  A    between atoms: C10_13  and  C11_14 
REMARK    9  A    between atoms: C11_14  and  O2_15 
REMARK   10  A    between atoms: C11_14  and  C12_17 
REMARK   11  A    between atoms: C16_21  and  N2_22 
REMARK   12  A    between atoms: N2_22  and  S1_24 
REMARK   13  A    between atoms: S1_24  and  N3_25 
ROOT
HETATM    1  C11 UNL     1       0.913  22.159  66.836  1.00  0.00     0.168 C 
ENDROOT
BRANCH   1   2
HETATM    2  C10 UNL     1       0.569  22.730  68.154  1.00  0.00     0.150 C 
BRANCH   2   3
HETATM    3  N1  UNL     1       1.752  22.803  68.977  1.00  0.00    -0.418 N 
ATOM      4  H1  UNL     1       2.644  23.148  68.623  1.00  0.00     0.153 HD
BRANCH   3   5
HETATM    5  C9  UNL     1       1.583  22.357  70.322  1.00  0.00     0.118 C 
BRANCH   5   6
HETATM    6  C8  UNL     1       2.877  21.877  70.947  1.00  0.00     0.057 C 
BRANCH   6   7
HETATM    7  C7  UNL     1       3.591  21.073  69.913  1.00  0.00    -0.057 A 
HETATM    8  C6  UNL     1       3.166  19.842  69.524  1.00  0.00     0.010 A 
HETATM    9  C5  UNL     1       3.821  19.097  68.570  1.00  0.00     0.037 A 
HETATM   10  C4  UNL     1       4.943  19.609  67.987  1.00  0.00     0.069 A 
HETATM   11  C19 UNL     1       5.403  20.867  68.365  1.00  0.00     0.037 A 
HETATM   12  C18 UNL     1       4.733  21.597  69.322  1.00  0.00     0.010 A 
BRANCH  10  13
HETATM   13  O1  UNL     1       5.644  18.903  67.020  1.00  0.00    -0.348 OA
BRANCH  13  14
HETATM   14  C3  UNL     1       5.810  19.448  65.730  1.00  0.00     0.202 C 
BRANCH  14  15
HETATM   15  C2  UNL     1       7.232  19.789  65.506  1.00  0.00    -0.011 C 
HETATM   16  C1  UNL     1       7.554  20.970  65.017  1.00  0.00     0.009 C 
ENDBRANCH  14  15
ENDBRANCH  13  14
ENDBRANCH  10  13
ENDBRANCH   6   7
ENDBRANCH   5   6
ENDBRANCH   3   5
ENDBRANCH   2   3
ENDBRANCH   1   2
BRANCH   1  17
HETATM   17  O2  UNL     1       2.268  21.808  66.838  1.00  0.00    -0.389 OA
ATOM     18  H2  UNL     1       2.539  21.628  65.945  1.00  0.00     0.210 HD
ENDBRANCH   1  17
BRANCH   1  19
HETATM   19  C12 UNL     1       0.173  20.952  66.459  1.00  0.00    -0.026 A 
HETATM   20  C13 UNL     1      -1.195  21.038  66.308  1.00  0.00     0.010 A 
HETATM   21  C14 UNL     1      -1.964  19.950  65.951  1.00  0.00     0.003 A 
HETATM   22  C15 UNL     1      -1.398  18.714  65.727  1.00  0.00     0.030 A 
HETATM   23  C16 UNL     1      -0.033  18.593  65.869  1.00  0.00     0.044 A 
HETATM   24  C17 UNL     1       0.730  19.717  66.234  1.00  0.00     0.039 A 
BRANCH  23  25
HETATM   25  N2  UNL     1       0.665  17.375  65.655  1.00  0.00    -0.268 N 
ATOM     26  H2  UNL     1       0.399  16.564  66.214  1.00  0.00     0.180 HD
BRANCH  25  27
HETATM   27  S1  UNL     1       1.920  17.190  64.523  1.00  0.00     0.317 S 
HETATM   28  O3  UNL     1       3.273  17.072  65.219  1.00  0.00    -0.183 OA
HETATM   29  O4  UNL     1       2.022  18.316  63.546  1.00  0.00    -0.183 OA
BRANCH  27  30
HETATM   30  N3  UNL     1       1.698  15.706  63.666  1.00  0.00    -0.311 N 
ATOM     31  H32 UNL     1       1.048  14.970  63.941  1.00  0.00     0.170 HD
ATOM     32  H31 UNL     1       2.314  15.692  62.853  1.00  0.00     0.170 HD
ENDBRANCH  27  30
ENDBRANCH  25  27
ENDBRANCH  23  25
ENDBRANCH   1  19
TORSDOF 13
ENDMDL
MODEL 5
REMARK VINA RESULT: -7.930434255      1.404      1.692
REMARK  13 active torsions:
REMARK  status: ('A' for Active; 'I' for Inactive)
REMARK    1  A    between atoms: C2_2  and  C3_3 
REMARK    2  A    between atoms: C3_3  and  O1_4 
REMARK    3  A    between atoms: O1_4  and  C4_5 
REMARK    4  A    between atoms: C7_8  and  C8_9 
REMARK    5  A    between atoms: C8_9  and  C9_10 
REMARK    6  A    between atoms: C9_10  and  N1_11 
REMARK    7  A    between atoms: N1_11  and  C10_13 
REMARK    8  A    between atoms: C10_13  and  C11_14 
REMARK    9  A    between atoms: C11_14  and  O2_15 
REMARK   10  A    between atoms: C11_14  and  C12_17 
REMARK   11  A    between atoms: C16_21  and  N2_22 
REMARK   12  A    between atoms: N2_22  and  S1_24 
REMARK   13  A    between atoms: S1_24  and  N3_25 
ROOT
HETATM    1  C11 UNL     1       1.333  22.937  68.610  1.00  0.00     0.168 C 
ENDROOT
BRANCH   1   2
HETATM    2  C10 UNL     1       1.990  22.192  69.703  1.00  0.00     0.150 C 
BRANCH   2   3
HETATM    3  N1  UNL     1       3.418  22.174  69.490  1.00  0.00    -0.418 N 
ATOM      4  H1  UNL     1       3.906  22.922  68.998  1.00  0.00     0.153 HD
BRANCH   3   5
HETATM    5  C9  UNL     1       4.095  21.034  70.016  1.00  0.00     0.118 C 
BRANCH   5   6
HETATM    6  C8  UNL     1       3.850  19.779  69.204  1.00  0.00     0.057 C 
BRANCH   6   7
HETATM    7  C7  UNL     1       4.848  19.773  68.095  1.00  0.00    -0.057 A 
HETATM    8  C6  UNL     1       6.140  20.154  68.275  1.00  0.00     0.010 A 
HETATM    9  C5  UNL     1       7.065  20.150  67.255  1.00  0.00     0.037 A 
HETATM   10  C4  UNL     1       6.675  19.749  66.011  1.00  0.00     0.069 A 
HETATM   11  C19 UNL     1       5.359  19.353  65.796  1.00  0.00     0.037 A 
HETATM   12  C18 UNL     1       4.448  19.364  66.830  1.00  0.00     0.010 A 
BRANCH  10  13
HETATM   13  O1  UNL     1       7.564  19.724  64.947  1.00  0.00    -0.348 OA
BRANCH  13  14
HETATM   14  C3  UNL     1       8.839  20.313  65.078  1.00  0.00     0.202 C 
BRANCH  14  15
HETATM   15  C2  UNL     1       9.886  19.269  65.021  1.00  0.00    -0.011 C 
HETATM   16  C1  UNL     1       9.837  18.342  64.085  1.00  0.00     0.009 C 
ENDBRANCH  14  15
ENDBRANCH  13  14
ENDBRANCH  10  13
ENDBRANCH   6   7
ENDBRANCH   5   6
ENDBRANCH   3   5
ENDBRANCH   2   3
ENDBRANCH   1   2
BRANCH   1  17
HETATM   17  O2  UNL     1       2.311  23.628  67.885  1.00  0.00    -0.389 OA
ATOM     18  H2  UNL     1       1.881  24.241  67.299  1.00  0.00     0.210 HD
ENDBRANCH   1  17
BRANCH   1  19
HETATM   19  C12 UNL     1       0.599  22.119  67.641  1.00  0.00    -0.026 A 
HETATM   20  C13 UNL     1      -0.725  22.415  67.397  1.00  0.00     0.010 A 
HETATM   21  C14 UNL     1      -1.484  21.697  66.497  1.00  0.00     0.003 A 
HETATM   22  C15 UNL     1      -0.952  20.638  65.795  1.00  0.00     0.030 A 
HETATM   23  C16 UNL     1       0.369  20.314  66.015  1.00  0.00     0.044 A 
HETATM   24  C17 UNL     1       1.123  21.062  66.937  1.00  0.00     0.039 A 
BRANCH  23  25
HETATM   25  N2  UNL     1       1.031  19.252  65.345  1.00  0.00    -0.268 N 
ATOM     26  H2  UNL     1       1.587  19.477  64.520  1.00  0.00     0.180 HD
BRANCH  25  27
HETATM   27  S1  UNL     1       0.950  17.626  65.836  1.00  0.00     0.317 S 
HETATM   28  O3  UNL     1      -0.446  17.276  66.343  1.00  0.00    -0.183 OA
HETATM   29  O4  UNL     1       1.915  17.275  66.920  1.00  0.00    -0.183 OA
BRANCH  27  30
HETATM   30  N3  UNL     1       1.227  16.605  64.469  1.00  0.00    -0.311 N 
ATOM     31  H32 UNL     1       0.678  16.626  63.609  1.00  0.00     0.170 HD
ATOM     32  H31 UNL     1       2.017  15.990  64.664  1.00  0.00     0.170 HD
ENDBRANCH  27  30
ENDBRANCH  25  27
ENDBRANCH  23  25
ENDBRANCH   1  19
TORSDOF 13
ENDMDL
