MODEL 1
REMARK VINA RESULT: -8.194716975      0.000      0.000
REMARK  12 active torsions:
REMARK  status: ('A' for Active; 'I' for Inactive)
REMARK    1  A    between atoms: C2_2  and  C3_3 
REMARK    2  A    between atoms: C7_11  and  C8_12 
REMARK    3  A    between atoms: C8_12  and  N3_13 
REMARK    4  A    between atoms: C9_15  and  N4_16 
REMARK    5  A    between atoms: N4_16  and  C10_17 
REMARK    6  A    between atoms: N4_16  and  C14_26 
REMARK    7  A    between atoms: C10_17  and  C11_18 
REMARK    8  A    between atoms: C11_18  and  N5_19 
REMARK    9  A    between atoms: N5_19  and  C12_22 
REMARK   10  A    between atoms: C12_22  and  C13_23 
REMARK   11  A    between atoms: C13_23  and  O1_24 
REMARK   12  A    between atoms: C14_26  and  C15_27 
ROOT
HETATM    1  N4  UNL     1       5.948  20.085  68.226  1.00  0.00    -0.371 N 
ENDROOT
BRANCH   1   2
HETATM    2  C9  UNL     1       5.290  19.747  67.021  1.00  0.00     0.174 C 
HETATM    3  N3  UNL     1       4.469  18.784  66.856  1.00  0.00    -0.381 N 
ATOM      4  H3  UNL     1       4.227  18.167  67.631  1.00  0.00     0.160 HD
BRANCH   3   5
HETATM    5  C8  UNL     1       3.893  18.590  65.546  1.00  0.00     0.179 C 
BRANCH   5   6
HETATM    6  C7  UNL     1       2.504  18.101  65.583  1.00  0.00     0.056 A 
HETATM    7  N2  UNL     1       2.005  16.880  65.334  1.00  0.00    -0.302 N 
HETATM    8  N1  UNL     1       0.700  16.845  65.474  1.00  0.00    -0.300 N 
ATOM      9  H2  UNL     1       2.572  16.075  65.068  1.00  0.00     0.186 HD
HETATM   10  C6  UNL     1       0.284  18.071  65.828  1.00  0.00     0.060 A 
ATOM     11  H1  UNL     1       0.105  16.027  65.337  1.00  0.00     0.187 HD
HETATM   12  C5  UNL     1      -0.973  18.553  66.091  1.00  0.00     0.032 A 
HETATM   13  C20 UNL     1       1.399  18.884  65.905  1.00  0.00     0.018 A 
HETATM   14  C4  UNL     1      -1.141  19.875  66.443  1.00  0.00     0.009 A 
HETATM   15  C3  UNL     1      -0.053  20.725  66.532  1.00  0.00    -0.058 A 
HETATM   16  C21 UNL     1       1.201  20.187  66.255  1.00  0.00     0.023 A 
BRANCH  15  17
HETATM   17  C2  UNL     1      -0.273  22.128  66.912  1.00  0.00     0.034 C 
HETATM   18  C1  UNL     1      -1.415  22.246  67.887  1.00  0.00     0.010 C 
ENDBRANCH  15  17
ENDBRANCH   5   6
ENDBRANCH   3   5
ENDBRANCH   1   2
BRANCH   1  19
HETATM   19  C10 UNL     1       7.404  20.168  68.195  1.00  0.00     0.151 C 
BRANCH  19  20
HETATM   20  C11 UNL     1       7.999  19.499  66.980  1.00  0.00     0.252 C 
BRANCH  20  21
HETATM   21  N5  UNL     1       9.046  20.308  66.381  1.00  0.00    -0.072 N 
ATOM     22  H52 UNL     1       9.131  21.206  66.856  1.00  0.00     0.277 HD
ATOM     23  H51 UNL     1       9.968  19.925  66.587  1.00  0.00     0.277 HD
BRANCH  21  24
HETATM   24  C12 UNL     1       8.866  20.485  64.977  1.00  0.00     0.258 C 
BRANCH  24  25
HETATM   25  C13 UNL     1       7.720  21.392  64.598  1.00  0.00     0.191 C 
BRANCH  25  26
HETATM   26  O1  UNL     1       8.043  22.010  63.398  1.00  0.00    -0.399 OA
ATOM     27  H1  UNL     1       7.432  21.703  62.738  1.00  0.00     0.209 HD
ENDBRANCH  25  26
ENDBRANCH  24  25
ENDBRANCH  21  24
ENDBRANCH  20  21
ENDBRANCH  19  20
ENDBRANCH   1  19
BRANCH   1  28
HETATM   28  C14 UNL     1       5.213  20.326  69.421  1.00  0.00     0.162 C 
BRANCH  28  29
HETATM   29  C15 UNL     1       4.152  21.339  69.342  1.00  0.00    -0.034 A 
HETATM   30  C16 UNL     1       2.927  21.146  69.926  1.00  0.00     0.026 A 
HETATM   31  C17 UNL     1       1.955  22.136  69.838  1.00  0.00     0.092 A 
HETATM   32  N6  UNL     1       2.188  23.291  69.187  1.00  0.00    -0.334 N 
HETATM   33  C18 UNL     1       3.382  23.501  68.606  1.00  0.00     0.245 A 
ATOM     34  H6  UNL     1       1.462  24.005  69.134  1.00  0.00     0.168 HD
HETATM   35  O2  UNL     1       3.570  24.590  68.004  1.00  0.00    -0.268 OA
HETATM   36  C19 UNL     1       4.377  22.517  68.683  1.00  0.00     0.083 A 
ENDBRANCH  28  29
ENDBRANCH   1  28
TORSDOF 12
ENDMDL
MODEL 2
REMARK VINA RESULT: -8.032434811      1.868      4.665
REMARK  12 active torsions:
REMARK  status: ('A' for Active; 'I' for Inactive)
REMARK    1  A    between atoms: C2_2  and  C3_3 
REMARK    2  A    between atoms: C7_11  and  C8_12 
REMARK    3  A    between atoms: C8_12  and  N3_13 
REMARK    4  A    between atoms: C9_15  and  N4_16 
REMARK    5  A    between atoms: N4_16  and  C10_17 
REMARK    6  A    between atoms: N4_16  and  C14_26 
REMARK    7  A    between atoms: C10_17  and  C11_18 
REMARK    8  A    between atoms: C11_18  and  N5_19 
REMARK    9  A    between atoms: N5_19  and  C12_22 
REMARK   10  A    between atoms: C12_22  and  C13_23 
REMARK   11  A    between atoms: C13_23  and  O1_24 
REMARK   12  A    between atoms: C14_26  and  C15_27 
ROOT
HETATM    1  N4  UNL     1       5.076  19.562  66.548  1.00  0.00    -0.371 N 
ENDROOT
BRANCH   1   2
HETATM    2  C9  UNL     1       4.622  20.851  66.909  1.00  0.00     0.174 C 
HETATM    3  N3  UNL     1       4.564  21.324  68.093  1.00  0.00    -0.381 N 
ATOM      4  H3  UNL     1       4.859  20.765  68.894  1.00  0.00     0.160 HD
BRANCH   3   5
HETATM    5  C8  UNL     1       4.068  22.670  68.271  1.00  0.00     0.179 C 
BRANCH   5   6
HETATM    6  C7  UNL     1       2.787  22.730  68.997  1.00  0.00     0.056 A 
HETATM    7  N2  UNL     1       2.528  23.033  70.279  1.00  0.00    -0.302 N 
HETATM    8  N1  UNL     1       1.245  22.974  70.548  1.00  0.00    -0.300 N 
ATOM      9  H2  UNL     1       3.244  23.279  70.963  1.00  0.00     0.186 HD
HETATM   10  C6  UNL     1       0.598  22.623  69.425  1.00  0.00     0.060 A 
ATOM     11  H1  UNL     1       0.813  23.164  71.453  1.00  0.00     0.187 HD
HETATM   12  C5  UNL     1      -0.737  22.427  69.181  1.00  0.00     0.032 A 
HETATM   13  C20 UNL     1       1.545  22.462  68.431  1.00  0.00     0.018 A 
HETATM   14  C4  UNL     1      -1.158  22.064  67.919  1.00  0.00     0.009 A 
HETATM   15  C3  UNL     1      -0.245  21.892  66.893  1.00  0.00    -0.058 A 
HETATM   16  C21 UNL     1       1.098  22.102  67.194  1.00  0.00     0.023 A 
BRANCH  15  17
HETATM   17  C2  UNL     1      -0.733  21.507  65.561  1.00  0.00     0.034 C 
HETATM   18  C1  UNL     1      -2.229  21.337  65.568  1.00  0.00     0.010 C 
ENDBRANCH  15  17
ENDBRANCH   5   6
ENDBRANCH   3   5
ENDBRANCH   1   2
BRANCH   1  19
HETATM   19  C10 UNL     1       6.315  19.476  65.784  1.00  0.00     0.151 C 
BRANCH  19  20
HETATM   20  C11 UNL     1       7.544  19.565  66.656  1.00  0.00     0.252 C 
BRANCH  20  21
HETATM   21  N5  UNL     1       8.611  20.302  66.004  1.00  0.00    -0.072 N 
ATOM     22  H52 UNL     1       8.817  21.167  66.504  1.00  0.00     0.277 HD
ATOM     23  H51 UNL     1       9.507  19.829  66.121  1.00  0.00     0.277 HD
BRANCH  21  24
HETATM   24  C12 UNL     1       8.341  20.557  64.627  1.00  0.00     0.258 C 
BRANCH  24  25
HETATM   25  C13 UNL     1       8.341  22.017  64.244  1.00  0.00     0.191 C 
BRANCH  25  26
HETATM   26  O1  UNL     1       7.574  22.159  63.097  1.00  0.00    -0.399 OA
ATOM     27  H1  UNL     1       8.120  22.551  62.426  1.00  0.00     0.209 HD
ENDBRANCH  25  26
ENDBRANCH  24  25
ENDBRANCH  21  24
ENDBRANCH  20  21
ENDBRANCH  19  20
ENDBRANCH   1  19
BRANCH   1  28
HETATM   28  C14 UNL     1       4.343  18.398  66.914  1.00  0.00     0.162 C 
BRANCH  28  29
HETATM   29  C15 UNL     1       3.126  18.121  66.141  1.00  0.00    -0.034 A 
HETATM   30  C16 UNL     1       1.876  18.297  66.676  1.00  0.00     0.026 A 
HETATM   31  C17 UNL     1       0.750  18.035  65.905  1.00  0.00     0.092 A 
HETATM   32  N6  UNL     1       0.855  17.611  64.631  1.00  0.00    -0.334 N 
HETATM   33  C18 UNL     1       2.071  17.432  64.086  1.00  0.00     0.245 A 
ATOM     34  H6  UNL     1       0.016  17.425  64.082  1.00  0.00     0.168 HD
HETATM   35  O2  UNL     1       2.138  17.034  62.894  1.00  0.00    -0.268 OA
HETATM   36  C19 UNL     1       3.220  17.690  64.846  1.00  0.00     0.083 A 
ENDBRANCH  28  29
ENDBRANCH   1  28
TORSDOF 12
ENDMDL
MODEL 3
REMARK VINA RESULT: -7.979400942      2.391      5.759
REMARK  12 active torsions:
REMARK  status: ('A' for Active; 'I' for Inactive)
REMARK    1  A    between atoms: C2_2  and  C3_3 
REMARK    2  A    between atoms: C7_11  and  C8_12 
REMARK    3  A    between atoms: C8_12  and  N3_13 
REMARK    4  A    between atoms: C9_15  and  N4_16 
REMARK    5  A    between atoms: N4_16  and  C10_17 
REMARK    6  A    between atoms: N4_16  and  C14_26 
REMARK    7  A    between atoms: C10_17  and  C11_18 
REMARK    8  A    between atoms: C11_18  and  N5_19 
REMARK    9  A    between atoms: N5_19  and  C12_22 
REMARK   10  A    between atoms: C12_22  and  C13_23 
REMARK   11  A    between atoms: C13_23  and  O1_24 
REMARK   12  A    between atoms: C14_26  and  C15_27 
ROOT
HETATM    1  N4  UNL     1       4.238  20.024  67.077  1.00  0.00    -0.371 N 
ENDROOT
BRANCH   1   2
HETATM    2  C9  UNL     1       3.195  20.828  67.591  1.00  0.00     0.174 C 
HETATM    3  N3  UNL     1       2.299  21.427  66.908  1.00  0.00    -0.381 N 
ATOM      4  H3  UNL     1       2.284  21.355  65.891  1.00  0.00     0.160 HD
BRANCH   3   5
HETATM    5  C8  UNL     1       1.309  22.210  67.610  1.00  0.00     0.179 C 
BRANCH   5   6
HETATM    6  C7  UNL     1       1.892  23.230  68.500  1.00  0.00     0.056 A 
HETATM    7  N2  UNL     1       2.771  24.210  68.240  1.00  0.00    -0.302 N 
HETATM    8  N1  UNL     1       3.049  24.918  69.310  1.00  0.00    -0.300 N 
ATOM      9  H2  UNL     1       3.176  24.385  67.319  1.00  0.00     0.186 HD
HETATM   10  C6  UNL     1       2.345  24.416  70.337  1.00  0.00     0.060 A 
ATOM     11  H1  UNL     1       3.688  25.712  69.354  1.00  0.00     0.187 HD
HETATM   12  C5  UNL     1       2.283  24.795  71.654  1.00  0.00     0.032 A 
HETATM   13  C20 UNL     1       1.606  23.352  69.856  1.00  0.00     0.018 A 
HETATM   14  C4  UNL     1       1.468  24.107  72.527  1.00  0.00     0.009 A 
HETATM   15  C3  UNL     1       0.710  23.035  72.090  1.00  0.00    -0.058 A 
HETATM   16  C21 UNL     1       0.810  22.691  70.745  1.00  0.00     0.023 A 
BRANCH  15  17
HETATM   17  C2  UNL     1      -0.149  22.328  73.052  1.00  0.00     0.034 C 
HETATM   18  C1  UNL     1       0.410  20.966  73.368  1.00  0.00     0.010 C 
ENDBRANCH  15  17
ENDBRANCH   5   6
ENDBRANCH   3   5
ENDBRANCH   1   2
BRANCH   1  19
HETATM   19  C10 UNL     1       5.428  20.706  66.581  1.00  0.00     0.151 C 
BRANCH  19  20
HETATM   20  C11 UNL     1       6.687  20.268  67.288  1.00  0.00     0.252 C 
BRANCH  20  21
HETATM   21  N5  UNL     1       7.853  20.383  66.431  1.00  0.00    -0.072 N 
ATOM     22  H52 UNL     1       8.483  21.112  66.765  1.00  0.00     0.277 HD
ATOM     23  H51 UNL     1       8.466  19.576  66.536  1.00  0.00     0.277 HD
BRANCH  21  24
HETATM   24  C12 UNL     1       7.508  20.591  65.062  1.00  0.00     0.258 C 
BRANCH  24  25
HETATM   25  C13 UNL     1       8.433  21.519  64.312  1.00  0.00     0.191 C 
BRANCH  25  26
HETATM   26  O1  UNL     1       7.688  22.177  63.345  1.00  0.00    -0.399 OA
ATOM     27  H1  UNL     1       6.999  22.661  63.786  1.00  0.00     0.209 HD
ENDBRANCH  25  26
ENDBRANCH  24  25
ENDBRANCH  21  24
ENDBRANCH  20  21
ENDBRANCH  19  20
ENDBRANCH   1  19
BRANCH   1  28
HETATM   28  C14 UNL     1       4.122  18.606  67.041  1.00  0.00     0.162 C 
BRANCH  28  29
HETATM   29  C15 UNL     1       3.070  18.058  66.176  1.00  0.00    -0.034 A 
HETATM   30  C16 UNL     1       1.825  17.750  66.660  1.00  0.00     0.026 A 
HETATM   31  C17 UNL     1       0.855  17.245  65.803  1.00  0.00     0.092 A 
HETATM   32  N6  UNL     1       1.108  17.048  64.495  1.00  0.00    -0.334 N 
HETATM   33  C18 UNL     1       2.322  17.343  63.999  1.00  0.00     0.245 A 
ATOM     34  H6  UNL     1       0.381  16.677  63.883  1.00  0.00     0.168 HD
HETATM   35  O2  UNL     1       2.529  17.148  62.773  1.00  0.00    -0.268 OA
HETATM   36  C19 UNL     1       3.315  17.854  64.845  1.00  0.00     0.083 A 
ENDBRANCH  28  29
ENDBRANCH   1  28
TORSDOF 12
ENDMDL
MODEL 4
REMARK VINA RESULT: -7.944933311      1.312      1.754
REMARK  12 active torsions:
REMARK  status: ('A' for Active; 'I' for Inactive)
REMARK    1  A    between atoms: C2_2  and  C3_3 
REMARK    2  A    between atoms: C7_11  and  C8_12 
REMARK    3  A    between atoms: C8_12  and  N3_13 
REMARK    4  A    between atoms: C9_15  and  N4_16 
REMARK    5  A    between atoms: N4_16  and  C10_17 
REMARK    6  A    between atoms: N4_16  and  C14_26 
REMARK    7  A    between atoms: C10_17  and  C11_18 
REMARK    8  A    between atoms: C11_18  and  N5_19 
REMARK    9  A    between atoms: N5_19  and  C12_22 
REMARK   10  A    between atoms: C12_22  and  C13_23 
REMARK   11  A    between atoms: C13_23  and  O1_24 
REMARK   12  A    between atoms: C14_26  and  C15_27 
ROOT
HETATM    1  N4  UNL     1       5.018  19.507  67.443  1.00  0.00    -0.371 N 
ENDROOT
BRANCH   1   2
HETATM    2  C9  UNL     1       4.125  19.252  66.376  1.00  0.00     0.174 C 
HETATM    3  N3  UNL     1       3.053  18.563  66.441  1.00  0.00    -0.381 N 
ATOM      4  H3  UNL     1       2.761  18.133  67.318  1.00  0.00     0.160 HD
BRANCH   3   5
HETATM    5  C8  UNL     1       2.263  18.408  65.241  1.00  0.00     0.179 C 
BRANCH   5   6
HETATM    6  C7  UNL     1       0.821  18.624  65.457  1.00  0.00     0.056 A 
HETATM    7  N2  UNL     1      -0.232  17.868  65.108  1.00  0.00    -0.302 N 
HETATM    8  N1  UNL     1      -1.368  18.409  65.482  1.00  0.00    -0.300 N 
ATOM      9  H2  UNL     1      -0.158  16.980  64.612  1.00  0.00     0.186 HD
HETATM   10  C6  UNL     1      -1.096  19.567  66.104  1.00  0.00     0.060 A 
ATOM     11  H1  UNL     1      -2.297  18.017  65.326  1.00  0.00     0.187 HD
HETATM   12  C5  UNL     1      -1.928  20.498  66.672  1.00  0.00     0.032 A 
HETATM   13  C20 UNL     1       0.276  19.728  66.103  1.00  0.00     0.018 A 
HETATM   14  C4  UNL     1      -1.394  21.624  67.261  1.00  0.00     0.009 A 
HETATM   15  C3  UNL     1      -0.025  21.828  67.284  1.00  0.00    -0.058 A 
HETATM   16  C21 UNL     1       0.773  20.853  66.693  1.00  0.00     0.023 A 
BRANCH  15  17
HETATM   17  C2  UNL     1       0.505  23.041  67.924  1.00  0.00     0.034 C 
HETATM   18  C1  UNL     1       0.705  22.823  69.400  1.00  0.00     0.010 C 
ENDBRANCH  15  17
ENDBRANCH   5   6
ENDBRANCH   3   5
ENDBRANCH   1   2
BRANCH   1  19
HETATM   19  C10 UNL     1       6.445  19.478  67.145  1.00  0.00     0.151 C 
BRANCH  19  20
HETATM   20  C11 UNL     1       6.805  20.307  65.936  1.00  0.00     0.252 C 
BRANCH  20  21
HETATM   21  N5  UNL     1       7.652  19.572  65.014  1.00  0.00    -0.072 N 
ATOM     22  H52 UNL     1       8.180  18.848  65.500  1.00  0.00     0.277 HD
ATOM     23  H51 UNL     1       7.095  18.981  64.396  1.00  0.00     0.277 HD
BRANCH  21  24
HETATM   24  C12 UNL     1       8.517  20.425  64.266  1.00  0.00     0.258 C 
BRANCH  24  25
HETATM   25  C13 UNL     1       8.148  21.888  64.306  1.00  0.00     0.191 C 
BRANCH  25  26
HETATM   26  O1  UNL     1       7.636  22.235  63.064  1.00  0.00    -0.399 OA
ATOM     27  H1  UNL     1       6.690  22.169  63.109  1.00  0.00     0.209 HD
ENDBRANCH  25  26
ENDBRANCH  24  25
ENDBRANCH  21  24
ENDBRANCH  20  21
ENDBRANCH  19  20
ENDBRANCH   1  19
BRANCH   1  28
HETATM   28  C14 UNL     1       4.535  19.775  68.754  1.00  0.00     0.162 C 
BRANCH  28  29
HETATM   29  C15 UNL     1       4.573  21.177  69.191  1.00  0.00    -0.034 A 
HETATM   30  C16 UNL     1       5.089  21.540  70.408  1.00  0.00     0.026 A 
HETATM   31  C17 UNL     1       5.116  22.880  70.777  1.00  0.00     0.092 A 
HETATM   32  N6  UNL     1       4.645  23.841  69.960  1.00  0.00    -0.334 N 
HETATM   33  C18 UNL     1       4.134  23.508  68.762  1.00  0.00     0.245 A 
ATOM     34  H6  UNL     1       4.675  24.819  70.249  1.00  0.00     0.168 HD
HETATM   35  O2  UNL     1       3.701  24.428  68.021  1.00  0.00    -0.268 OA
HETATM   36  C19 UNL     1       4.097  22.163  68.370  1.00  0.00     0.083 A 
ENDBRANCH  28  29
ENDBRANCH   1  28
TORSDOF 12
ENDMDL
MODEL 5
REMARK VINA RESULT: -7.792303023      2.391      5.717
REMARK  12 active torsions:
REMARK  status: ('A' for Active; 'I' for Inactive)
REMARK    1  A    between atoms: C2_2  and  C3_3 
REMARK    2  A    between atoms: C7_11  and  C8_12 
REMARK    3  A    between atoms: C8_12  and  N3_13 
REMARK    4  A    between atoms: C9_15  and  N4_16 
REMARK    5  A    between atoms: N4_16  and  C10_17 
REMARK    6  A    between atoms: N4_16  and  C14_26 
REMARK    7  A    between atoms: C10_17  and  C11_18 
REMARK    8  A    between atoms: C11_18  and  N5_19 
REMARK    9  A    between atoms: N5_19  and  C12_22 
REMARK   10  A    between atoms: C12_22  and  C13_23 
REMARK   11  A    between atoms: C13_23  and  O1_24 
REMARK   12  A    between atoms: C14_26  and  C15_27 
ROOT
HETATM    1  N4  UNL     1       5.100  19.626  66.244  1.00  0.00    -0.371 N 
ENDROOT
BRANCH   1   2
HETATM    2  C9  UNL     1       4.232  20.130  67.240  1.00  0.00     0.174 C 
HETATM    3  N3  UNL     1       3.612  21.245  67.204  1.00  0.00    -0.381 N 
ATOM      4  H3  UNL     1       3.713  21.872  66.406  1.00  0.00     0.160 HD
BRANCH   3   5
HETATM    5  C8  UNL     1       2.766  21.597  68.320  1.00  0.00     0.179 C 
BRANCH   5   6
HETATM    6  C7  UNL     1       1.514  22.264  67.919  1.00  0.00     0.056 A 
HETATM    7  N2  UNL     1       1.120  23.538  68.075  1.00  0.00    -0.302 N 
HETATM    8  N1  UNL     1      -0.078  23.745  67.579  1.00  0.00    -0.300 N 
ATOM      9  H2  UNL     1       1.684  24.258  68.526  1.00  0.00     0.186 HD
HETATM   10  C6  UNL     1      -0.524  22.587  67.067  1.00  0.00     0.060 A 
ATOM     11  H1  UNL     1      -0.582  24.632  67.582  1.00  0.00     0.187 HD
HETATM   12  C5  UNL     1      -1.705  22.277  66.442  1.00  0.00     0.032 A 
HETATM   13  C20 UNL     1       0.458  21.636  67.267  1.00  0.00     0.018 A 
HETATM   14  C4  UNL     1      -1.929  20.992  65.997  1.00  0.00     0.009 A 
HETATM   15  C3  UNL     1      -0.973  20.007  66.175  1.00  0.00    -0.058 A 
HETATM   16  C21 UNL     1       0.207  20.374  66.815  1.00  0.00     0.023 A 
BRANCH  15  17
HETATM   17  C2  UNL     1      -1.248  18.648  65.684  1.00  0.00     0.034 C 
HETATM   18  C1  UNL     1      -0.449  17.630  66.454  1.00  0.00     0.010 C 
ENDBRANCH  15  17
ENDBRANCH   5   6
ENDBRANCH   3   5
ENDBRANCH   1   2
BRANCH   1  19
HETATM   19  C10 UNL     1       4.827  18.288  65.732  1.00  0.00     0.151 C 
BRANCH  19  20
HETATM   20  C11 UNL     1       3.354  17.957  65.725  1.00  0.00     0.252 C 
BRANCH  20  21
HETATM   21  N5  UNL     1       2.706  18.416  64.509  1.00  0.00    -0.072 N 
ATOM     22  H52 UNL     1       2.231  19.305  64.661  1.00  0.00     0.277 HD
ATOM     23  H51 UNL     1       3.394  18.713  63.817  1.00  0.00     0.277 HD
BRANCH  21  24
HETATM   24  C12 UNL     1       1.815  17.444  63.963  1.00  0.00     0.258 C 
BRANCH  24  25
HETATM   25  C13 UNL     1       2.484  16.186  63.463  1.00  0.00     0.191 C 
BRANCH  25  26
HETATM   26  O1  UNL     1       1.490  15.302  63.067  1.00  0.00    -0.399 OA
ATOM     27  H1  UNL     1       1.840  14.421  63.134  1.00  0.00     0.209 HD
ENDBRANCH  25  26
ENDBRANCH  24  25
ENDBRANCH  21  24
ENDBRANCH  20  21
ENDBRANCH  19  20
ENDBRANCH   1  19
BRANCH   1  28
HETATM   28  C14 UNL     1       6.198  20.396  65.769  1.00  0.00     0.162 C 
BRANCH  28  29
HETATM   29  C15 UNL     1       7.534  19.963  66.197  1.00  0.00    -0.034 A 
HETATM   30  C16 UNL     1       7.748  19.386  67.423  1.00  0.00     0.026 A 
HETATM   31  C17 UNL     1       9.027  18.979  67.783  1.00  0.00     0.092 A 
HETATM   32  N6  UNL     1      10.073  19.136  66.950  1.00  0.00    -0.334 N 
HETATM   33  C18 UNL     1       9.887  19.699  65.744  1.00  0.00     0.245 A 
ATOM     34  H6  UNL     1      11.004  18.830  67.234  1.00  0.00     0.168 HD
HETATM   35  O2  UNL     1      10.884  19.833  64.988  1.00  0.00    -0.268 OA
HETATM   36  C19 UNL     1       8.606  20.117  65.360  1.00  0.00     0.083 A 
ENDBRANCH  28  29
ENDBRANCH   1  28
TORSDOF 12
ENDMDL
