MODEL 1
REMARK VINA RESULT: -6.856488663      0.000      0.000
REMARK  13 active torsions:
REMARK  status: ('A' for Active; 'I' for Inactive)
REMARK    1  A    between atoms: N1_1  and  S1_4 
REMARK    2  A    between atoms: S1_4  and  C1_7 
REMARK    3  A    between atoms: C4_10  and  C5_11 
REMARK    4  A    between atoms: C5_11  and  C6_12 
REMARK    5  A    between atoms: C6_12  and  N2_13 
REMARK    6  A    between atoms: N2_13  and  C7_16 
REMARK    7  A    between atoms: C7_16  and  C8_17 
REMARK    8  A    between atoms: C8_17  and  C9_18 
REMARK    9  A    between atoms: C9_18  and  O3_19 
REMARK   10  A    between atoms: C9_18  and  N3_21 
REMARK   11  A    between atoms: N3_21  and  C10_24 
REMARK   12  A    between atoms: C10_24  and  C11_25 
REMARK   13  A    between atoms: C12_26  and  C13_27 
ROOT
HETATM    1  N2  UNL     1       1.634  17.344  65.842  1.00  0.00    -0.075 N 
ATOM      2  H21 UNL     1       1.035  16.858  66.511  1.00  0.00     0.277 HD
ATOM      3  H22 UNL     1       1.786  16.595  65.166  1.00  0.00     0.277 HD
ENDROOT
BRANCH   1   4
HETATM    4  C6  UNL     1       2.872  17.717  66.461  1.00  0.00     0.237 C 
BRANCH   4   5
HETATM    5  C5  UNL     1       3.704  18.696  65.705  1.00  0.00     0.066 C 
BRANCH   5   6
HETATM    6  C4  UNL     1       5.061  18.920  66.265  1.00  0.00    -0.057 A 
HETATM    7  C3  UNL     1       5.551  18.230  67.356  1.00  0.00     0.009 A 
HETATM    8  C2  UNL     1       6.816  18.456  67.852  1.00  0.00     0.026 A 
HETATM    9  C1  UNL     1       7.660  19.385  67.281  1.00  0.00     0.079 A 
HETATM   10  C20 UNL     1       7.190  20.084  66.192  1.00  0.00     0.026 A 
HETATM   11  C19 UNL     1       5.924  19.856  65.699  1.00  0.00     0.009 A 
BRANCH   9  12
HETATM   12  S1  UNL     1       9.277  19.669  67.914  1.00  0.00     0.256 S 
HETATM   13  O1  UNL     1      10.165  20.314  66.896  1.00  0.00    -0.201 OA
HETATM   14  O2  UNL     1       9.205  20.553  69.114  1.00  0.00    -0.201 OA
BRANCH  12  15
HETATM   15  N1  UNL     1       9.996  18.170  68.428  1.00  0.00    -0.324 N 
ATOM     16  H12 UNL     1      10.949  18.073  68.777  1.00  0.00     0.169 HD
ATOM     17  H11 UNL     1       9.313  17.419  68.322  1.00  0.00     0.169 HD
ENDBRANCH  12  15
ENDBRANCH   9  12
ENDBRANCH   5   6
ENDBRANCH   4   5
ENDBRANCH   1   4
BRANCH   1  18
HETATM   18  C7  UNL     1       0.927  18.419  65.237  1.00  0.00     0.236 C 
BRANCH  18  19
HETATM   19  C8  UNL     1      -0.450  18.638  65.823  1.00  0.00     0.088 C 
BRANCH  19  20
HETATM   20  C9  UNL     1      -0.946  20.052  65.625  1.00  0.00     0.320 C 
BRANCH  20  21
HETATM   21  O3  UNL     1      -1.737  20.386  66.733  1.00  0.00    -0.370 OA
ATOM     22  H3  UNL     1      -2.638  20.449  66.438  1.00  0.00     0.212 HD
ENDBRANCH  20  21
BRANCH  20  23
HETATM   23  N3  UNL     1       0.129  20.995  65.456  1.00  0.00    -0.046 N 
ATOM     24  H32 UNL     1       1.040  20.538  65.496  1.00  0.00     0.280 HD
ATOM     25  H31 UNL     1       0.174  21.347  64.500  1.00  0.00     0.280 HD
BRANCH  23  26
HETATM   26  C10 UNL     1       0.032  22.054  66.402  1.00  0.00     0.263 C 
BRANCH  26  27
HETATM   27  C11 UNL     1       1.336  22.086  67.185  1.00  0.00     0.001 C 
HETATM   28  C12 UNL     1       1.752  21.027  67.793  1.00  0.00     0.009 C 
BRANCH  28  29
HETATM   29  C13 UNL     1       2.983  20.997  68.552  1.00  0.00    -0.036 A 
HETATM   30  C14 UNL     1       3.141  20.092  69.617  1.00  0.00     0.011 A 
HETATM   31  C15 UNL     1       4.298  20.045  70.349  1.00  0.00     0.001 A 
HETATM   32  C16 UNL     1       5.346  20.878  70.072  1.00  0.00     0.000 A 
HETATM   33  C17 UNL     1       5.219  21.779  69.029  1.00  0.00     0.001 A 
HETATM   34  C18 UNL     1       4.047  21.821  68.295  1.00  0.00     0.011 A 
ENDBRANCH  28  29
ENDBRANCH  26  27
ENDBRANCH  23  26
ENDBRANCH  20  23
ENDBRANCH  19  20
ENDBRANCH  18  19
ENDBRANCH   1  18
TORSDOF 13
ENDMDL
MODEL 2
REMARK VINA RESULT: -6.658383830      3.608      6.161
REMARK  13 active torsions:
REMARK  status: ('A' for Active; 'I' for Inactive)
REMARK    1  A    between atoms: N1_1  and  S1_4 
REMARK    2  A    between atoms: S1_4  and  C1_7 
REMARK    3  A    between atoms: C4_10  and  C5_11 
REMARK    4  A    between atoms: C5_11  and  C6_12 
REMARK    5  A    between atoms: C6_12  and  N2_13 
REMARK    6  A    between atoms: N2_13  and  C7_16 
REMARK    7  A    between atoms: C7_16  and  C8_17 
REMARK    8  A    between atoms: C8_17  and  C9_18 
REMARK    9  A    between atoms: C9_18  and  O3_19 
REMARK   10  A    between atoms: C9_18  and  N3_21 
REMARK   11  A    between atoms: N3_21  and  C10_24 
REMARK   12  A    between atoms: C10_24  and  C11_25 
REMARK   13  A    between atoms: C12_26  and  C13_27 
ROOT
HETATM    1  N2  UNL     1       5.784  19.985  70.335  1.00  0.00    -0.075 N 
ATOM      2  H21 UNL     1       6.409  19.378  70.868  1.00  0.00     0.277 HD
ATOM      3  H22 UNL     1       5.116  19.293  69.995  1.00  0.00     0.277 HD
ENDROOT
BRANCH   1   4
HETATM    4  C6  UNL     1       6.487  20.581  69.238  1.00  0.00     0.237 C 
BRANCH   4   5
HETATM    5  C5  UNL     1       5.638  21.259  68.217  1.00  0.00     0.066 C 
BRANCH   5   6
HETATM    6  C4  UNL     1       4.688  20.365  67.507  1.00  0.00    -0.057 A 
HETATM    7  C3  UNL     1       5.056  19.564  66.445  1.00  0.00     0.009 A 
HETATM    8  C2  UNL     1       4.154  18.740  65.807  1.00  0.00     0.026 A 
HETATM    9  C1  UNL     1       2.834  18.674  66.200  1.00  0.00     0.079 A 
HETATM   10  C20 UNL     1       2.446  19.466  67.258  1.00  0.00     0.026 A 
HETATM   11  C19 UNL     1       3.351  20.288  67.893  1.00  0.00     0.009 A 
BRANCH   9  12
HETATM   12  S1  UNL     1       1.684  17.619  65.387  1.00  0.00     0.256 S 
HETATM   13  O1  UNL     1       0.706  17.020  66.348  1.00  0.00    -0.201 OA
HETATM   14  O2  UNL     1       0.930  18.389  64.355  1.00  0.00    -0.201 OA
BRANCH  12  15
HETATM   15  N1  UNL     1       2.523  16.340  64.556  1.00  0.00    -0.324 N 
ATOM     16  H12 UNL     1       3.517  16.350  64.328  1.00  0.00     0.169 HD
ATOM     17  H11 UNL     1       1.862  15.594  64.340  1.00  0.00     0.169 HD
ENDBRANCH  12  15
ENDBRANCH   9  12
ENDBRANCH   5   6
ENDBRANCH   4   5
ENDBRANCH   1   4
BRANCH   1  18
HETATM   18  C7  UNL     1       5.139  20.911  71.199  1.00  0.00     0.236 C 
BRANCH  18  19
HETATM   19  C8  UNL     1       3.708  20.539  71.518  1.00  0.00     0.088 C 
BRANCH  19  20
HETATM   20  C9  UNL     1       2.758  21.704  71.362  1.00  0.00     0.320 C 
BRANCH  20  21
HETATM   21  O3  UNL     1       2.376  22.119  72.646  1.00  0.00    -0.370 OA
ATOM     22  H3  UNL     1       2.387  21.355  73.212  1.00  0.00     0.212 HD
ENDBRANCH  20  21
BRANCH  20  23
HETATM   23  N3  UNL     1       3.338  22.793  70.619  1.00  0.00    -0.046 N 
ATOM     24  H32 UNL     1       4.048  23.283  71.163  1.00  0.00     0.280 HD
ATOM     25  H31 UNL     1       3.928  22.457  69.859  1.00  0.00     0.280 HD
BRANCH  23  26
HETATM   26  C10 UNL     1       2.331  23.683  70.149  1.00  0.00     0.263 C 
BRANCH  26  27
HETATM   27  C11 UNL     1       1.296  22.848  69.409  1.00  0.00     0.001 C 
HETATM   28  C12 UNL     1       0.985  23.134  68.189  1.00  0.00     0.009 C 
BRANCH  28  29
HETATM   29  C13 UNL     1       0.010  22.377  67.436  1.00  0.00    -0.036 A 
HETATM   30  C14 UNL     1      -1.233  22.049  68.008  1.00  0.00     0.011 A 
HETATM   31  C15 UNL     1      -2.173  21.335  67.314  1.00  0.00     0.001 A 
HETATM   32  C16 UNL     1      -1.939  20.910  66.036  1.00  0.00     0.000 A 
HETATM   33  C17 UNL     1      -0.724  21.218  65.447  1.00  0.00     0.001 A 
HETATM   34  C18 UNL     1       0.220  21.940  66.156  1.00  0.00     0.011 A 
ENDBRANCH  28  29
ENDBRANCH  26  27
ENDBRANCH  23  26
ENDBRANCH  20  23
ENDBRANCH  19  20
ENDBRANCH  18  19
ENDBRANCH   1  18
TORSDOF 13
ENDMDL
MODEL 3
REMARK VINA RESULT: -6.647456145      2.507      4.844
REMARK  13 active torsions:
REMARK  status: ('A' for Active; 'I' for Inactive)
REMARK    1  A    between atoms: N1_1  and  S1_4 
REMARK    2  A    between atoms: S1_4  and  C1_7 
REMARK    3  A    between atoms: C4_10  and  C5_11 
REMARK    4  A    between atoms: C5_11  and  C6_12 
REMARK    5  A    between atoms: C6_12  and  N2_13 
REMARK    6  A    between atoms: N2_13  and  C7_16 
REMARK    7  A    between atoms: C7_16  and  C8_17 
REMARK    8  A    between atoms: C8_17  and  C9_18 
REMARK    9  A    between atoms: C9_18  and  O3_19 
REMARK   10  A    between atoms: C9_18  and  N3_21 
REMARK   11  A    between atoms: N3_21  and  C10_24 
REMARK   12  A    between atoms: C10_24  and  C11_25 
REMARK   13  A    between atoms: C12_26  and  C13_27 
ROOT
HETATM    1  N2  UNL     1      -2.084  21.008  66.951  1.00  0.00    -0.075 N 
ATOM      2  H21 UNL     1      -3.060  21.203  66.728  1.00  0.00     0.277 HD
ATOM      3  H22 UNL     1      -2.207  20.356  67.726  1.00  0.00     0.277 HD
ENDROOT
BRANCH   1   4
HETATM    4  C6  UNL     1      -1.429  22.201  67.402  1.00  0.00     0.237 C 
BRANCH   4   5
HETATM    5  C5  UNL     1      -0.035  22.398  66.912  1.00  0.00     0.066 C 
BRANCH   5   6
HETATM    6  C4  UNL     1       1.023  22.026  67.885  1.00  0.00    -0.057 A 
HETATM    7  C3  UNL     1       1.916  20.995  67.674  1.00  0.00     0.009 A 
HETATM    8  C2  UNL     1       2.891  20.675  68.593  1.00  0.00     0.026 A 
HETATM    9  C1  UNL     1       3.025  21.371  69.775  1.00  0.00     0.079 A 
HETATM   10  C20 UNL     1       2.144  22.405  70.006  1.00  0.00     0.026 A 
HETATM   11  C19 UNL     1       1.170  22.721  69.085  1.00  0.00     0.009 A 
BRANCH   9  12
HETATM   12  S1  UNL     1       4.273  20.964  70.946  1.00  0.00     0.256 S 
HETATM   13  O1  UNL     1       5.635  21.354  70.464  1.00  0.00    -0.201 OA
HETATM   14  O2  UNL     1       4.005  21.661  72.237  1.00  0.00    -0.201 OA
BRANCH  12  15
HETATM   15  N1  UNL     1       4.254  19.255  71.277  1.00  0.00    -0.324 N 
ATOM     16  H12 UNL     1       3.409  18.695  71.389  1.00  0.00     0.169 HD
ATOM     17  H11 UNL     1       5.215  18.917  71.339  1.00  0.00     0.169 HD
ENDBRANCH  12  15
ENDBRANCH   9  12
ENDBRANCH   5   6
ENDBRANCH   4   5
ENDBRANCH   1   4
BRANCH   1  18
HETATM   18  C7  UNL     1      -1.447  20.360  65.858  1.00  0.00     0.236 C 
BRANCH  18  19
HETATM   19  C8  UNL     1      -1.051  18.930  66.155  1.00  0.00     0.088 C 
BRANCH  19  20
HETATM   20  C9  UNL     1       0.161  18.488  65.367  1.00  0.00     0.320 C 
BRANCH  20  21
HETATM   21  O3  UNL     1       0.706  19.623  64.750  1.00  0.00    -0.370 OA
ATOM     22  H3  UNL     1       0.424  19.624  63.843  1.00  0.00     0.212 HD
ENDBRANCH  20  21
BRANCH  20  23
HETATM   23  N3  UNL     1       1.141  17.825  66.188  1.00  0.00    -0.046 N 
ATOM     24  H32 UNL     1       1.556  18.462  66.867  1.00  0.00     0.280 HD
ATOM     25  H31 UNL     1       0.706  17.169  66.836  1.00  0.00     0.280 HD
BRANCH  23  26
HETATM   26  C10 UNL     1       2.133  17.193  65.387  1.00  0.00     0.263 C 
BRANCH  26  27
HETATM   27  C11 UNL     1       3.489  17.540  65.984  1.00  0.00     0.001 C 
HETATM   28  C12 UNL     1       4.054  18.665  65.696  1.00  0.00     0.009 C 
BRANCH  28  29
HETATM   29  C13 UNL     1       5.341  19.049  66.233  1.00  0.00    -0.036 A 
HETATM   30  C14 UNL     1       5.716  18.657  67.532  1.00  0.00     0.011 A 
HETATM   31  C15 UNL     1       6.930  19.007  68.061  1.00  0.00     0.001 A 
HETATM   32  C16 UNL     1       7.826  19.753  67.347  1.00  0.00     0.000 A 
HETATM   33  C17 UNL     1       7.484  20.153  66.066  1.00  0.00     0.001 A 
HETATM   34  C18 UNL     1       6.255  19.795  65.539  1.00  0.00     0.011 A 
ENDBRANCH  28  29
ENDBRANCH  26  27
ENDBRANCH  23  26
ENDBRANCH  20  23
ENDBRANCH  19  20
ENDBRANCH  18  19
ENDBRANCH   1  18
TORSDOF 13
ENDMDL
MODEL 4
REMARK VINA RESULT: -6.597556401      1.198      1.763
REMARK  13 active torsions:
REMARK  status: ('A' for Active; 'I' for Inactive)
REMARK    1  A    between atoms: N1_1  and  S1_4 
REMARK    2  A    between atoms: S1_4  and  C1_7 
REMARK    3  A    between atoms: C4_10  and  C5_11 
REMARK    4  A    between atoms: C5_11  and  C6_12 
REMARK    5  A    between atoms: C6_12  and  N2_13 
REMARK    6  A    between atoms: N2_13  and  C7_16 
REMARK    7  A    between atoms: C7_16  and  C8_17 
REMARK    8  A    between atoms: C8_17  and  C9_18 
REMARK    9  A    between atoms: C9_18  and  O3_19 
REMARK   10  A    between atoms: C9_18  and  N3_21 
REMARK   11  A    between atoms: N3_21  and  C10_24 
REMARK   12  A    between atoms: C10_24  and  C11_25 
REMARK   13  A    between atoms: C12_26  and  C13_27 
ROOT
HETATM    1  N2  UNL     1       1.639  19.093  65.023  1.00  0.00    -0.075 N 
ATOM      2  H21 UNL     1       1.639  19.202  64.008  1.00  0.00     0.277 HD
ATOM      3  H22 UNL     1       1.714  20.071  65.304  1.00  0.00     0.277 HD
ENDROOT
BRANCH   1   4
HETATM    4  C6  UNL     1       2.797  18.362  65.445  1.00  0.00     0.237 C 
BRANCH   4   5
HETATM    5  C5  UNL     1       3.401  18.797  66.737  1.00  0.00     0.066 C 
BRANCH   5   6
HETATM    6  C4  UNL     1       4.864  19.040  66.687  1.00  0.00    -0.057 A 
HETATM    7  C3  UNL     1       5.467  19.829  65.728  1.00  0.00     0.009 A 
HETATM    8  C2  UNL     1       6.828  20.041  65.709  1.00  0.00     0.026 A 
HETATM    9  C1  UNL     1       7.660  19.472  66.649  1.00  0.00     0.079 A 
HETATM   10  C20 UNL     1       7.079  18.680  67.615  1.00  0.00     0.026 A 
HETATM   11  C19 UNL     1       5.718  18.471  67.631  1.00  0.00     0.009 A 
BRANCH   9  12
HETATM   12  S1  UNL     1       9.398  19.746  66.625  1.00  0.00     0.256 S 
HETATM   13  O1  UNL     1       9.786  20.757  65.591  1.00  0.00    -0.201 OA
HETATM   14  O2  UNL     1       9.855  20.228  67.961  1.00  0.00    -0.201 OA
BRANCH  12  15
HETATM   15  N1  UNL     1      10.239  18.256  66.306  1.00  0.00    -0.324 N 
ATOM     16  H12 UNL     1      11.252  18.164  66.239  1.00  0.00     0.169 HD
ATOM     17  H11 UNL     1       9.557  17.504  66.201  1.00  0.00     0.169 HD
ENDBRANCH  12  15
ENDBRANCH   9  12
ENDBRANCH   5   6
ENDBRANCH   4   5
ENDBRANCH   1   4
BRANCH   1  18
HETATM   18  C7  UNL     1       0.401  18.547  65.461  1.00  0.00     0.236 C 
BRANCH  18  19
HETATM   19  C8  UNL     1      -0.640  19.598  65.778  1.00  0.00     0.088 C 
BRANCH  19  20
HETATM   20  C9  UNL     1      -0.041  20.976  65.943  1.00  0.00     0.320 C 
BRANCH  20  21
HETATM   21  O3  UNL     1      -0.080  21.611  64.693  1.00  0.00    -0.370 OA
ATOM     22  H3  UNL     1      -0.375  22.504  64.831  1.00  0.00     0.212 HD
ENDBRANCH  20  21
BRANCH  20  23
HETATM   23  N3  UNL     1      -0.725  21.759  66.941  1.00  0.00    -0.046 N 
ATOM     24  H32 UNL     1      -1.607  22.129  66.589  1.00  0.00     0.280 HD
ATOM     25  H31 UNL     1      -1.091  21.174  67.692  1.00  0.00     0.280 HD
BRANCH  23  26
HETATM   26  C10 UNL     1       0.116  22.792  67.442  1.00  0.00     0.263 C 
BRANCH  26  27
HETATM   27  C11 UNL     1       1.160  22.137  68.334  1.00  0.00     0.001 C 
HETATM   28  C12 UNL     1       2.416  22.344  68.120  1.00  0.00     0.009 C 
BRANCH  28  29
HETATM   29  C13 UNL     1       3.453  21.749  68.934  1.00  0.00    -0.036 A 
HETATM   30  C14 UNL     1       4.789  22.170  68.806  1.00  0.00     0.011 A 
HETATM   31  C15 UNL     1       5.787  21.623  69.567  1.00  0.00     0.001 A 
HETATM   32  C16 UNL     1       5.523  20.642  70.483  1.00  0.00     0.000 A 
HETATM   33  C17 UNL     1       4.217  20.208  70.632  1.00  0.00     0.001 A 
HETATM   34  C18 UNL     1       3.214  20.766  69.858  1.00  0.00     0.011 A 
ENDBRANCH  28  29
ENDBRANCH  26  27
ENDBRANCH  23  26
ENDBRANCH  20  23
ENDBRANCH  19  20
ENDBRANCH  18  19
ENDBRANCH   1  18
TORSDOF 13
ENDMDL
MODEL 5
REMARK VINA RESULT: -6.586555510      3.523      6.424
REMARK  13 active torsions:
REMARK  status: ('A' for Active; 'I' for Inactive)
REMARK    1  A    between atoms: N1_1  and  S1_4 
REMARK    2  A    between atoms: S1_4  and  C1_7 
REMARK    3  A    between atoms: C4_10  and  C5_11 
REMARK    4  A    between atoms: C5_11  and  C6_12 
REMARK    5  A    between atoms: C6_12  and  N2_13 
REMARK    6  A    between atoms: N2_13  and  C7_16 
REMARK    7  A    between atoms: C7_16  and  C8_17 
REMARK    8  A    between atoms: C8_17  and  C9_18 
REMARK    9  A    between atoms: C9_18  and  O3_19 
REMARK   10  A    between atoms: C9_18  and  N3_21 
REMARK   11  A    between atoms: N3_21  and  C10_24 
REMARK   12  A    between atoms: C10_24  and  C11_25 
REMARK   13  A    between atoms: C12_26  and  C13_27 
ROOT
HETATM    1  N2  UNL     1       6.095  22.378  70.735  1.00  0.00    -0.075 N 
ATOM      2  H21 UNL     1       7.058  22.205  70.447  1.00  0.00     0.277 HD
ATOM      3  H22 UNL     1       6.187  22.253  71.744  1.00  0.00     0.277 HD
ENDROOT
BRANCH   1   4
HETATM    4  C6  UNL     1       5.225  21.379  70.187  1.00  0.00     0.237 C 
BRANCH   4   5
HETATM    5  C5  UNL     1       5.832  20.485  69.160  1.00  0.00     0.066 C 
BRANCH   5   6
HETATM    6  C4  UNL     1       4.854  19.798  68.278  1.00  0.00    -0.057 A 
HETATM    7  C3  UNL     1       5.220  18.873  67.322  1.00  0.00     0.009 A 
HETATM    8  C2  UNL     1       4.290  18.247  66.521  1.00  0.00     0.026 A 
HETATM    9  C1  UNL     1       2.943  18.515  66.634  1.00  0.00     0.079 A 
HETATM   10  C20 UNL     1       2.556  19.437  67.583  1.00  0.00     0.026 A 
HETATM   11  C19 UNL     1       3.489  20.060  68.382  1.00  0.00     0.009 A 
BRANCH   9  12
HETATM   12  S1  UNL     1       1.756  17.713  65.612  1.00  0.00     0.256 S 
HETATM   13  O1  UNL     1       0.562  17.263  66.396  1.00  0.00    -0.201 OA
HETATM   14  O2  UNL     1       1.300  18.642  64.538  1.00  0.00    -0.201 OA
BRANCH  12  15
HETATM   15  N1  UNL     1       2.471  16.336  64.824  1.00  0.00    -0.324 N 
ATOM     16  H12 UNL     1       2.025  15.424  64.732  1.00  0.00     0.169 HD
ATOM     17  H11 UNL     1       3.396  16.593  64.478  1.00  0.00     0.169 HD
ENDBRANCH  12  15
ENDBRANCH   9  12
ENDBRANCH   5   6
ENDBRANCH   4   5
ENDBRANCH   1   4
BRANCH   1  18
HETATM   18  C7  UNL     1       5.721  23.716  70.436  1.00  0.00     0.236 C 
BRANCH  18  19
HETATM   19  C8  UNL     1       4.520  23.815  69.521  1.00  0.00     0.088 C 
BRANCH  19  20
HETATM   20  C9  UNL     1       3.687  25.047  69.788  1.00  0.00     0.320 C 
BRANCH  20  21
HETATM   21  O3  UNL     1       3.957  25.974  68.771  1.00  0.00    -0.370 OA
ATOM     22  H3  UNL     1       3.632  26.820  69.056  1.00  0.00     0.212 HD
ENDBRANCH  20  21
BRANCH  20  23
HETATM   23  N3  UNL     1       2.278  24.756  69.859  1.00  0.00    -0.046 N 
ATOM     24  H32 UNL     1       1.760  25.510  70.309  1.00  0.00     0.280 HD
ATOM     25  H31 UNL     1       1.839  24.793  68.940  1.00  0.00     0.280 HD
BRANCH  23  26
HETATM   26  C10 UNL     1       2.049  23.506  70.501  1.00  0.00     0.263 C 
BRANCH  26  27
HETATM   27  C11 UNL     1       1.013  22.756  69.678  1.00  0.00     0.001 C 
HETATM   28  C12 UNL     1       0.892  22.994  68.415  1.00  0.00     0.009 C 
BRANCH  28  29
HETATM   29  C13 UNL     1      -0.074  22.313  67.582  1.00  0.00    -0.036 A 
HETATM   30  C14 UNL     1       0.250  21.957  66.260  1.00  0.00     0.011 A 
HETATM   31  C15 UNL     1      -0.647  21.309  65.454  1.00  0.00     0.001 A 
HETATM   32  C16 UNL     1      -1.897  20.984  65.902  1.00  0.00     0.000 A 
HETATM   33  C17 UNL     1      -2.244  21.321  67.199  1.00  0.00     0.001 A 
HETATM   34  C18 UNL     1      -1.332  21.976  68.008  1.00  0.00     0.011 A 
ENDBRANCH  28  29
ENDBRANCH  26  27
ENDBRANCH  23  26
ENDBRANCH  20  23
ENDBRANCH  19  20
ENDBRANCH  18  19
ENDBRANCH   1  18
TORSDOF 13
ENDMDL
