MODEL 1
REMARK VINA RESULT: -7.144758761      0.000      0.000
REMARK  12 active torsions:
REMARK  status: ('A' for Active; 'I' for Inactive)
REMARK    1  A    between atoms: N1_1  and  C1_5 
REMARK    2  A    between atoms: C1_5  and  C2_6 
REMARK    3  A    between atoms: C2_6  and  C3_7 
REMARK       I    between atoms: C3_7  and  N2_9 
REMARK    4  A    between atoms: N2_9  and  C4_10 
REMARK    5  A    between atoms: N2_9  and  C7_16 
REMARK    6  A    between atoms: C4_10  and  C5_11 
REMARK    7  A    between atoms: C5_11  and  N3_12 
REMARK    8  A    between atoms: N3_12  and  C6_14 
REMARK    9  A    between atoms: C7_16  and  C8_17 
REMARK   10  A    between atoms: C8_17  and  O3_18 
REMARK   11  A    between atoms: O3_18  and  C9_19 
REMARK   12  A    between atoms: C14_26  and  C15_27 
ROOT
HETATM    1  O3  UNL     1       1.766  22.643  67.053  1.00  0.00    -0.347 OA
ENDROOT
BRANCH   1   2
HETATM    2  C8  UNL     1       2.605  22.263  68.105  1.00  0.00     0.195 C 
BRANCH   2   3
HETATM    3  C7  UNL     1       3.959  21.761  67.740  1.00  0.00     0.152 C 
BRANCH   3   4
HETATM    4  N2  UNL     1       4.174  20.358  67.901  1.00  0.00    -0.349 N 
HETATM    5  C3  UNL     1       5.152  19.686  67.101  1.00  0.00     0.221 C 
HETATM    6  O1  UNL     1       5.229  18.431  67.200  1.00  0.00    -0.273 OA
BRANCH   5   7
HETATM    7  C2  UNL     1       6.030  20.428  66.209  1.00  0.00     0.130 C 
BRANCH   7   8
HETATM    8  C1  UNL     1       7.475  20.001  66.488  1.00  0.00     0.238 C 
BRANCH   8   9
HETATM    9  N1  UNL     1       7.718  20.251  67.896  1.00  0.00    -0.079 N 
ATOM     10  H13 UNL     1       8.089  21.183  68.081  1.00  0.00     0.274 HD
ATOM     11  H12 UNL     1       6.862  20.342  68.443  1.00  0.00     0.274 HD
ATOM     12  H11 UNL     1       8.329  19.503  68.225  1.00  0.00     0.274 HD
ENDBRANCH   8   9
ENDBRANCH   7   8
ENDBRANCH   5   7
BRANCH   4  13
HETATM   13  C4  UNL     1       3.403  19.527  68.793  1.00  0.00     0.145 C 
BRANCH  13  14
HETATM   14  C5  UNL     1       3.709  19.696  70.245  1.00  0.00     0.141 C 
BRANCH  14  15
HETATM   15  N3  UNL     1       5.088  19.755  70.616  1.00  0.00    -0.367 N 
ATOM     16  H3  UNL     1       5.648  18.905  70.553  1.00  0.00     0.161 HD
BRANCH  15  17
HETATM   17  C6  UNL     1       5.714  20.961  71.071  1.00  0.00     0.348 C 
HETATM   18  O2  UNL     1       6.413  21.625  70.258  1.00  0.00    -0.284 OA
ENDBRANCH  15  17
ENDBRANCH  14  15
ENDBRANCH  13  14
ENDBRANCH   4  13
ENDBRANCH   3   4
ENDBRANCH   2   3
ENDBRANCH   1   2
BRANCH   1  19
HETATM   19  C9  UNL     1       0.541  21.994  66.955  1.00  0.00     0.097 A 
HETATM   20  C10 UNL     1      -0.638  22.525  67.441  1.00  0.00     0.039 A 
HETATM   21  C11 UNL     1      -1.852  21.866  67.336  1.00  0.00     0.005 A 
HETATM   22  C12 UNL     1      -1.915  20.641  66.730  1.00  0.00     0.032 A 
HETATM   23  C13 UNL     1      -0.752  20.089  66.236  1.00  0.00     0.063 A 
HETATM   24  N4  UNL     1      -0.474  18.934  65.603  1.00  0.00    -0.339 N 
HETATM   25  C19 UNL     1       0.466  20.756  66.345  1.00  0.00     0.094 A 
HETATM   26  C14 UNL     1       0.842  18.863  65.324  1.00  0.00     0.133 A 
ATOM     27  H4  UNL     1      -1.160  18.216  65.370  1.00  0.00     0.167 HD
HETATM   28  N6  UNL     1       1.424  19.984  65.779  1.00  0.00    -0.337 N 
ATOM     29  H6  UNL     1       2.416  20.214  65.710  1.00  0.00     0.168 HD
BRANCH  26  30
HETATM   30  C15 UNL     1       1.469  17.729  64.636  1.00  0.00     0.076 A 
HETATM   31  C16 UNL     1       2.686  17.143  64.911  1.00  0.00     0.035 A 
HETATM   32  C17 UNL     1       2.916  16.102  64.036  1.00  0.00     0.019 A 
HETATM   33  C18 UNL     1       1.805  16.067  63.215  1.00  0.00     0.088 A 
HETATM   34  N5  UNL     1       0.963  17.045  63.595  1.00  0.00    -0.363 N 
ATOM     35  H5  UNL     1       0.064  17.239  63.154  1.00  0.00     0.165 HD
ENDBRANCH  26  30
ENDBRANCH   1  19
TORSDOF 12
ENDMDL
MODEL 2
REMARK VINA RESULT: -7.057925528      2.095      7.049
REMARK  12 active torsions:
REMARK  status: ('A' for Active; 'I' for Inactive)
REMARK    1  A    between atoms: N1_1  and  C1_5 
REMARK    2  A    between atoms: C1_5  and  C2_6 
REMARK    3  A    between atoms: C2_6  and  C3_7 
REMARK       I    between atoms: C3_7  and  N2_9 
REMARK    4  A    between atoms: N2_9  and  C4_10 
REMARK    5  A    between atoms: N2_9  and  C7_16 
REMARK    6  A    between atoms: C4_10  and  C5_11 
REMARK    7  A    between atoms: C5_11  and  N3_12 
REMARK    8  A    between atoms: N3_12  and  C6_14 
REMARK    9  A    between atoms: C7_16  and  C8_17 
REMARK   10  A    between atoms: C8_17  and  O3_18 
REMARK   11  A    between atoms: O3_18  and  C9_19 
REMARK   12  A    between atoms: C14_26  and  C15_27 
ROOT
HETATM    1  O3  UNL     1       2.955  19.415  68.651  1.00  0.00    -0.347 OA
ENDROOT
BRANCH   1   2
HETATM    2  C8  UNL     1       2.151  20.340  67.978  1.00  0.00     0.195 C 
BRANCH   2   3
HETATM    3  C7  UNL     1       1.917  20.101  66.527  1.00  0.00     0.152 C 
BRANCH   3   4
HETATM    4  N2  UNL     1       0.829  19.236  66.200  1.00  0.00    -0.349 N 
HETATM    5  C3  UNL     1      -0.409  19.785  65.733  1.00  0.00     0.221 C 
HETATM    6  O1  UNL     1      -1.375  18.992  65.563  1.00  0.00    -0.273 OA
BRANCH   5   7
HETATM    7  C2  UNL     1      -0.543  21.207  65.461  1.00  0.00     0.130 C 
BRANCH   7   8
HETATM    8  C1  UNL     1      -1.937  21.655  65.913  1.00  0.00     0.238 C 
BRANCH   8   9
HETATM    9  N1  UNL     1      -2.076  21.249  67.299  1.00  0.00    -0.079 N 
ATOM     10  H13 UNL     1      -1.254  21.460  67.865  1.00  0.00     0.274 HD
ATOM     11  H12 UNL     1      -2.742  21.819  67.821  1.00  0.00     0.274 HD
ATOM     12  H11 UNL     1      -2.315  20.257  67.290  1.00  0.00     0.274 HD
ENDBRANCH   8   9
ENDBRANCH   7   8
ENDBRANCH   5   7
BRANCH   4  13
HETATM   13  C4  UNL     1       0.862  17.805  66.375  1.00  0.00     0.145 C 
BRANCH  13  14
HETATM   14  C5  UNL     1       1.913  17.091  65.590  1.00  0.00     0.141 C 
BRANCH  14  15
HETATM   15  N3  UNL     1       1.498  16.450  64.383  1.00  0.00    -0.367 N 
ATOM     16  H3  UNL     1       0.501  16.313  64.219  1.00  0.00     0.161 HD
BRANCH  15  17
HETATM   17  C6  UNL     1       2.428  15.992  63.394  1.00  0.00     0.348 C 
HETATM   18  O2  UNL     1       2.902  16.825  62.575  1.00  0.00    -0.284 OA
ENDBRANCH  15  17
ENDBRANCH  14  15
ENDBRANCH  13  14
ENDBRANCH   4  13
ENDBRANCH   3   4
ENDBRANCH   2   3
ENDBRANCH   1   2
BRANCH   1  19
HETATM   19  C9  UNL     1       3.992  19.922  69.424  1.00  0.00     0.097 A 
HETATM   20  C10 UNL     1       3.837  20.303  70.742  1.00  0.00     0.039 A 
HETATM   21  C11 UNL     1       4.880  20.808  71.501  1.00  0.00     0.005 A 
HETATM   22  C12 UNL     1       6.125  20.943  70.949  1.00  0.00     0.032 A 
HETATM   23  C13 UNL     1       6.306  20.570  69.634  1.00  0.00     0.063 A 
HETATM   24  N4  UNL     1       7.372  20.575  68.811  1.00  0.00    -0.339 N 
HETATM   25  C19 UNL     1       5.253  20.063  68.876  1.00  0.00     0.094 A 
HETATM   26  C14 UNL     1       7.024  20.101  67.599  1.00  0.00     0.133 A 
ATOM     27  H4  UNL     1       8.307  20.891  69.068  1.00  0.00     0.167 HD
HETATM   28  N6  UNL     1       5.719  19.785  67.635  1.00  0.00    -0.337 N 
ATOM     29  H6  UNL     1       5.175  19.402  66.862  1.00  0.00     0.168 HD
BRANCH  26  30
HETATM   30  C15 UNL     1       7.958  19.977  66.474  1.00  0.00     0.076 A 
HETATM   31  C16 UNL     1       7.655  19.800  65.141  1.00  0.00     0.035 A 
HETATM   32  C17 UNL     1       8.816  19.729  64.400  1.00  0.00     0.019 A 
HETATM   33  C18 UNL     1       9.840  19.866  65.317  1.00  0.00     0.088 A 
HETATM   34  N5  UNL     1       9.300  20.011  66.541  1.00  0.00    -0.363 N 
ATOM     35  H5  UNL     1       9.836  20.131  67.400  1.00  0.00     0.165 HD
ENDBRANCH  26  30
ENDBRANCH   1  19
TORSDOF 12
ENDMDL
MODEL 3
REMARK VINA RESULT: -6.972840927      1.286      2.847
REMARK  12 active torsions:
REMARK  status: ('A' for Active; 'I' for Inactive)
REMARK    1  A    between atoms: N1_1  and  C1_5 
REMARK    2  A    between atoms: C1_5  and  C2_6 
REMARK    3  A    between atoms: C2_6  and  C3_7 
REMARK       I    between atoms: C3_7  and  N2_9 
REMARK    4  A    between atoms: N2_9  and  C4_10 
REMARK    5  A    between atoms: N2_9  and  C7_16 
REMARK    6  A    between atoms: C4_10  and  C5_11 
REMARK    7  A    between atoms: C5_11  and  N3_12 
REMARK    8  A    between atoms: N3_12  and  C6_14 
REMARK    9  A    between atoms: C7_16  and  C8_17 
REMARK   10  A    between atoms: C8_17  and  O3_18 
REMARK   11  A    between atoms: O3_18  and  C9_19 
REMARK   12  A    between atoms: C14_26  and  C15_27 
ROOT
HETATM    1  O3  UNL     1       1.690  22.774  67.127  1.00  0.00    -0.347 OA
ENDROOT
BRANCH   1   2
HETATM    2  C8  UNL     1       2.275  22.918  68.388  1.00  0.00     0.195 C 
BRANCH   2   3
HETATM    3  C7  UNL     1       3.629  22.326  68.576  1.00  0.00     0.152 C 
BRANCH   3   4
HETATM    4  N2  UNL     1       3.722  20.909  68.424  1.00  0.00    -0.349 N 
HETATM    5  C3  UNL     1       3.411  20.046  69.523  1.00  0.00     0.221 C 
HETATM    6  O1  UNL     1       3.614  18.810  69.376  1.00  0.00    -0.273 OA
BRANCH   5   7
HETATM    7  C2  UNL     1       2.875  20.580  70.766  1.00  0.00     0.130 C 
BRANCH   7   8
HETATM    8  C1  UNL     1       3.777  20.121  71.917  1.00  0.00     0.238 C 
BRANCH   8   9
HETATM    9  N1  UNL     1       5.128  20.074  71.394  1.00  0.00    -0.079 N 
ATOM     10  H13 UNL     1       5.309  20.780  70.679  1.00  0.00     0.274 HD
ATOM     11  H12 UNL     1       5.831  20.388  72.064  1.00  0.00     0.274 HD
ATOM     12  H11 UNL     1       5.283  19.121  71.066  1.00  0.00     0.274 HD
ENDBRANCH   8   9
ENDBRANCH   7   8
ENDBRANCH   5   7
BRANCH   4  13
HETATM   13  C4  UNL     1       4.188  20.261  67.222  1.00  0.00     0.145 C 
BRANCH  13  14
HETATM   14  C5  UNL     1       5.524  20.713  66.732  1.00  0.00     0.141 C 
BRANCH  14  15
HETATM   15  N3  UNL     1       6.291  19.773  65.977  1.00  0.00    -0.367 N 
ATOM     16  H3  UNL     1       6.054  18.783  66.042  1.00  0.00     0.161 HD
BRANCH  15  17
HETATM   17  C6  UNL     1       7.378  20.167  65.131  1.00  0.00     0.348 C 
HETATM   18  O2  UNL     1       7.395  21.342  64.672  1.00  0.00    -0.284 OA
ENDBRANCH  15  17
ENDBRANCH  14  15
ENDBRANCH  13  14
ENDBRANCH   4  13
ENDBRANCH   3   4
ENDBRANCH   2   3
ENDBRANCH   1   2
BRANCH   1  19
HETATM   19  C9  UNL     1       0.478  22.098  67.066  1.00  0.00     0.097 A 
HETATM   20  C10 UNL     1      -0.694  22.594  67.603  1.00  0.00     0.039 A 
HETATM   21  C11 UNL     1      -1.896  21.908  67.534  1.00  0.00     0.005 A 
HETATM   22  C12 UNL     1      -1.953  20.689  66.914  1.00  0.00     0.032 A 
HETATM   23  C13 UNL     1      -0.796  20.172  66.370  1.00  0.00     0.063 A 
HETATM   24  N4  UNL     1      -0.515  19.032  65.711  1.00  0.00    -0.339 N 
HETATM   25  C19 UNL     1       0.409  20.867  66.443  1.00  0.00     0.094 A 
HETATM   26  C14 UNL     1       0.790  18.996  65.381  1.00  0.00     0.133 A 
ATOM     27  H4  UNL     1      -1.193  18.301  65.493  1.00  0.00     0.167 HD
HETATM   28  N6  UNL     1       1.363  20.125  65.830  1.00  0.00    -0.337 N 
ATOM     29  H6  UNL     1       2.346  20.379  65.727  1.00  0.00     0.168 HD
BRANCH  26  30
HETATM   30  C15 UNL     1       1.417  17.886  64.655  1.00  0.00     0.076 A 
HETATM   31  C16 UNL     1       2.752  17.548  64.620  1.00  0.00     0.035 A 
HETATM   32  C17 UNL     1       2.937  16.438  63.822  1.00  0.00     0.019 A 
HETATM   33  C18 UNL     1       1.675  16.106  63.368  1.00  0.00     0.088 A 
HETATM   34  N5  UNL     1       0.793  16.983  63.879  1.00  0.00    -0.363 N 
ATOM     35  H5  UNL     1      -0.212  16.965  63.703  1.00  0.00     0.165 HD
ENDBRANCH  26  30
ENDBRANCH   1  19
TORSDOF 12
ENDMDL
MODEL 4
REMARK VINA RESULT: -6.964929445      2.280      5.506
REMARK  12 active torsions:
REMARK  status: ('A' for Active; 'I' for Inactive)
REMARK    1  A    between atoms: N1_1  and  C1_5 
REMARK    2  A    between atoms: C1_5  and  C2_6 
REMARK    3  A    between atoms: C2_6  and  C3_7 
REMARK       I    between atoms: C3_7  and  N2_9 
REMARK    4  A    between atoms: N2_9  and  C4_10 
REMARK    5  A    between atoms: N2_9  and  C7_16 
REMARK    6  A    between atoms: C4_10  and  C5_11 
REMARK    7  A    between atoms: C5_11  and  N3_12 
REMARK    8  A    between atoms: N3_12  and  C6_14 
REMARK    9  A    between atoms: C7_16  and  C8_17 
REMARK   10  A    between atoms: C8_17  and  O3_18 
REMARK   11  A    between atoms: O3_18  and  C9_19 
REMARK   12  A    between atoms: C14_26  and  C15_27 
ROOT
HETATM    1  O3  UNL     1       4.736  20.606  69.881  1.00  0.00    -0.347 OA
ENDROOT
BRANCH   1   2
HETATM    2  C8  UNL     1       5.511  19.959  68.913  1.00  0.00     0.195 C 
BRANCH   2   3
HETATM    3  C7  UNL     1       4.854  18.867  68.143  1.00  0.00     0.152 C 
BRANCH   3   4
HETATM    4  N2  UNL     1       4.656  19.110  66.750  1.00  0.00    -0.349 N 
HETATM    5  C3  UNL     1       3.727  18.314  66.007  1.00  0.00     0.221 C 
HETATM    6  O1  UNL     1       3.668  18.492  64.759  1.00  0.00    -0.273 OA
BRANCH   5   7
HETATM    7  C2  UNL     1       2.878  17.338  66.671  1.00  0.00     0.130 C 
BRANCH   7   8
HETATM    8  C1  UNL     1       1.422  17.623  66.286  1.00  0.00     0.238 C 
BRANCH   8   9
HETATM    9  N1  UNL     1       1.160  16.881  65.069  1.00  0.00    -0.079 N 
ATOM     10  H13 UNL     1       1.941  16.291  64.780  1.00  0.00     0.274 HD
ATOM     11  H12 UNL     1       0.475  16.134  65.192  1.00  0.00     0.274 HD
ATOM     12  H11 UNL     1       0.888  17.564  64.362  1.00  0.00     0.274 HD
ENDBRANCH   8   9
ENDBRANCH   7   8
ENDBRANCH   5   7
BRANCH   4  13
HETATM   13  C4  UNL     1       5.400  20.088  65.994  1.00  0.00     0.145 C 
BRANCH  13  14
HETATM   14  C5  UNL     1       6.803  19.702  65.659  1.00  0.00     0.141 C 
BRANCH  14  15
HETATM   15  N3  UNL     1       7.778  20.745  65.645  1.00  0.00    -0.367 N 
ATOM     16  H3  UNL     1       7.966  21.251  66.511  1.00  0.00     0.161 HD
BRANCH  15  17
HETATM   17  C6  UNL     1       8.503  21.109  64.464  1.00  0.00     0.348 C 
HETATM   18  O2  UNL     1       8.402  22.289  64.031  1.00  0.00    -0.284 OA
ENDBRANCH  15  17
ENDBRANCH  14  15
ENDBRANCH  13  14
ENDBRANCH   4  13
ENDBRANCH   3   4
ENDBRANCH   2   3
ENDBRANCH   1   2
BRANCH   1  19
HETATM   19  C9  UNL     1       4.455  21.950  69.672  1.00  0.00     0.097 A 
HETATM   20  C10 UNL     1       5.255  22.973  70.143  1.00  0.00     0.039 A 
HETATM   21  C11 UNL     1       4.962  24.309  69.927  1.00  0.00     0.005 A 
HETATM   22  C12 UNL     1       3.842  24.659  69.223  1.00  0.00     0.032 A 
HETATM   23  C13 UNL     1       3.026  23.656  68.742  1.00  0.00     0.063 A 
HETATM   24  N4  UNL     1       1.882  23.657  68.032  1.00  0.00    -0.339 N 
HETATM   25  C19 UNL     1       3.326  22.314  68.962  1.00  0.00     0.094 A 
HETATM   26  C14 UNL     1       1.473  22.393  67.811  1.00  0.00     0.133 A 
ATOM     27  H4  UNL     1       1.396  24.494  67.709  1.00  0.00     0.167 HD
HETATM   28  N6  UNL     1       2.360  21.563  68.382  1.00  0.00    -0.337 N 
ATOM     29  H6  UNL     1       2.314  20.543  68.379  1.00  0.00     0.168 HD
BRANCH  26  30
HETATM   30  C15 UNL     1       0.257  22.049  67.064  1.00  0.00     0.076 A 
HETATM   31  C16 UNL     1      -1.042  22.039  67.525  1.00  0.00     0.035 A 
HETATM   32  C17 UNL     1      -1.898  21.659  66.513  1.00  0.00     0.019 A 
HETATM   33  C18 UNL     1      -1.086  21.434  65.418  1.00  0.00     0.088 A 
HETATM   34  N5  UNL     1       0.188  21.675  65.775  1.00  0.00    -0.363 N 
ATOM     35  H5  UNL     1       0.992  21.585  65.153  1.00  0.00     0.165 HD
ENDBRANCH  26  30
ENDBRANCH   1  19
TORSDOF 12
ENDMDL
MODEL 5
REMARK VINA RESULT: -6.859794010      2.339      5.326
REMARK  12 active torsions:
REMARK  status: ('A' for Active; 'I' for Inactive)
REMARK    1  A    between atoms: N1_1  and  C1_5 
REMARK    2  A    between atoms: C1_5  and  C2_6 
REMARK    3  A    between atoms: C2_6  and  C3_7 
REMARK       I    between atoms: C3_7  and  N2_9 
REMARK    4  A    between atoms: N2_9  and  C4_10 
REMARK    5  A    between atoms: N2_9  and  C7_16 
REMARK    6  A    between atoms: C4_10  and  C5_11 
REMARK    7  A    between atoms: C5_11  and  N3_12 
REMARK    8  A    between atoms: N3_12  and  C6_14 
REMARK    9  A    between atoms: C7_16  and  C8_17 
REMARK   10  A    between atoms: C8_17  and  O3_18 
REMARK   11  A    between atoms: O3_18  and  C9_19 
REMARK   12  A    between atoms: C14_26  and  C15_27 
ROOT
HETATM    1  O3  UNL     1       1.676  19.086  65.674  1.00  0.00    -0.347 OA
ENDROOT
BRANCH   1   2
HETATM    2  C8  UNL     1       2.006  17.952  66.423  1.00  0.00     0.195 C 
BRANCH   2   3
HETATM    3  C7  UNL     1       3.448  17.738  66.723  1.00  0.00     0.152 C 
BRANCH   3   4
HETATM    4  N2  UNL     1       4.240  18.916  66.879  1.00  0.00    -0.349 N 
HETATM    5  C3  UNL     1       4.225  19.633  68.118  1.00  0.00     0.221 C 
HETATM    6  O1  UNL     1       4.853  20.726  68.172  1.00  0.00    -0.273 OA
BRANCH   5   7
HETATM    7  C2  UNL     1       3.514  19.113  69.276  1.00  0.00     0.130 C 
BRANCH   7   8
HETATM    8  C1  UNL     1       3.572  20.164  70.390  1.00  0.00     0.238 C 
BRANCH   8   9
HETATM    9  N1  UNL     1       4.761  19.879  71.169  1.00  0.00    -0.079 N 
ATOM     10  H13 UNL     1       4.591  19.866  72.175  1.00  0.00     0.274 HD
ATOM     11  H12 UNL     1       5.079  18.913  71.081  1.00  0.00     0.274 HD
ATOM     12  H11 UNL     1       5.466  20.561  70.889  1.00  0.00     0.274 HD
ENDBRANCH   8   9
ENDBRANCH   7   8
ENDBRANCH   5   7
BRANCH   4  13
HETATM   13  C4  UNL     1       5.029  19.497  65.820  1.00  0.00     0.145 C 
BRANCH  13  14
HETATM   14  C5  UNL     1       6.509  19.404  66.003  1.00  0.00     0.141 C 
BRANCH  14  15
HETATM   15  N3  UNL     1       7.245  20.628  65.964  1.00  0.00    -0.367 N 
ATOM     16  H3  UNL     1       7.411  21.128  66.837  1.00  0.00     0.161 HD
BRANCH  15  17
HETATM   17  C6  UNL     1       7.759  21.180  64.745  1.00  0.00     0.348 C 
HETATM   18  O2  UNL     1       8.915  21.682  64.748  1.00  0.00    -0.284 OA
ENDBRANCH  15  17
ENDBRANCH  14  15
ENDBRANCH  13  14
ENDBRANCH   4  13
ENDBRANCH   3   4
ENDBRANCH   2   3
ENDBRANCH   1   2
BRANCH   1  19
HETATM   19  C9  UNL     1       0.566  19.813  66.082  1.00  0.00     0.097 A 
HETATM   20  C10 UNL     1      -0.731  19.460  65.761  1.00  0.00     0.039 A 
HETATM   21  C11 UNL     1      -1.829  20.196  66.175  1.00  0.00     0.005 A 
HETATM   22  C12 UNL     1      -1.652  21.321  66.934  1.00  0.00     0.032 A 
HETATM   23  C13 UNL     1      -0.368  21.695  67.269  1.00  0.00     0.063 A 
HETATM   24  N4  UNL     1       0.141  22.717  67.982  1.00  0.00    -0.339 N 
HETATM   25  C19 UNL     1       0.733  20.951  66.849  1.00  0.00     0.094 A 
HETATM   26  C14 UNL     1       1.484  22.635  68.018  1.00  0.00     0.133 A 
ATOM     27  H4  UNL     1      -0.412  23.448  68.431  1.00  0.00     0.167 HD
HETATM   28  N6  UNL     1       1.853  21.548  67.321  1.00  0.00    -0.337 N 
ATOM     29  H6  UNL     1       2.811  21.228  67.174  1.00  0.00     0.168 HD
BRANCH  26  30
HETATM   30  C15 UNL     1       2.341  23.600  68.717  1.00  0.00     0.076 A 
HETATM   31  C16 UNL     1       3.624  23.981  68.389  1.00  0.00     0.035 A 
HETATM   32  C17 UNL     1       4.086  24.912  69.297  1.00  0.00     0.019 A 
HETATM   33  C18 UNL     1       3.048  25.089  70.192  1.00  0.00     0.088 A 
HETATM   34  N5  UNL     1       2.026  24.298  69.822  1.00  0.00    -0.363 N 
ATOM     35  H5  UNL     1       1.133  24.236  70.312  1.00  0.00     0.165 HD
ENDBRANCH  26  30
ENDBRANCH   1  19
TORSDOF 12
ENDMDL
