MODEL 1
REMARK VINA RESULT: -6.417409337      0.000      0.000
REMARK  5 active torsions:
REMARK  status: ('A' for Active; 'I' for Inactive)
REMARK    1  A    between atoms: C1_2  and  N1_3 
REMARK    2  A    between atoms: C1_2  and  N3_12 
REMARK    3  A    between atoms: N1_3  and  C2_5 
REMARK    4  A    between atoms: C2_5  and  C3_6 
REMARK    5  A    between atoms: C3_6  and  N2_7 
ROOT
HETATM    1  S1  UNL     1      -3.211   6.041  13.531  1.00  0.00    -0.041 SA
HETATM    2  C1  UNL     1      -3.033   4.400  13.646  1.00  0.00     0.172 C 
ENDROOT
BRANCH   2   3
HETATM    3  N1  UNL     1      -2.716   3.894  14.932  1.00  0.00    -0.365 N 
ATOM      4  H1  UNL     1      -1.819   4.160  15.336  1.00  0.00     0.161 HD
BRANCH   3   5
HETATM    5  C2  UNL     1      -3.573   3.029  15.711  1.00  0.00     0.152 C 
BRANCH   5   6
HETATM    6  C3  UNL     1      -4.993   3.486  15.703  1.00  0.00     0.292 C 
BRANCH   6   7
HETATM    7  N2  UNL     1      -5.886   2.316  15.652  1.00  0.00     0.090 N 
HETATM    8  C4  UNL     1      -5.164   1.141  16.118  1.00  0.00     0.272 C 
HETATM    9  C5  UNL     1      -5.960   0.469  17.181  1.00  0.00     0.032 C 
HETATM   10  C6  UNL     1      -7.272   1.213  17.177  1.00  0.00     0.032 C 
HETATM   11  C7  UNL     1      -6.886   2.582  16.689  1.00  0.00     0.272 C 
ENDBRANCH   6   7
ENDBRANCH   5   6
ENDBRANCH   3   5
ENDBRANCH   2   3
BRANCH   2  12
HETATM   12  N3  UNL     1      -3.215   3.607  12.508  1.00  0.00    -0.327 N 
HETATM   13  C8  UNL     1      -2.076   3.410  11.605  1.00  0.00     0.091 C 
HETATM   14  C9  UNL     1      -1.729   1.948  11.449  1.00  0.00     0.026 C 
HETATM   15  C14 UNL     1      -2.556   3.900  10.244  1.00  0.00     0.051 C 
HETATM   16  C10 UNL     1      -2.968   1.131  11.162  1.00  0.00     0.006 C 
HETATM   17  C11 UNL     1      -4.087   1.395  12.140  1.00  0.00     0.054 C 
HETATM   18  C12 UNL     1      -4.411   2.902  12.110  1.00  0.00     0.225 C 
HETATM   19  O1  UNL     1      -4.786   3.169  10.792  1.00  0.00    -0.366 OA
HETATM   20  C13 UNL     1      -4.039   4.200  10.238  1.00  0.00     0.172 C 
ENDBRANCH   2  12
TORSDOF 5
ENDMDL
MODEL 2
REMARK VINA RESULT: -6.303254802      0.727      1.206
REMARK  5 active torsions:
REMARK  status: ('A' for Active; 'I' for Inactive)
REMARK    1  A    between atoms: C1_2  and  N1_3 
REMARK    2  A    between atoms: C1_2  and  N3_12 
REMARK    3  A    between atoms: N1_3  and  C2_5 
REMARK    4  A    between atoms: C2_5  and  C3_6 
REMARK    5  A    between atoms: C3_6  and  N2_7 
ROOT
HETATM    1  S1  UNL     1      -3.643   6.030  13.283  1.00  0.00    -0.041 SA
HETATM    2  C1  UNL     1      -3.113   4.464  13.353  1.00  0.00     0.172 C 
ENDROOT
BRANCH   2   3
HETATM    3  N1  UNL     1      -2.969   3.909  14.649  1.00  0.00    -0.365 N 
ATOM      4  H1  UNL     1      -2.190   4.236  15.219  1.00  0.00     0.161 HD
BRANCH   3   5
HETATM    5  C2  UNL     1      -3.847   2.915  15.222  1.00  0.00     0.152 C 
BRANCH   5   6
HETATM    6  C3  UNL     1      -5.112   3.511  15.743  1.00  0.00     0.292 C 
BRANCH   6   7
HETATM    7  N2  UNL     1      -5.565   2.754  16.922  1.00  0.00     0.090 N 
HETATM    8  C4  UNL     1      -7.008   2.579  16.855  1.00  0.00     0.272 C 
HETATM    9  C5  UNL     1      -7.333   1.138  17.027  1.00  0.00     0.032 C 
HETATM   10  C6  UNL     1      -6.011   0.508  17.385  1.00  0.00     0.032 C 
HETATM   11  C7  UNL     1      -5.011   1.413  16.721  1.00  0.00     0.272 C 
ENDBRANCH   6   7
ENDBRANCH   5   6
ENDBRANCH   3   5
ENDBRANCH   2   3
BRANCH   2  12
HETATM   12  N3  UNL     1      -2.855   3.772  12.165  1.00  0.00    -0.327 N 
HETATM   13  C8  UNL     1      -1.574   4.001  11.488  1.00  0.00     0.091 C 
HETATM   14  C9  UNL     1      -0.784   2.722  11.332  1.00  0.00     0.026 C 
HETATM   15  C14 UNL     1      -1.942   4.469  10.085  1.00  0.00     0.051 C 
HETATM   16  C10 UNL     1      -1.656   1.620  10.775  1.00  0.00     0.006 C 
HETATM   17  C11 UNL     1      -2.950   1.452  11.533  1.00  0.00     0.054 C 
HETATM   18  C12 UNL     1      -3.700   2.799  11.512  1.00  0.00     0.225 C 
HETATM   19  O1  UNL     1      -3.910   3.080  10.161  1.00  0.00    -0.366 OA
HETATM   20  C13 UNL     1      -3.423   4.333   9.810  1.00  0.00     0.172 C 
ENDBRANCH   2  12
TORSDOF 5
ENDMDL
MODEL 3
REMARK VINA RESULT: -6.231600039      2.038      3.248
REMARK  5 active torsions:
REMARK  status: ('A' for Active; 'I' for Inactive)
REMARK    1  A    between atoms: C1_2  and  N1_3 
REMARK    2  A    between atoms: C1_2  and  N3_12 
REMARK    3  A    between atoms: N1_3  and  C2_5 
REMARK    4  A    between atoms: C2_5  and  C3_6 
REMARK    5  A    between atoms: C3_6  and  N2_7 
ROOT
HETATM    1  S1  UNL     1      -4.861   1.906  11.361  1.00  0.00    -0.041 SA
HETATM    2  C1  UNL     1      -4.096   2.427  12.733  1.00  0.00     0.172 C 
ENDROOT
BRANCH   2   3
HETATM    3  N1  UNL     1      -3.725   1.423  13.663  1.00  0.00    -0.365 N 
ATOM      4  H1  UNL     1      -2.876   0.891  13.470  1.00  0.00     0.161 HD
BRANCH   3   5
HETATM    5  C2  UNL     1      -4.461   1.097  14.862  1.00  0.00     0.152 C 
BRANCH   5   6
HETATM    6  C3  UNL     1      -4.022   1.912  16.033  1.00  0.00     0.292 C 
BRANCH   6   7
HETATM    7  N2  UNL     1      -5.062   1.878  17.075  1.00  0.00     0.090 N 
HETATM    8  C4  UNL     1      -6.012   2.955  16.840  1.00  0.00     0.272 C 
HETATM    9  C5  UNL     1      -7.391   2.395  16.830  1.00  0.00     0.032 C 
HETATM   10  C6  UNL     1      -7.203   0.961  17.259  1.00  0.00     0.032 C 
HETATM   11  C7  UNL     1      -5.806   0.648  16.798  1.00  0.00     0.272 C 
ENDBRANCH   6   7
ENDBRANCH   5   6
ENDBRANCH   3   5
ENDBRANCH   2   3
BRANCH   2  12
HETATM   12  N3  UNL     1      -3.842   3.792  12.902  1.00  0.00    -0.327 N 
HETATM   13  C8  UNL     1      -4.927   4.649  13.391  1.00  0.00     0.091 C 
HETATM   14  C9  UNL     1      -4.552   5.353  14.675  1.00  0.00     0.026 C 
HETATM   15  C14 UNL     1      -5.095   5.726  12.327  1.00  0.00     0.051 C 
HETATM   16  C10 UNL     1      -3.187   5.993  14.555  1.00  0.00     0.006 C 
HETATM   17  C11 UNL     1      -2.132   5.039  14.049  1.00  0.00     0.054 C 
HETATM   18  C12 UNL     1      -2.594   4.488  12.685  1.00  0.00     0.225 C 
HETATM   19  O1  UNL     1      -2.733   5.609  11.864  1.00  0.00    -0.366 OA
HETATM   20  C13 UNL     1      -3.995   5.679  11.289  1.00  0.00     0.172 C 
ENDBRANCH   2  12
TORSDOF 5
ENDMDL
MODEL 4
REMARK VINA RESULT: -6.168365997      2.099      5.017
REMARK  5 active torsions:
REMARK  status: ('A' for Active; 'I' for Inactive)
REMARK    1  A    between atoms: C1_2  and  N1_3 
REMARK    2  A    between atoms: C1_2  and  N3_12 
REMARK    3  A    between atoms: N1_3  and  C2_5 
REMARK    4  A    between atoms: C2_5  and  C3_6 
REMARK    5  A    between atoms: C3_6  and  N2_7 
ROOT
HETATM    1  S1  UNL     1      -2.626   6.289  12.396  1.00  0.00    -0.041 SA
HETATM    2  C1  UNL     1      -2.731   4.760  13.021  1.00  0.00     0.172 C 
ENDROOT
BRANCH   2   3
HETATM    3  N1  UNL     1      -1.631   3.903  12.767  1.00  0.00    -0.365 N 
ATOM      4  H1  UNL     1      -1.012   3.684  13.547  1.00  0.00     0.161 HD
BRANCH   3   5
HETATM    5  C2  UNL     1      -1.323   3.316  11.482  1.00  0.00     0.152 C 
BRANCH   5   6
HETATM    6  C3  UNL     1      -2.544   2.826  10.778  1.00  0.00     0.292 C 
BRANCH   6   7
HETATM    7  N2  UNL     1      -3.025   1.594  11.426  1.00  0.00     0.090 N 
HETATM    8  C4  UNL     1      -4.346   1.267  10.913  1.00  0.00     0.272 C 
HETATM    9  C5  UNL     1      -4.352  -0.147  10.448  1.00  0.00     0.032 C 
HETATM   10  C6  UNL     1      -3.013  -0.680  10.892  1.00  0.00     0.032 C 
HETATM   11  C7  UNL     1      -2.145   0.547  10.904  1.00  0.00     0.272 C 
ENDBRANCH   6   7
ENDBRANCH   5   6
ENDBRANCH   3   5
ENDBRANCH   2   3
BRANCH   2  12
HETATM   12  N3  UNL     1      -3.859   4.398  13.765  1.00  0.00    -0.327 N 
HETATM   13  C8  UNL     1      -3.789   4.488  15.227  1.00  0.00     0.091 C 
HETATM   14  C9  UNL     1      -4.848   5.412  15.784  1.00  0.00     0.026 C 
HETATM   15  C14 UNL     1      -4.114   3.087  15.729  1.00  0.00     0.051 C 
HETATM   16  C10 UNL     1      -6.201   5.094  15.190  1.00  0.00     0.006 C 
HETATM   17  C11 UNL     1      -6.181   5.024  13.682  1.00  0.00     0.054 C 
HETATM   18  C12 UNL     1      -5.143   3.965  13.262  1.00  0.00     0.225 C 
HETATM   19  O1  UNL     1      -5.580   2.772  13.842  1.00  0.00    -0.366 OA
HETATM   20  C13 UNL     1      -4.591   2.179  14.617  1.00  0.00     0.172 C 
ENDBRANCH   2  12
TORSDOF 5
ENDMDL
MODEL 5
REMARK VINA RESULT: -6.156494861      2.045      3.210
REMARK  5 active torsions:
REMARK  status: ('A' for Active; 'I' for Inactive)
REMARK    1  A    between atoms: C1_2  and  N1_3 
REMARK    2  A    between atoms: C1_2  and  N3_12 
REMARK    3  A    between atoms: N1_3  and  C2_5 
REMARK    4  A    between atoms: C2_5  and  C3_6 
REMARK    5  A    between atoms: C3_6  and  N2_7 
ROOT
HETATM    1  S1  UNL     1      -4.519   1.765  11.096  1.00  0.00    -0.041 SA
HETATM    2  C1  UNL     1      -4.111   2.317  12.601  1.00  0.00     0.172 C 
ENDROOT
BRANCH   2   3
HETATM    3  N1  UNL     1      -4.088   1.349  13.637  1.00  0.00    -0.365 N 
ATOM      4  H1  UNL     1      -4.008   0.369  13.367  1.00  0.00     0.161 HD
BRANCH   3   5
HETATM    5  C2  UNL     1      -4.170   1.650  15.048  1.00  0.00     0.152 C 
BRANCH   5   6
HETATM    6  C3  UNL     1      -4.866   0.575  15.815  1.00  0.00     0.292 C 
BRANCH   6   7
HETATM    7  N2  UNL     1      -6.076   1.125  16.447  1.00  0.00     0.090 N 
HETATM    8  C4  UNL     1      -5.914   1.104  17.893  1.00  0.00     0.272 C 
HETATM    9  C5  UNL     1      -6.207   2.459  18.436  1.00  0.00     0.032 C 
HETATM   10  C6  UNL     1      -6.730   3.222  17.245  1.00  0.00     0.032 C 
HETATM   11  C7  UNL     1      -6.057   2.544  16.084  1.00  0.00     0.272 C 
ENDBRANCH   6   7
ENDBRANCH   5   6
ENDBRANCH   3   5
ENDBRANCH   2   3
BRANCH   2  12
HETATM   12  N3  UNL     1      -3.798   3.669  12.777  1.00  0.00    -0.327 N 
HETATM   13  C8  UNL     1      -4.893   4.610  13.035  1.00  0.00     0.091 C 
HETATM   14  C9  UNL     1      -4.709   5.340  14.346  1.00  0.00     0.026 C 
HETATM   15  C14 UNL     1      -4.791   5.653  11.929  1.00  0.00     0.051 C 
HETATM   16  C10 UNL     1      -3.305   5.887  14.461  1.00  0.00     0.006 C 
HETATM   17  C11 UNL     1      -2.244   4.851  14.183  1.00  0.00     0.054 C 
HETATM   18  C12 UNL     1      -2.487   4.276  12.773  1.00  0.00     0.225 C 
HETATM   19  O1  UNL     1      -2.398   5.371  11.911  1.00  0.00    -0.366 OA
HETATM   20  C13 UNL     1      -3.527   5.496  11.112  1.00  0.00     0.172 C 
ENDBRANCH   2  12
TORSDOF 5
ENDMDL
