MODEL 1
REMARK VINA RESULT: -6.741341286      0.000      0.000
REMARK  3 active torsions:
REMARK  status: ('A' for Active; 'I' for Inactive)
REMARK    1  A    between atoms: C1_2  and  C2_3 
REMARK       I    between atoms: C1_2  and  N2_10 
REMARK    2  A    between atoms: C2_3  and  N1_4 
REMARK    3  A    between atoms: N2_10  and  C7_12 
ROOT
HETATM    1  O1  UNL     1      -3.142   3.638  14.953  1.00  0.00    -0.272 OA
HETATM    2  C1  UNL     1      -4.182   3.188  14.385  1.00  0.00     0.246 C 
HETATM    3  N2  UNL     1      -4.138   2.772  13.028  1.00  0.00    -0.353 N 
ATOM      4  H2  UNL     1      -4.984   2.413  12.587  1.00  0.00     0.163 HD
ENDROOT
BRANCH   3   5
HETATM    5  C7  UNL     1      -2.913   2.849  12.261  1.00  0.00     0.117 C 
HETATM    6  C8  UNL     1      -2.782   1.620  11.407  1.00  0.00     0.027 C 
HETATM    7  C9  UNL     1      -1.379   1.378  10.957  1.00  0.00     0.004 C 
HETATM    8  C10 UNL     1      -0.777   2.511  10.192  1.00  0.00     0.030 C 
HETATM    9  C11 UNL     1      -0.537   3.691  11.074  1.00  0.00     0.273 C 
HETATM   10  N3  UNL     1      -1.581   4.621  11.175  1.00  0.00     0.095 N 
HETATM   11  C12 UNL     1      -1.721   5.559  10.116  1.00  0.00     0.273 C 
HETATM   12  C15 UNL     1      -2.865   4.135  11.523  1.00  0.00     0.245 C 
HETATM   13  C13 UNL     1      -3.097   5.391   9.545  1.00  0.00     0.032 C 
HETATM   14  C14 UNL     1      -3.706   4.189  10.277  1.00  0.00     0.040 C 
ENDBRANCH   3   5
BRANCH   2  15
HETATM   15  C2  UNL     1      -5.424   3.120  15.197  1.00  0.00     0.374 C 
BRANCH  15  16
HETATM   16  N1  UNL     1      -5.190   2.485  16.466  1.00  0.00     0.101 N 
HETATM   17  C3  UNL     1      -6.356   2.666  17.311  1.00  0.00     0.299 C 
HETATM   18  C4  UNL     1      -7.458   1.715  16.880  1.00  0.00     0.198 C 
HETATM   19  O2  UNL     1      -7.093   0.396  16.995  1.00  0.00    -0.388 OA
HETATM   20  C5  UNL     1      -5.746   0.210  17.226  1.00  0.00     0.198 C 
HETATM   21  C6  UNL     1      -4.884   1.079  16.331  1.00  0.00     0.299 C 
ENDBRANCH  15  16
ENDBRANCH   2  15
TORSDOF 3
ENDMDL
MODEL 2
REMARK VINA RESULT: -6.643820220      3.030      6.247
REMARK  3 active torsions:
REMARK  status: ('A' for Active; 'I' for Inactive)
REMARK    1  A    between atoms: C1_2  and  C2_3 
REMARK       I    between atoms: C1_2  and  N2_10 
REMARK    2  A    between atoms: C2_3  and  N1_4 
REMARK    3  A    between atoms: N2_10  and  C7_12 
ROOT
HETATM    1  O1  UNL     1      -5.573   2.027  12.113  1.00  0.00    -0.272 OA
HETATM    2  C1  UNL     1      -4.437   1.547  12.405  1.00  0.00     0.246 C 
HETATM    3  N2  UNL     1      -4.029   1.439  13.761  1.00  0.00    -0.353 N 
ATOM      4  H2  UNL     1      -3.112   1.050  13.979  1.00  0.00     0.163 HD
ENDROOT
BRANCH   3   5
HETATM    5  C7  UNL     1      -4.893   1.871  14.840  1.00  0.00     0.117 C 
HETATM    6  C8  UNL     1      -4.361   1.346  16.143  1.00  0.00     0.027 C 
HETATM    7  C9  UNL     1      -5.395   1.325  17.221  1.00  0.00     0.004 C 
HETATM    8  C10 UNL     1      -6.014   2.655  17.501  1.00  0.00     0.030 C 
HETATM    9  C11 UNL     1      -6.872   3.102  16.365  1.00  0.00     0.273 C 
HETATM   10  N3  UNL     1      -6.247   3.865  15.369  1.00  0.00     0.095 N 
HETATM   11  C12 UNL     1      -6.046   5.246  15.638  1.00  0.00     0.273 C 
HETATM   12  C15 UNL     1      -5.070   3.342  14.779  1.00  0.00     0.245 C 
HETATM   13  C13 UNL     1      -4.574   5.515  15.540  1.00  0.00     0.032 C 
HETATM   14  C14 UNL     1      -3.918   4.148  15.315  1.00  0.00     0.040 C 
ENDBRANCH   3   5
BRANCH   2  15
HETATM   15  C2  UNL     1      -3.573   1.111  11.279  1.00  0.00     0.374 C 
BRANCH  15  16
HETATM   16  N1  UNL     1      -4.021  -0.138  10.723  1.00  0.00     0.101 N 
HETATM   17  C3  UNL     1      -2.954  -0.715   9.929  1.00  0.00     0.299 C 
HETATM   18  C4  UNL     1      -1.908  -1.334  10.839  1.00  0.00     0.198 C 
HETATM   19  O2  UNL     1      -2.414  -2.350  11.612  1.00  0.00    -0.388 OA
HETATM   20  C5  UNL     1      -3.791  -2.430  11.593  1.00  0.00     0.198 C 
HETATM   21  C6  UNL     1      -4.448  -1.071  11.741  1.00  0.00     0.299 C 
ENDBRANCH  15  16
ENDBRANCH   2  15
TORSDOF 3
ENDMDL
MODEL 3
REMARK VINA RESULT: -6.592905813      2.053      2.977
REMARK  3 active torsions:
REMARK  status: ('A' for Active; 'I' for Inactive)
REMARK    1  A    between atoms: C1_2  and  C2_3 
REMARK       I    between atoms: C1_2  and  N2_10 
REMARK    2  A    between atoms: C2_3  and  N1_4 
REMARK    3  A    between atoms: N2_10  and  C7_12 
ROOT
HETATM    1  O1  UNL     1      -4.472  -0.609  14.883  1.00  0.00    -0.272 OA
HETATM    2  C1  UNL     1      -4.443   0.651  15.010  1.00  0.00     0.246 C 
HETATM    3  N2  UNL     1      -4.052   1.475  13.921  1.00  0.00    -0.353 N 
ATOM      4  H2  UNL     1      -4.034   2.487  14.040  1.00  0.00     0.163 HD
ENDROOT
BRANCH   3   5
HETATM    5  C7  UNL     1      -3.679   0.902  12.645  1.00  0.00     0.117 C 
HETATM    6  C8  UNL     1      -4.896   0.803  11.769  1.00  0.00     0.027 C 
HETATM    7  C9  UNL     1      -4.727  -0.178  10.656  1.00  0.00     0.004 C 
HETATM    8  C10 UNL     1      -3.563   0.105   9.762  1.00  0.00     0.030 C 
HETATM    9  C11 UNL     1      -2.270  -0.122  10.471  1.00  0.00     0.273 C 
HETATM   10  N3  UNL     1      -1.721   0.979  11.145  1.00  0.00     0.095 N 
HETATM   11  C12 UNL     1      -1.017   1.934  10.362  1.00  0.00     0.273 C 
HETATM   12  C15 UNL     1      -2.549   1.667  12.065  1.00  0.00     0.245 C 
HETATM   13  C13 UNL     1      -1.689   3.260  10.558  1.00  0.00     0.032 C 
HETATM   14  C14 UNL     1      -2.923   2.975  11.423  1.00  0.00     0.040 C 
ENDBRANCH   3   5
BRANCH   2  15
HETATM   15  C2  UNL     1      -4.831   1.211  16.329  1.00  0.00     0.374 C 
BRANCH  15  16
HETATM   16  N1  UNL     1      -6.150   1.784  16.291  1.00  0.00     0.101 N 
HETATM   17  C3  UNL     1      -6.830   1.497  17.540  1.00  0.00     0.299 C 
HETATM   18  C4  UNL     1      -6.311   2.413  18.634  1.00  0.00     0.198 C 
HETATM   19  O2  UNL     1      -6.535   3.740  18.363  1.00  0.00    -0.388 OA
HETATM   20  C5  UNL     1      -6.944   3.982  17.069  1.00  0.00     0.198 C 
HETATM   21  C6  UNL     1      -6.124   3.209  16.053  1.00  0.00     0.299 C 
ENDBRANCH  15  16
ENDBRANCH   2  15
TORSDOF 3
ENDMDL
MODEL 4
REMARK VINA RESULT: -6.510413035      1.724      2.917
REMARK  3 active torsions:
REMARK  status: ('A' for Active; 'I' for Inactive)
REMARK    1  A    between atoms: C1_2  and  C2_3 
REMARK       I    between atoms: C1_2  and  N2_10 
REMARK    2  A    between atoms: C2_3  and  N1_4 
REMARK    3  A    between atoms: N2_10  and  C7_12 
ROOT
HETATM    1  O1  UNL     1      -6.720   3.816  13.567  1.00  0.00    -0.272 OA
HETATM    2  C1  UNL     1      -5.922   4.158  14.491  1.00  0.00     0.246 C 
HETATM    3  N2  UNL     1      -4.702   4.815  14.181  1.00  0.00    -0.353 N 
ATOM      4  H2  UNL     1      -4.071   5.082  14.936  1.00  0.00     0.163 HD
ENDROOT
BRANCH   3   5
HETATM    5  C7  UNL     1      -4.338   5.111  12.812  1.00  0.00     0.117 C 
HETATM    6  C8  UNL     1      -4.023   6.575  12.687  1.00  0.00     0.027 C 
HETATM    7  C9  UNL     1      -4.102   7.063  11.277  1.00  0.00     0.004 C 
HETATM    8  C10 UNL     1      -3.206   6.338  10.327  1.00  0.00     0.030 C 
HETATM    9  C11 UNL     1      -3.668   4.935  10.113  1.00  0.00     0.273 C 
HETATM   10  N3  UNL     1      -3.147   3.964  10.980  1.00  0.00     0.095 N 
HETATM   11  C12 UNL     1      -1.841   3.477  10.700  1.00  0.00     0.273 C 
HETATM   12  C15 UNL     1      -3.256   4.196  12.373  1.00  0.00     0.245 C 
HETATM   13  C13 UNL     1      -0.991   3.749  11.906  1.00  0.00     0.032 C 
HETATM   14  C14 UNL     1      -1.879   4.549  12.866  1.00  0.00     0.040 C 
ENDBRANCH   3   5
BRANCH   2  15
HETATM   15  C2  UNL     1      -6.322   3.841  15.885  1.00  0.00     0.374 C 
BRANCH  15  16
HETATM   16  N1  UNL     1      -5.395   2.932  16.506  1.00  0.00     0.101 N 
HETATM   17  C3  UNL     1      -6.016   2.346  17.678  1.00  0.00     0.299 C 
HETATM   18  C4  UNL     1      -7.004   1.273  17.257  1.00  0.00     0.198 C 
HETATM   19  O2  UNL     1      -6.406   0.242  16.574  1.00  0.00    -0.388 OA
HETATM   20  C5  UNL     1      -5.107   0.507  16.194  1.00  0.00     0.198 C 
HETATM   21  C6  UNL     1      -4.953   1.895  15.602  1.00  0.00     0.299 C 
ENDBRANCH  15  16
ENDBRANCH   2  15
TORSDOF 3
ENDMDL
MODEL 5
REMARK VINA RESULT: -6.273303330      2.239      3.267
REMARK  3 active torsions:
REMARK  status: ('A' for Active; 'I' for Inactive)
REMARK    1  A    between atoms: C1_2  and  C2_3 
REMARK       I    between atoms: C1_2  and  N2_10 
REMARK    2  A    between atoms: C2_3  and  N1_4 
REMARK    3  A    between atoms: N2_10  and  C7_12 
ROOT
HETATM    1  O1  UNL     1      -6.265   4.862  13.624  1.00  0.00    -0.272 OA
HETATM    2  C1  UNL     1      -5.649   4.682  14.717  1.00  0.00     0.246 C 
HETATM    3  N2  UNL     1      -4.355   5.234  14.912  1.00  0.00    -0.353 N 
ATOM      4  H2  UNL     1      -3.872   5.078  15.796  1.00  0.00     0.163 HD
ENDROOT
BRANCH   3   5
HETATM    5  C7  UNL     1      -3.709   6.013  13.877  1.00  0.00     0.117 C 
HETATM    6  C8  UNL     1      -2.670   6.903  14.498  1.00  0.00     0.027 C 
HETATM    7  C9  UNL     1      -2.295   8.051  13.621  1.00  0.00     0.004 C 
HETATM    8  C10 UNL     1      -1.784   7.652  12.275  1.00  0.00     0.030 C 
HETATM    9  C11 UNL     1      -2.871   7.065  11.437  1.00  0.00     0.273 C 
HETATM   10  N3  UNL     1      -3.048   5.677  11.523  1.00  0.00     0.095 N 
HETATM   11  C12 UNL     1      -2.158   4.860  10.774  1.00  0.00     0.273 C 
HETATM   12  C15 UNL     1      -3.208   5.111  12.811  1.00  0.00     0.245 C 
HETATM   13  C13 UNL     1      -1.461   3.950  11.741  1.00  0.00     0.032 C 
HETATM   14  C14 UNL     1      -1.928   4.389  13.133  1.00  0.00     0.040 C 
ENDBRANCH   3   5
BRANCH   2  15
HETATM   15  C2  UNL     1      -6.335   3.879  15.760  1.00  0.00     0.374 C 
BRANCH  15  16
HETATM   16  N1  UNL     1      -5.424   2.981  16.419  1.00  0.00     0.101 N 
HETATM   17  C3  UNL     1      -6.069   2.426  17.594  1.00  0.00     0.299 C 
HETATM   18  C4  UNL     1      -7.055   1.348  17.181  1.00  0.00     0.198 C 
HETATM   19  O2  UNL     1      -6.451   0.298  16.535  1.00  0.00    -0.388 OA
HETATM   20  C5  UNL     1      -5.145   0.547  16.171  1.00  0.00     0.198 C 
HETATM   21  C6  UNL     1      -4.973   1.919  15.548  1.00  0.00     0.299 C 
ENDBRANCH  15  16
ENDBRANCH   2  15
TORSDOF 3
ENDMDL
