MODEL 1
REMARK VINA RESULT: -6.911896283      0.000      0.000
REMARK  4 active torsions:
REMARK  status: ('A' for Active; 'I' for Inactive)
REMARK    1  A    between atoms: C2_2  and  N1_3 
REMARK    2  A    between atoms: C4_5  and  O1_6 
REMARK    3  A    between atoms: N2_13  and  C10_14 
REMARK    4  A    between atoms: C10_14  and  C11_15 
ROOT
HETATM    1  N1  UNL     1      -1.982   1.880  10.851  1.00  0.00    -0.365 N 
HETATM    2  C3  UNL     1      -0.943   2.772  10.639  1.00  0.00     0.156 C 
HETATM    3  C4  UNL     1      -1.688   4.005  10.098  1.00  0.00     0.144 C 
HETATM    4  C5  UNL     1      -3.002   3.930  10.842  1.00  0.00     0.068 C 
HETATM    5  C6  UNL     1      -2.850   4.716  12.125  1.00  0.00     0.050 C 
HETATM    6  C7  UNL     1      -3.582   3.820  13.107  1.00  0.00     0.070 C 
HETATM    7  C8  UNL     1      -5.063   4.079  12.904  1.00  0.00     0.058 C 
HETATM    8  C9  UNL     1      -5.762   3.350  14.064  1.00  0.00     0.130 C 
HETATM    9  N2  UNL     1      -5.487   4.090  15.229  1.00  0.00    -0.373 N 
HETATM   10  C14 UNL     1      -4.203   4.629  15.411  1.00  0.00     0.066 C 
HETATM   11  C15 UNL     1      -3.135   4.055  14.521  1.00  0.00     0.083 C 
HETATM   12  O2  UNL     1      -3.201   2.561  12.710  1.00  0.00    -0.355 OA
HETATM   13  C16 UNL     1      -3.143   2.494  11.342  1.00  0.00     0.230 C 
ENDROOT
BRANCH   3  14
HETATM   14  O1  UNL     1      -0.999   5.170  10.329  1.00  0.00    -0.393 OA
ATOM     15  H1  UNL     1      -0.110   5.134   9.997  1.00  0.00     0.210 HD
ENDBRANCH   3  14
BRANCH   9  16
HETATM   16  C10 UNL     1      -6.403   4.092  16.290  1.00  0.00     0.067 C 
BRANCH  16  17
HETATM   17  C11 UNL     1      -6.716   2.759  16.910  1.00  0.00     0.024 A 
HETATM   18  C12 UNL     1      -5.528   1.923  17.254  1.00  0.00     0.010 A 
HETATM   19  C13 UNL     1      -6.343   2.541  18.379  1.00  0.00     0.010 A 
ENDBRANCH  16  17
ENDBRANCH   9  16
BRANCH   1  20
HETATM   20  C2  UNL     1      -1.777   0.523  10.973  1.00  0.00     0.056 C 
HETATM   21  C1  UNL     1      -2.994  -0.350  10.793  1.00  0.00     0.054 C 
ENDBRANCH   1  20
TORSDOF 4
ENDMDL
MODEL 2
REMARK VINA RESULT: -6.794174850      3.061      4.973
REMARK  4 active torsions:
REMARK  status: ('A' for Active; 'I' for Inactive)
REMARK    1  A    between atoms: C2_2  and  N1_3 
REMARK    2  A    between atoms: C4_5  and  O1_6 
REMARK    3  A    between atoms: N2_13  and  C10_14 
REMARK    4  A    between atoms: C10_14  and  C11_15 
ROOT
HETATM    1  N1  UNL     1      -4.422   1.107  13.560  1.00  0.00    -0.365 N 
HETATM    2  C3  UNL     1      -4.155   0.396  12.402  1.00  0.00     0.156 C 
HETATM    3  C4  UNL     1      -4.885   1.234  11.338  1.00  0.00     0.144 C 
HETATM    4  C5  UNL     1      -4.736   2.635  11.885  1.00  0.00     0.068 C 
HETATM    5  C6  UNL     1      -3.461   3.218  11.315  1.00  0.00     0.050 C 
HETATM    6  C7  UNL     1      -2.902   3.941  12.527  1.00  0.00     0.070 C 
HETATM    7  C8  UNL     1      -3.668   5.245  12.641  1.00  0.00     0.058 C 
HETATM    8  C9  UNL     1      -2.924   6.057  13.714  1.00  0.00     0.130 C 
HETATM    9  N2  UNL     1      -1.710   6.474  13.136  1.00  0.00    -0.373 N 
HETATM   10  C14 UNL     1      -1.002   5.582  12.313  1.00  0.00     0.066 C 
HETATM   11  C15 UNL     1      -1.417   4.141  12.423  1.00  0.00     0.083 C 
HETATM   12  O2  UNL     1      -3.175   3.070  13.552  1.00  0.00    -0.355 OA
HETATM   13  C16 UNL     1      -4.407   2.496  13.369  1.00  0.00     0.230 C 
ENDROOT
BRANCH   3  14
HETATM   14  O1  UNL     1      -4.339   1.078  10.088  1.00  0.00    -0.393 OA
ATOM     15  H1  UNL     1      -4.715   1.677   9.454  1.00  0.00     0.210 HD
ENDBRANCH   3  14
BRANCH   9  16
HETATM   16  C10 UNL     1      -1.106   7.667  13.557  1.00  0.00     0.067 C 
BRANCH  16  17
HETATM   17  C11 UNL     1      -1.864   8.485  14.565  1.00  0.00     0.024 A 
HETATM   18  C12 UNL     1      -1.086   8.878  15.777  1.00  0.00     0.010 A 
HETATM   19  C13 UNL     1      -1.456   9.947  14.761  1.00  0.00     0.010 A 
ENDBRANCH  16  17
ENDBRANCH   9  16
BRANCH   1  20
HETATM   20  C2  UNL     1      -4.297   0.550  14.814  1.00  0.00     0.056 C 
HETATM   21  C1  UNL     1      -5.008   1.269  15.933  1.00  0.00     0.054 C 
ENDBRANCH   1  20
TORSDOF 4
ENDMDL
MODEL 3
REMARK VINA RESULT: -6.400053002      1.588      2.193
REMARK  4 active torsions:
REMARK  status: ('A' for Active; 'I' for Inactive)
REMARK    1  A    between atoms: C2_2  and  N1_3 
REMARK    2  A    between atoms: C4_5  and  O1_6 
REMARK    3  A    between atoms: N2_13  and  C10_14 
REMARK    4  A    between atoms: C10_14  and  C11_15 
ROOT
HETATM    1  N1  UNL     1      -1.845   3.451  10.362  1.00  0.00    -0.365 N 
HETATM    2  C3  UNL     1      -1.979   4.810  10.132  1.00  0.00     0.156 C 
HETATM    3  C4  UNL     1      -3.501   4.955   9.958  1.00  0.00     0.144 C 
HETATM    4  C5  UNL     1      -4.027   3.893  10.895  1.00  0.00     0.068 C 
HETATM    5  C6  UNL     1      -4.228   4.534  12.251  1.00  0.00     0.050 C 
HETATM    6  C7  UNL     1      -3.721   3.439  13.171  1.00  0.00     0.070 C 
HETATM    7  C8  UNL     1      -4.837   2.418  13.280  1.00  0.00     0.058 C 
HETATM    8  C9  UNL     1      -4.396   1.457  14.398  1.00  0.00     0.130 C 
HETATM    9  N2  UNL     1      -4.519   2.163  15.609  1.00  0.00    -0.373 N 
HETATM   10  C14 UNL     1      -4.139   3.515  15.654  1.00  0.00     0.066 C 
HETATM   11  C15 UNL     1      -3.291   3.982  14.503  1.00  0.00     0.083 C 
HETATM   12  O2  UNL     1      -2.624   2.961  12.497  1.00  0.00    -0.355 OA
HETATM   13  C16 UNL     1      -2.877   2.922  11.150  1.00  0.00     0.230 C 
ENDROOT
BRANCH   3  14
HETATM   14  O1  UNL     1      -3.941   6.218  10.266  1.00  0.00    -0.393 OA
ATOM     15  H1  UNL     1      -4.731   6.205  10.794  1.00  0.00     0.210 HD
ENDBRANCH   3  14
BRANCH   9  16
HETATM   16  C10 UNL     1      -4.793   1.474  16.798  1.00  0.00     0.067 C 
BRANCH  16  17
HETATM   17  C11 UNL     1      -6.078   1.824  17.496  1.00  0.00     0.024 A 
HETATM   18  C12 UNL     1      -7.114   2.465  16.634  1.00  0.00     0.010 A 
HETATM   19  C13 UNL     1      -7.339   1.042  17.119  1.00  0.00     0.010 A 
ENDBRANCH  16  17
ENDBRANCH   9  16
BRANCH   1  20
HETATM   20  C2  UNL     1      -0.647   2.789  10.204  1.00  0.00     0.056 C 
HETATM   21  C1  UNL     1       0.477   3.589   9.595  1.00  0.00     0.054 C 
ENDBRANCH   1  20
TORSDOF 4
ENDMDL
MODEL 4
REMARK VINA RESULT: -6.320084851      2.520      3.914
REMARK  4 active torsions:
REMARK  status: ('A' for Active; 'I' for Inactive)
REMARK    1  A    between atoms: C2_2  and  N1_3 
REMARK    2  A    between atoms: C4_5  and  O1_6 
REMARK    3  A    between atoms: N2_13  and  C10_14 
REMARK    4  A    between atoms: C10_14  and  C11_15 
ROOT
HETATM    1  N1  UNL     1      -5.473   6.806  10.602  1.00  0.00    -0.365 N 
HETATM    2  C3  UNL     1      -4.684   6.428   9.528  1.00  0.00     0.156 C 
HETATM    3  C4  UNL     1      -3.265   6.610  10.096  1.00  0.00     0.144 C 
HETATM    4  C5  UNL     1      -3.463   6.263  11.553  1.00  0.00     0.068 C 
HETATM    5  C6  UNL     1      -3.219   4.778  11.709  1.00  0.00     0.050 C 
HETATM    6  C7  UNL     1      -4.326   4.399  12.676  1.00  0.00     0.070 C 
HETATM    7  C8  UNL     1      -3.852   4.812  14.056  1.00  0.00     0.058 C 
HETATM    8  C9  UNL     1      -4.873   4.201  15.031  1.00  0.00     0.130 C 
HETATM    9  N2  UNL     1      -4.642   2.813  15.040  1.00  0.00    -0.373 N 
HETATM   10  C14 UNL     1      -4.349   2.160  13.831  1.00  0.00     0.066 C 
HETATM   11  C15 UNL     1      -4.672   2.940  12.586  1.00  0.00     0.083 C 
HETATM   12  O2  UNL     1      -5.387   5.148  12.229  1.00  0.00    -0.355 OA
HETATM   13  C16 UNL     1      -4.958   6.389  11.837  1.00  0.00     0.230 C 
ENDROOT
BRANCH   3  14
HETATM   14  O1  UNL     1      -2.346   5.808   9.466  1.00  0.00    -0.393 OA
ATOM     15  H1  UNL     1      -1.455   6.007   9.729  1.00  0.00     0.210 HD
ENDBRANCH   3  14
BRANCH   9  16
HETATM   16  C10 UNL     1      -4.927   2.062  16.189  1.00  0.00     0.067 C 
BRANCH  16  17
HETATM   17  C11 UNL     1      -6.223   2.367  16.887  1.00  0.00     0.024 A 
HETATM   18  C12 UNL     1      -7.032   1.174  17.274  1.00  0.00     0.010 A 
HETATM   19  C13 UNL     1      -6.353   1.987  18.364  1.00  0.00     0.010 A 
ENDBRANCH  16  17
ENDBRANCH   9  16
BRANCH   1  20
HETATM   20  C2  UNL     1      -6.795   7.166  10.456  1.00  0.00     0.056 C 
HETATM   21  C1  UNL     1      -7.433   7.841  11.644  1.00  0.00     0.054 C 
ENDBRANCH   1  20
TORSDOF 4
ENDMDL
MODEL 5
REMARK VINA RESULT: -6.231206116      1.065      1.289
REMARK  4 active torsions:
REMARK  status: ('A' for Active; 'I' for Inactive)
REMARK    1  A    between atoms: C2_2  and  N1_3 
REMARK    2  A    between atoms: C4_5  and  O1_6 
REMARK    3  A    between atoms: N2_13  and  C10_14 
REMARK    4  A    between atoms: C10_14  and  C11_15 
ROOT
HETATM    1  N1  UNL     1      -1.320   3.228  11.075  1.00  0.00    -0.365 N 
HETATM    2  C3  UNL     1      -0.456   4.299  11.237  1.00  0.00     0.156 C 
HETATM    3  C4  UNL     1      -1.361   5.493  10.883  1.00  0.00     0.144 C 
HETATM    4  C5  UNL     1      -2.710   5.021  11.375  1.00  0.00     0.068 C 
HETATM    5  C6  UNL     1      -2.859   5.471  12.812  1.00  0.00     0.050 C 
HETATM    6  C7  UNL     1      -3.509   4.249  13.436  1.00  0.00     0.070 C 
HETATM    7  C8  UNL     1      -4.979   4.309  13.068  1.00  0.00     0.058 C 
HETATM    8  C9  UNL     1      -5.648   3.208  13.907  1.00  0.00     0.130 C 
HETATM    9  N2  UNL     1      -5.656   3.663  15.239  1.00  0.00    -0.373 N 
HETATM   10  C14 UNL     1      -4.529   4.338  15.738  1.00  0.00     0.066 C 
HETATM   11  C15 UNL     1      -3.277   4.188  14.918  1.00  0.00     0.083 C 
HETATM   12  O2  UNL     1      -2.848   3.211  12.826  1.00  0.00    -0.355 OA
HETATM   13  C16 UNL     1      -2.625   3.503  11.506  1.00  0.00     0.230 C 
ENDROOT
BRANCH   3  14
HETATM   14  O1  UNL     1      -0.942   6.657  11.479  1.00  0.00    -0.393 OA
ATOM     15  H1  UNL     1      -0.737   7.332  10.843  1.00  0.00     0.210 HD
ENDBRANCH   3  14
BRANCH   9  16
HETATM   16  C10 UNL     1      -6.667   3.249  16.117  1.00  0.00     0.067 C 
BRANCH  16  17
HETATM   17  C11 UNL     1      -6.270   2.268  17.185  1.00  0.00     0.024 A 
HETATM   18  C12 UNL     1      -7.169   1.085  17.326  1.00  0.00     0.010 A 
HETATM   19  C13 UNL     1      -5.778   0.886  16.748  1.00  0.00     0.010 A 
ENDBRANCH  16  17
ENDBRANCH   9  16
BRANCH   1  20
HETATM   20  C2  UNL     1      -0.870   1.936  10.914  1.00  0.00     0.056 C 
HETATM   21  C1  UNL     1      -1.932   0.867  10.854  1.00  0.00     0.054 C 
ENDBRANCH   1  20
TORSDOF 4
ENDMDL
