MODEL 1
REMARK VINA RESULT: -7.694539043      0.000      0.000
REMARK  5 active torsions:
REMARK  status: ('A' for Active; 'I' for Inactive)
REMARK       I    between atoms: C1_2  and  N1_3 
REMARK    1  A    between atoms: C1_2  and  C8_20 
REMARK    2  A    between atoms: C2_5  and  C3_6 
REMARK    3  A    between atoms: C2_5  and  N3_10 
REMARK    4  A    between atoms: C3_6  and  N2_7 
REMARK    5  A    between atoms: N3_10  and  C4_12 
ROOT
HETATM    1  O1  UNL     1      -6.543   3.699  13.527  1.00  0.00    -0.267 OA
HETATM    2  C1  UNL     1      -5.552   3.310  14.194  1.00  0.00     0.257 C 
HETATM    3  N1  UNL     1      -4.240   3.316  13.685  1.00  0.00    -0.310 N 
ATOM      4  H1  UNL     1      -3.576   3.953  14.128  1.00  0.00     0.170 HD
HETATM    5  C2  UNL     1      -3.804   2.607  12.729  1.00  0.00     0.124 C 
ENDROOT
BRANCH   5   6
HETATM    6  C3  UNL     1      -4.703   1.659  12.034  1.00  0.00     0.278 C 
BRANCH   6   7
HETATM    7  N2  UNL     1      -4.407   1.553  10.630  1.00  0.00    -0.148 N 
HETATM    8  O2  UNL     1      -4.303   2.595   9.957  1.00  0.00    -0.536 OA
HETATM    9  O3  UNL     1      -4.249   0.302  10.090  1.00  0.00    -0.536 OA
ENDBRANCH   6   7
ENDBRANCH   5   6
BRANCH   5  10
HETATM   10  N3  UNL     1      -2.446   2.735  12.337  1.00  0.00    -0.178 N 
ATOM     11  H3  UNL     1      -1.883   1.890  12.238  1.00  0.00     0.185 HD
BRANCH  10  12
HETATM   12  C4  UNL     1      -1.898   3.875  12.103  1.00  0.00     0.683 A 
HETATM   13  N4  UNL     1      -0.968   4.438  12.896  1.00  0.00    -0.202 N 
HETATM   14  C5  UNL     1      -0.437   5.636  12.587  1.00  0.00     0.107 A 
ATOM     15  H4  UNL     1      -0.662   3.952  13.739  1.00  0.00     0.183 HD
HETATM   16  C6  UNL     1      -0.812   6.336  11.460  1.00  0.00     0.035 A 
HETATM   17  C7  UNL     1      -1.769   5.746  10.654  1.00  0.00     0.107 A 
HETATM   18  N5  UNL     1      -2.271   4.550  11.002  1.00  0.00    -0.202 N 
ATOM     19  H5  UNL     1      -2.976   4.130  10.396  1.00  0.00     0.183 HD
ENDBRANCH  10  12
ENDBRANCH   5  10
BRANCH   2  20
HETATM   20  C8  UNL     1      -5.788   2.834  15.548  1.00  0.00     0.032 A 
HETATM   21  C9  UNL     1      -5.454   1.551  15.949  1.00  0.00     0.017 A 
HETATM   22  C10 UNL     1      -5.663   1.077  17.212  1.00  0.00     0.001 A 
HETATM   23  C11 UNL     1      -6.238   1.920  18.142  1.00  0.00     0.000 A 
HETATM   24  C12 UNL     1      -6.586   3.205  17.784  1.00  0.00     0.001 A 
HETATM   25  C13 UNL     1      -6.361   3.653  16.496  1.00  0.00     0.017 A 
ENDBRANCH   2  20
TORSDOF 5
ENDMDL
MODEL 2
REMARK VINA RESULT: -7.666273385      0.119      1.041
REMARK  5 active torsions:
REMARK  status: ('A' for Active; 'I' for Inactive)
REMARK       I    between atoms: C1_2  and  N1_3 
REMARK    1  A    between atoms: C1_2  and  C8_20 
REMARK    2  A    between atoms: C2_5  and  C3_6 
REMARK    3  A    between atoms: C2_5  and  N3_10 
REMARK    4  A    between atoms: C3_6  and  N2_7 
REMARK    5  A    between atoms: N3_10  and  C4_12 
ROOT
HETATM    1  O1  UNL     1      -6.496   3.752  13.471  1.00  0.00    -0.267 OA
HETATM    2  C1  UNL     1      -5.513   3.372  14.157  1.00  0.00     0.257 C 
HETATM    3  N1  UNL     1      -4.197   3.355  13.660  1.00  0.00    -0.310 N 
ATOM      4  H1  UNL     1      -3.532   3.997  14.091  1.00  0.00     0.170 HD
HETATM    5  C2  UNL     1      -3.759   2.617  12.726  1.00  0.00     0.124 C 
ENDROOT
BRANCH   5   6
HETATM    6  C3  UNL     1      -4.660   1.658  12.049  1.00  0.00     0.278 C 
BRANCH   6   7
HETATM    7  N2  UNL     1      -4.423   1.592  10.632  1.00  0.00    -0.148 N 
HETATM    8  O2  UNL     1      -4.358   2.652   9.982  1.00  0.00    -0.536 OA
HETATM    9  O3  UNL     1      -4.276   0.357  10.053  1.00  0.00    -0.536 OA
ENDBRANCH   6   7
ENDBRANCH   5   6
BRANCH   5  10
HETATM   10  N3  UNL     1      -2.397   2.723  12.344  1.00  0.00    -0.178 N 
ATOM     11  H3  UNL     1      -1.838   1.872  12.282  1.00  0.00     0.185 HD
BRANCH  10  12
HETATM   12  C4  UNL     1      -1.840   3.851  12.072  1.00  0.00     0.683 A 
HETATM   13  N4  UNL     1      -0.826   4.378  12.781  1.00  0.00    -0.202 N 
HETATM   14  C5  UNL     1      -0.292   5.565  12.436  1.00  0.00     0.107 A 
ATOM     15  H4  UNL     1      -0.457   3.874  13.587  1.00  0.00     0.183 HD
HETATM   16  C6  UNL     1      -0.750   6.290  11.356  1.00  0.00     0.035 A 
HETATM   17  C7  UNL     1      -1.793   5.736  10.636  1.00  0.00     0.107 A 
HETATM   18  N5  UNL     1      -2.295   4.550  11.017  1.00  0.00    -0.202 N 
ATOM     19  H5  UNL     1      -3.063   4.157  10.474  1.00  0.00     0.183 HD
ENDBRANCH  10  12
ENDBRANCH   5  10
BRANCH   2  20
HETATM   20  C8  UNL     1      -5.766   2.935  15.521  1.00  0.00     0.032 A 
HETATM   21  C9  UNL     1      -6.399   3.745  16.450  1.00  0.00     0.017 A 
HETATM   22  C10 UNL     1      -6.650   3.363  17.736  1.00  0.00     0.001 A 
HETATM   23  C11 UNL     1      -6.253   2.102  18.136  1.00  0.00     0.000 A 
HETATM   24  C12 UNL     1      -5.620   1.265  17.242  1.00  0.00     0.001 A 
HETATM   25  C13 UNL     1      -5.380   1.683  15.946  1.00  0.00     0.017 A 
ENDBRANCH   2  20
TORSDOF 5
ENDMDL
MODEL 3
REMARK VINA RESULT: -7.641727549      0.095      1.615
REMARK  5 active torsions:
REMARK  status: ('A' for Active; 'I' for Inactive)
REMARK       I    between atoms: C1_2  and  N1_3 
REMARK    1  A    between atoms: C1_2  and  C8_20 
REMARK    2  A    between atoms: C2_5  and  C3_6 
REMARK    3  A    between atoms: C2_5  and  N3_10 
REMARK    4  A    between atoms: C3_6  and  N2_7 
REMARK    5  A    between atoms: N3_10  and  C4_12 
ROOT
HETATM    1  O1  UNL     1      -6.595   3.658  13.524  1.00  0.00    -0.267 OA
HETATM    2  C1  UNL     1      -5.598   3.307  14.204  1.00  0.00     0.257 C 
HETATM    3  N1  UNL     1      -4.284   3.330  13.701  1.00  0.00    -0.310 N 
ATOM      4  H1  UNL     1      -3.637   3.991  14.130  1.00  0.00     0.170 HD
HETATM    5  C2  UNL     1      -3.828   2.606  12.765  1.00  0.00     0.124 C 
ENDROOT
BRANCH   5   6
HETATM    6  C3  UNL     1      -4.703   1.621  12.090  1.00  0.00     0.278 C 
BRANCH   6   7
HETATM    7  N2  UNL     1      -4.435   1.527  10.680  1.00  0.00    -0.148 N 
HETATM    8  O2  UNL     1      -4.290   0.402  10.169  1.00  0.00    -0.536 OA
HETATM    9  O3  UNL     1      -4.351   2.687   9.954  1.00  0.00    -0.536 OA
ENDBRANCH   6   7
ENDBRANCH   5   6
BRANCH   5  10
HETATM   10  N3  UNL     1      -2.472   2.754  12.376  1.00  0.00    -0.178 N 
ATOM     11  H3  UNL     1      -1.880   1.924  12.338  1.00  0.00     0.185 HD
BRANCH  10  12
HETATM   12  C4  UNL     1      -1.960   3.894  12.069  1.00  0.00     0.683 A 
HETATM   13  N4  UNL     1      -2.377   4.652  11.038  1.00  0.00    -0.202 N 
HETATM   14  C5  UNL     1      -1.793   5.836  10.778  1.00  0.00     0.107 A 
ATOM     15  H4  UNL     1      -3.144   4.325  10.449  1.00  0.00     0.183 HD
HETATM   16  C6  UNL     1      -0.754   6.327  11.540  1.00  0.00     0.035 A 
HETATM   17  C7  UNL     1      -0.336   5.537  12.596  1.00  0.00     0.107 A 
HETATM   18  N5  UNL     1      -0.947   4.363  12.819  1.00  0.00    -0.202 N 
ATOM     19  H5  UNL     1      -0.626   3.794  13.602  1.00  0.00     0.183 HD
ENDBRANCH  10  12
ENDBRANCH   5  10
BRANCH   2  20
HETATM   20  C8  UNL     1      -5.831   2.860  15.569  1.00  0.00     0.032 A 
HETATM   21  C9  UNL     1      -6.423   3.675  16.521  1.00  0.00     0.017 A 
HETATM   22  C10 UNL     1      -6.654   3.285  17.808  1.00  0.00     0.001 A 
HETATM   23  C11 UNL     1      -6.280   2.010  18.185  1.00  0.00     0.000 A 
HETATM   24  C12 UNL     1      -5.688   1.167  17.268  1.00  0.00     0.001 A 
HETATM   25  C13 UNL     1      -5.467   1.595  15.972  1.00  0.00     0.017 A 
ENDBRANCH   2  20
TORSDOF 5
ENDMDL
MODEL 4
REMARK VINA RESULT: -7.638678349      1.261      1.423
REMARK  5 active torsions:
REMARK  status: ('A' for Active; 'I' for Inactive)
REMARK       I    between atoms: C1_2  and  N1_3 
REMARK    1  A    between atoms: C1_2  and  C8_20 
REMARK    2  A    between atoms: C2_5  and  C3_6 
REMARK    3  A    between atoms: C2_5  and  N3_10 
REMARK    4  A    between atoms: C3_6  and  N2_7 
REMARK    5  A    between atoms: N3_10  and  C4_12 
ROOT
HETATM    1  O1  UNL     1      -5.984   4.044  13.115  1.00  0.00    -0.267 OA
HETATM    2  C1  UNL     1      -5.150   3.404  13.804  1.00  0.00     0.257 C 
HETATM    3  N1  UNL     1      -3.896   3.003  13.307  1.00  0.00    -0.310 N 
ATOM      4  H1  UNL     1      -3.073   3.431  13.732  1.00  0.00     0.170 HD
HETATM    5  C2  UNL     1      -3.692   2.161  12.381  1.00  0.00     0.124 C 
ENDROOT
BRANCH   5   6
HETATM    6  C3  UNL     1      -4.833   1.495  11.714  1.00  0.00     0.278 C 
BRANCH   6   7
HETATM    7  N2  UNL     1      -4.481   0.206  11.183  1.00  0.00    -0.148 N 
HETATM    8  O2  UNL     1      -4.471  -0.777  11.946  1.00  0.00    -0.536 OA
HETATM    9  O3  UNL     1      -4.168   0.113   9.851  1.00  0.00    -0.536 OA
ENDBRANCH   6   7
ENDBRANCH   5   6
BRANCH   5  10
HETATM   10  N3  UNL     1      -2.359   1.867  11.997  1.00  0.00    -0.178 N 
ATOM     11  H3  UNL     1      -2.000   0.925  12.155  1.00  0.00     0.185 HD
BRANCH  10  12
HETATM   12  C4  UNL     1      -1.585   2.742  11.457  1.00  0.00     0.683 A 
HETATM   13  N4  UNL     1      -0.377   3.079  11.945  1.00  0.00    -0.202 N 
HETATM   14  C5  UNL     1       0.378   4.005  11.325  1.00  0.00     0.107 A 
ATOM     15  H4  UNL     1      -0.031   2.629  12.792  1.00  0.00     0.183 HD
HETATM   16  C6  UNL     1      -0.039   4.645  10.177  1.00  0.00     0.035 A 
HETATM   17  C7  UNL     1      -1.282   4.289   9.687  1.00  0.00     0.107 A 
HETATM   18  N5  UNL     1      -2.002   3.360  10.338  1.00  0.00    -0.202 N 
ATOM     19  H5  UNL     1      -2.916   3.110   9.963  1.00  0.00     0.183 HD
ENDBRANCH  10  12
ENDBRANCH   5  10
BRANCH   2  20
HETATM   20  C8  UNL     1      -5.513   3.072  15.173  1.00  0.00     0.032 A 
HETATM   21  C9  UNL     1      -5.069   1.915  15.794  1.00  0.00     0.017 A 
HETATM   22  C10 UNL     1      -5.392   1.578  17.077  1.00  0.00     0.001 A 
HETATM   23  C11 UNL     1      -6.204   2.431  17.796  1.00  0.00     0.000 A 
HETATM   24  C12 UNL     1      -6.668   3.593  17.215  1.00  0.00     0.001 A 
HETATM   25  C13 UNL     1      -6.322   3.905  15.913  1.00  0.00     0.017 A 
ENDBRANCH   2  20
TORSDOF 5
ENDMDL
MODEL 5
REMARK VINA RESULT: -7.634196770      1.258      1.751
REMARK  5 active torsions:
REMARK  status: ('A' for Active; 'I' for Inactive)
REMARK       I    between atoms: C1_2  and  N1_3 
REMARK    1  A    between atoms: C1_2  and  C8_20 
REMARK    2  A    between atoms: C2_5  and  C3_6 
REMARK    3  A    between atoms: C2_5  and  N3_10 
REMARK    4  A    between atoms: C3_6  and  N2_7 
REMARK    5  A    between atoms: N3_10  and  C4_12 
ROOT
HETATM    1  O1  UNL     1      -5.996   4.018  13.113  1.00  0.00    -0.267 OA
HETATM    2  C1  UNL     1      -5.156   3.387  13.802  1.00  0.00     0.257 C 
HETATM    3  N1  UNL     1      -3.901   2.992  13.302  1.00  0.00    -0.310 N 
ATOM      4  H1  UNL     1      -3.079   3.428  13.722  1.00  0.00     0.170 HD
HETATM    5  C2  UNL     1      -3.694   2.148  12.379  1.00  0.00     0.124 C 
ENDROOT
BRANCH   5   6
HETATM    6  C3  UNL     1      -4.833   1.472  11.718  1.00  0.00     0.278 C 
BRANCH   6   7
HETATM    7  N2  UNL     1      -4.472   0.185  11.186  1.00  0.00    -0.148 N 
HETATM    8  O2  UNL     1      -4.453  -0.798  11.949  1.00  0.00    -0.536 OA
HETATM    9  O3  UNL     1      -4.162   0.095   9.854  1.00  0.00    -0.536 OA
ENDBRANCH   6   7
ENDBRANCH   5   6
BRANCH   5  10
HETATM   10  N3  UNL     1      -2.360   1.861  11.992  1.00  0.00    -0.178 N 
ATOM     11  H3  UNL     1      -1.998   0.919  12.143  1.00  0.00     0.185 HD
BRANCH  10  12
HETATM   12  C4  UNL     1      -1.590   2.743  11.457  1.00  0.00     0.683 A 
HETATM   13  N4  UNL     1      -0.379   3.075  11.941  1.00  0.00    -0.202 N 
HETATM   14  C5  UNL     1       0.372   4.007  11.327  1.00  0.00     0.107 A 
ATOM     15  H4  UNL     1      -0.028   2.615  12.781  1.00  0.00     0.183 HD
HETATM   16  C6  UNL     1      -0.052   4.660  10.189  1.00  0.00     0.035 A 
HETATM   17  C7  UNL     1      -1.298   4.309   9.703  1.00  0.00     0.107 A 
HETATM   18  N5  UNL     1      -2.014   3.373  10.348  1.00  0.00    -0.202 N 
ATOM     19  H5  UNL     1      -2.930   3.127   9.975  1.00  0.00     0.183 HD
ENDBRANCH  10  12
ENDBRANCH   5  10
BRANCH   2  20
HETATM   20  C8  UNL     1      -5.512   3.058  15.173  1.00  0.00     0.032 A 
HETATM   21  C9  UNL     1      -6.315   3.882  15.945  1.00  0.00     0.017 A 
HETATM   22  C10 UNL     1      -6.667   3.599  17.233  1.00  0.00     0.001 A 
HETATM   23  C11 UNL     1      -6.198   2.431  17.800  1.00  0.00     0.000 A 
HETATM   24  C12 UNL     1      -5.397   1.583  17.067  1.00  0.00     0.001 A 
HETATM   25  C13 UNL     1      -5.059   1.899  15.764  1.00  0.00     0.017 A 
ENDBRANCH   2  20
TORSDOF 5
ENDMDL
