MODEL 1
REMARK VINA RESULT: -8.553417236      0.000      0.000
REMARK  11 active torsions:
REMARK  status: ('A' for Active; 'I' for Inactive)
REMARK    1  A    between atoms: C2_2  and  O1_3 
REMARK    2  A    between atoms: O1_3  and  C3_4 
REMARK    3  A    between atoms: C3_4  and  C4_6 
REMARK    4  A    between atoms: C5_7  and  N1_8 
REMARK    5  A    between atoms: N1_8  and  C6_10 
REMARK    6  A    between atoms: C6_10  and  C7_11 
REMARK    7  A    between atoms: C6_10  and  C13_23 
REMARK    8  A    between atoms: C7_11  and  S1_12 
REMARK    9  A    between atoms: S1_12  and  C8_13 
REMARK   10  A    between atoms: C11_18  and  C12_19 
REMARK   11  A    between atoms: C14_27  and  C15_28 
ROOT
HETATM    1  N1  UNL     1      17.531  16.619  26.183  1.00  0.00    -0.368 N 
ATOM      2  H1  UNL     1      18.254  17.012  26.786  1.00  0.00     0.161 HD
ENDROOT
BRANCH   1   3
HETATM    3  C5  UNL     1      16.559  15.725  26.751  1.00  0.00     0.088 A 
HETATM    4  C4  UNL     1      16.701  14.559  27.453  1.00  0.00     0.080 A 
HETATM    5  C17 UNL     1      15.555  13.960  27.872  1.00  0.00    -0.022 A 
HETATM    6  C14 UNL     1      14.358  14.546  27.566  1.00  0.00     0.059 A 
HETATM    7  C18 UNL     1      15.540  12.697  28.730  1.00  0.00     0.051 C 
HETATM    8  S3  UNL     1      14.874  15.952  26.687  1.00  0.00    -0.068 SA
BRANCH   4   9
HETATM    9  C3  UNL     1      18.051  13.983  27.684  1.00  0.00     0.296 C 
HETATM   10  O2  UNL     1      19.040  14.748  27.668  1.00  0.00    -0.259 OA
BRANCH   9  11
HETATM   11  O1  UNL     1      18.330  12.654  27.917  1.00  0.00    -0.318 OA
BRANCH  11  12
HETATM   12  C2  UNL     1      19.290  12.244  28.843  1.00  0.00     0.174 C 
HETATM   13  C1  UNL     1      18.738  11.456  30.002  1.00  0.00     0.034 C 
ENDBRANCH  11  12
ENDBRANCH   9  11
ENDBRANCH   4   9
BRANCH   6  14
HETATM   14  C15 UNL     1      12.965  14.191  27.817  1.00  0.00     0.163 C 
HETATM   15  C16 UNL     1      11.985  14.986  28.518  1.00  0.00     0.097 C 
HETATM   16  O5  UNL     1      12.580  13.053  27.370  1.00  0.00    -0.292 OA
ENDBRANCH   6  14
ENDBRANCH   1   3
BRANCH   1  17
HETATM   17  C6  UNL     1      17.514  16.976  24.783  1.00  0.00     0.193 C 
BRANCH  17  18
HETATM   18  C7  UNL     1      18.039  18.344  24.471  1.00  0.00     0.115 C 
BRANCH  18  19
HETATM   19  S1  UNL     1      17.132  19.651  25.290  1.00  0.00    -0.126 SA
BRANCH  19  20
HETATM   20  C8  UNL     1      17.318  21.212  24.364  1.00  0.00     0.025 A 
HETATM   21  C9  UNL     1      16.336  21.691  23.546  1.00  0.00     0.072 A 
HETATM   22  S2  UNL     1      17.003  23.123  22.915  1.00  0.00    -0.070 SA
HETATM   23  C10 UNL     1      18.508  23.087  23.699  1.00  0.00     0.173 A 
HETATM   24  F1  UNL     1      19.538  23.997  23.602  1.00  0.00    -0.197 F 
HETATM   25  C11 UNL     1      18.458  21.948  24.443  1.00  0.00     0.110 A 
BRANCH  25  26
HETATM   26  C12 UNL     1      19.643  21.545  25.314  1.00  0.00     0.422 C 
HETATM   27  F2  UNL     1      20.475  22.617  25.494  1.00  0.00    -0.166 F 
HETATM   28  F3  UNL     1      20.358  20.538  24.741  1.00  0.00    -0.166 F 
HETATM   29  F4  UNL     1      19.153  21.202  26.581  1.00  0.00    -0.166 F 
ENDBRANCH  25  26
ENDBRANCH  19  20
ENDBRANCH  18  19
ENDBRANCH  17  18
BRANCH  17  30
HETATM   30  C13 UNL     1      18.174  15.962  23.915  1.00  0.00     0.197 C 
HETATM   31  O3  UNL     1      19.084  16.351  23.147  1.00  0.00    -0.646 OA
HETATM   32  O4  UNL     1      17.831  14.636  23.922  1.00  0.00    -0.646 OA
ENDBRANCH  17  30
ENDBRANCH   1  17
TORSDOF 11
ENDMDL
MODEL 2
REMARK VINA RESULT: -8.365229947      1.325      3.441
REMARK  11 active torsions:
REMARK  status: ('A' for Active; 'I' for Inactive)
REMARK    1  A    between atoms: C2_2  and  O1_3 
REMARK    2  A    between atoms: O1_3  and  C3_4 
REMARK    3  A    between atoms: C3_4  and  C4_6 
REMARK    4  A    between atoms: C5_7  and  N1_8 
REMARK    5  A    between atoms: N1_8  and  C6_10 
REMARK    6  A    between atoms: C6_10  and  C7_11 
REMARK    7  A    between atoms: C6_10  and  C13_23 
REMARK    8  A    between atoms: C7_11  and  S1_12 
REMARK    9  A    between atoms: S1_12  and  C8_13 
REMARK   10  A    between atoms: C11_18  and  C12_19 
REMARK   11  A    between atoms: C14_27  and  C15_28 
ROOT
HETATM    1  N1  UNL     1      17.497  16.752  26.256  1.00  0.00    -0.368 N 
ATOM      2  H1  UNL     1      17.847  17.579  26.739  1.00  0.00     0.161 HD
ENDROOT
BRANCH   1   3
HETATM    3  C5  UNL     1      17.395  15.513  26.978  1.00  0.00     0.088 A 
HETATM    4  C4  UNL     1      16.309  14.831  27.458  1.00  0.00     0.080 A 
HETATM    5  C17 UNL     1      16.564  13.655  28.090  1.00  0.00    -0.022 A 
HETATM    6  C14 UNL     1      17.862  13.240  28.210  1.00  0.00     0.059 A 
HETATM    7  C18 UNL     1      15.464  12.736  28.616  1.00  0.00     0.051 C 
HETATM    8  S3  UNL     1      18.712  14.528  27.413  1.00  0.00    -0.068 SA
BRANCH   4   9
HETATM    9  C3  UNL     1      14.945  15.402  27.318  1.00  0.00     0.296 C 
HETATM   10  O2  UNL     1      14.820  16.641  27.225  1.00  0.00    -0.259 OA
BRANCH   9  11
HETATM   11  O1  UNL     1      13.771  14.680  27.284  1.00  0.00    -0.318 OA
BRANCH  11  12
HETATM   12  C2  UNL     1      12.668  15.011  28.072  1.00  0.00     0.174 C 
HETATM   13  C1  UNL     1      12.051  13.845  28.798  1.00  0.00     0.034 C 
ENDBRANCH  11  12
ENDBRANCH   9  11
ENDBRANCH   4   9
BRANCH   6  14
HETATM   14  C15 UNL     1      18.501  12.083  28.827  1.00  0.00     0.163 C 
HETATM   15  C16 UNL     1      17.846  11.024  29.557  1.00  0.00     0.097 C 
HETATM   16  O5  UNL     1      19.774  12.007  28.707  1.00  0.00    -0.292 OA
ENDBRANCH   6  14
ENDBRANCH   1   3
BRANCH   1  17
HETATM   17  C6  UNL     1      17.120  16.858  24.865  1.00  0.00     0.193 C 
BRANCH  17  18
HETATM   18  C7  UNL     1      16.632  18.208  24.440  1.00  0.00     0.115 C 
BRANCH  18  19
HETATM   19  S1  UNL     1      17.262  19.537  25.458  1.00  0.00    -0.126 SA
BRANCH  19  20
HETATM   20  C8  UNL     1      17.360  21.076  24.483  1.00  0.00     0.025 A 
HETATM   21  C9  UNL     1      16.337  21.493  23.681  1.00  0.00     0.072 A 
HETATM   22  S2  UNL     1      16.931  22.930  22.989  1.00  0.00    -0.070 SA
HETATM   23  C10 UNL     1      18.458  22.974  23.728  1.00  0.00     0.173 A 
HETATM   24  F1  UNL     1      19.448  23.919  23.575  1.00  0.00    -0.197 F 
HETATM   25  C11 UNL     1      18.473  21.856  24.506  1.00  0.00     0.110 A 
BRANCH  25  26
HETATM   26  C12 UNL     1      19.698  21.525  25.353  1.00  0.00     0.422 C 
HETATM   27  F2  UNL     1      19.306  21.119  26.600  1.00  0.00    -0.166 F 
HETATM   28  F3  UNL     1      20.512  22.607  25.489  1.00  0.00    -0.166 F 
HETATM   29  F4  UNL     1      20.350  20.433  24.763  1.00  0.00    -0.166 F 
ENDBRANCH  25  26
ENDBRANCH  19  20
ENDBRANCH  18  19
ENDBRANCH  17  18
BRANCH  17  30
HETATM   30  C13 UNL     1      18.182  16.380  23.936  1.00  0.00     0.197 C 
HETATM   31  O3  UNL     1      18.252  15.150  23.708  1.00  0.00    -0.646 OA
HETATM   32  O4  UNL     1      19.077  17.221  23.328  1.00  0.00    -0.646 OA
ENDBRANCH  17  30
ENDBRANCH   1  17
TORSDOF 11
ENDMDL
MODEL 3
REMARK VINA RESULT: -8.118150934      1.333      1.462
REMARK  11 active torsions:
REMARK  status: ('A' for Active; 'I' for Inactive)
REMARK    1  A    between atoms: C2_2  and  O1_3 
REMARK    2  A    between atoms: O1_3  and  C3_4 
REMARK    3  A    between atoms: C3_4  and  C4_6 
REMARK    4  A    between atoms: C5_7  and  N1_8 
REMARK    5  A    between atoms: N1_8  and  C6_10 
REMARK    6  A    between atoms: C6_10  and  C7_11 
REMARK    7  A    between atoms: C6_10  and  C13_23 
REMARK    8  A    between atoms: C7_11  and  S1_12 
REMARK    9  A    between atoms: S1_12  and  C8_13 
REMARK   10  A    between atoms: C11_18  and  C12_19 
REMARK   11  A    between atoms: C14_27  and  C15_28 
ROOT
HETATM    1  N1  UNL     1      16.188  16.248  27.018  1.00  0.00    -0.368 N 
ATOM      2  H1  UNL     1      16.628  16.836  27.726  1.00  0.00     0.161 HD
ENDROOT
BRANCH   1   3
HETATM    3  C5  UNL     1      15.547  15.027  27.425  1.00  0.00     0.088 A 
HETATM    4  C4  UNL     1      16.062  13.821  27.816  1.00  0.00     0.080 A 
HETATM    5  C17 UNL     1      15.162  12.863  28.162  1.00  0.00    -0.022 A 
HETATM    6  C14 UNL     1      13.828  13.157  28.092  1.00  0.00     0.059 A 
HETATM    7  C18 UNL     1      15.569  11.490  28.693  1.00  0.00     0.051 C 
HETATM    8  S3  UNL     1      13.865  14.803  27.539  1.00  0.00    -0.068 SA
BRANCH   4   9
HETATM    9  C3  UNL     1      17.530  13.593  27.805  1.00  0.00     0.296 C 
HETATM   10  O2  UNL     1      18.290  14.582  27.733  1.00  0.00    -0.259 OA
BRANCH   9  11
HETATM   11  O1  UNL     1      18.154  12.366  27.863  1.00  0.00    -0.318 OA
BRANCH  11  12
HETATM   12  C2  UNL     1      19.236  12.118  28.709  1.00  0.00     0.174 C 
HETATM   13  C1  UNL     1      18.852  11.650  30.087  1.00  0.00     0.034 C 
ENDBRANCH  11  12
ENDBRANCH   9  11
ENDBRANCH   4   9
BRANCH   6  14
HETATM   14  C15 UNL     1      12.610  12.397  28.352  1.00  0.00     0.163 C 
HETATM   15  C16 UNL     1      11.747  12.517  29.502  1.00  0.00     0.097 C 
HETATM   16  O5  UNL     1      12.281  11.533  27.464  1.00  0.00    -0.292 OA
ENDBRANCH   6  14
ENDBRANCH   1   3
BRANCH   1  17
HETATM   17  C6  UNL     1      16.227  16.667  25.636  1.00  0.00     0.193 C 
BRANCH  17  18
HETATM   18  C7  UNL     1      16.110  18.143  25.416  1.00  0.00     0.115 C 
BRANCH  18  19
HETATM   19  S1  UNL     1      16.788  18.679  23.849  1.00  0.00    -0.126 SA
BRANCH  19  20
HETATM   20  C8  UNL     1      17.194  20.456  23.921  1.00  0.00     0.025 A 
HETATM   21  C9  UNL     1      16.309  21.419  23.532  1.00  0.00     0.072 A 
HETATM   22  S2  UNL     1      17.167  22.869  23.764  1.00  0.00    -0.070 SA
HETATM   23  C10 UNL     1      18.626  22.229  24.348  1.00  0.00     0.173 A 
HETATM   24  F1  UNL     1      19.761  22.911  24.729  1.00  0.00    -0.197 F 
HETATM   25  C11 UNL     1      18.411  20.884  24.350  1.00  0.00     0.110 A 
BRANCH  25  26
HETATM   26  C12 UNL     1      19.506  19.931  24.818  1.00  0.00     0.422 C 
HETATM   27  F2  UNL     1      20.644  20.634  25.107  1.00  0.00    -0.166 F 
HETATM   28  F3  UNL     1      19.802  19.010  23.860  1.00  0.00    -0.166 F 
HETATM   29  F4  UNL     1      19.084  19.341  26.017  1.00  0.00    -0.166 F 
ENDBRANCH  25  26
ENDBRANCH  19  20
ENDBRANCH  18  19
ENDBRANCH  17  18
BRANCH  17  30
HETATM   30  C13 UNL     1      17.403  16.129  24.898  1.00  0.00     0.197 C 
HETATM   31  O3  UNL     1      18.538  16.557  25.211  1.00  0.00    -0.646 OA
HETATM   32  O4  UNL     1      17.296  15.197  23.899  1.00  0.00    -0.646 OA
ENDBRANCH  17  30
ENDBRANCH   1  17
TORSDOF 11
ENDMDL
MODEL 4
REMARK VINA RESULT: -7.693493423      1.517      3.542
REMARK  11 active torsions:
REMARK  status: ('A' for Active; 'I' for Inactive)
REMARK    1  A    between atoms: C2_2  and  O1_3 
REMARK    2  A    between atoms: O1_3  and  C3_4 
REMARK    3  A    between atoms: C3_4  and  C4_6 
REMARK    4  A    between atoms: C5_7  and  N1_8 
REMARK    5  A    between atoms: N1_8  and  C6_10 
REMARK    6  A    between atoms: C6_10  and  C7_11 
REMARK    7  A    between atoms: C6_10  and  C13_23 
REMARK    8  A    between atoms: C7_11  and  S1_12 
REMARK    9  A    between atoms: S1_12  and  C8_13 
REMARK   10  A    between atoms: C11_18  and  C12_19 
REMARK   11  A    between atoms: C14_27  and  C15_28 
ROOT
HETATM    1  N1  UNL     1      16.342  16.391  26.995  1.00  0.00    -0.368 N 
ATOM      2  H1  UNL     1      16.146  17.143  27.655  1.00  0.00     0.161 HD
ENDROOT
BRANCH   1   3
HETATM    3  C5  UNL     1      16.681  15.089  27.500  1.00  0.00     0.088 A 
HETATM    4  C4  UNL     1      15.905  13.998  27.787  1.00  0.00     0.080 A 
HETATM    5  C17 UNL     1      16.557  12.894  28.238  1.00  0.00    -0.022 A 
HETATM    6  C14 UNL     1      17.916  12.944  28.379  1.00  0.00     0.059 A 
HETATM    7  C18 UNL     1      15.851  11.571  28.531  1.00  0.00     0.051 C 
HETATM    8  S3  UNL     1      18.259  14.565  27.861  1.00  0.00    -0.068 SA
BRANCH   4   9
HETATM    9  C3  UNL     1      14.428  14.071  27.646  1.00  0.00     0.296 C 
HETATM   10  O2  UNL     1      13.885  15.196  27.596  1.00  0.00    -0.259 OA
BRANCH   9  11
HETATM   11  O1  UNL     1      13.573  12.993  27.567  1.00  0.00    -0.318 OA
BRANCH  11  12
HETATM   12  C2  UNL     1      12.395  12.919  28.310  1.00  0.00     0.174 C 
HETATM   13  C1  UNL     1      12.595  12.543  29.755  1.00  0.00     0.034 C 
ENDBRANCH  11  12
ENDBRANCH   9  11
ENDBRANCH   4   9
BRANCH   6  14
HETATM   14  C15 UNL     1      18.920  11.993  28.845  1.00  0.00     0.163 C 
HETATM   15  C16 UNL     1      18.685  10.811  29.639  1.00  0.00     0.097 C 
HETATM   16  O5  UNL     1      20.133  12.242  28.515  1.00  0.00    -0.292 OA
ENDBRANCH   6  14
ENDBRANCH   1   3
BRANCH   1  17
HETATM   17  C6  UNL     1      16.270  16.666  25.578  1.00  0.00     0.193 C 
BRANCH  17  18
HETATM   18  C7  UNL     1      16.011  18.097  25.221  1.00  0.00     0.115 C 
BRANCH  18  19
HETATM   19  S1  UNL     1      16.907  18.635  23.769  1.00  0.00    -0.126 SA
BRANCH  19  20
HETATM   20  C8  UNL     1      17.251  20.424  23.876  1.00  0.00     0.025 A 
HETATM   21  C9  UNL     1      16.347  21.362  23.469  1.00  0.00     0.072 A 
HETATM   22  S2  UNL     1      17.147  22.837  23.747  1.00  0.00    -0.070 SA
HETATM   23  C10 UNL     1      18.607  22.238  24.373  1.00  0.00     0.173 A 
HETATM   24  F1  UNL     1      19.704  22.952  24.800  1.00  0.00    -0.197 F 
HETATM   25  C11 UNL     1      18.438  20.886  24.351  1.00  0.00     0.110 A 
BRANCH  25  26
HETATM   26  C12 UNL     1      19.548  19.964  24.844  1.00  0.00     0.422 C 
HETATM   27  F2  UNL     1      20.634  20.705  25.225  1.00  0.00    -0.166 F 
HETATM   28  F3  UNL     1      19.939  19.097  23.870  1.00  0.00    -0.166 F 
HETATM   29  F4  UNL     1      19.088  19.308  25.994  1.00  0.00    -0.166 F 
ENDBRANCH  25  26
ENDBRANCH  19  20
ENDBRANCH  18  19
ENDBRANCH  17  18
BRANCH  17  30
HETATM   30  C13 UNL     1      17.449  16.154  24.825  1.00  0.00     0.197 C 
HETATM   31  O3  UNL     1      18.564  16.676  25.057  1.00  0.00    -0.646 OA
HETATM   32  O4  UNL     1      17.366  15.148  23.899  1.00  0.00    -0.646 OA
ENDBRANCH  17  30
ENDBRANCH   1  17
TORSDOF 11
ENDMDL
MODEL 5
REMARK VINA RESULT: -7.648268450      3.451      5.825
REMARK  11 active torsions:
REMARK  status: ('A' for Active; 'I' for Inactive)
REMARK    1  A    between atoms: C2_2  and  O1_3 
REMARK    2  A    between atoms: O1_3  and  C3_4 
REMARK    3  A    between atoms: C3_4  and  C4_6 
REMARK    4  A    between atoms: C5_7  and  N1_8 
REMARK    5  A    between atoms: N1_8  and  C6_10 
REMARK    6  A    between atoms: C6_10  and  C7_11 
REMARK    7  A    between atoms: C6_10  and  C13_23 
REMARK    8  A    between atoms: C7_11  and  S1_12 
REMARK    9  A    between atoms: S1_12  and  C8_13 
REMARK   10  A    between atoms: C11_18  and  C12_19 
REMARK   11  A    between atoms: C14_27  and  C15_28 
ROOT
HETATM    1  N1  UNL     1      15.259  13.820  27.370  1.00  0.00    -0.368 N 
ATOM      2  H1  UNL     1      15.073  13.742  26.370  1.00  0.00     0.161 HD
ENDROOT
BRANCH   1   3
HETATM    3  C5  UNL     1      15.813  12.692  28.067  1.00  0.00     0.088 A 
HETATM    4  C4  UNL     1      15.220  11.598  28.637  1.00  0.00     0.080 A 
HETATM    5  C17 UNL     1      16.051  10.689  29.210  1.00  0.00    -0.022 A 
HETATM    6  C14 UNL     1      17.398  10.922  29.187  1.00  0.00     0.059 A 
HETATM    7  C18 UNL     1      15.559   9.378  29.821  1.00  0.00     0.051 C 
HETATM    8  S3  UNL     1      17.473  12.437  28.341  1.00  0.00    -0.068 SA
BRANCH   4   9
HETATM    9  C3  UNL     1      13.740  11.471  28.651  1.00  0.00     0.296 C 
HETATM   10  O2  UNL     1      13.145  11.268  27.571  1.00  0.00    -0.259 OA
BRANCH   9  11
HETATM   11  O1  UNL     1      12.935  11.559  29.767  1.00  0.00    -0.318 OA
BRANCH  11  12
HETATM   12  C2  UNL     1      11.641  11.039  29.796  1.00  0.00     0.174 C 
HETATM   13  C1  UNL     1      10.576  12.043  30.149  1.00  0.00     0.034 C 
ENDBRANCH  11  12
ENDBRANCH   9  11
ENDBRANCH   4   9
BRANCH   6  14
HETATM   14  C15 UNL     1      18.558  10.205  29.707  1.00  0.00     0.163 C 
HETATM   15  C16 UNL     1      18.633   8.799  30.021  1.00  0.00     0.097 C 
HETATM   16  O5  UNL     1      19.614  10.904  29.907  1.00  0.00    -0.292 OA
ENDBRANCH   6  14
ENDBRANCH   1   3
BRANCH   1  17
HETATM   17  C6  UNL     1      14.956  15.061  28.044  1.00  0.00     0.193 C 
BRANCH  17  18
HETATM   18  C7  UNL     1      15.640  16.271  27.486  1.00  0.00     0.115 C 
BRANCH  18  19
HETATM   19  S1  UNL     1      15.182  16.621  25.793  1.00  0.00    -0.126 SA
BRANCH  19  20
HETATM   20  C8  UNL     1      16.454  17.668  25.007  1.00  0.00     0.025 A 
HETATM   21  C9  UNL     1      16.341  19.028  24.952  1.00  0.00     0.072 A 
HETATM   22  S2  UNL     1      17.740  19.511  24.112  1.00  0.00    -0.070 SA
HETATM   23  C10 UNL     1      18.437  17.986  23.850  1.00  0.00     0.173 A 
HETATM   24  F1  UNL     1      19.617  17.693  23.203  1.00  0.00    -0.197 F 
HETATM   25  C11 UNL     1      17.556  17.124  24.428  1.00  0.00     0.110 A 
BRANCH  25  26
HETATM   26  C12 UNL     1      17.824  15.622  24.409  1.00  0.00     0.422 C 
HETATM   27  F2  UNL     1      18.927  15.356  23.643  1.00  0.00    -0.166 F 
HETATM   28  F3  UNL     1      16.767  14.938  23.893  1.00  0.00    -0.166 F 
HETATM   29  F4  UNL     1      18.138  15.221  25.714  1.00  0.00    -0.166 F 
ENDBRANCH  25  26
ENDBRANCH  19  20
ENDBRANCH  18  19
ENDBRANCH  17  18
BRANCH  17  30
HETATM   30  C13 UNL     1      13.494  15.313  28.174  1.00  0.00     0.197 C 
HETATM   31  O3  UNL     1      13.122  16.227  28.945  1.00  0.00    -0.646 OA
HETATM   32  O4  UNL     1      12.549  14.592  27.492  1.00  0.00    -0.646 OA
ENDBRANCH  17  30
ENDBRANCH   1  17
TORSDOF 11
ENDMDL
