MODEL 1
REMARK VINA RESULT: -8.139046249      0.000      0.000
REMARK  12 active torsions:
REMARK  status: ('A' for Active; 'I' for Inactive)
REMARK    1  A    between atoms: O1_2  and  C2_3 
REMARK    2  A    between atoms: C3_4  and  C4_5 
REMARK    3  A    between atoms: N1_8  and  O3_10 
REMARK    4  A    between atoms: C7_13  and  C8_14 
REMARK    5  A    between atoms: C8_14  and  C9_15 
REMARK    6  A    between atoms: C9_15  and  C10_16 
REMARK    7  A    between atoms: C10_16  and  C11_17 
REMARK    8  A    between atoms: N2_20  and  O4_22 
REMARK    9  A    between atoms: C16_27  and  O5_28 
REMARK   10  A    between atoms: O5_28  and  C17_29 
REMARK   11  A    between atoms: C17_29  and  C20_32 
REMARK   12  A    between atoms: C21_36  and  O6_37 
ROOT
HETATM    1  C2  UNL     1      13.213  10.292  29.602  1.00  0.00     0.113 A 
HETATM    2  C3  UNL     1      13.604  11.560  29.129  1.00  0.00     0.011 A 
HETATM    3  C14 UNL     1      12.659  12.536  29.169  1.00  0.00     0.058 A 
HETATM    4  C15 UNL     1      11.399  12.317  29.635  1.00  0.00     0.153 A 
HETATM    5  F1  UNL     1      10.537  13.371  29.630  1.00  0.00    -0.203 F 
HETATM    6  C16 UNL     1      10.955  11.054  30.120  1.00  0.00     0.144 A 
HETATM    7  C21 UNL     1      11.926  10.078  30.074  1.00  0.00     0.139 A 
ENDROOT
BRANCH   2   8
HETATM    8  C4  UNL     1      14.959  11.677  28.657  1.00  0.00     0.176 C 
HETATM    9  O2  UNL     1      15.931  11.745  29.702  1.00  0.00    -0.327 OA
HETATM   10  C5  UNL     1      17.147  11.855  29.064  1.00  0.00     0.139 C 
HETATM   11  N1  UNL     1      18.343  11.652  29.518  1.00  0.00    -0.251 N 
HETATM   12  C6  UNL     1      16.919  12.273  27.658  1.00  0.00     0.099 C 
ATOM     13  H1  UNL     1      19.122  11.791  28.873  1.00  0.00     0.196 HD
HETATM   14  C7  UNL     1      15.398  12.664  27.698  1.00  0.00     0.075 C 
BRANCH  11  15
HETATM   15  O3  UNL     1      18.641  11.267  30.788  1.00  0.00    -0.288 OA
ATOM     16  H3  UNL     1      18.217  10.557  31.255  1.00  0.00     0.244 HD
ENDBRANCH  11  15
BRANCH  14  17
HETATM   17  C8  UNL     1      15.239  14.073  27.704  1.00  0.00     0.017 C 
HETATM   18  N2  UNL     1      13.998  14.492  27.390  1.00  0.00    -0.277 N 
ATOM     19  H2  UNL     1      13.292  13.786  27.180  1.00  0.00     0.193 HD
BRANCH  17  20
HETATM   20  C9  UNL     1      16.166  15.145  27.940  1.00  0.00     0.055 C 
BRANCH  20  21
HETATM   21  C10 UNL     1      17.281  15.421  26.996  1.00  0.00     0.009 C 
BRANCH  21  22
HETATM   22  C11 UNL     1      16.719  15.810  25.622  1.00  0.00    -0.023 C 
HETATM   23  C12 UNL     1      17.733  15.604  24.526  1.00  0.00     0.009 C 
HETATM   24  C13 UNL     1      16.254  17.230  25.584  1.00  0.00     0.009 C 
ENDBRANCH  21  22
ENDBRANCH  20  21
ENDBRANCH  17  20
BRANCH  18  25
HETATM   25  O4  UNL     1      13.634  15.782  27.338  1.00  0.00    -0.290 OA
ATOM     26  H4  UNL     1      13.233  16.190  26.580  1.00  0.00     0.244 HD
ENDBRANCH  18  25
ENDBRANCH  14  17
ENDBRANCH   2   8
BRANCH   1  27
HETATM   27  O1  UNL     1      14.132   9.250  29.587  1.00  0.00    -0.352 OA
HETATM   28  C1  UNL     1      14.791   8.686  30.666  1.00  0.00     0.210 C 
ENDBRANCH   1  27
BRANCH   7  29
HETATM   29  O6  UNL     1      11.580   8.800  30.530  1.00  0.00    -0.351 OA
HETATM   30  C22 UNL     1      10.858   7.851  29.777  1.00  0.00     0.210 C 
ENDBRANCH   7  29
BRANCH   6  31
HETATM   31  O5  UNL     1       9.726  10.962  30.534  1.00  0.00    -0.326 OA
BRANCH  31  32
HETATM   32  C17 UNL     1       8.513  10.846  30.913  1.00  0.00     0.158 C 
HETATM   33  C18 UNL     1       7.674  12.012  30.282  1.00  0.00     0.056 C 
HETATM   34  C19 UNL     1       7.747   9.622  30.285  1.00  0.00     0.056 C 
BRANCH  32  35
HETATM   35  C20 UNL     1       8.060  10.855  32.350  1.00  0.00     0.418 C 
HETATM   36  F2  UNL     1       6.864  11.518  32.499  1.00  0.00    -0.168 F 
HETATM   37  F3  UNL     1       8.942  11.274  33.268  1.00  0.00    -0.168 F 
HETATM   38  F4  UNL     1       7.746   9.515  32.709  1.00  0.00    -0.168 F 
ENDBRANCH  32  35
ENDBRANCH  31  32
ENDBRANCH   6  31
TORSDOF 12
ENDMDL
MODEL 2
REMARK VINA RESULT: -8.127850733      0.741      1.214
REMARK  12 active torsions:
REMARK  status: ('A' for Active; 'I' for Inactive)
REMARK    1  A    between atoms: O1_2  and  C2_3 
REMARK    2  A    between atoms: C3_4  and  C4_5 
REMARK    3  A    between atoms: N1_8  and  O3_10 
REMARK    4  A    between atoms: C7_13  and  C8_14 
REMARK    5  A    between atoms: C8_14  and  C9_15 
REMARK    6  A    between atoms: C9_15  and  C10_16 
REMARK    7  A    between atoms: C10_16  and  C11_17 
REMARK    8  A    between atoms: N2_20  and  O4_22 
REMARK    9  A    between atoms: C16_27  and  O5_28 
REMARK   10  A    between atoms: O5_28  and  C17_29 
REMARK   11  A    between atoms: C17_29  and  C20_32 
REMARK   12  A    between atoms: C21_36  and  O6_37 
ROOT
HETATM    1  C2  UNL     1      13.346  10.290  29.599  1.00  0.00     0.113 A 
HETATM    2  C3  UNL     1      13.721  11.563  29.125  1.00  0.00     0.011 A 
HETATM    3  C14 UNL     1      12.769  12.530  29.182  1.00  0.00     0.058 A 
HETATM    4  C15 UNL     1      11.517  12.299  29.664  1.00  0.00     0.153 A 
HETATM    5  F1  UNL     1      10.647  13.347  29.673  1.00  0.00    -0.203 F 
HETATM    6  C16 UNL     1      11.089  11.032  30.150  1.00  0.00     0.144 A 
HETATM    7  C21 UNL     1      12.068  10.064  30.088  1.00  0.00     0.139 A 
ENDROOT
BRANCH   2   8
HETATM    8  C4  UNL     1      15.069  11.692  28.636  1.00  0.00     0.176 C 
HETATM    9  O2  UNL     1      16.053  11.768  29.669  1.00  0.00    -0.327 OA
HETATM   10  C5  UNL     1      17.261  11.890  29.015  1.00  0.00     0.139 C 
HETATM   11  N1  UNL     1      18.464  11.697  29.453  1.00  0.00    -0.251 N 
HETATM   12  C6  UNL     1      17.011  12.307  27.612  1.00  0.00     0.099 C 
ATOM     13  H1  UNL     1      19.233  11.844  28.799  1.00  0.00     0.196 HD
HETATM   14  C7  UNL     1      15.487  12.684  27.672  1.00  0.00     0.075 C 
BRANCH  11  15
HETATM   15  O3  UNL     1      18.782  11.314  30.719  1.00  0.00    -0.288 OA
ATOM     16  H3  UNL     1      19.559  11.587  31.191  1.00  0.00     0.244 HD
ENDBRANCH  11  15
BRANCH  14  17
HETATM   17  C8  UNL     1      15.315  14.091  27.681  1.00  0.00     0.017 C 
HETATM   18  N2  UNL     1      14.062  14.498  27.398  1.00  0.00    -0.277 N 
ATOM     19  H2  UNL     1      13.358  13.786  27.206  1.00  0.00     0.193 HD
BRANCH  17  20
HETATM   20  C9  UNL     1      16.237  15.172  27.893  1.00  0.00     0.055 C 
BRANCH  20  21
HETATM   21  C10 UNL     1      17.349  15.434  26.942  1.00  0.00     0.009 C 
BRANCH  21  22
HETATM   22  C11 UNL     1      16.782  15.823  25.570  1.00  0.00    -0.023 C 
HETATM   23  C12 UNL     1      17.789  15.607  24.469  1.00  0.00     0.009 C 
HETATM   24  C13 UNL     1      16.329  17.247  25.531  1.00  0.00     0.009 C 
ENDBRANCH  21  22
ENDBRANCH  20  21
ENDBRANCH  17  20
BRANCH  18  25
HETATM   25  O4  UNL     1      13.686  15.786  27.354  1.00  0.00    -0.290 OA
ATOM     26  H4  UNL     1      13.163  16.208  28.025  1.00  0.00     0.244 HD
ENDBRANCH  18  25
ENDBRANCH  14  17
ENDBRANCH   2   8
BRANCH   1  27
HETATM   27  O1  UNL     1      14.274   9.255  29.567  1.00  0.00    -0.352 OA
HETATM   28  C1  UNL     1      14.923   8.666  30.640  1.00  0.00     0.210 C 
ENDBRANCH   1  27
BRANCH   7  29
HETATM   29  O6  UNL     1      11.738   8.781  30.543  1.00  0.00    -0.351 OA
HETATM   30  C22 UNL     1      11.076   7.804  29.770  1.00  0.00     0.210 C 
ENDBRANCH   7  29
BRANCH   6  31
HETATM   31  O5  UNL     1       9.867  10.928  30.580  1.00  0.00    -0.326 OA
BRANCH  31  32
HETATM   32  C17 UNL     1       8.668  10.864  31.011  1.00  0.00     0.158 C 
HETATM   33  C18 UNL     1       8.110   9.424  30.731  1.00  0.00     0.056 C 
HETATM   34  C19 UNL     1       8.536  10.878  32.580  1.00  0.00     0.056 C 
BRANCH  32  35
HETATM   35  C20 UNL     1       7.542  11.750  30.547  1.00  0.00     0.418 C 
HETATM   36  F2  UNL     1       6.716  11.096  29.661  1.00  0.00    -0.168 F 
HETATM   37  F3  UNL     1       7.870  12.959  30.071  1.00  0.00    -0.168 F 
HETATM   38  F4  UNL     1       6.700  11.996  31.667  1.00  0.00    -0.168 F 
ENDBRANCH  32  35
ENDBRANCH  31  32
ENDBRANCH   6  31
TORSDOF 12
ENDMDL
MODEL 3
REMARK VINA RESULT: -7.996711273      4.513      7.658
REMARK  12 active torsions:
REMARK  status: ('A' for Active; 'I' for Inactive)
REMARK    1  A    between atoms: O1_2  and  C2_3 
REMARK    2  A    between atoms: C3_4  and  C4_5 
REMARK    3  A    between atoms: N1_8  and  O3_10 
REMARK    4  A    between atoms: C7_13  and  C8_14 
REMARK    5  A    between atoms: C8_14  and  C9_15 
REMARK    6  A    between atoms: C9_15  and  C10_16 
REMARK    7  A    between atoms: C10_16  and  C11_17 
REMARK    8  A    between atoms: N2_20  and  O4_22 
REMARK    9  A    between atoms: C16_27  and  O5_28 
REMARK   10  A    between atoms: O5_28  and  C17_29 
REMARK   11  A    between atoms: C17_29  and  C20_32 
REMARK   12  A    between atoms: C21_36  and  O6_37 
ROOT
HETATM    1  C2  UNL     1      17.433  16.339  26.622  1.00  0.00     0.113 A 
HETATM    2  C3  UNL     1      16.914  17.249  25.679  1.00  0.00     0.011 A 
HETATM    3  C14 UNL     1      15.573  17.199  25.471  1.00  0.00     0.058 A 
HETATM    4  C15 UNL     1      14.761  16.324  26.125  1.00  0.00     0.153 A 
HETATM    5  F1  UNL     1      13.431  16.367  25.835  1.00  0.00    -0.203 F 
HETATM    6  C16 UNL     1      15.237  15.385  27.082  1.00  0.00     0.144 A 
HETATM    7  C21 UNL     1      16.598  15.451  27.284  1.00  0.00     0.139 A 
ENDROOT
BRANCH   2   8
HETATM    8  C4  UNL     1      17.865  18.126  25.046  1.00  0.00     0.176 C 
HETATM    9  O2  UNL     1      18.564  18.975  25.959  1.00  0.00    -0.327 OA
HETATM   10  C5  UNL     1      19.413  19.730  25.178  1.00  0.00     0.139 C 
HETATM   11  N1  UNL     1      20.456  20.420  25.515  1.00  0.00    -0.251 N 
HETATM   12  C6  UNL     1      18.959  19.662  23.766  1.00  0.00     0.099 C 
ATOM     13  H1  UNL     1      20.952  20.916  24.774  1.00  0.00     0.196 HD
HETATM   14  C7  UNL     1      17.549  18.987  23.930  1.00  0.00     0.075 C 
BRANCH  11  15
HETATM   15  O3  UNL     1      20.939  20.534  26.780  1.00  0.00    -0.288 OA
ATOM     16  H3  UNL     1      20.596  21.121  27.444  1.00  0.00     0.244 HD
ENDBRANCH  11  15
BRANCH  14  17
HETATM   17  C8  UNL     1      16.512  19.942  23.780  1.00  0.00     0.017 C 
HETATM   18  N2  UNL     1      15.443  19.495  23.093  1.00  0.00    -0.277 N 
ATOM     19  H2  UNL     1      15.463  18.536  22.745  1.00  0.00     0.193 HD
BRANCH  17  20
HETATM   20  C9  UNL     1      16.401  21.315  24.188  1.00  0.00     0.055 C 
BRANCH  20  21
HETATM   21  C10 UNL     1      16.419  22.418  23.191  1.00  0.00     0.009 C 
BRANCH  21  22
HETATM   22  C11 UNL     1      17.868  22.761  22.818  1.00  0.00    -0.023 C 
HETATM   23  C12 UNL     1      18.638  23.293  24.000  1.00  0.00     0.009 C 
HETATM   24  C13 UNL     1      17.942  23.762  21.711  1.00  0.00     0.009 C 
ENDBRANCH  21  22
ENDBRANCH  20  21
ENDBRANCH  17  20
BRANCH  18  25
HETATM   25  O4  UNL     1      14.354  20.236  22.838  1.00  0.00    -0.290 OA
ATOM     26  H4  UNL     1      13.794  20.605  23.511  1.00  0.00     0.244 HD
ENDBRANCH  18  25
ENDBRANCH  14  17
ENDBRANCH   2   8
BRANCH   1  27
HETATM   27  O1  UNL     1      18.799  16.338  26.882  1.00  0.00    -0.352 OA
HETATM   28  C1  UNL     1      19.433  16.618  28.081  1.00  0.00     0.210 C 
ENDBRANCH   1  27
BRANCH   7  29
HETATM   29  O6  UNL     1      17.159  14.561  28.208  1.00  0.00    -0.351 OA
HETATM   30  C22 UNL     1      17.475  13.215  27.932  1.00  0.00     0.210 C 
ENDBRANCH   7  29
BRANCH   6  31
HETATM   31  O5  UNL     1      14.368  14.593  27.638  1.00  0.00    -0.326 OA
BRANCH  31  32
HETATM   32  C17 UNL     1      13.517  13.838  28.216  1.00  0.00     0.158 C 
HETATM   33  C18 UNL     1      12.175  14.634  28.389  1.00  0.00     0.056 C 
HETATM   34  C19 UNL     1      12.987  12.652  27.327  1.00  0.00     0.056 C 
BRANCH  32  35
HETATM   35  C20 UNL     1      13.708  13.214  29.573  1.00  0.00     0.418 C 
HETATM   36  F2  UNL     1      13.816  14.169  30.558  1.00  0.00    -0.168 F 
HETATM   37  F3  UNL     1      14.684  12.305  29.698  1.00  0.00    -0.168 F 
HETATM   38  F4  UNL     1      12.506  12.529  29.903  1.00  0.00    -0.168 F 
ENDBRANCH  32  35
ENDBRANCH  31  32
ENDBRANCH   6  31
TORSDOF 12
ENDMDL
MODEL 4
REMARK VINA RESULT: -7.974858382      0.786      1.276
REMARK  12 active torsions:
REMARK  status: ('A' for Active; 'I' for Inactive)
REMARK    1  A    between atoms: O1_2  and  C2_3 
REMARK    2  A    between atoms: C3_4  and  C4_5 
REMARK    3  A    between atoms: N1_8  and  O3_10 
REMARK    4  A    between atoms: C7_13  and  C8_14 
REMARK    5  A    between atoms: C8_14  and  C9_15 
REMARK    6  A    between atoms: C9_15  and  C10_16 
REMARK    7  A    between atoms: C10_16  and  C11_17 
REMARK    8  A    between atoms: N2_20  and  O4_22 
REMARK    9  A    between atoms: C16_27  and  O5_28 
REMARK   10  A    between atoms: O5_28  and  C17_29 
REMARK   11  A    between atoms: C17_29  and  C20_32 
REMARK   12  A    between atoms: C21_36  and  O6_37 
ROOT
HETATM    1  C2  UNL     1      13.322  10.194  29.599  1.00  0.00     0.113 A 
HETATM    2  C3  UNL     1      13.676  11.484  29.157  1.00  0.00     0.011 A 
HETATM    3  C14 UNL     1      12.711  12.436  29.244  1.00  0.00     0.058 A 
HETATM    4  C15 UNL     1      11.466  12.176  29.726  1.00  0.00     0.153 A 
HETATM    5  F1  UNL     1      10.581  13.210  29.768  1.00  0.00    -0.203 F 
HETATM    6  C16 UNL     1      11.058  10.890  30.181  1.00  0.00     0.144 A 
HETATM    7  C21 UNL     1      12.050   9.937  30.089  1.00  0.00     0.139 A 
ENDROOT
BRANCH   2   8
HETATM    8  C4  UNL     1      15.020  11.644  28.665  1.00  0.00     0.176 C 
HETATM    9  O2  UNL     1      16.008  11.713  29.694  1.00  0.00    -0.327 OA
HETATM   10  C5  UNL     1      17.210  11.867  29.037  1.00  0.00     0.139 C 
HETATM   11  N1  UNL     1      18.419  11.684  29.465  1.00  0.00    -0.251 N 
HETATM   12  C6  UNL     1      16.947  12.311  27.646  1.00  0.00     0.099 C 
ATOM     13  H1  UNL     1      19.182  11.857  28.811  1.00  0.00     0.196 HD
HETATM   14  C7  UNL     1      15.417  12.663  27.721  1.00  0.00     0.075 C 
BRANCH  11  15
HETATM   15  O3  UNL     1      18.748  11.278  30.721  1.00  0.00    -0.288 OA
ATOM     16  H3  UNL     1      19.194  10.467  30.931  1.00  0.00     0.244 HD
ENDBRANCH  11  15
BRANCH  14  17
HETATM   17  C8  UNL     1      15.224  14.068  27.761  1.00  0.00     0.017 C 
HETATM   18  N2  UNL     1      13.972  14.464  27.463  1.00  0.00    -0.277 N 
ATOM     19  H2  UNL     1      13.282  13.746  27.238  1.00  0.00     0.193 HD
BRANCH  17  20
HETATM   20  C9  UNL     1      16.125  15.156  28.021  1.00  0.00     0.055 C 
BRANCH  20  21
HETATM   21  C10 UNL     1      17.231  15.481  27.081  1.00  0.00     0.009 C 
BRANCH  21  22
HETATM   22  C11 UNL     1      16.662  15.777  25.687  1.00  0.00    -0.023 C 
HETATM   23  C12 UNL     1      17.680  15.527  24.604  1.00  0.00     0.009 C 
HETATM   24  C13 UNL     1      16.172  17.184  25.566  1.00  0.00     0.009 C 
ENDBRANCH  21  22
ENDBRANCH  20  21
ENDBRANCH  17  20
BRANCH  18  25
HETATM   25  O4  UNL     1      13.577  15.746  27.443  1.00  0.00    -0.290 OA
ATOM     26  H4  UNL     1      12.784  16.050  27.018  1.00  0.00     0.244 HD
ENDBRANCH  18  25
ENDBRANCH  14  17
ENDBRANCH   2   8
BRANCH   1  27
HETATM   27  O1  UNL     1      14.263   9.173  29.536  1.00  0.00    -0.352 OA
HETATM   28  C1  UNL     1      14.949   8.587  30.587  1.00  0.00     0.210 C 
ENDBRANCH   1  27
BRANCH   7  29
HETATM   29  O6  UNL     1      11.740   8.639  30.511  1.00  0.00    -0.351 OA
HETATM   30  C22 UNL     1      10.942   7.730  29.786  1.00  0.00     0.210 C 
ENDBRANCH   7  29
BRANCH   6  31
HETATM   31  O5  UNL     1       9.840  10.758  30.615  1.00  0.00    -0.326 OA
BRANCH  31  32
HETATM   32  C17 UNL     1       8.635  10.608  31.009  1.00  0.00     0.158 C 
HETATM   33  C18 UNL     1       8.595  10.756  32.571  1.00  0.00     0.056 C 
HETATM   34  C19 UNL     1       7.670  11.791  30.624  1.00  0.00     0.056 C 
BRANCH  32  35
HETATM   35  C20 UNL     1       7.805   9.374  30.773  1.00  0.00     0.418 C 
HETATM   36  F2  UNL     1       8.109   8.380  31.676  1.00  0.00    -0.168 F 
HETATM   37  F3  UNL     1       7.781   8.879  29.528  1.00  0.00    -0.168 F 
HETATM   38  F4  UNL     1       6.455   9.700  31.078  1.00  0.00    -0.168 F 
ENDBRANCH  32  35
ENDBRANCH  31  32
ENDBRANCH   6  31
TORSDOF 12
ENDMDL
MODEL 5
REMARK VINA RESULT: -7.498330810      3.491      8.250
REMARK  12 active torsions:
REMARK  status: ('A' for Active; 'I' for Inactive)
REMARK    1  A    between atoms: O1_2  and  C2_3 
REMARK    2  A    between atoms: C3_4  and  C4_5 
REMARK    3  A    between atoms: N1_8  and  O3_10 
REMARK    4  A    between atoms: C7_13  and  C8_14 
REMARK    5  A    between atoms: C8_14  and  C9_15 
REMARK    6  A    between atoms: C9_15  and  C10_16 
REMARK    7  A    between atoms: C10_16  and  C11_17 
REMARK    8  A    between atoms: N2_20  and  O4_22 
REMARK    9  A    between atoms: C16_27  and  O5_28 
REMARK   10  A    between atoms: O5_28  and  C17_29 
REMARK   11  A    between atoms: C17_29  and  C20_32 
REMARK   12  A    between atoms: C21_36  and  O6_37 
ROOT
HETATM    1  C2  UNL     1      16.389  12.006  28.731  1.00  0.00     0.113 A 
HETATM    2  C3  UNL     1      15.013  12.039  29.033  1.00  0.00     0.011 A 
HETATM    3  C14 UNL     1      14.308  13.078  28.514  1.00  0.00     0.058 A 
HETATM    4  C15 UNL     1      14.883  14.044  27.747  1.00  0.00     0.153 A 
HETATM    5  F1  UNL     1      14.075  15.037  27.281  1.00  0.00    -0.203 F 
HETATM    6  C16 UNL     1      16.267  14.058  27.417  1.00  0.00     0.144 A 
HETATM    7  C21 UNL     1      16.967  12.996  27.949  1.00  0.00     0.139 A 
ENDROOT
BRANCH   2   8
HETATM    8  C4  UNL     1      14.513  10.967  29.854  1.00  0.00     0.176 C 
HETATM    9  O2  UNL     1      14.616   9.678  29.247  1.00  0.00    -0.327 OA
HETATM   10  C5  UNL     1      14.093   8.797  30.170  1.00  0.00     0.139 C 
HETATM   11  N1  UNL     1      14.218   7.511  30.252  1.00  0.00    -0.251 N 
HETATM   12  C6  UNL     1      13.290   9.556  31.161  1.00  0.00     0.099 C 
ATOM     13  H1  UNL     1      13.742   7.039  31.021  1.00  0.00     0.196 HD
HETATM   14  C7  UNL     1      13.208  10.966  30.473  1.00  0.00     0.075 C 
BRANCH  11  15
HETATM   15  O3  UNL     1      14.933   6.740  29.389  1.00  0.00    -0.288 OA
ATOM     16  H3  UNL     1      14.709   5.853  29.138  1.00  0.00     0.244 HD
ENDBRANCH  11  15
BRANCH  14  17
HETATM   17  C8  UNL     1      11.928  11.174  29.900  1.00  0.00     0.017 C 
HETATM   18  N2  UNL     1      11.693  10.449  28.790  1.00  0.00    -0.277 N 
ATOM     19  H2  UNL     1      12.431   9.827  28.458  1.00  0.00     0.193 HD
BRANCH  17  20
HETATM   20  C9  UNL     1      10.844  12.047  30.257  1.00  0.00     0.055 C 
BRANCH  20  21
HETATM   21  C10 UNL     1       9.911  11.704  31.362  1.00  0.00     0.009 C 
BRANCH  21  22
HETATM   22  C11 UNL     1       8.529  11.357  30.792  1.00  0.00    -0.023 C 
HETATM   23  C12 UNL     1       8.002  12.453  29.901  1.00  0.00     0.009 C 
HETATM   24  C13 UNL     1       7.527  11.090  31.868  1.00  0.00     0.009 C 
ENDBRANCH  21  22
ENDBRANCH  20  21
ENDBRANCH  17  20
BRANCH  18  25
HETATM   25  O4  UNL     1      10.547  10.496  28.093  1.00  0.00    -0.290 OA
ATOM     26  H4  UNL     1      10.502  10.645  27.157  1.00  0.00     0.244 HD
ENDBRANCH  18  25
ENDBRANCH  14  17
ENDBRANCH   2   8
BRANCH   1  27
HETATM   27  O1  UNL     1      17.169  10.970  29.231  1.00  0.00    -0.352 OA
HETATM   28  C1  UNL     1      18.015  10.999  30.327  1.00  0.00     0.210 C 
ENDBRANCH   1  27
BRANCH   7  29
HETATM   29  O6  UNL     1      18.339  12.926  27.679  1.00  0.00    -0.351 OA
HETATM   30  C22 UNL     1      19.337  13.568  28.441  1.00  0.00     0.210 C 
ENDBRANCH   7  29
BRANCH   6  31
HETATM   31  O5  UNL     1      16.705  15.036  26.683  1.00  0.00    -0.326 OA
BRANCH  31  32
HETATM   32  C17 UNL     1      17.122  15.980  25.930  1.00  0.00     0.158 C 
HETATM   33  C18 UNL     1      18.355  16.665  26.619  1.00  0.00     0.056 C 
HETATM   34  C19 UNL     1      17.816  15.498  24.602  1.00  0.00     0.056 C 
BRANCH  32  35
HETATM   35  C20 UNL     1      16.290  17.158  25.496  1.00  0.00     0.418 C 
HETATM   36  F2  UNL     1      16.753  18.333  26.043  1.00  0.00    -0.168 F 
HETATM   37  F3  UNL     1      14.962  17.063  25.654  1.00  0.00    -0.168 F 
HETATM   38  F4  UNL     1      16.495  17.336  24.100  1.00  0.00    -0.168 F 
ENDBRANCH  32  35
ENDBRANCH  31  32
ENDBRANCH   6  31
TORSDOF 12
ENDMDL
