MODEL 1
REMARK VINA RESULT: -9.179234986      0.000      0.000
REMARK  12 active torsions:
REMARK  status: ('A' for Active; 'I' for Inactive)
REMARK    1  A    between atoms: C2_2  and  O1_5 
REMARK    2  A    between atoms: O1_5  and  C5_6 
REMARK       I    between atoms: C5_6  and  N1_8 
REMARK    3  A    between atoms: C8_12  and  N2_13 
REMARK    4  A    between atoms: N2_13  and  C9_15 
REMARK    5  A    between atoms: C9_15  and  C10_16 
REMARK    6  A    between atoms: C10_16  and  C11_17 
REMARK    7  A    between atoms: C11_17  and  C12_18 
REMARK    8  A    between atoms: C12_18  and  C13_19 
REMARK    9  A    between atoms: C13_19  and  C14_20 
REMARK   10  A    between atoms: C14_20  and  C15_21 
REMARK   11  A    between atoms: C16_26  and  C17_27 
REMARK   12  A    between atoms: N6_33  and  C19_34 
ROOT
HETATM    1  N2  UNL     1      15.594  16.178  27.375  1.00  0.00    -0.375 N 
ATOM      2  H2  UNL     1      15.677  16.919  28.071  1.00  0.00     0.161 HD
ENDROOT
BRANCH   1   3
HETATM    3  C8  UNL     1      15.692  14.798  27.788  1.00  0.00     0.129 A 
HETATM    4  C7  UNL     1      16.832  14.017  27.762  1.00  0.00     0.126 A 
HETATM    5  C6  UNL     1      16.559  12.830  28.386  1.00  0.00     0.275 A 
HETATM    6  N1  UNL     1      15.248  12.881  28.800  1.00  0.00    -0.153 N 
HETATM    7  O3  UNL     1      17.366  11.872  28.547  1.00  0.00    -0.266 OA
HETATM    8  C5  UNL     1      14.649  11.822  29.569  1.00  0.00     0.390 C 
HETATM    9  N6  UNL     1      14.762  14.043  28.431  1.00  0.00    -0.202 N 
HETATM   10  O2  UNL     1      15.341  10.779  29.795  1.00  0.00    -0.236 OA
BRANCH   8  11
HETATM   11  O1  UNL     1      13.404  11.888  30.081  1.00  0.00    -0.292 OA
BRANCH  11  12
HETATM   12  C2  UNL     1      12.288  11.251  29.587  1.00  0.00     0.061 C 
HETATM   13  C1  UNL     1      12.030   9.893  30.262  1.00  0.00     0.046 C 
HETATM   14  C3  UNL     1      11.071  12.109  29.988  1.00  0.00     0.046 C 
HETATM   15  C4  UNL     1      12.308  11.018  28.114  1.00  0.00     0.046 C 
ENDBRANCH  11  12
ENDBRANCH   8  11
BRANCH   9  16
HETATM   16  C19 UNL     1      13.395  14.549  28.627  1.00  0.00     0.481 C 
HETATM   17  F1  UNL     1      13.388  15.747  29.333  1.00  0.00    -0.189 F 
HETATM   18  F2  UNL     1      12.816  14.735  27.336  1.00  0.00    -0.189 F 
ENDBRANCH   9  16
ENDBRANCH   1   3
BRANCH   1  19
HETATM   19  C9  UNL     1      15.379  16.522  25.998  1.00  0.00     0.121 C 
BRANCH  19  20
HETATM   20  C10 UNL     1      16.533  16.896  25.181  1.00  0.00     0.020 C 
BRANCH  20  21
HETATM   21  C11 UNL     1      17.512  15.846  24.794  1.00  0.00     0.002 C 
BRANCH  21  22
HETATM   22  C12 UNL     1      18.401  16.377  23.679  1.00  0.00     0.000 C 
BRANCH  22  23
HETATM   23  C13 UNL     1      18.230  17.827  23.376  1.00  0.00     0.007 C 
BRANCH  23  24
HETATM   24  C14 UNL     1      19.470  18.616  23.681  1.00  0.00     0.078 C 
BRANCH  24  25
HETATM   25  C15 UNL     1      19.047  20.033  23.967  1.00  0.00     0.097 A 
HETATM   26  N3  UNL     1      19.429  20.767  25.047  1.00  0.00    -0.287 N 
HETATM   27  N4  UNL     1      18.870  21.943  24.959  1.00  0.00    -0.285 N 
ATOM     28  H3  UNL     1      20.045  20.452  25.796  1.00  0.00     0.188 HD
HETATM   29  C16 UNL     1      18.101  22.027  23.831  1.00  0.00     0.136 A 
ATOM     30  H4  UNL     1      18.990  22.695  25.638  1.00  0.00     0.188 HD
HETATM   31  N5  UNL     1      18.247  20.817  23.252  1.00  0.00    -0.331 N 
ATOM     32  H5  UNL     1      17.800  20.539  22.378  1.00  0.00     0.168 HD
BRANCH  29  33
HETATM   33  C17 UNL     1      17.317  23.224  23.413  1.00  0.00     0.168 C 
HETATM   34  C18 UNL     1      17.932  23.680  22.078  1.00  0.00     0.059 C 
HETATM   35 CL1  UNL     1      15.626  22.845  23.070  1.00  0.00    -0.093 Cl
HETATM   36 CL2  UNL     1      17.375  24.537  24.593  1.00  0.00    -0.093 Cl
ENDBRANCH  29  33
ENDBRANCH  24  25
ENDBRANCH  23  24
ENDBRANCH  22  23
ENDBRANCH  21  22
ENDBRANCH  20  21
ENDBRANCH  19  20
ENDBRANCH   1  19
TORSDOF 12
ENDMDL
MODEL 2
REMARK VINA RESULT: -8.950326991      1.497      2.127
REMARK  12 active torsions:
REMARK  status: ('A' for Active; 'I' for Inactive)
REMARK    1  A    between atoms: C2_2  and  O1_5 
REMARK    2  A    between atoms: O1_5  and  C5_6 
REMARK       I    between atoms: C5_6  and  N1_8 
REMARK    3  A    between atoms: C8_12  and  N2_13 
REMARK    4  A    between atoms: N2_13  and  C9_15 
REMARK    5  A    between atoms: C9_15  and  C10_16 
REMARK    6  A    between atoms: C10_16  and  C11_17 
REMARK    7  A    between atoms: C11_17  and  C12_18 
REMARK    8  A    between atoms: C12_18  and  C13_19 
REMARK    9  A    between atoms: C13_19  and  C14_20 
REMARK   10  A    between atoms: C14_20  and  C15_21 
REMARK   11  A    between atoms: C16_26  and  C17_27 
REMARK   12  A    between atoms: N6_33  and  C19_34 
ROOT
HETATM    1  N2  UNL     1      15.727  13.821  27.708  1.00  0.00    -0.375 N 
ATOM      2  H2  UNL     1      15.065  14.522  27.375  1.00  0.00     0.161 HD
ENDROOT
BRANCH   1   3
HETATM    3  C8  UNL     1      15.234  12.587  28.271  1.00  0.00     0.129 A 
HETATM    4  C7  UNL     1      15.953  11.417  28.428  1.00  0.00     0.126 A 
HETATM    5  C6  UNL     1      15.193  10.534  29.147  1.00  0.00     0.275 A 
HETATM    6  N1  UNL     1      14.004  11.164  29.436  1.00  0.00    -0.153 N 
HETATM    7  O3  UNL     1      15.528   9.363  29.479  1.00  0.00    -0.266 OA
HETATM    8  C5  UNL     1      12.994  10.547  30.256  1.00  0.00     0.390 C 
HETATM    9  N6  UNL     1      14.053  12.363  28.905  1.00  0.00    -0.202 N 
HETATM   10  O2  UNL     1      13.188   9.354  30.651  1.00  0.00    -0.236 OA
BRANCH   8  11
HETATM   11  O1  UNL     1      11.868  11.176  30.646  1.00  0.00    -0.292 OA
BRANCH  11  12
HETATM   12  C2  UNL     1      10.593  10.910  30.200  1.00  0.00     0.061 C 
HETATM   13  C1  UNL     1       9.840   9.921  31.107  1.00  0.00     0.046 C 
HETATM   14  C3  UNL     1       9.793  12.222  30.327  1.00  0.00     0.046 C 
HETATM   15  C4  UNL     1      10.520  10.379  28.808  1.00  0.00     0.046 C 
ENDBRANCH  11  12
ENDBRANCH   8  11
BRANCH   9  16
HETATM   16  C19 UNL     1      13.008  13.398  28.924  1.00  0.00     0.481 C 
HETATM   17  F1  UNL     1      13.440  14.550  29.572  1.00  0.00    -0.189 F 
HETATM   18  F2  UNL     1      12.668  13.692  27.570  1.00  0.00    -0.189 F 
ENDBRANCH   9  16
ENDBRANCH   1   3
BRANCH   1  19
HETATM   19  C9  UNL     1      17.137  14.076  27.609  1.00  0.00     0.121 C 
BRANCH  19  20
HETATM   20  C10 UNL     1      17.583  15.315  26.975  1.00  0.00     0.020 C 
BRANCH  20  21
HETATM   21  C11 UNL     1      17.018  15.690  25.651  1.00  0.00     0.002 C 
BRANCH  21  22
HETATM   22  C12 UNL     1      16.119  16.907  25.817  1.00  0.00     0.000 C 
BRANCH  22  23
HETATM   23  C13 UNL     1      16.454  18.060  24.932  1.00  0.00     0.007 C 
BRANCH  23  24
HETATM   24  C14 UNL     1      17.935  18.299  24.855  1.00  0.00     0.078 C 
BRANCH  24  25
HETATM   25  C15 UNL     1      18.144  19.772  24.620  1.00  0.00     0.097 A 
HETATM   26  N3  UNL     1      19.216  20.493  25.048  1.00  0.00    -0.287 N 
HETATM   27  N4  UNL     1      19.055  21.728  24.661  1.00  0.00    -0.285 N 
ATOM     28  H3  UNL     1      20.007  20.130  25.579  1.00  0.00     0.188 HD
HETATM   29  C16 UNL     1      17.881  21.870  23.974  1.00  0.00     0.136 A 
ATOM     30  H4  UNL     1      19.715  22.485  24.845  1.00  0.00     0.188 HD
HETATM   31  N5  UNL     1      17.356  20.626  23.977  1.00  0.00    -0.331 N 
ATOM     32  H5  UNL     1      16.469  20.375  23.542  1.00  0.00     0.168 HD
BRANCH  29  33
HETATM   33  C17 UNL     1      17.376  23.144  23.388  1.00  0.00     0.168 C 
HETATM   34  C18 UNL     1      15.888  22.901  23.082  1.00  0.00     0.059 C 
HETATM   35 CL1  UNL     1      17.428  24.488  24.533  1.00  0.00    -0.093 Cl
HETATM   36 CL2  UNL     1      18.234  23.618  21.918  1.00  0.00    -0.093 Cl
ENDBRANCH  29  33
ENDBRANCH  24  25
ENDBRANCH  23  24
ENDBRANCH  22  23
ENDBRANCH  21  22
ENDBRANCH  20  21
ENDBRANCH  19  20
ENDBRANCH   1  19
TORSDOF 12
ENDMDL
MODEL 3
REMARK VINA RESULT: -8.930549761      1.104      1.494
REMARK  12 active torsions:
REMARK  status: ('A' for Active; 'I' for Inactive)
REMARK    1  A    between atoms: C2_2  and  O1_5 
REMARK    2  A    between atoms: O1_5  and  C5_6 
REMARK       I    between atoms: C5_6  and  N1_8 
REMARK    3  A    between atoms: C8_12  and  N2_13 
REMARK    4  A    between atoms: N2_13  and  C9_15 
REMARK    5  A    between atoms: C9_15  and  C10_16 
REMARK    6  A    between atoms: C10_16  and  C11_17 
REMARK    7  A    between atoms: C11_17  and  C12_18 
REMARK    8  A    between atoms: C12_18  and  C13_19 
REMARK    9  A    between atoms: C13_19  and  C14_20 
REMARK   10  A    between atoms: C14_20  and  C15_21 
REMARK   11  A    between atoms: C16_26  and  C17_27 
REMARK   12  A    between atoms: N6_33  and  C19_34 
ROOT
HETATM    1  N2  UNL     1      16.304  14.594  27.635  1.00  0.00    -0.375 N 
ATOM      2  H2  UNL     1      15.632  15.357  27.715  1.00  0.00     0.161 HD
ENDROOT
BRANCH   1   3
HETATM    3  C8  UNL     1      15.990  13.306  28.208  1.00  0.00     0.129 A 
HETATM    4  C7  UNL     1      16.879  12.270  28.424  1.00  0.00     0.126 A 
HETATM    5  C6  UNL     1      16.238  11.290  29.131  1.00  0.00     0.275 A 
HETATM    6  N1  UNL     1      14.952  11.724  29.355  1.00  0.00    -0.153 N 
HETATM    7  O3  UNL     1      16.741  10.193  29.506  1.00  0.00    -0.266 OA
HETATM    8  C5  UNL     1      14.017  10.967  30.146  1.00  0.00     0.390 C 
HETATM    9  N6  UNL     1      14.832  12.906  28.796  1.00  0.00    -0.202 N 
HETATM   10  O2  UNL     1      14.382   9.828  30.579  1.00  0.00    -0.236 OA
BRANCH   8  11
HETATM   11  O1  UNL     1      12.788  11.414  30.473  1.00  0.00    -0.292 OA
BRANCH  11  12
HETATM   12  C2  UNL     1      11.600  10.996  29.920  1.00  0.00     0.061 C 
HETATM   13  C1  UNL     1      11.001   9.778  30.646  1.00  0.00     0.046 C 
HETATM   14  C3  UNL     1      10.574  12.122  30.164  1.00  0.00     0.046 C 
HETATM   15  C4  UNL     1      11.675  10.654  28.470  1.00  0.00     0.046 C 
ENDBRANCH  11  12
ENDBRANCH   8  11
BRANCH   9  16
HETATM   16  C19 UNL     1      13.635  13.759  28.747  1.00  0.00     0.481 C 
HETATM   17  F1  UNL     1      13.852  14.984  29.369  1.00  0.00    -0.189 F 
HETATM   18  F2  UNL     1      13.304  13.957  27.373  1.00  0.00    -0.189 F 
ENDBRANCH   9  16
ENDBRANCH   1   3
BRANCH   1  19
HETATM   19  C9  UNL     1      17.549  14.814  26.955  1.00  0.00     0.121 C 
BRANCH  19  20
HETATM   20  C10 UNL     1      17.537  15.554  25.694  1.00  0.00     0.020 C 
BRANCH  20  21
HETATM   21  C11 UNL     1      16.384  16.444  25.392  1.00  0.00     0.002 C 
BRANCH  21  22
HETATM   22  C12 UNL     1      16.905  17.791  24.909  1.00  0.00     0.000 C 
BRANCH  22  23
HETATM   23  C13 UNL     1      17.697  17.741  23.646  1.00  0.00     0.007 C 
BRANCH  23  24
HETATM   24  C14 UNL     1      19.031  18.417  23.792  1.00  0.00     0.078 C 
BRANCH  24  25
HETATM   25  C15 UNL     1      18.774  19.889  23.974  1.00  0.00     0.097 A 
HETATM   26  N3  UNL     1      19.343  20.676  24.929  1.00  0.00    -0.287 N 
HETATM   27  N4  UNL     1      18.888  21.889  24.780  1.00  0.00    -0.285 N 
ATOM     28  H3  UNL     1      20.009  20.369  25.637  1.00  0.00     0.188 HD
HETATM   29  C16 UNL     1      18.007  21.949  23.735  1.00  0.00     0.136 A 
ATOM     30  H4  UNL     1      19.153  22.684  25.363  1.00  0.00     0.188 HD
HETATM   31  N5  UNL     1      17.974  20.682  23.271  1.00  0.00    -0.331 N 
ATOM     32  H5  UNL     1      17.407  20.374  22.481  1.00  0.00     0.168 HD
BRANCH  29  33
HETATM   33  C17 UNL     1      17.293  23.177  23.282  1.00  0.00     0.168 C 
HETATM   34  C18 UNL     1      17.552  24.234  24.370  1.00  0.00     0.059 C 
HETATM   35 CL1  UNL     1      17.960  23.840  21.786  1.00  0.00    -0.093 Cl
HETATM   36 CL2  UNL     1      15.558  22.930  23.069  1.00  0.00    -0.093 Cl
ENDBRANCH  29  33
ENDBRANCH  24  25
ENDBRANCH  23  24
ENDBRANCH  22  23
ENDBRANCH  21  22
ENDBRANCH  20  21
ENDBRANCH  19  20
ENDBRANCH   1  19
TORSDOF 12
ENDMDL
MODEL 4
REMARK VINA RESULT: -8.928902014      0.900      1.320
REMARK  12 active torsions:
REMARK  status: ('A' for Active; 'I' for Inactive)
REMARK    1  A    between atoms: C2_2  and  O1_5 
REMARK    2  A    between atoms: O1_5  and  C5_6 
REMARK       I    between atoms: C5_6  and  N1_8 
REMARK    3  A    between atoms: C8_12  and  N2_13 
REMARK    4  A    between atoms: N2_13  and  C9_15 
REMARK    5  A    between atoms: C9_15  and  C10_16 
REMARK    6  A    between atoms: C10_16  and  C11_17 
REMARK    7  A    between atoms: C11_17  and  C12_18 
REMARK    8  A    between atoms: C12_18  and  C13_19 
REMARK    9  A    between atoms: C13_19  and  C14_20 
REMARK   10  A    between atoms: C14_20  and  C15_21 
REMARK   11  A    between atoms: C16_26  and  C17_27 
REMARK   12  A    between atoms: N6_33  and  C19_34 
ROOT
HETATM    1  N2  UNL     1      15.560  15.829  27.672  1.00  0.00    -0.375 N 
ATOM      2  H2  UNL     1      15.825  16.538  28.355  1.00  0.00     0.161 HD
ENDROOT
BRANCH   1   3
HETATM    3  C8  UNL     1      15.556  14.437  28.054  1.00  0.00     0.129 A 
HETATM    4  C7  UNL     1      16.628  13.568  27.981  1.00  0.00     0.126 A 
HETATM    5  C6  UNL     1      16.276  12.393  28.588  1.00  0.00     0.275 A 
HETATM    6  N1  UNL     1      14.984  12.541  29.039  1.00  0.00    -0.153 N 
HETATM    7  O3  UNL     1      17.006  11.370  28.708  1.00  0.00    -0.266 OA
HETATM    8  C5  UNL     1      14.320  11.516  29.803  1.00  0.00     0.390 C 
HETATM    9  N6  UNL     1      14.585  13.746  28.706  1.00  0.00    -0.202 N 
HETATM   10  O2  UNL     1      14.931  10.416  29.989  1.00  0.00    -0.236 OA
BRANCH   8  11
HETATM   11  O1  UNL     1      13.098  11.671  30.349  1.00  0.00    -0.292 OA
BRANCH  11  12
HETATM   12  C2  UNL     1      11.913  11.195  29.836  1.00  0.00     0.061 C 
HETATM   13  C1  UNL     1      11.972  10.969  28.315  1.00  0.00     0.046 C 
HETATM   14  C3  UNL     1      11.711   9.782  30.419  1.00  0.00     0.046 C 
HETATM   15  C4  UNL     1      10.727  12.056  30.111  1.00  0.00     0.046 C 
ENDBRANCH  11  12
ENDBRANCH   8  11
BRANCH   9  16
HETATM   16  C19 UNL     1      13.269  14.356  28.949  1.00  0.00     0.481 C 
HETATM   17  F1  UNL     1      13.381  15.560  29.637  1.00  0.00    -0.189 F 
HETATM   18  F2  UNL     1      12.653  14.570  27.680  1.00  0.00    -0.189 F 
ENDBRANCH   9  16
ENDBRANCH   1   3
BRANCH   1  19
HETATM   19  C9  UNL     1      15.196  16.229  26.342  1.00  0.00     0.121 C 
BRANCH  19  20
HETATM   20  C10 UNL     1      16.247  16.689  25.435  1.00  0.00     0.020 C 
BRANCH  20  21
HETATM   21  C11 UNL     1      17.569  16.011  25.463  1.00  0.00     0.002 C 
BRANCH  21  22
HETATM   22  C12 UNL     1      18.177  16.041  24.068  1.00  0.00     0.000 C 
BRANCH  22  23
HETATM   23  C13 UNL     1      18.004  17.329  23.336  1.00  0.00     0.007 C 
BRANCH  23  24
HETATM   24  C14 UNL     1      19.040  18.343  23.727  1.00  0.00     0.078 C 
BRANCH  24  25
HETATM   25  C15 UNL     1      18.328  19.648  23.966  1.00  0.00     0.097 A 
HETATM   26  N3  UNL     1      17.540  19.931  25.039  1.00  0.00    -0.287 N 
HETATM   27  N4  UNL     1      17.097  21.151  24.908  1.00  0.00    -0.285 N 
ATOM     28  H3  UNL     1      17.331  19.298  25.811  1.00  0.00     0.188 HD
HETATM   29  C16 UNL     1      17.568  21.714  23.754  1.00  0.00     0.136 A 
ATOM     30  H4  UNL     1      16.484  21.620  25.575  1.00  0.00     0.188 HD
HETATM   31  N5  UNL     1      18.327  20.740  23.209  1.00  0.00    -0.331 N 
ATOM     32  H5  UNL     1      18.834  20.830  22.329  1.00  0.00     0.168 HD
BRANCH  29  33
HETATM   33  C17 UNL     1      17.263  23.096  23.285  1.00  0.00     0.168 C 
HETATM   34  C18 UNL     1      15.754  23.109  22.982  1.00  0.00     0.059 C 
HETATM   35 CL1  UNL     1      17.523  24.313  24.538  1.00  0.00    -0.093 Cl
HETATM   36 CL2  UNL     1      18.180  23.556  21.847  1.00  0.00    -0.093 Cl
ENDBRANCH  29  33
ENDBRANCH  24  25
ENDBRANCH  23  24
ENDBRANCH  22  23
ENDBRANCH  21  22
ENDBRANCH  20  21
ENDBRANCH  19  20
ENDBRANCH   1  19
TORSDOF 12
ENDMDL
MODEL 5
REMARK VINA RESULT: -8.849631142      2.023      2.866
REMARK  12 active torsions:
REMARK  status: ('A' for Active; 'I' for Inactive)
REMARK    1  A    between atoms: C2_2  and  O1_5 
REMARK    2  A    between atoms: O1_5  and  C5_6 
REMARK       I    between atoms: C5_6  and  N1_8 
REMARK    3  A    between atoms: C8_12  and  N2_13 
REMARK    4  A    between atoms: N2_13  and  C9_15 
REMARK    5  A    between atoms: C9_15  and  C10_16 
REMARK    6  A    between atoms: C10_16  and  C11_17 
REMARK    7  A    between atoms: C11_17  and  C12_18 
REMARK    8  A    between atoms: C12_18  and  C13_19 
REMARK    9  A    between atoms: C13_19  and  C14_20 
REMARK   10  A    between atoms: C14_20  and  C15_21 
REMARK   11  A    between atoms: C16_26  and  C17_27 
REMARK   12  A    between atoms: N6_33  and  C19_34 
ROOT
HETATM    1  N2  UNL     1      17.557  15.062  26.149  1.00  0.00    -0.375 N 
ATOM      2  H2  UNL     1      18.495  15.040  26.548  1.00  0.00     0.161 HD
ENDROOT
BRANCH   1   3
HETATM    3  C8  UNL     1      16.410  14.963  27.020  1.00  0.00     0.129 A 
HETATM    4  C7  UNL     1      15.307  15.795  27.014  1.00  0.00     0.126 A 
HETATM    5  C6  UNL     1      14.369  15.279  27.866  1.00  0.00     0.275 A 
HETATM    6  N1  UNL     1      14.896  14.123  28.397  1.00  0.00    -0.153 N 
HETATM    7  O3  UNL     1      13.235  15.776  28.114  1.00  0.00    -0.266 OA
HETATM    8  C5  UNL     1      14.138  13.274  29.279  1.00  0.00     0.390 C 
HETATM    9  N6  UNL     1      16.095  13.967  27.889  1.00  0.00    -0.202 N 
HETATM   10  O2  UNL     1      12.978  13.658  29.632  1.00  0.00    -0.236 OA
BRANCH   8  11
HETATM   11  O1  UNL     1      14.584  12.085  29.729  1.00  0.00    -0.292 OA
BRANCH  11  12
HETATM   12  C2  UNL     1      14.167  10.846  29.298  1.00  0.00     0.061 C 
HETATM   13  C1  UNL     1      13.780  10.833  27.809  1.00  0.00     0.046 C 
HETATM   14  C3  UNL     1      15.392   9.912  29.377  1.00  0.00     0.046 C 
HETATM   15  C4  UNL     1      13.019  10.277  30.060  1.00  0.00     0.046 C 
ENDBRANCH  11  12
ENDBRANCH   8  11
BRANCH   9  16
HETATM   16  C19 UNL     1      17.058  12.892  28.173  1.00  0.00     0.481 C 
HETATM   17  F1  UNL     1      16.989  11.877  27.223  1.00  0.00    -0.189 F 
HETATM   18  F2  UNL     1      18.362  13.472  28.179  1.00  0.00    -0.189 F 
ENDBRANCH   9  16
ENDBRANCH   1   3
BRANCH   1  19
HETATM   19  C9  UNL     1      17.395  15.192  24.728  1.00  0.00     0.121 C 
BRANCH  19  20
HETATM   20  C10 UNL     1      18.478  15.790  23.951  1.00  0.00     0.020 C 
BRANCH  20  21
HETATM   21  C11 UNL     1      18.376  17.220  23.553  1.00  0.00     0.002 C 
BRANCH  21  22
HETATM   22  C12 UNL     1      17.091  17.806  24.121  1.00  0.00     0.000 C 
BRANCH  22  23
HETATM   23  C13 UNL     1      17.232  18.446  25.461  1.00  0.00     0.007 C 
BRANCH  23  24
HETATM   24  C14 UNL     1      18.621  18.967  25.693  1.00  0.00     0.078 C 
BRANCH  24  25
HETATM   25  C15 UNL     1      18.666  20.380  25.173  1.00  0.00     0.097 A 
HETATM   26  N3  UNL     1      19.725  21.228  25.288  1.00  0.00    -0.287 N 
HETATM   27  N4  UNL     1      19.404  22.359  24.722  1.00  0.00    -0.285 N 
ATOM     28  H3  UNL     1      20.615  21.016  25.739  1.00  0.00     0.188 HD
HETATM   29  C16 UNL     1      18.132  22.303  24.221  1.00  0.00     0.136 A 
ATOM     30  H4  UNL     1      20.016  23.172  24.662  1.00  0.00     0.188 HD
HETATM   31  N5  UNL     1      17.721  21.054  24.527  1.00  0.00    -0.331 N 
ATOM     32  H5  UNL     1      16.804  20.676  24.292  1.00  0.00     0.168 HD
BRANCH  29  33
HETATM   33  C17 UNL     1      17.438  23.415  23.511  1.00  0.00     0.168 C 
HETATM   34  C18 UNL     1      16.032  22.886  23.182  1.00  0.00     0.059 C 
HETATM   35 CL1  UNL     1      17.202  24.835  24.535  1.00  0.00    -0.093 Cl
HETATM   36 CL2  UNL     1      18.265  23.914  22.032  1.00  0.00    -0.093 Cl
ENDBRANCH  29  33
ENDBRANCH  24  25
ENDBRANCH  23  24
ENDBRANCH  22  23
ENDBRANCH  21  22
ENDBRANCH  20  21
ENDBRANCH  19  20
ENDBRANCH   1  19
TORSDOF 12
ENDMDL
