MODEL 1
REMARK VINA RESULT: -8.903332691      0.000      0.000
REMARK  9 active torsions:
REMARK  status: ('A' for Active; 'I' for Inactive)
REMARK    1  A    between atoms: O1_2  and  C2_3 
REMARK    2  A    between atoms: C7_8  and  N1_9 
REMARK       I    between atoms: N1_9  and  C8_11 
REMARK    3  A    between atoms: C8_11  and  C9_13 
REMARK    4  A    between atoms: C9_13  and  C10_15 
REMARK    5  A    between atoms: C10_15  and  C11_17 
REMARK    6  A    between atoms: C11_17  and  C16_30 
REMARK    7  A    between atoms: N2_18  and  N3_20 
REMARK    8  A    between atoms: N3_20  and  C12_22 
REMARK    9  A    between atoms: C15_26  and  N4_27 
ROOT
HETATM    1  C11 UNL     1      17.206  17.240  25.631  1.00  0.00     0.121 C 
HETATM    2  N2  UNL     1      16.935  18.489  25.701  1.00  0.00    -0.295 N 
ATOM      3  H2  UNL     1      16.475  18.688  26.590  1.00  0.00     0.187 HD
ENDROOT
BRANCH   1   4
HETATM    4  C10 UNL     1      16.781  16.490  26.826  1.00  0.00     0.206 C 
HETATM    5  O3  UNL     1      17.556  15.977  27.612  1.00  0.00    -0.288 OA
BRANCH   4   6
HETATM    6  C9  UNL     1      15.298  16.341  27.102  1.00  0.00     0.250 C 
HETATM    7 CL1  UNL     1      14.446  16.303  25.551  1.00  0.00    -0.106 Cl
BRANCH   6   8
HETATM    8  C8  UNL     1      15.061  15.072  27.852  1.00  0.00     0.248 C 
HETATM    9  N1  UNL     1      15.698  13.880  27.473  1.00  0.00    -0.323 N 
ATOM     10  H1  UNL     1      16.316  13.951  26.666  1.00  0.00     0.169 HD
HETATM   11  O2  UNL     1      14.281  15.118  28.818  1.00  0.00    -0.271 OA
BRANCH   9  12
HETATM   12  C7  UNL     1      15.603  12.600  28.051  1.00  0.00     0.068 A 
HETATM   13  C2  UNL     1      16.774  12.045  28.604  1.00  0.00     0.095 A 
HETATM   14  C3  UNL     1      16.776  10.803  29.196  1.00  0.00     0.039 A 
HETATM   15  C4  UNL     1      15.640  10.039  29.280  1.00  0.00     0.003 A 
HETATM   16  C5  UNL     1      14.486  10.560  28.746  1.00  0.00     0.002 A 
HETATM   17  C6  UNL     1      14.474  11.830  28.138  1.00  0.00     0.032 A 
BRANCH  13  18
HETATM   18  O1  UNL     1      17.942  12.798  28.533  1.00  0.00    -0.354 OA
HETATM   19  C1  UNL     1      19.112  12.268  29.094  1.00  0.00     0.210 C 
ENDBRANCH  13  18
ENDBRANCH   9  12
ENDBRANCH   6   8
ENDBRANCH   4   6
ENDBRANCH   1   4
BRANCH   1  20
HETATM   20  C16 UNL     1      17.861  16.659  24.500  1.00  0.00     0.116 C 
HETATM   21 CL2  UNL     1      17.403  14.878  24.314  1.00  0.00    -0.077 Cl
HETATM   22  C17 UNL     1      18.681  17.072  23.590  1.00  0.00     0.210 C 
HETATM   23  F1  UNL     1      19.038  16.055  22.661  1.00  0.00    -0.191 F 
HETATM   24 CL3  UNL     1      19.391  18.617  23.335  1.00  0.00    -0.050 Cl
ENDBRANCH   1  20
BRANCH   2  25
HETATM   25  N3  UNL     1      17.053  19.612  25.002  1.00  0.00    -0.296 N 
ATOM     26  H3  UNL     1      16.348  19.816  24.292  1.00  0.00     0.187 HD
BRANCH  25  27
HETATM   27  C12 UNL     1      18.128  20.563  25.195  1.00  0.00     0.107 A 
HETATM   28  C13 UNL     1      19.209  20.516  26.030  1.00  0.00     0.060 A 
HETATM   29  C14 UNL     1      19.928  21.672  25.817  1.00  0.00     0.147 A 
HETATM   30  O4  UNL     1      19.295  22.361  24.901  1.00  0.00    -0.299 OA
HETATM   31  C15 UNL     1      18.221  21.755  24.493  1.00  0.00     0.243 A 
BRANCH  31  32
HETATM   32  N4  UNL     1      17.297  22.208  23.513  1.00  0.00    -0.088 N 
HETATM   33  O5  UNL     1      16.082  21.975  23.566  1.00  0.00    -0.530 OA
HETATM   34  O6  UNL     1      17.742  22.942  22.440  1.00  0.00    -0.530 OA
ENDBRANCH  31  32
ENDBRANCH  25  27
ENDBRANCH   2  25
TORSDOF 9
ENDMDL
MODEL 2
REMARK VINA RESULT: -8.683269155      2.536      8.800
REMARK  9 active torsions:
REMARK  status: ('A' for Active; 'I' for Inactive)
REMARK    1  A    between atoms: O1_2  and  C2_3 
REMARK    2  A    between atoms: C7_8  and  N1_9 
REMARK       I    between atoms: N1_9  and  C8_11 
REMARK    3  A    between atoms: C8_11  and  C9_13 
REMARK    4  A    between atoms: C9_13  and  C10_15 
REMARK    5  A    between atoms: C10_15  and  C11_17 
REMARK    6  A    between atoms: C11_17  and  C16_30 
REMARK    7  A    between atoms: N2_18  and  N3_20 
REMARK    8  A    between atoms: N3_20  and  C12_22 
REMARK    9  A    between atoms: C15_26  and  N4_27 
ROOT
HETATM    1  C11 UNL     1      16.675  15.669  26.985  1.00  0.00     0.121 C 
HETATM    2  N2  UNL     1      15.579  15.209  27.460  1.00  0.00    -0.295 N 
ATOM      3  H2  UNL     1      14.791  15.634  26.970  1.00  0.00     0.187 HD
ENDROOT
BRANCH   1   4
HETATM    4  C10 UNL     1      16.469  16.648  25.904  1.00  0.00     0.206 C 
HETATM    5  O3  UNL     1      15.372  16.961  25.478  1.00  0.00    -0.288 OA
BRANCH   4   6
HETATM    6  C9  UNL     1      17.681  17.308  25.278  1.00  0.00     0.250 C 
HETATM    7 CL1  UNL     1      17.847  16.707  23.622  1.00  0.00    -0.106 Cl
BRANCH   6   8
HETATM    8  C8  UNL     1      17.490  18.789  25.273  1.00  0.00     0.248 C 
HETATM    9  N1  UNL     1      17.666  19.535  24.096  1.00  0.00    -0.323 N 
ATOM     10  H1  UNL     1      17.929  18.996  23.271  1.00  0.00     0.169 HD
HETATM   11  O2  UNL     1      17.172  19.326  26.347  1.00  0.00    -0.271 OA
BRANCH   9  12
HETATM   12  C7  UNL     1      17.531  20.922  23.895  1.00  0.00     0.068 A 
HETATM   13  C2  UNL     1      18.649  21.732  24.170  1.00  0.00     0.095 A 
HETATM   14  C3  UNL     1      18.613  23.098  23.996  1.00  0.00     0.039 A 
HETATM   15  C4  UNL     1      17.488  23.741  23.547  1.00  0.00     0.003 A 
HETATM   16  C5  UNL     1      16.385  22.968  23.273  1.00  0.00     0.002 A 
HETATM   17  C6  UNL     1      16.413  21.572  23.447  1.00  0.00     0.032 A 
BRANCH  13  18
HETATM   18  O1  UNL     1      19.805  21.108  24.628  1.00  0.00    -0.354 OA
HETATM   19  C1  UNL     1      20.144  21.239  25.982  1.00  0.00     0.210 C 
ENDBRANCH  13  18
ENDBRANCH   9  12
ENDBRANCH   6   8
ENDBRANCH   4   6
ENDBRANCH   1   4
BRANCH   1  20
HETATM   20  C16 UNL     1      17.955  15.255  27.470  1.00  0.00     0.116 C 
HETATM   21 CL2  UNL     1      19.054  16.711  27.768  1.00  0.00    -0.077 Cl
HETATM   22  C17 UNL     1      18.521  14.125  27.746  1.00  0.00     0.210 C 
HETATM   23  F1  UNL     1      19.857  14.273  28.214  1.00  0.00    -0.191 F 
HETATM   24 CL3  UNL     1      17.927  12.515  27.638  1.00  0.00    -0.050 Cl
ENDBRANCH   1  20
BRANCH   2  25
HETATM   25  N3  UNL     1      15.126  14.363  28.378  1.00  0.00    -0.296 N 
ATOM     26  H3  UNL     1      15.423  14.494  29.345  1.00  0.00     0.187 HD
BRANCH  25  27
HETATM   27  C12 UNL     1      14.231  13.264  28.078  1.00  0.00     0.107 A 
HETATM   28  C13 UNL     1      14.506  11.979  27.703  1.00  0.00     0.060 A 
HETATM   29  C14 UNL     1      13.295  11.341  27.548  1.00  0.00     0.147 A 
HETATM   30  O4  UNL     1      12.358  12.214  27.819  1.00  0.00    -0.299 OA
HETATM   31  C15 UNL     1      12.850  13.372  28.140  1.00  0.00     0.243 A 
BRANCH  31  32
HETATM   32  N4  UNL     1      12.130  14.546  28.493  1.00  0.00    -0.088 N 
HETATM   33  O5  UNL     1      12.633  15.677  28.486  1.00  0.00    -0.530 OA
HETATM   34  O6  UNL     1      10.811  14.454  28.866  1.00  0.00    -0.530 OA
ENDBRANCH  31  32
ENDBRANCH  25  27
ENDBRANCH   2  25
TORSDOF 9
ENDMDL
MODEL 3
REMARK VINA RESULT: -8.666087424      2.801      9.217
REMARK  9 active torsions:
REMARK  status: ('A' for Active; 'I' for Inactive)
REMARK    1  A    between atoms: O1_2  and  C2_3 
REMARK    2  A    between atoms: C7_8  and  N1_9 
REMARK       I    between atoms: N1_9  and  C8_11 
REMARK    3  A    between atoms: C8_11  and  C9_13 
REMARK    4  A    between atoms: C9_13  and  C10_15 
REMARK    5  A    between atoms: C10_15  and  C11_17 
REMARK    6  A    between atoms: C11_17  and  C16_30 
REMARK    7  A    between atoms: N2_18  and  N3_20 
REMARK    8  A    between atoms: N3_20  and  C12_22 
REMARK    9  A    between atoms: C15_26  and  N4_27 
ROOT
HETATM    1  C11 UNL     1      15.252  14.642  27.570  1.00  0.00     0.121 C 
HETATM    2  N2  UNL     1      16.062  13.663  27.733  1.00  0.00    -0.295 N 
ATOM      3  H2  UNL     1      16.986  13.925  27.388  1.00  0.00     0.187 HD
ENDROOT
BRANCH   1   4
HETATM    4  C10 UNL     1      15.886  15.817  26.949  1.00  0.00     0.206 C 
HETATM    5  O3  UNL     1      15.340  16.900  26.839  1.00  0.00    -0.288 OA
BRANCH   4   6
HETATM    6  C9  UNL     1      17.297  15.683  26.410  1.00  0.00     0.250 C 
HETATM    7 CL1  UNL     1      17.203  15.053  24.759  1.00  0.00    -0.106 Cl
BRANCH   6   8
HETATM    8  C8  UNL     1      17.956  17.023  26.415  1.00  0.00     0.248 C 
HETATM    9  N1  UNL     1      17.682  17.965  25.410  1.00  0.00    -0.323 N 
ATOM     10  H1  UNL     1      17.016  17.666  24.699  1.00  0.00     0.169 HD
HETATM   11  O2  UNL     1      18.751  17.264  27.338  1.00  0.00    -0.271 OA
BRANCH   9  12
HETATM   12  C7  UNL     1      18.197  19.265  25.248  1.00  0.00     0.068 A 
HETATM   13  C2  UNL     1      17.563  20.105  24.312  1.00  0.00     0.095 A 
HETATM   14  C3  UNL     1      17.992  21.395  24.091  1.00  0.00     0.039 A 
HETATM   15  C4  UNL     1      19.058  21.929  24.768  1.00  0.00     0.003 A 
HETATM   16  C5  UNL     1      19.692  21.126  25.685  1.00  0.00     0.002 A 
HETATM   17  C6  UNL     1      19.260  19.807  25.918  1.00  0.00     0.032 A 
BRANCH  13  18
HETATM   18  O1  UNL     1      16.478  19.590  23.610  1.00  0.00    -0.354 OA
HETATM   19  C1  UNL     1      15.470  20.471  23.197  1.00  0.00     0.210 C 
ENDBRANCH  13  18
ENDBRANCH   9  12
ENDBRANCH   6   8
ENDBRANCH   4   6
ENDBRANCH   1   4
BRANCH   1  20
HETATM   20  C16 UNL     1      13.880  14.575  27.965  1.00  0.00     0.116 C 
HETATM   21 CL2  UNL     1      13.388  16.088  28.907  1.00  0.00    -0.077 Cl
HETATM   22  C17 UNL     1      12.914  13.726  27.825  1.00  0.00     0.210 C 
HETATM   23  F1  UNL     1      11.701  14.160  28.431  1.00  0.00    -0.191 F 
HETATM   24 CL3  UNL     1      12.868  12.196  27.043  1.00  0.00    -0.050 Cl
ENDBRANCH   1  20
BRANCH   2  25
HETATM   25  N3  UNL     1      16.100  12.421  28.202  1.00  0.00    -0.296 N 
ATOM     26  H3  UNL     1      15.266  11.842  28.104  1.00  0.00     0.187 HD
BRANCH  25  27
HETATM   27  C12 UNL     1      17.264  11.846  28.845  1.00  0.00     0.107 A 
HETATM   28  C13 UNL     1      18.579  12.214  28.783  1.00  0.00     0.060 A 
HETATM   29  C14 UNL     1      19.276  11.339  29.586  1.00  0.00     0.147 A 
HETATM   30  O4  UNL     1      18.408  10.499  30.092  1.00  0.00    -0.299 OA
HETATM   31  C15 UNL     1      17.198  10.749  29.689  1.00  0.00     0.243 A 
BRANCH  31  32
HETATM   32  N4  UNL     1      16.013  10.045  30.036  1.00  0.00    -0.088 N 
HETATM   33  O5  UNL     1      15.830   8.851  29.765  1.00  0.00    -0.530 OA
HETATM   34  O6  UNL     1      15.002  10.693  30.704  1.00  0.00    -0.530 OA
ENDBRANCH  31  32
ENDBRANCH  25  27
ENDBRANCH   2  25
TORSDOF 9
ENDMDL
MODEL 4
REMARK VINA RESULT: -8.638260175      2.862      8.754
REMARK  9 active torsions:
REMARK  status: ('A' for Active; 'I' for Inactive)
REMARK    1  A    between atoms: O1_2  and  C2_3 
REMARK    2  A    between atoms: C7_8  and  N1_9 
REMARK       I    between atoms: N1_9  and  C8_11 
REMARK    3  A    between atoms: C8_11  and  C9_13 
REMARK    4  A    between atoms: C9_13  and  C10_15 
REMARK    5  A    between atoms: C10_15  and  C11_17 
REMARK    6  A    between atoms: C11_17  and  C16_30 
REMARK    7  A    between atoms: N2_18  and  N3_20 
REMARK    8  A    between atoms: N3_20  and  C12_22 
REMARK    9  A    between atoms: C15_26  and  N4_27 
ROOT
HETATM    1  C11 UNL     1      16.867  14.392  27.913  1.00  0.00     0.121 C 
HETATM    2  N2  UNL     1      15.725  14.633  28.439  1.00  0.00    -0.295 N 
ATOM      3  H2  UNL     1      15.448  15.592  28.227  1.00  0.00     0.187 HD
ENDROOT
BRANCH   1   4
HETATM    4  C10 UNL     1      17.419  15.545  27.182  1.00  0.00     0.206 C 
HETATM    5  O3  UNL     1      18.322  16.244  27.606  1.00  0.00    -0.288 OA
BRANCH   4   6
HETATM    6  C9  UNL     1      16.839  15.893  25.825  1.00  0.00     0.250 C 
HETATM    7 CL1  UNL     1      15.124  16.277  26.037  1.00  0.00    -0.106 Cl
BRANCH   6   8
HETATM    8  C8  UNL     1      17.566  17.069  25.263  1.00  0.00     0.248 C 
HETATM    9  N1  UNL     1      17.527  18.316  25.906  1.00  0.00    -0.323 N 
ATOM     10  H1  UNL     1      16.975  18.350  26.763  1.00  0.00     0.169 HD
HETATM   11  O2  UNL     1      18.202  16.896  24.210  1.00  0.00    -0.271 OA
BRANCH   9  12
HETATM   12  C7  UNL     1      18.142  19.527  25.536  1.00  0.00     0.068 A 
HETATM   13  C2  UNL     1      17.430  20.383  24.673  1.00  0.00     0.095 A 
HETATM   14  C3  UNL     1      17.949  21.590  24.262  1.00  0.00     0.039 A 
HETATM   15  C4  UNL     1      19.184  22.024  24.671  1.00  0.00     0.003 A 
HETATM   16  C5  UNL     1      19.896  21.204  25.513  1.00  0.00     0.002 A 
HETATM   17  C6  UNL     1      19.374  19.968  25.938  1.00  0.00     0.032 A 
BRANCH  13  18
HETATM   18  O1  UNL     1      16.174  19.968  24.241  1.00  0.00    -0.354 OA
HETATM   19  C1  UNL     1      16.058  19.408  22.962  1.00  0.00     0.210 C 
ENDBRANCH  13  18
ENDBRANCH   9  12
ENDBRANCH   6   8
ENDBRANCH   4   6
ENDBRANCH   1   4
BRANCH   1  20
HETATM   20  C16 UNL     1      17.515  13.123  28.035  1.00  0.00     0.116 C 
HETATM   21 CL2  UNL     1      16.327  11.741  27.727  1.00  0.00    -0.077 Cl
HETATM   22  C17 UNL     1      18.713  12.716  28.302  1.00  0.00     0.210 C 
HETATM   23  F1  UNL     1      18.830  11.297  28.297  1.00  0.00    -0.191 F 
HETATM   24 CL3  UNL     1      20.146  13.595  28.655  1.00  0.00    -0.050 Cl
ENDBRANCH   1  20
BRANCH   2  25
HETATM   25  N3  UNL     1      14.780  14.050  29.169  1.00  0.00    -0.296 N 
ATOM     26  H3  UNL     1      15.068  13.420  29.918  1.00  0.00     0.187 HD
BRANCH  25  27
HETATM   27  C12 UNL     1      13.363  14.263  28.957  1.00  0.00     0.107 A 
HETATM   28  C13 UNL     1      12.701  15.336  28.430  1.00  0.00     0.060 A 
HETATM   29  C14 UNL     1      11.359  15.025  28.449  1.00  0.00     0.147 A 
HETATM   30  O4  UNL     1      11.244  13.827  28.964  1.00  0.00    -0.299 OA
HETATM   31  C15 UNL     1      12.398  13.323  29.285  1.00  0.00     0.243 A 
BRANCH  31  32
HETATM   32  N4  UNL     1      12.651  12.050  29.864  1.00  0.00    -0.088 N 
HETATM   33  O5  UNL     1      13.787  11.572  29.981  1.00  0.00    -0.530 OA
HETATM   34  O6  UNL     1      11.605  11.287  30.324  1.00  0.00    -0.530 OA
ENDBRANCH  31  32
ENDBRANCH  25  27
ENDBRANCH   2  25
TORSDOF 9
ENDMDL
MODEL 5
REMARK VINA RESULT: -8.629258750      0.814      1.698
REMARK  9 active torsions:
REMARK  status: ('A' for Active; 'I' for Inactive)
REMARK    1  A    between atoms: O1_2  and  C2_3 
REMARK    2  A    between atoms: C7_8  and  N1_9 
REMARK       I    between atoms: N1_9  and  C8_11 
REMARK    3  A    between atoms: C8_11  and  C9_13 
REMARK    4  A    between atoms: C9_13  and  C10_15 
REMARK    5  A    between atoms: C10_15  and  C11_17 
REMARK    6  A    between atoms: C11_17  and  C16_30 
REMARK    7  A    between atoms: N2_18  and  N3_20 
REMARK    8  A    between atoms: N3_20  and  C12_22 
REMARK    9  A    between atoms: C15_26  and  N4_27 
ROOT
HETATM    1  C11 UNL     1      17.283  17.151  25.673  1.00  0.00     0.121 C 
HETATM    2  N2  UNL     1      16.945  18.383  25.767  1.00  0.00    -0.295 N 
ATOM      3  H2  UNL     1      16.531  18.553  26.684  1.00  0.00     0.187 HD
ENDROOT
BRANCH   1   4
HETATM    4  C10 UNL     1      16.976  16.376  26.887  1.00  0.00     0.206 C 
HETATM    5  O3  UNL     1      17.827  15.904  27.620  1.00  0.00    -0.288 OA
BRANCH   4   6
HETATM    6  C9  UNL     1      15.524  16.144  27.256  1.00  0.00     0.250 C 
HETATM    7 CL1  UNL     1      14.587  16.005  25.761  1.00  0.00    -0.106 Cl
BRANCH   6   8
HETATM    8  C8  UNL     1      15.412  14.888  28.054  1.00  0.00     0.248 C 
HETATM    9  N1  UNL     1      16.087  13.720  27.662  1.00  0.00    -0.323 N 
ATOM     10  H1  UNL     1      16.642  13.801  26.810  1.00  0.00     0.169 HD
HETATM   11  O2  UNL     1      14.701  14.920  29.072  1.00  0.00    -0.271 OA
BRANCH   9  12
HETATM   12  C7  UNL     1      16.105  12.455  28.277  1.00  0.00     0.068 A 
HETATM   13  C2  UNL     1      14.978  11.628  28.103  1.00  0.00     0.095 A 
HETATM   14  C3  UNL     1      14.910  10.371  28.661  1.00  0.00     0.039 A 
HETATM   15  C4  UNL     1      15.933   9.858  29.417  1.00  0.00     0.003 A 
HETATM   16  C5  UNL     1      17.042  10.648  29.600  1.00  0.00     0.002 A 
HETATM   17  C6  UNL     1      17.121  11.934  29.033  1.00  0.00     0.032 A 
BRANCH  13  18
HETATM   18  O1  UNL     1      13.924  12.123  27.341  1.00  0.00    -0.354 OA
HETATM   19  C1  UNL     1      12.614  11.880  27.776  1.00  0.00     0.210 C 
ENDBRANCH  13  18
ENDBRANCH   9  12
ENDBRANCH   6   8
ENDBRANCH   4   6
ENDBRANCH   1   4
BRANCH   1  20
HETATM   20  C16 UNL     1      17.897  16.611  24.500  1.00  0.00     0.116 C 
HETATM   21 CL2  UNL     1      17.445  14.833  24.275  1.00  0.00    -0.077 Cl
HETATM   22  C17 UNL     1      18.679  17.060  23.573  1.00  0.00     0.210 C 
HETATM   23  F1  UNL     1      19.007  16.075  22.598  1.00  0.00    -0.191 F 
HETATM   24 CL3  UNL     1      19.368  18.617  23.340  1.00  0.00    -0.050 Cl
ENDBRANCH   1  20
BRANCH   2  25
HETATM   25  N3  UNL     1      16.955  19.512  25.069  1.00  0.00    -0.296 N 
ATOM     26  H3  UNL     1      16.198  19.677  24.405  1.00  0.00     0.187 HD
BRANCH  25  27
HETATM   27  C12 UNL     1      17.985  20.523  25.200  1.00  0.00     0.107 A 
HETATM   28  C13 UNL     1      19.150  20.509  25.915  1.00  0.00     0.060 A 
HETATM   29  C14 UNL     1      19.769  21.719  25.692  1.00  0.00     0.147 A 
HETATM   30  O4  UNL     1      19.000  22.407  24.885  1.00  0.00    -0.299 OA
HETATM   31  C15 UNL     1      17.927  21.751  24.559  1.00  0.00     0.243 A 
BRANCH  31  32
HETATM   32  N4  UNL     1      16.878  22.187  23.705  1.00  0.00    -0.088 N 
HETATM   33  O5  UNL     1      16.015  21.426  23.247  1.00  0.00    -0.530 OA
HETATM   34  O6  UNL     1      16.789  23.511  23.350  1.00  0.00    -0.530 OA
ENDBRANCH  31  32
ENDBRANCH  25  27
ENDBRANCH   2  25
TORSDOF 9
ENDMDL
