MODEL 1
REMARK VINA RESULT: -8.472310862      0.000      0.000
REMARK  13 active torsions:
REMARK  status: ('A' for Active; 'I' for Inactive)
REMARK    1  A    between atoms: C2_2  and  O1_3 
REMARK    2  A    between atoms: O1_3  and  C3_4 
REMARK    3  A    between atoms: C3_4  and  C4_6 
REMARK    4  A    between atoms: C4_6  and  C5_7 
REMARK    5  A    between atoms: C5_7  and  C7_9 
REMARK    6  A    between atoms: C5_7  and  O3_13 
REMARK    7  A    between atoms: C7_9  and  C8_10 
REMARK    8  A    between atoms: C8_10  and  C9_11 
REMARK    9  A    between atoms: O3_13  and  C10_14 
REMARK       I    between atoms: C10_14  and  N1_16 
REMARK   10  A    between atoms: N2_18  and  C11_20 
REMARK   11  A    between atoms: C12_21  and  O5_22 
REMARK   12  A    between atoms: C13_24  and  C14_25 
REMARK   13  A    between atoms: N3_30  and  O8_31 
ROOT
HETATM    1  C10 UNL     1      15.814  17.766  25.530  1.00  0.00     0.380 C 
HETATM    2  O4  UNL     1      14.886  18.135  24.800  1.00  0.00    -0.237 OA
HETATM    3  N1  UNL     1      15.902  16.398  25.980  1.00  0.00    -0.245 N 
ATOM      4  H1  UNL     1      16.264  15.673  25.360  1.00  0.00     0.192 HD
HETATM    5  N2  UNL     1      15.519  16.104  27.170  1.00  0.00    -0.291 N 
ATOM      6  H2  UNL     1      15.156  16.827  27.793  1.00  0.00     0.187 HD
ENDROOT
BRANCH   1   7
HETATM    7  O3  UNL     1      16.779  18.617  25.938  1.00  0.00    -0.291 OA
BRANCH   7   8
HETATM    8  C5  UNL     1      17.611  19.441  25.101  1.00  0.00     0.077 C 
HETATM    9  C6  UNL     1      16.623  20.009  24.098  1.00  0.00     0.047 C 
BRANCH   8  10
HETATM   10  C4  UNL     1      18.152  20.597  25.918  1.00  0.00     0.149 C 
BRANCH  10  11
HETATM   11  C3  UNL     1      19.374  21.166  25.343  1.00  0.00     0.261 C 
HETATM   12  O2  UNL     1      20.494  20.785  25.756  1.00  0.00    -0.265 OA
BRANCH  11  13
HETATM   13  O1  UNL     1      19.372  22.128  24.340  1.00  0.00    -0.322 OA
BRANCH  13  14
HETATM   14  C2  UNL     1      18.307  23.039  24.182  1.00  0.00     0.174 C 
HETATM   15  C1  UNL     1      18.324  23.716  22.841  1.00  0.00     0.034 C 
ENDBRANCH  13  14
ENDBRANCH  11  13
ENDBRANCH  10  11
ENDBRANCH   8  10
BRANCH   8  16
HETATM   16  C7  UNL     1      18.711  18.645  24.529  1.00  0.00     0.040 C 
BRANCH  16  17
HETATM   17  C8  UNL     1      18.473  17.818  23.329  1.00  0.00     0.018 C 
BRANCH  17  18
HETATM   18  C9  UNL     1      19.113  16.468  23.270  1.00  0.00     0.115 C 
HETATM   19 CL1  UNL     1      18.042  15.235  24.026  1.00  0.00    -0.130 Cl
ENDBRANCH  17  18
ENDBRANCH  16  17
ENDBRANCH   8  16
ENDBRANCH   7   8
ENDBRANCH   1   7
BRANCH   5  20
HETATM   20  C11 UNL     1      15.611  14.737  27.606  1.00  0.00     0.123 A 
HETATM   21  C12 UNL     1      14.377  14.085  27.829  1.00  0.00     0.117 A 
HETATM   22  C13 UNL     1      14.478  12.761  28.252  1.00  0.00     0.117 A 
HETATM   23  C15 UNL     1      15.729  12.146  28.435  1.00  0.00     0.153 A 
HETATM   24 CL2  UNL     1      15.773  10.474  28.970  1.00  0.00    -0.061 Cl
HETATM   25  N3  UNL     1      16.844  12.838  28.200  1.00  0.00    -0.198 N 
HETATM   26  C16 UNL     1      16.804  14.110  27.794  1.00  0.00     0.164 A 
HETATM   27 CL3  UNL     1      18.288  15.008  27.489  1.00  0.00    -0.059 Cl
BRANCH  21  28
HETATM   28  O5  UNL     1      13.218  14.769  27.623  1.00  0.00    -0.357 OA
ATOM     29  H5  UNL     1      12.764  14.674  26.794  1.00  0.00     0.217 HD
ENDBRANCH  21  28
BRANCH  22  30
HETATM   30  C14 UNL     1      13.324  11.956  28.522  1.00  0.00     0.215 C 
HETATM   31  O6  UNL     1      12.753  11.295  27.592  1.00  0.00    -0.644 OA
HETATM   32  O7  UNL     1      12.744  11.823  29.754  1.00  0.00    -0.644 OA
ENDBRANCH  22  30
BRANCH  25  33
HETATM   33  O8  UNL     1      18.056  12.205  28.390  1.00  0.00    -0.280 OA
ATOM     34  H8  UNL     1      18.815  12.739  28.595  1.00  0.00     0.245 HD
ENDBRANCH  25  33
ENDBRANCH   5  20
TORSDOF 13
ENDMDL
MODEL 2
REMARK VINA RESULT: -8.432173287      2.077      3.554
REMARK  13 active torsions:
REMARK  status: ('A' for Active; 'I' for Inactive)
REMARK    1  A    between atoms: C2_2  and  O1_3 
REMARK    2  A    between atoms: O1_3  and  C3_4 
REMARK    3  A    between atoms: C3_4  and  C4_6 
REMARK    4  A    between atoms: C4_6  and  C5_7 
REMARK    5  A    between atoms: C5_7  and  C7_9 
REMARK    6  A    between atoms: C5_7  and  O3_13 
REMARK    7  A    between atoms: C7_9  and  C8_10 
REMARK    8  A    between atoms: C8_10  and  C9_11 
REMARK    9  A    between atoms: O3_13  and  C10_14 
REMARK       I    between atoms: C10_14  and  N1_16 
REMARK   10  A    between atoms: N2_18  and  C11_20 
REMARK   11  A    between atoms: C12_21  and  O5_22 
REMARK   12  A    between atoms: C13_24  and  C14_25 
REMARK   13  A    between atoms: N3_30  and  O8_31 
ROOT
HETATM    1  C10 UNL     1      16.361  18.479  25.234  1.00  0.00     0.380 C 
HETATM    2  O4  UNL     1      15.516  18.909  24.440  1.00  0.00    -0.237 OA
HETATM    3  N1  UNL     1      16.321  17.110  25.688  1.00  0.00    -0.245 N 
ATOM      4  H1  UNL     1      16.675  16.359  25.095  1.00  0.00     0.192 HD
HETATM    5  N2  UNL     1      15.834  16.849  26.847  1.00  0.00    -0.291 N 
ATOM      6  H2  UNL     1      15.479  17.598  27.444  1.00  0.00     0.187 HD
ENDROOT
BRANCH   1   7
HETATM    7  O3  UNL     1      17.351  19.262  25.711  1.00  0.00    -0.291 OA
BRANCH   7   8
HETATM    8  C5  UNL     1      18.116  20.231  24.970  1.00  0.00     0.077 C 
HETATM    9  C6  UNL     1      19.513  20.066  25.542  1.00  0.00     0.047 C 
BRANCH   8  10
HETATM   10  C4  UNL     1      18.166  19.821  23.513  1.00  0.00     0.149 C 
BRANCH  10  11
HETATM   11  C3  UNL     1      18.884  18.559  23.309  1.00  0.00     0.261 C 
HETATM   12  O2  UNL     1      20.130  18.565  23.180  1.00  0.00    -0.265 OA
BRANCH  11  13
HETATM   13  O1  UNL     1      18.254  17.322  23.249  1.00  0.00    -0.322 OA
BRANCH  13  14
HETATM   14  C2  UNL     1      18.929  16.124  23.564  1.00  0.00     0.174 C 
HETATM   15  C1  UNL     1      17.995  15.047  24.039  1.00  0.00     0.034 C 
ENDBRANCH  13  14
ENDBRANCH  11  13
ENDBRANCH  10  11
ENDBRANCH   8  10
BRANCH   8  16
HETATM   16  C7  UNL     1      17.524  21.573  25.116  1.00  0.00     0.040 C 
BRANCH  16  17
HETATM   17  C8  UNL     1      17.166  22.353  23.915  1.00  0.00     0.018 C 
BRANCH  17  18
HETATM   18  C9  UNL     1      17.981  23.566  23.599  1.00  0.00     0.115 C 
HETATM   19 CL1  UNL     1      18.101  23.794  21.818  1.00  0.00    -0.130 Cl
ENDBRANCH  17  18
ENDBRANCH  16  17
ENDBRANCH   8  16
ENDBRANCH   7   8
ENDBRANCH   1   7
BRANCH   5  20
HETATM   20  C11 UNL     1      15.799  15.481  27.288  1.00  0.00     0.123 A 
HETATM   21  C12 UNL     1      14.513  14.901  27.372  1.00  0.00     0.117 A 
HETATM   22  C13 UNL     1      14.491  13.575  27.800  1.00  0.00     0.117 A 
HETATM   23  C15 UNL     1      15.677  12.891  28.119  1.00  0.00     0.153 A 
HETATM   24 CL2  UNL     1      15.565  11.221  28.652  1.00  0.00    -0.061 Cl
HETATM   25  N3  UNL     1      16.849  13.516  28.010  1.00  0.00    -0.198 N 
HETATM   26  C16 UNL     1      16.926  14.787  27.605  1.00  0.00     0.164 A 
HETATM   27 CL3  UNL     1      18.484  15.597  27.467  1.00  0.00    -0.059 Cl
BRANCH  21  28
HETATM   28  O5  UNL     1      13.424  15.650  27.042  1.00  0.00    -0.357 OA
ATOM     29  H5  UNL     1      12.650  15.217  26.702  1.00  0.00     0.217 HD
ENDBRANCH  21  28
BRANCH  22  30
HETATM   30  C14 UNL     1      13.270  12.839  27.941  1.00  0.00     0.215 C 
HETATM   31  O6  UNL     1      12.561  12.941  28.998  1.00  0.00    -0.644 OA
HETATM   32  O7  UNL     1      12.763  11.990  26.995  1.00  0.00    -0.644 OA
ENDBRANCH  22  30
BRANCH  25  33
HETATM   33  O8  UNL     1      17.994  12.815  28.330  1.00  0.00    -0.280 OA
ATOM     34  H8  UNL     1      18.226  12.066  27.795  1.00  0.00     0.245 HD
ENDBRANCH  25  33
ENDBRANCH   5  20
TORSDOF 13
ENDMDL
MODEL 3
REMARK VINA RESULT: -8.364004640      1.474      1.760
REMARK  13 active torsions:
REMARK  status: ('A' for Active; 'I' for Inactive)
REMARK    1  A    between atoms: C2_2  and  O1_3 
REMARK    2  A    between atoms: O1_3  and  C3_4 
REMARK    3  A    between atoms: C3_4  and  C4_6 
REMARK    4  A    between atoms: C4_6  and  C5_7 
REMARK    5  A    between atoms: C5_7  and  C7_9 
REMARK    6  A    between atoms: C5_7  and  O3_13 
REMARK    7  A    between atoms: C7_9  and  C8_10 
REMARK    8  A    between atoms: C8_10  and  C9_11 
REMARK    9  A    between atoms: O3_13  and  C10_14 
REMARK       I    between atoms: C10_14  and  N1_16 
REMARK   10  A    between atoms: N2_18  and  C11_20 
REMARK   11  A    between atoms: C12_21  and  O5_22 
REMARK   12  A    between atoms: C13_24  and  C14_25 
REMARK   13  A    between atoms: N3_30  and  O8_31 
ROOT
HETATM    1  C10 UNL     1      18.233  17.279  27.007  1.00  0.00     0.380 C 
HETATM    2  O4  UNL     1      19.309  17.826  27.275  1.00  0.00    -0.237 OA
HETATM    3  N1  UNL     1      17.825  16.075  27.689  1.00  0.00    -0.245 N 
ATOM      4  H1  UNL     1      17.427  16.122  28.627  1.00  0.00     0.192 HD
HETATM    5  N2  UNL     1      17.970  14.943  27.100  1.00  0.00    -0.291 N 
ATOM      6  H2  UNL     1      18.368  14.891  26.162  1.00  0.00     0.187 HD
ENDROOT
BRANCH   1   7
HETATM    7  O3  UNL     1      17.396  17.776  26.072  1.00  0.00    -0.291 OA
BRANCH   7   8
HETATM    8  C5  UNL     1      17.653  18.879  25.183  1.00  0.00     0.077 C 
HETATM    9  C6  UNL     1      16.316  19.071  24.490  1.00  0.00     0.047 C 
BRANCH   8  10
HETATM   10  C4  UNL     1      17.931  20.125  25.998  1.00  0.00     0.149 C 
BRANCH  10  11
HETATM   11  C3  UNL     1      19.147  20.820  25.564  1.00  0.00     0.261 C 
HETATM   12  O2  UNL     1      20.228  20.618  26.164  1.00  0.00    -0.265 OA
BRANCH  11  13
HETATM   13  O1  UNL     1      19.178  21.713  24.500  1.00  0.00    -0.322 OA
BRANCH  13  14
HETATM   14  C2  UNL     1      18.108  22.593  24.231  1.00  0.00     0.174 C 
HETATM   15  C1  UNL     1      18.434  23.578  23.145  1.00  0.00     0.034 C 
ENDBRANCH  13  14
ENDBRANCH  11  13
ENDBRANCH  10  11
ENDBRANCH   8  10
BRANCH   8  16
HETATM   16  C7  UNL     1      18.790  18.569  24.297  1.00  0.00     0.040 C 
BRANCH  16  17
HETATM   17  C8  UNL     1      18.621  17.597  23.198  1.00  0.00     0.018 C 
BRANCH  17  18
HETATM   18  C9  UNL     1      18.997  16.173  23.458  1.00  0.00     0.115 C 
HETATM   19 CL1  UNL     1      17.568  15.246  24.039  1.00  0.00    -0.130 Cl
ENDBRANCH  17  18
ENDBRANCH  16  17
ENDBRANCH   8  16
ENDBRANCH   7   8
ENDBRANCH   1   7
BRANCH   5  20
HETATM   20  C11 UNL     1      17.560  13.749  27.791  1.00  0.00     0.123 A 
HETATM   21  C12 UNL     1      16.174  13.474  27.760  1.00  0.00     0.117 A 
HETATM   22  C13 UNL     1      15.788  12.316  28.432  1.00  0.00     0.117 A 
HETATM   23  C15 UNL     1      16.730  11.502  29.084  1.00  0.00     0.153 A 
HETATM   24 CL2  UNL     1      16.165  10.058  29.910  1.00  0.00    -0.061 Cl
HETATM   25  N3  UNL     1      18.020  11.838  29.063  1.00  0.00    -0.198 N 
HETATM   26  C16 UNL     1      18.444  12.938  28.433  1.00  0.00     0.164 A 
HETATM   27 CL3  UNL     1      20.152  13.366  28.415  1.00  0.00    -0.059 Cl
BRANCH  21  28
HETATM   28  O5  UNL     1      15.342  14.327  27.100  1.00  0.00    -0.357 OA
ATOM     29  H5  UNL     1      15.446  15.263  27.224  1.00  0.00     0.217 HD
ENDBRANCH  21  28
BRANCH  22  30
HETATM   30  C14 UNL     1      14.421  11.892  28.498  1.00  0.00     0.215 C 
HETATM   31  O6  UNL     1      13.917  11.159  27.582  1.00  0.00    -0.644 OA
HETATM   32  O7  UNL     1      13.557  12.217  29.507  1.00  0.00    -0.644 OA
ENDBRANCH  22  30
BRANCH  25  33
HETATM   33  O8  UNL     1      18.919  11.017  29.713  1.00  0.00    -0.280 OA
ATOM     34  H8  UNL     1      19.424  11.383  30.430  1.00  0.00     0.245 HD
ENDBRANCH  25  33
ENDBRANCH   5  20
TORSDOF 13
ENDMDL
MODEL 4
REMARK VINA RESULT: -8.232026416      1.351      2.580
REMARK  13 active torsions:
REMARK  status: ('A' for Active; 'I' for Inactive)
REMARK    1  A    between atoms: C2_2  and  O1_3 
REMARK    2  A    between atoms: O1_3  and  C3_4 
REMARK    3  A    between atoms: C3_4  and  C4_6 
REMARK    4  A    between atoms: C4_6  and  C5_7 
REMARK    5  A    between atoms: C5_7  and  C7_9 
REMARK    6  A    between atoms: C5_7  and  O3_13 
REMARK    7  A    between atoms: C7_9  and  C8_10 
REMARK    8  A    between atoms: C8_10  and  C9_11 
REMARK    9  A    between atoms: O3_13  and  C10_14 
REMARK       I    between atoms: C10_14  and  N1_16 
REMARK   10  A    between atoms: N2_18  and  C11_20 
REMARK   11  A    between atoms: C12_21  and  O5_22 
REMARK   12  A    between atoms: C13_24  and  C14_25 
REMARK   13  A    between atoms: N3_30  and  O8_31 
ROOT
HETATM    1  C10 UNL     1      15.859  17.646  25.577  1.00  0.00     0.380 C 
HETATM    2  O4  UNL     1      14.928  17.984  24.836  1.00  0.00    -0.237 OA
HETATM    3  N1  UNL     1      15.971  16.287  26.050  1.00  0.00    -0.245 N 
ATOM      4  H1  UNL     1      16.351  15.559  25.445  1.00  0.00     0.192 HD
HETATM    5  N2  UNL     1      15.587  16.006  27.243  1.00  0.00    -0.291 N 
ATOM      6  H2  UNL     1      15.207  16.732  27.852  1.00  0.00     0.187 HD
ENDROOT
BRANCH   1   7
HETATM    7  O3  UNL     1      16.805  18.522  25.975  1.00  0.00    -0.291 OA
BRANCH   7   8
HETATM    8  C5  UNL     1      17.608  19.367  25.131  1.00  0.00     0.077 C 
HETATM    9  C6  UNL     1      16.591  19.932  24.156  1.00  0.00     0.047 C 
BRANCH   8  10
HETATM   10  C4  UNL     1      18.151  20.520  25.949  1.00  0.00     0.149 C 
BRANCH  10  11
HETATM   11  C3  UNL     1      19.353  21.112  25.354  1.00  0.00     0.261 C 
HETATM   12  O2  UNL     1      20.485  20.796  25.790  1.00  0.00    -0.265 OA
BRANCH  11  13
HETATM   13  O1  UNL     1      19.318  22.028  24.310  1.00  0.00    -0.322 OA
BRANCH  13  14
HETATM   14  C2  UNL     1      18.302  23.000  24.202  1.00  0.00     0.174 C 
HETATM   15  C1  UNL     1      18.319  23.704  22.875  1.00  0.00     0.034 C 
ENDBRANCH  13  14
ENDBRANCH  11  13
ENDBRANCH  10  11
ENDBRANCH   8  10
BRANCH   8  16
HETATM   16  C7  UNL     1      18.706  18.592  24.525  1.00  0.00     0.040 C 
BRANCH  16  17
HETATM   17  C8  UNL     1      18.450  17.770  23.326  1.00  0.00     0.018 C 
BRANCH  17  18
HETATM   18  C9  UNL     1      19.091  16.421  23.252  1.00  0.00     0.115 C 
HETATM   19 CL1  UNL     1      18.066  15.196  24.082  1.00  0.00    -0.130 Cl
ENDBRANCH  17  18
ENDBRANCH  16  17
ENDBRANCH   8  16
ENDBRANCH   7   8
ENDBRANCH   1   7
BRANCH   5  20
HETATM   20  C11 UNL     1      15.704  14.648  27.703  1.00  0.00     0.123 A 
HETATM   21  C12 UNL     1      17.022  14.202  27.953  1.00  0.00     0.117 A 
HETATM   22  C13 UNL     1      17.123  12.885  28.397  1.00  0.00     0.117 A 
HETATM   23  C15 UNL     1      15.981  12.084  28.575  1.00  0.00     0.153 A 
HETATM   24 CL2  UNL     1      16.193  10.434  29.138  1.00  0.00    -0.061 Cl
HETATM   25  N3  UNL     1      14.775  12.588  28.315  1.00  0.00    -0.198 N 
HETATM   26  C16 UNL     1      14.622  13.845  27.886  1.00  0.00     0.164 A 
HETATM   27 CL3  UNL     1      13.019  14.493  27.547  1.00  0.00    -0.059 Cl
BRANCH  21  28
HETATM   28  O5  UNL     1      18.062  15.057  27.749  1.00  0.00    -0.357 OA
ATOM     29  H5  UNL     1      18.666  15.230  28.462  1.00  0.00     0.217 HD
ENDBRANCH  21  28
BRANCH  22  30
HETATM   30  C14 UNL     1      18.385  12.277  28.697  1.00  0.00     0.215 C 
HETATM   31  O6  UNL     1      19.234  12.041  27.773  1.00  0.00    -0.644 OA
HETATM   32  O7  UNL     1      18.788  11.903  29.949  1.00  0.00    -0.644 OA
ENDBRANCH  22  30
BRANCH  25  33
HETATM   33  O8  UNL     1      13.675  11.775  28.500  1.00  0.00    -0.280 OA
ATOM     34  H8  UNL     1      12.841  12.062  28.148  1.00  0.00     0.245 HD
ENDBRANCH  25  33
ENDBRANCH   5  20
TORSDOF 13
ENDMDL
MODEL 5
REMARK VINA RESULT: -8.215054999      1.716      2.589
REMARK  13 active torsions:
REMARK  status: ('A' for Active; 'I' for Inactive)
REMARK    1  A    between atoms: C2_2  and  O1_3 
REMARK    2  A    between atoms: O1_3  and  C3_4 
REMARK    3  A    between atoms: C3_4  and  C4_6 
REMARK    4  A    between atoms: C4_6  and  C5_7 
REMARK    5  A    between atoms: C5_7  and  C7_9 
REMARK    6  A    between atoms: C5_7  and  O3_13 
REMARK    7  A    between atoms: C7_9  and  C8_10 
REMARK    8  A    between atoms: C8_10  and  C9_11 
REMARK    9  A    between atoms: O3_13  and  C10_14 
REMARK       I    between atoms: C10_14  and  N1_16 
REMARK   10  A    between atoms: N2_18  and  C11_20 
REMARK   11  A    between atoms: C12_21  and  O5_22 
REMARK   12  A    between atoms: C13_24  and  C14_25 
REMARK   13  A    between atoms: N3_30  and  O8_31 
ROOT
HETATM    1  C10 UNL     1      17.474  17.133  26.706  1.00  0.00     0.380 C 
HETATM    2  O4  UNL     1      18.696  17.231  26.868  1.00  0.00    -0.237 OA
HETATM    3  N1  UNL     1      16.709  16.146  27.429  1.00  0.00    -0.245 N 
ATOM      4  H1  UNL     1      16.444  16.308  28.401  1.00  0.00     0.192 HD
HETATM    5  N2  UNL     1      16.366  15.062  26.834  1.00  0.00    -0.291 N 
ATOM      6  H2  UNL     1      16.628  14.896  25.862  1.00  0.00     0.187 HD
ENDROOT
BRANCH   1   7
HETATM    7  O3  UNL     1      16.803  17.937  25.855  1.00  0.00    -0.291 OA
BRANCH   7   8
HETATM    8  C5  UNL     1      17.358  18.990  25.045  1.00  0.00     0.077 C 
HETATM    9  C6  UNL     1      16.204  19.351  24.126  1.00  0.00     0.047 C 
BRANCH   8  10
HETATM   10  C4  UNL     1      17.644  20.194  25.917  1.00  0.00     0.149 C 
BRANCH  10  11
HETATM   11  C3  UNL     1      18.962  20.778  25.652  1.00  0.00     0.261 C 
HETATM   12  O2  UNL     1      19.969  20.346  26.260  1.00  0.00    -0.265 OA
BRANCH  11  13
HETATM   13  O1  UNL     1      19.174  21.809  24.745  1.00  0.00    -0.322 OA
BRANCH  13  14
HETATM   14  C2  UNL     1      18.129  22.657  24.321  1.00  0.00     0.174 C 
HETATM   15  C1  UNL     1      18.492  23.447  23.096  1.00  0.00     0.034 C 
ENDBRANCH  13  14
ENDBRANCH  11  13
ENDBRANCH  10  11
ENDBRANCH   8  10
BRANCH   8  16
HETATM   16  C7  UNL     1      18.585  18.527  24.372  1.00  0.00     0.040 C 
BRANCH  16  17
HETATM   17  C8  UNL     1      18.488  17.640  23.196  1.00  0.00     0.018 C 
BRANCH  17  18
HETATM   18  C9  UNL     1      19.101  16.279  23.293  1.00  0.00     0.115 C 
HETATM   19 CL1  UNL     1      17.925  15.112  23.996  1.00  0.00    -0.130 Cl
ENDBRANCH  17  18
ENDBRANCH  16  17
ENDBRANCH   8  16
ENDBRANCH   7   8
ENDBRANCH   1   7
BRANCH   5  20
HETATM   20  C11 UNL     1      15.603  14.085  27.565  1.00  0.00     0.123 A 
HETATM   21  C12 UNL     1      16.345  13.002  28.087  1.00  0.00     0.117 A 
HETATM   22  C13 UNL     1      15.597  12.062  28.794  1.00  0.00     0.117 A 
HETATM   23  C15 UNL     1      14.208  12.207  28.957  1.00  0.00     0.153 A 
HETATM   24 CL2  UNL     1      13.336  10.979  29.861  1.00  0.00    -0.061 Cl
HETATM   25  N3  UNL     1      13.589  13.263  28.430  1.00  0.00    -0.198 N 
HETATM   26  C16 UNL     1      14.259  14.193  27.743  1.00  0.00     0.164 A 
HETATM   27 CL3  UNL     1      13.423  15.582  27.053  1.00  0.00    -0.059 Cl
BRANCH  21  28
HETATM   28  O5  UNL     1      17.689  12.952  27.873  1.00  0.00    -0.357 OA
ATOM     29  H5  UNL     1      18.046  13.335  27.080  1.00  0.00     0.217 HD
ENDBRANCH  21  28
BRANCH  22  30
HETATM   30  C14 UNL     1      16.194  10.903  29.388  1.00  0.00     0.215 C 
HETATM   31  O6  UNL     1      17.173  11.012  30.199  1.00  0.00    -0.644 OA
HETATM   32  O7  UNL     1      15.790   9.617  29.154  1.00  0.00    -0.644 OA
ENDBRANCH  22  30
BRANCH  25  33
HETATM   33  O8  UNL     1      12.225  13.376  28.609  1.00  0.00    -0.280 OA
ATOM     34  H8  UNL     1      11.654  12.932  27.993  1.00  0.00     0.245 HD
ENDBRANCH  25  33
ENDBRANCH   5  20
TORSDOF 13
ENDMDL
