MODEL 1
REMARK VINA RESULT: -9.007959912      0.000      0.000
REMARK  12 active torsions:
REMARK  status: ('A' for Active; 'I' for Inactive)
REMARK    1  A    between atoms: C4_4  and  C5_5 
REMARK    2  A    between atoms: C5_5  and  C6_6 
REMARK    3  A    between atoms: C6_6  and  C7_8 
REMARK    4  A    between atoms: C7_8  and  C8_9 
REMARK    5  A    between atoms: C8_9  and  O3_11 
REMARK    6  A    between atoms: O3_11  and  C9_12 
REMARK    7  A    between atoms: C9_12  and  O4_13 
REMARK    8  A    between atoms: C10_15  and  C11_16 
REMARK    9  A    between atoms: C12_17  and  C13_18 
REMARK   10  A    between atoms: C13_18  and  C14_19 
REMARK   11  A    between atoms: C14_19  and  C15_20 
REMARK   12  A    between atoms: C15_20  and  C16_21 
ROOT
HETATM    1  C9  UNL     1      39.837 -40.887   6.684  1.00  0.00     0.186 C 
HETATM    2  C10 UNL     1      38.908 -41.402   7.436  1.00  0.00     0.064 C 
ENDROOT
BRANCH   1   3
HETATM    3  O3  UNL     1      41.087 -40.609   7.209  1.00  0.00    -0.255 OA
BRANCH   3   4
HETATM    4  C8  UNL     1      41.975 -39.828   6.491  1.00  0.00     0.272 C 
HETATM    5  O2  UNL     1      41.682 -38.629   6.256  1.00  0.00    -0.264 OA
BRANCH   4   6
HETATM    6  C7  UNL     1      43.254 -40.390   6.000  1.00  0.00     0.190 C 
BRANCH   6   7
HETATM    7  C6  UNL     1      43.615 -41.503   6.940  1.00  0.00     0.139 C 
HETATM    8  O1  UNL     1      44.018 -41.257   8.059  1.00  0.00    -0.297 OA
BRANCH   7   9
HETATM    9  C5  UNL     1      43.487 -42.921   6.519  1.00  0.00     0.106 C 
BRANCH   9  10
HETATM   10  C4  UNL     1      43.472 -43.020   5.037  1.00  0.00    -0.017 C 
HETATM   11  C2  UNL     1      44.531 -43.492   4.406  1.00  0.00    -0.091 C 
HETATM   12  C1  UNL     1      45.715 -43.917   5.174  1.00  0.00     0.042 C 
HETATM   13  C3  UNL     1      44.529 -43.597   2.928  1.00  0.00     0.042 C 
ENDBRANCH   9  10
ENDBRANCH   7   9
ENDBRANCH   6   7
ENDBRANCH   4   6
ENDBRANCH   3   4
ENDBRANCH   1   3
BRANCH   1  14
HETATM   14  O4  UNL     1      39.630 -40.593   5.340  1.00  0.00    -0.341 OA
ATOM     15  H4  UNL     1      39.644 -41.319   4.728  1.00  0.00     0.220 HD
ENDBRANCH   1  14
BRANCH   2  16
HETATM   16  C11 UNL     1      37.546 -41.720   6.920  1.00  0.00     0.005 C 
HETATM   17  C12 UNL     1      36.833 -42.636   7.481  1.00  0.00     0.000 C 
BRANCH  17  18
HETATM   18  C13 UNL     1      35.529 -43.204   7.278  1.00  0.00    -0.000 C 
BRANCH  18  19
HETATM   19  C14 UNL     1      35.035 -44.417   7.836  1.00  0.00    -0.004 C 
BRANCH  19  20
HETATM   20  C15 UNL     1      35.509 -45.604   7.915  1.00  0.00    -0.022 C 
BRANCH  20  21
HETATM   21  C16 UNL     1      35.860 -46.262   9.237  1.00  0.00     0.008 C 
HETATM   22  C17 UNL     1      36.471 -45.297  10.209  1.00  0.00     0.008 C 
HETATM   23  C18 UNL     1      37.008 -46.236  11.275  1.00  0.00     0.001 C 
HETATM   24  C19 UNL     1      37.260 -47.566  10.573  1.00  0.00     0.001 C 
HETATM   25  C20 UNL     1      36.937 -47.293   9.097  1.00  0.00     0.008 C 
ENDBRANCH  20  21
ENDBRANCH  19  20
ENDBRANCH  18  19
ENDBRANCH  17  18
ENDBRANCH   2  16
TORSDOF 12
ENDMDL
MODEL 2
REMARK VINA RESULT: -9.005585898      1.353      1.781
REMARK  12 active torsions:
REMARK  status: ('A' for Active; 'I' for Inactive)
REMARK    1  A    between atoms: C4_4  and  C5_5 
REMARK    2  A    between atoms: C5_5  and  C6_6 
REMARK    3  A    between atoms: C6_6  and  C7_8 
REMARK    4  A    between atoms: C7_8  and  C8_9 
REMARK    5  A    between atoms: C8_9  and  O3_11 
REMARK    6  A    between atoms: O3_11  and  C9_12 
REMARK    7  A    between atoms: C9_12  and  O4_13 
REMARK    8  A    between atoms: C10_15  and  C11_16 
REMARK    9  A    between atoms: C12_17  and  C13_18 
REMARK   10  A    between atoms: C13_18  and  C14_19 
REMARK   11  A    between atoms: C14_19  and  C15_20 
REMARK   12  A    between atoms: C15_20  and  C16_21 
ROOT
HETATM    1  C9  UNL     1      39.922 -40.673   6.671  1.00  0.00     0.186 C 
HETATM    2  C10 UNL     1      39.244 -41.421   7.495  1.00  0.00     0.064 C 
ENDROOT
BRANCH   1   3
HETATM    3  O3  UNL     1      40.913 -39.832   7.146  1.00  0.00    -0.255 OA
BRANCH   3   4
HETATM    4  C8  UNL     1      42.026 -39.575   6.365  1.00  0.00     0.272 C 
HETATM    5  O2  UNL     1      41.935 -38.744   5.426  1.00  0.00    -0.264 OA
BRANCH   4   6
HETATM    6  C7  UNL     1      43.311 -40.265   6.623  1.00  0.00     0.190 C 
BRANCH   6   7
HETATM    7  C6  UNL     1      43.226 -41.590   5.924  1.00  0.00     0.139 C 
HETATM    8  O1  UNL     1      43.477 -41.679   4.738  1.00  0.00    -0.297 OA
BRANCH   7   9
HETATM    9  C5  UNL     1      42.833 -42.815   6.666  1.00  0.00     0.106 C 
BRANCH   9  10
HETATM   10  C4  UNL     1      43.775 -43.062   7.788  1.00  0.00    -0.017 C 
HETATM   11  C2  UNL     1      44.714 -43.981   7.658  1.00  0.00    -0.091 C 
HETATM   12  C1  UNL     1      44.820 -44.751   6.406  1.00  0.00     0.042 C 
HETATM   13  C3  UNL     1      45.661 -44.238   8.768  1.00  0.00     0.042 C 
ENDBRANCH   9  10
ENDBRANCH   7   9
ENDBRANCH   6   7
ENDBRANCH   4   6
ENDBRANCH   3   4
ENDBRANCH   1   3
BRANCH   1  14
HETATM   14  O4  UNL     1      39.692 -40.679   5.300  1.00  0.00    -0.341 OA
ATOM     15  H4  UNL     1      39.223 -41.422   4.939  1.00  0.00     0.220 HD
ENDBRANCH   1  14
BRANCH   2  16
HETATM   16  C11 UNL     1      38.167 -42.342   7.036  1.00  0.00     0.005 C 
HETATM   17  C12 UNL     1      36.996 -42.295   7.572  1.00  0.00     0.000 C 
BRANCH  17  18
HETATM   18  C13 UNL     1      35.750 -42.992   7.406  1.00  0.00    -0.000 C 
BRANCH  18  19
HETATM   19  C14 UNL     1      35.515 -44.376   7.643  1.00  0.00    -0.004 C 
BRANCH  19  20
HETATM   20  C15 UNL     1      34.899 -45.017   8.565  1.00  0.00    -0.022 C 
BRANCH  20  21
HETATM   21  C16 UNL     1      35.620 -45.871   9.593  1.00  0.00     0.008 C 
HETATM   22  C17 UNL     1      36.606 -45.080  10.400  1.00  0.00     0.008 C 
HETATM   23  C18 UNL     1      37.390 -46.182  11.089  1.00  0.00     0.001 C 
HETATM   24  C19 UNL     1      37.273 -47.407  10.189  1.00  0.00     0.001 C 
HETATM   25  C20 UNL     1      36.493 -46.912   8.962  1.00  0.00     0.008 C 
ENDBRANCH  20  21
ENDBRANCH  19  20
ENDBRANCH  18  19
ENDBRANCH  17  18
ENDBRANCH   2  16
TORSDOF 12
ENDMDL
MODEL 3
REMARK VINA RESULT: -8.759086634      0.565      1.048
REMARK  12 active torsions:
REMARK  status: ('A' for Active; 'I' for Inactive)
REMARK    1  A    between atoms: C4_4  and  C5_5 
REMARK    2  A    between atoms: C5_5  and  C6_6 
REMARK    3  A    between atoms: C6_6  and  C7_8 
REMARK    4  A    between atoms: C7_8  and  C8_9 
REMARK    5  A    between atoms: C8_9  and  O3_11 
REMARK    6  A    between atoms: O3_11  and  C9_12 
REMARK    7  A    between atoms: C9_12  and  O4_13 
REMARK    8  A    between atoms: C10_15  and  C11_16 
REMARK    9  A    between atoms: C12_17  and  C13_18 
REMARK   10  A    between atoms: C13_18  and  C14_19 
REMARK   11  A    between atoms: C14_19  and  C15_20 
REMARK   12  A    between atoms: C15_20  and  C16_21 
ROOT
HETATM    1  C9  UNL     1      39.851 -40.892   6.691  1.00  0.00     0.186 C 
HETATM    2  C10 UNL     1      38.917 -41.404   7.439  1.00  0.00     0.064 C 
ENDROOT
BRANCH   1   3
HETATM    3  O3  UNL     1      41.091 -40.592   7.228  1.00  0.00    -0.255 OA
BRANCH   3   4
HETATM    4  C8  UNL     1      41.975 -39.803   6.513  1.00  0.00     0.272 C 
HETATM    5  O2  UNL     1      41.660 -38.614   6.254  1.00  0.00    -0.264 OA
BRANCH   4   6
HETATM    6  C7  UNL     1      43.276 -40.343   6.055  1.00  0.00     0.190 C 
BRANCH   6   7
HETATM    7  C6  UNL     1      43.608 -41.480   6.977  1.00  0.00     0.139 C 
HETATM    8  O1  UNL     1      44.046 -41.264   8.089  1.00  0.00    -0.297 OA
BRANCH   7   9
HETATM    9  C5  UNL     1      43.411 -42.888   6.545  1.00  0.00     0.106 C 
BRANCH   9  10
HETATM   10  C4  UNL     1      43.434 -42.980   5.063  1.00  0.00    -0.017 C 
HETATM   11  C2  UNL     1      44.494 -43.485   4.460  1.00  0.00    -0.091 C 
HETATM   12  C1  UNL     1      45.642 -43.951   5.259  1.00  0.00     0.042 C 
HETATM   13  C3  UNL     1      44.531 -43.584   2.982  1.00  0.00     0.042 C 
ENDBRANCH   9  10
ENDBRANCH   7   9
ENDBRANCH   6   7
ENDBRANCH   4   6
ENDBRANCH   3   4
ENDBRANCH   1   3
BRANCH   1  14
HETATM   14  O4  UNL     1      39.659 -40.624   5.340  1.00  0.00    -0.341 OA
ATOM     15  H4  UNL     1      40.152 -39.905   4.963  1.00  0.00     0.220 HD
ENDBRANCH   1  14
BRANCH   2  16
HETATM   16  C11 UNL     1      37.566 -41.744   6.912  1.00  0.00     0.005 C 
HETATM   17  C12 UNL     1      36.852 -42.653   7.483  1.00  0.00     0.000 C 
BRANCH  17  18
HETATM   18  C13 UNL     1      35.556 -43.236   7.274  1.00  0.00    -0.000 C 
BRANCH  18  19
HETATM   19  C14 UNL     1      34.829 -44.042   8.196  1.00  0.00    -0.004 C 
BRANCH  19  20
HETATM   20  C15 UNL     1      34.854 -44.156   9.471  1.00  0.00    -0.022 C 
BRANCH  20  21
HETATM   21  C16 UNL     1      35.921 -44.950  10.203  1.00  0.00     0.008 C 
HETATM   22  C17 UNL     1      36.175 -46.285   9.568  1.00  0.00     0.008 C 
HETATM   23  C18 UNL     1      37.002 -46.979  10.635  1.00  0.00     0.001 C 
HETATM   24  C19 UNL     1      36.614 -46.326  11.957  1.00  0.00     0.001 C 
HETATM   25  C20 UNL     1      35.499 -45.337  11.588  1.00  0.00     0.008 C 
ENDBRANCH  20  21
ENDBRANCH  19  20
ENDBRANCH  18  19
ENDBRANCH  17  18
ENDBRANCH   2  16
TORSDOF 12
ENDMDL
MODEL 4
REMARK VINA RESULT: -8.679233789      5.207      7.341
REMARK  12 active torsions:
REMARK  status: ('A' for Active; 'I' for Inactive)
REMARK    1  A    between atoms: C4_4  and  C5_5 
REMARK    2  A    between atoms: C5_5  and  C6_6 
REMARK    3  A    between atoms: C6_6  and  C7_8 
REMARK    4  A    between atoms: C7_8  and  C8_9 
REMARK    5  A    between atoms: C8_9  and  O3_11 
REMARK    6  A    between atoms: O3_11  and  C9_12 
REMARK    7  A    between atoms: C9_12  and  O4_13 
REMARK    8  A    between atoms: C10_15  and  C11_16 
REMARK    9  A    between atoms: C12_17  and  C13_18 
REMARK   10  A    between atoms: C13_18  and  C14_19 
REMARK   11  A    between atoms: C14_19  and  C15_20 
REMARK   12  A    between atoms: C15_20  and  C16_21 
ROOT
HETATM    1  C9  UNL     1      43.540 -42.242   8.560  1.00  0.00     0.186 C 
HETATM    2  C10 UNL     1      44.457 -43.163   8.483  1.00  0.00     0.064 C 
ENDROOT
BRANCH   1   3
HETATM    3  O3  UNL     1      43.714 -41.028   7.920  1.00  0.00    -0.255 OA
BRANCH   3   4
HETATM    4  C8  UNL     1      42.817 -40.632   6.945  1.00  0.00     0.272 C 
HETATM    5  O2  UNL     1      41.719 -40.127   7.292  1.00  0.00    -0.264 OA
BRANCH   4   6
HETATM    6  C7  UNL     1      43.136 -40.797   5.508  1.00  0.00     0.190 C 
BRANCH   6   7
HETATM    7  C6  UNL     1      43.067 -42.269   5.227  1.00  0.00     0.139 C 
HETATM    8  O1  UNL     1      42.106 -42.921   5.583  1.00  0.00    -0.297 OA
BRANCH   7   9
HETATM    9  C5  UNL     1      44.173 -42.956   4.512  1.00  0.00     0.106 C 
BRANCH   9  10
HETATM   10  C4  UNL     1      43.706 -44.257   3.968  1.00  0.00    -0.017 C 
HETATM   11  C2  UNL     1      44.188 -45.381   4.466  1.00  0.00    -0.091 C 
HETATM   12  C1  UNL     1      45.181 -45.336   5.554  1.00  0.00     0.042 C 
HETATM   13  C3  UNL     1      43.730 -46.685   3.934  1.00  0.00     0.042 C 
ENDBRANCH   9  10
ENDBRANCH   7   9
ENDBRANCH   6   7
ENDBRANCH   4   6
ENDBRANCH   3   4
ENDBRANCH   1   3
BRANCH   1  14
HETATM   14  O4  UNL     1      42.361 -42.424   9.274  1.00  0.00    -0.341 OA
ATOM     15  H4  UNL     1      42.432 -42.524  10.216  1.00  0.00     0.220 HD
ENDBRANCH   1  14
BRANCH   2  16
HETATM   16  C11 UNL     1      44.319 -44.487   9.153  1.00  0.00     0.005 C 
HETATM   17  C12 UNL     1      45.312 -45.308   9.187  1.00  0.00     0.000 C 
BRANCH  17  18
HETATM   18  C13 UNL     1      45.554 -46.621   9.717  1.00  0.00    -0.000 C 
BRANCH  18  19
HETATM   19  C14 UNL     1      45.542 -47.845   8.989  1.00  0.00    -0.004 C 
BRANCH  19  20
HETATM   20  C15 UNL     1      45.360 -48.131   7.754  1.00  0.00    -0.022 C 
BRANCH  20  21
HETATM   21  C16 UNL     1      46.214 -49.144   7.012  1.00  0.00     0.008 C 
HETATM   22  C17 UNL     1      47.656 -49.082   7.420  1.00  0.00     0.008 C 
HETATM   23  C18 UNL     1      48.315 -49.924   6.342  1.00  0.00     0.001 C 
HETATM   24  C19 UNL     1      47.399 -49.839   5.125  1.00  0.00     0.001 C 
HETATM   25  C20 UNL     1      46.291 -48.862   5.543  1.00  0.00     0.008 C 
ENDBRANCH  20  21
ENDBRANCH  19  20
ENDBRANCH  18  19
ENDBRANCH  17  18
ENDBRANCH   2  16
TORSDOF 12
ENDMDL
MODEL 5
REMARK VINA RESULT: -8.678266874      5.122      8.779
REMARK  12 active torsions:
REMARK  status: ('A' for Active; 'I' for Inactive)
REMARK    1  A    between atoms: C4_4  and  C5_5 
REMARK    2  A    between atoms: C5_5  and  C6_6 
REMARK    3  A    between atoms: C6_6  and  C7_8 
REMARK    4  A    between atoms: C7_8  and  C8_9 
REMARK    5  A    between atoms: C8_9  and  O3_11 
REMARK    6  A    between atoms: O3_11  and  C9_12 
REMARK    7  A    between atoms: C9_12  and  O4_13 
REMARK    8  A    between atoms: C10_15  and  C11_16 
REMARK    9  A    between atoms: C12_17  and  C13_18 
REMARK   10  A    between atoms: C13_18  and  C14_19 
REMARK   11  A    between atoms: C14_19  and  C15_20 
REMARK   12  A    between atoms: C15_20  and  C16_21 
ROOT
HETATM    1  C9  UNL     1      43.998 -44.700   4.444  1.00  0.00     0.186 C 
HETATM    2  C10 UNL     1      43.752 -45.978   4.441  1.00  0.00     0.064 C 
ENDROOT
BRANCH   1   3
HETATM    3  O3  UNL     1      42.961 -43.788   4.538  1.00  0.00    -0.255 OA
BRANCH   3   4
HETATM    4  C8  UNL     1      43.072 -42.709   5.396  1.00  0.00     0.272 C 
HETATM    5  O2  UNL     1      43.531 -41.624   4.958  1.00  0.00    -0.264 OA
BRANCH   4   6
HETATM    6  C7  UNL     1      42.658 -42.821   6.814  1.00  0.00     0.190 C 
BRANCH   6   7
HETATM    7  C6  UNL     1      43.905 -42.650   7.632  1.00  0.00     0.139 C 
HETATM    8  O1  UNL     1      44.127 -41.602   8.205  1.00  0.00    -0.297 OA
BRANCH   7   9
HETATM    9  C5  UNL     1      44.889 -43.756   7.753  1.00  0.00     0.106 C 
BRANCH   9  10
HETATM   10  C4  UNL     1      44.771 -44.407   9.083  1.00  0.00    -0.017 C 
HETATM   11  C2  UNL     1      44.900 -45.718   9.178  1.00  0.00    -0.091 C 
HETATM   12  C1  UNL     1      45.161 -46.520   7.970  1.00  0.00     0.042 C 
HETATM   13  C3  UNL     1      44.785 -46.381  10.498  1.00  0.00     0.042 C 
ENDBRANCH   9  10
ENDBRANCH   7   9
ENDBRANCH   6   7
ENDBRANCH   4   6
ENDBRANCH   3   4
ENDBRANCH   1   3
BRANCH   1  14
HETATM   14  O4  UNL     1      45.289 -44.190   4.356  1.00  0.00    -0.341 OA
ATOM     15  H4  UNL     1      46.006 -44.782   4.553  1.00  0.00     0.220 HD
ENDBRANCH   1  14
BRANCH   2  16
HETATM   16  C11 UNL     1      44.831 -47.000   4.342  1.00  0.00     0.005 C 
HETATM   17  C12 UNL     1      45.064 -47.597   3.223  1.00  0.00     0.000 C 
BRANCH  17  18
HETATM   18  C13 UNL     1      45.981 -48.600   2.754  1.00  0.00    -0.000 C 
BRANCH  18  19
HETATM   19  C14 UNL     1      46.436 -49.738   3.477  1.00  0.00    -0.004 C 
BRANCH  19  20
HETATM   20  C15 UNL     1      47.600 -50.162   3.807  1.00  0.00    -0.022 C 
BRANCH  20  21
HETATM   21  C16 UNL     1      48.230 -49.863   5.155  1.00  0.00     0.008 C 
HETATM   22  C17 UNL     1      48.638 -51.110   5.882  1.00  0.00     0.008 C 
HETATM   23  C18 UNL     1      48.919 -50.574   7.275  1.00  0.00     0.001 C 
HETATM   24  C19 UNL     1      48.071 -49.315   7.418  1.00  0.00     0.001 C 
HETATM   25  C20 UNL     1      47.262 -49.242   6.115  1.00  0.00     0.008 C 
ENDBRANCH  20  21
ENDBRANCH  19  20
ENDBRANCH  18  19
ENDBRANCH  17  18
ENDBRANCH   2  16
TORSDOF 12
ENDMDL
