MODEL 1
REMARK VINA RESULT: -7.476364324      0.000      0.000
REMARK  9 active torsions:
REMARK  status: ('A' for Active; 'I' for Inactive)
REMARK    1  A    between atoms: O1_2  and  C2_3 
REMARK    2  A    between atoms: C4_5  and  O2_6 
REMARK    3  A    between atoms: C6_8  and  C7_9 
REMARK    4  A    between atoms: C7_9  and  C8_10 
REMARK    5  A    between atoms: C7_9  and  S1_14 
REMARK    6  A    between atoms: C8_10  and  C9_11 
REMARK    7  A    between atoms: S1_14  and  C12_15 
REMARK    8  A    between atoms: C12_15  and  C13_16 
REMARK    9  A    between atoms: C17_21  and  O3_22 
ROOT
HETATM    1  C13 UNL     1      36.282 -41.757   7.293  1.00  0.00    -0.006 C 
HETATM    2  C14 UNL     1      35.381 -40.845   7.549  1.00  0.00     0.090 C 
HETATM    3  C15 UNL     1      35.522 -39.498   7.089  1.00  0.00     0.087 C 
HETATM    4  N1  UNL     1      35.631 -38.384   6.736  1.00  0.00    -0.192 NA
ENDROOT
BRANCH   1   5
HETATM    5  C12 UNL     1      36.105 -43.139   7.784  1.00  0.00     0.102 C 
BRANCH   5   6
HETATM    6  S1  UNL     1      36.258 -43.469   9.484  1.00  0.00    -0.156 SA
BRANCH   6   7
HETATM    7  C7  UNL     1      35.080 -44.553  10.286  1.00  0.00     0.083 C 
BRANCH   7   8
HETATM    8  C6  UNL     1      33.888 -43.835  10.791  1.00  0.00    -0.008 A 
HETATM    9  C4  UNL     1      32.813 -43.760   9.875  1.00  0.00     0.078 A 
HETATM   10  C3  UNL     1      31.707 -43.061  10.303  1.00  0.00     0.077 A 
HETATM   11  C2  UNL     1      31.653 -42.464  11.561  1.00  0.00     0.104 A 
HETATM   12  C17 UNL     1      32.731 -42.551  12.439  1.00  0.00     0.102 A 
HETATM   13  C16 UNL     1      33.839 -43.249  12.021  1.00  0.00     0.050 A 
BRANCH   9  14
HETATM   14  O2  UNL     1      32.941 -44.382   8.644  1.00  0.00    -0.355 OA
HETATM   15  C5  UNL     1      32.888 -43.712   7.420  1.00  0.00     0.210 C 
ENDBRANCH   9  14
BRANCH  11  16
HETATM   16  O1  UNL     1      30.512 -41.789  11.938  1.00  0.00    -0.353 OA
HETATM   17  C1  UNL     1      29.446 -41.652  10.986  1.00  0.00     0.210 C 
ENDBRANCH  11  16
BRANCH  12  18
HETATM   18  O3  UNL     1      32.595 -41.919  13.641  1.00  0.00    -0.353 OA
HETATM   19  C18 UNL     1      33.431 -41.881  14.737  1.00  0.00     0.210 C 
ENDBRANCH  12  18
ENDBRANCH   7   8
BRANCH   7  20
HETATM   20  C8  UNL     1      35.872 -44.971  11.608  1.00  0.00     0.024 C 
BRANCH  20  21
HETATM   21  C9  UNL     1      36.142 -46.434  11.410  1.00  0.00    -0.021 C 
HETATM   22  C10 UNL     1      36.152 -47.128  12.782  1.00  0.00     0.009 C 
HETATM   23  C11 UNL     1      37.551 -46.640  10.846  1.00  0.00     0.009 C 
ENDBRANCH  20  21
ENDBRANCH   7  20
ENDBRANCH   6   7
ENDBRANCH   5   6
ENDBRANCH   1   5
TORSDOF 9
ENDMDL
MODEL 2
REMARK VINA RESULT: -7.094888338      3.505      5.243
REMARK  9 active torsions:
REMARK  status: ('A' for Active; 'I' for Inactive)
REMARK    1  A    between atoms: O1_2  and  C2_3 
REMARK    2  A    between atoms: C4_5  and  O2_6 
REMARK    3  A    between atoms: C6_8  and  C7_9 
REMARK    4  A    between atoms: C7_9  and  C8_10 
REMARK    5  A    between atoms: C7_9  and  S1_14 
REMARK    6  A    between atoms: C8_10  and  C9_11 
REMARK    7  A    between atoms: S1_14  and  C12_15 
REMARK    8  A    between atoms: C12_15  and  C13_16 
REMARK    9  A    between atoms: C17_21  and  O3_22 
ROOT
HETATM    1  C13 UNL     1      35.874 -46.794   9.138  1.00  0.00    -0.006 C 
HETATM    2  C14 UNL     1      36.969 -47.395   9.526  1.00  0.00     0.090 C 
HETATM    3  C15 UNL     1      36.933 -48.580  10.327  1.00  0.00     0.087 C 
HETATM    4  N1  UNL     1      36.924 -49.542  10.999  1.00  0.00    -0.192 NA
ENDROOT
BRANCH   1   5
HETATM    5  C12 UNL     1      35.946 -45.572   8.312  1.00  0.00     0.102 C 
BRANCH   5   6
HETATM    6  S1  UNL     1      35.735 -44.019   9.065  1.00  0.00    -0.156 SA
BRANCH   6   7
HETATM    7  C7  UNL     1      34.143 -43.578   9.756  1.00  0.00     0.083 C 
BRANCH   7   8
HETATM    8  C6  UNL     1      33.625 -42.293   9.235  1.00  0.00    -0.008 A 
HETATM    9  C4  UNL     1      32.239 -42.090   9.437  1.00  0.00     0.078 A 
HETATM   10  C3  UNL     1      31.723 -40.922   8.925  1.00  0.00     0.077 A 
HETATM   11  C2  UNL     1      32.517 -39.998   8.248  1.00  0.00     0.104 A 
HETATM   12  C17 UNL     1      33.878 -40.229   8.060  1.00  0.00     0.102 A 
HETATM   13  C16 UNL     1      34.403 -41.392   8.570  1.00  0.00     0.050 A 
BRANCH   9  14
HETATM   14  O2  UNL     1      31.517 -43.053  10.122  1.00  0.00    -0.355 OA
HETATM   15  C5  UNL     1      30.565 -42.766  11.102  1.00  0.00     0.210 C 
ENDBRANCH   9  14
BRANCH  11  16
HETATM   16  O1  UNL     1      31.944 -38.839   7.770  1.00  0.00    -0.353 OA
HETATM   17  C1  UNL     1      30.576 -38.558   8.104  1.00  0.00     0.210 C 
ENDBRANCH  11  16
BRANCH  12  18
HETATM   18  O3  UNL     1      34.570 -39.278   7.369  1.00  0.00    -0.353 OA
HETATM   19  C18 UNL     1      35.878 -38.855   7.486  1.00  0.00     0.210 C 
ENDBRANCH  12  18
ENDBRANCH   7   8
BRANCH   7  20
HETATM   20  C8  UNL     1      34.525 -43.257  11.272  1.00  0.00     0.024 C 
BRANCH  20  21
HETATM   21  C9  UNL     1      34.037 -44.463  12.022  1.00  0.00    -0.021 C 
HETATM   22  C10 UNL     1      33.430 -44.005  13.358  1.00  0.00     0.009 C 
HETATM   23  C11 UNL     1      35.217 -45.361  12.405  1.00  0.00     0.009 C 
ENDBRANCH  20  21
ENDBRANCH   7  20
ENDBRANCH   6   7
ENDBRANCH   5   6
ENDBRANCH   1   5
TORSDOF 9
ENDMDL
MODEL 3
REMARK VINA RESULT: -7.088238908      1.957      5.520
REMARK  9 active torsions:
REMARK  status: ('A' for Active; 'I' for Inactive)
REMARK    1  A    between atoms: O1_2  and  C2_3 
REMARK    2  A    between atoms: C4_5  and  O2_6 
REMARK    3  A    between atoms: C6_8  and  C7_9 
REMARK    4  A    between atoms: C7_9  and  C8_10 
REMARK    5  A    between atoms: C7_9  and  S1_14 
REMARK    6  A    between atoms: C8_10  and  C9_11 
REMARK    7  A    between atoms: S1_14  and  C12_15 
REMARK    8  A    between atoms: C12_15  and  C13_16 
REMARK    9  A    between atoms: C17_21  and  O3_22 
ROOT
HETATM    1  C13 UNL     1      34.118 -40.373   8.012  1.00  0.00    -0.006 C 
HETATM    2  C14 UNL     1      34.807 -39.510   7.312  1.00  0.00     0.090 C 
HETATM    3  C15 UNL     1      36.188 -39.722   7.004  1.00  0.00     0.087 C 
HETATM    4  N1  UNL     1      37.325 -39.871   6.757  1.00  0.00    -0.192 NA
ENDROOT
BRANCH   1   5
HETATM    5  C12 UNL     1      32.694 -40.123   8.314  1.00  0.00     0.102 C 
BRANCH   5   6
HETATM    6  S1  UNL     1      31.717 -41.410   8.953  1.00  0.00    -0.156 SA
BRANCH   6   7
HETATM    7  C7  UNL     1      31.983 -41.974  10.633  1.00  0.00     0.083 C 
BRANCH   7   8
HETATM    8  C6  UNL     1      32.950 -43.091  10.719  1.00  0.00    -0.008 A 
HETATM    9  C4  UNL     1      33.580 -43.230  11.978  1.00  0.00     0.078 A 
HETATM   10  C3  UNL     1      34.515 -44.235  12.074  1.00  0.00     0.077 A 
HETATM   11  C2  UNL     1      34.823 -45.061  10.995  1.00  0.00     0.104 A 
HETATM   12  C17 UNL     1      34.190 -44.896   9.765  1.00  0.00     0.102 A 
HETATM   13  C16 UNL     1      33.253 -43.897   9.661  1.00  0.00     0.050 A 
BRANCH   9  14
HETATM   14  O2  UNL     1      33.217 -42.372  13.003  1.00  0.00    -0.355 OA
HETATM   15  C5  UNL     1      33.661 -42.498  14.321  1.00  0.00     0.210 C 
ENDBRANCH   9  14
BRANCH  11  16
HETATM   16  O1  UNL     1      35.760 -46.059  11.157  1.00  0.00    -0.353 OA
HETATM   17  C1  UNL     1      36.114 -46.463  12.489  1.00  0.00     0.210 C 
ENDBRANCH  11  16
BRANCH  12  18
HETATM   18  O3  UNL     1      34.571 -45.739   8.762  1.00  0.00    -0.353 OA
HETATM   19  C18 UNL     1      35.128 -45.474   7.528  1.00  0.00     0.210 C 
ENDBRANCH  12  18
ENDBRANCH   7   8
BRANCH   7  20
HETATM   20  C8  UNL     1      30.577 -42.650  10.974  1.00  0.00     0.024 C 
BRANCH  20  21
HETATM   21  C9  UNL     1      29.994 -41.744  12.018  1.00  0.00    -0.021 C 
HETATM   22  C10 UNL     1      29.630 -42.580  13.256  1.00  0.00     0.009 C 
HETATM   23  C11 UNL     1      28.667 -41.157  11.528  1.00  0.00     0.009 C 
ENDBRANCH  20  21
ENDBRANCH   7  20
ENDBRANCH   6   7
ENDBRANCH   5   6
ENDBRANCH   1   5
TORSDOF 9
ENDMDL
MODEL 4
REMARK VINA RESULT: -7.051639675     10.472     14.058
REMARK  9 active torsions:
REMARK  status: ('A' for Active; 'I' for Inactive)
REMARK    1  A    between atoms: O1_2  and  C2_3 
REMARK    2  A    between atoms: C4_5  and  O2_6 
REMARK    3  A    between atoms: C6_8  and  C7_9 
REMARK    4  A    between atoms: C7_9  and  C8_10 
REMARK    5  A    between atoms: C7_9  and  S1_14 
REMARK    6  A    between atoms: C8_10  and  C9_11 
REMARK    7  A    between atoms: S1_14  and  C12_15 
REMARK    8  A    between atoms: C12_15  and  C13_16 
REMARK    9  A    between atoms: C17_21  and  O3_22 
ROOT
HETATM    1  C13 UNL     1      43.158 -43.179   5.880  1.00  0.00    -0.006 C 
HETATM    2  C14 UNL     1      42.454 -42.416   6.675  1.00  0.00     0.090 C 
HETATM    3  C15 UNL     1      41.364 -41.625   6.190  1.00  0.00     0.087 C 
HETATM    4  N1  UNL     1      40.480 -40.957   5.807  1.00  0.00    -0.192 NA
ENDROOT
BRANCH   1   5
HETATM    5  C12 UNL     1      44.277 -43.982   6.414  1.00  0.00     0.102 C 
BRANCH   5   6
HETATM    6  S1  UNL     1      45.216 -44.964   5.331  1.00  0.00    -0.156 SA
BRANCH   6   7
HETATM    7  C7  UNL     1      44.517 -46.478   4.675  1.00  0.00     0.083 C 
BRANCH   7   8
HETATM    8  C6  UNL     1      45.310 -47.677   5.027  1.00  0.00    -0.008 A 
HETATM    9  C4  UNL     1      45.470 -47.891   6.417  1.00  0.00     0.078 A 
HETATM   10  C3  UNL     1      46.238 -48.976   6.773  1.00  0.00     0.077 A 
HETATM   11  C2  UNL     1      46.823 -49.810   5.821  1.00  0.00     0.104 A 
HETATM   12  C17 UNL     1      46.651 -49.570   4.460  1.00  0.00     0.102 A 
HETATM   13  C16 UNL     1      45.884 -48.490   4.095  1.00  0.00     0.050 A 
BRANCH   9  14
HETATM   14  O2  UNL     1      44.855 -47.020   7.301  1.00  0.00    -0.355 OA
HETATM   15  C5  UNL     1      45.215 -46.886   8.643  1.00  0.00     0.210 C 
ENDBRANCH   9  14
BRANCH  11  16
HETATM   16  O1  UNL     1      47.571 -50.889   6.240  1.00  0.00    -0.353 OA
HETATM   17  C1  UNL     1      48.738 -50.650   7.041  1.00  0.00     0.210 C 
ENDBRANCH  11  16
BRANCH  12  18
HETATM   18  O3  UNL     1      47.277 -50.428   3.603  1.00  0.00    -0.353 OA
HETATM   19  C18 UNL     1      47.395 -50.399   2.228  1.00  0.00     0.210 C 
ENDBRANCH  12  18
ENDBRANCH   7   8
BRANCH   7  20
HETATM   20  C8  UNL     1      44.762 -46.296   3.108  1.00  0.00     0.024 C 
BRANCH  20  21
HETATM   21  C9  UNL     1      43.682 -45.342   2.691  1.00  0.00    -0.021 C 
HETATM   22  C10 UNL     1      42.950 -45.922   1.469  1.00  0.00     0.009 C 
HETATM   23  C11 UNL     1      44.297 -44.027   2.201  1.00  0.00     0.009 C 
ENDBRANCH  20  21
ENDBRANCH   7  20
ENDBRANCH   6   7
ENDBRANCH   5   6
ENDBRANCH   1   5
TORSDOF 9
ENDMDL
MODEL 5
REMARK VINA RESULT: -7.011773537      3.395      5.211
REMARK  9 active torsions:
REMARK  status: ('A' for Active; 'I' for Inactive)
REMARK    1  A    between atoms: O1_2  and  C2_3 
REMARK    2  A    between atoms: C4_5  and  O2_6 
REMARK    3  A    between atoms: C6_8  and  C7_9 
REMARK    4  A    between atoms: C7_9  and  C8_10 
REMARK    5  A    between atoms: C7_9  and  S1_14 
REMARK    6  A    between atoms: C8_10  and  C9_11 
REMARK    7  A    between atoms: S1_14  and  C12_15 
REMARK    8  A    between atoms: C12_15  and  C13_16 
REMARK    9  A    between atoms: C17_21  and  O3_22 
ROOT
HETATM    1  C13 UNL     1      32.133 -42.515  14.458  1.00  0.00    -0.006 C 
HETATM    2  C14 UNL     1      31.333 -43.549  14.471  1.00  0.00     0.090 C 
HETATM    3  C15 UNL     1      29.993 -43.458  14.964  1.00  0.00     0.087 C 
HETATM    4  N1  UNL     1      28.898 -43.405  15.381  1.00  0.00    -0.192 NA
ENDROOT
BRANCH   1   5
HETATM    5  C12 UNL     1      33.512 -42.645  13.943  1.00  0.00     0.102 C 
BRANCH   5   6
HETATM    6  S1  UNL     1      33.889 -43.919  12.823  1.00  0.00    -0.156 SA
BRANCH   6   7
HETATM    7  C7  UNL     1      34.327 -43.513  11.134  1.00  0.00     0.083 C 
BRANCH   7   8
HETATM    8  C6  UNL     1      33.305 -42.681  10.459  1.00  0.00    -0.008 A 
HETATM    9  C4  UNL     1      33.805 -41.864   9.417  1.00  0.00     0.078 A 
HETATM   10  C3  UNL     1      32.884 -41.049   8.799  1.00  0.00     0.077 A 
HETATM   11  C2  UNL     1      31.544 -41.030   9.180  1.00  0.00     0.104 A 
HETATM   12  C17 UNL     1      31.083 -41.842  10.213  1.00  0.00     0.102 A 
HETATM   13  C16 UNL     1      31.995 -42.661  10.834  1.00  0.00     0.050 A 
BRANCH   9  14
HETATM   14  O2  UNL     1      35.150 -41.942   9.095  1.00  0.00    -0.355 OA
HETATM   15  C5  UNL     1      35.636 -42.050   7.791  1.00  0.00     0.210 C 
ENDBRANCH   9  14
BRANCH  11  16
HETATM   16  O1  UNL     1      30.666 -40.201   8.514  1.00  0.00    -0.353 OA
HETATM   17  C1  UNL     1      31.150 -38.946   8.011  1.00  0.00     0.210 C 
ENDBRANCH  11  16
BRANCH  12  18
HETATM   18  O3  UNL     1      29.759 -41.740  10.529  1.00  0.00    -0.353 OA
HETATM   19  C18 UNL     1      29.136 -41.566  11.747  1.00  0.00     0.210 C 
ENDBRANCH  12  18
ENDBRANCH   7   8
BRANCH   7  20
HETATM   20  C8  UNL     1      34.206 -44.934  10.417  1.00  0.00     0.024 C 
BRANCH  20  21
HETATM   21  C9  UNL     1      35.596 -45.193   9.911  1.00  0.00    -0.021 C 
HETATM   22  C10 UNL     1      35.506 -45.794   8.499  1.00  0.00     0.009 C 
HETATM   23  C11 UNL     1      36.277 -46.269  10.761  1.00  0.00     0.009 C 
ENDBRANCH  20  21
ENDBRANCH   7  20
ENDBRANCH   6   7
ENDBRANCH   5   6
ENDBRANCH   1   5
TORSDOF 9
ENDMDL
