MODEL 1
REMARK VINA RESULT: -8.541348863      0.000      0.000
REMARK  9 active torsions:
REMARK  status: ('A' for Active; 'I' for Inactive)
REMARK    1  A    between atoms: C2_2  and  C3_3 
REMARK    2  A    between atoms: C3_3  and  C4_4 
REMARK    3  A    between atoms: C4_4  and  C5_5 
REMARK    4  A    between atoms: C5_5  and  O1_7 
REMARK    5  A    between atoms: O1_7  and  C7_8 
REMARK    6  A    between atoms: C8_11  and  S1_12 
REMARK    7  A    between atoms: S1_12  and  C9_13 
REMARK    8  A    between atoms: C9_13  and  C11_15 
REMARK    9  A    between atoms: C13_19  and  C14_20 
ROOT
HETATM    1  C7  UNL     1      44.649 -43.820   5.049  1.00  0.00     0.167 A 
HETATM    2  N1  UNL     1      44.822 -44.553   6.191  1.00  0.00    -0.316 N 
ATOM      3  H1  UNL     1      44.821 -44.082   7.096  1.00  0.00     0.170 HD
HETATM    4  C8  UNL     1      44.995 -45.882   6.137  1.00  0.00     0.146 A 
HETATM    5  N2  UNL     1      45.005 -46.546   4.973  1.00  0.00    -0.338 N 
ATOM      6  H2  UNL     1      45.140 -47.556   4.975  1.00  0.00     0.168 HD
HETATM    7  C13 UNL     1      44.838 -45.895   3.782  1.00  0.00     0.040 A 
HETATM    8  C17 UNL     1      44.662 -44.526   3.865  1.00  0.00     0.118 A 
HETATM    9  C18 UNL     1      44.487 -43.825   2.624  1.00  0.00     0.106 C 
HETATM   10  N3  UNL     1      44.358 -43.248   1.636  1.00  0.00    -0.191 NA
ENDROOT
BRANCH   1  11
HETATM   11  O1  UNL     1      44.469 -42.458   5.041  1.00  0.00    -0.329 OA
BRANCH  11  12
HETATM   12  C5  UNL     1      43.234 -41.809   5.199  1.00  0.00     0.127 C 
HETATM   13  C6  UNL     1      43.356 -40.429   5.795  1.00  0.00     0.040 C 
BRANCH  12  14
HETATM   14  C4  UNL     1      42.417 -42.637   6.204  1.00  0.00     0.036 C 
BRANCH  14  15
HETATM   15  C3  UNL     1      41.325 -41.779   6.812  1.00  0.00     0.029 C 
BRANCH  15  16
HETATM   16  C2  UNL     1      41.356 -41.956   8.301  1.00  0.00    -0.037 C 
HETATM   17  C1  UNL     1      42.441 -42.352   8.929  1.00  0.00     0.007 C 
ENDBRANCH  15  16
ENDBRANCH  14  15
ENDBRANCH  12  14
ENDBRANCH  11  12
ENDBRANCH   1  11
BRANCH   7  18
HETATM   18  C14 UNL     1      44.845 -46.621   2.485  1.00  0.00     0.029 C 
HETATM   19  C15 UNL     1      45.486 -47.989   2.755  1.00  0.00     0.016 C 
HETATM   20  C16 UNL     1      43.456 -46.832   1.942  1.00  0.00     0.016 C 
ENDBRANCH   7  18
BRANCH   4  21
HETATM   21  S1  UNL     1      45.216 -46.783   7.648  1.00  0.00    -0.089 SA
BRANCH  21  22
HETATM   22  C9  UNL     1      44.981 -45.797   9.117  1.00  0.00     0.051 C 
HETATM   23  C10 UNL     1      45.989 -44.682   9.267  1.00  0.00     0.022 C 
BRANCH  22  24
HETATM   24  C11 UNL     1      44.982 -46.654  10.372  1.00  0.00     0.011 C 
HETATM   25  C12 UNL     1      45.512 -48.036  10.069  1.00  0.00     0.006 C 
ENDBRANCH  22  24
ENDBRANCH  21  22
ENDBRANCH   4  21
TORSDOF 9
ENDMDL
MODEL 2
REMARK VINA RESULT: -8.362175132      2.206      6.353
REMARK  9 active torsions:
REMARK  status: ('A' for Active; 'I' for Inactive)
REMARK    1  A    between atoms: C2_2  and  C3_3 
REMARK    2  A    between atoms: C3_3  and  C4_4 
REMARK    3  A    between atoms: C4_4  and  C5_5 
REMARK    4  A    between atoms: C5_5  and  O1_7 
REMARK    5  A    between atoms: O1_7  and  C7_8 
REMARK    6  A    between atoms: C8_11  and  S1_12 
REMARK    7  A    between atoms: S1_12  and  C9_13 
REMARK    8  A    between atoms: C9_13  and  C11_15 
REMARK    9  A    between atoms: C13_19  and  C14_20 
ROOT
HETATM    1  C7  UNL     1      44.416 -43.790   8.016  1.00  0.00     0.167 A 
HETATM    2  N1  UNL     1      45.107 -44.076   6.871  1.00  0.00    -0.316 N 
ATOM      3  H1  UNL     1      45.836 -44.790   6.887  1.00  0.00     0.170 HD
HETATM    4  C8  UNL     1      44.840 -43.431   5.725  1.00  0.00     0.146 A 
HETATM    5  N2  UNL     1      43.893 -42.485   5.653  1.00  0.00    -0.338 N 
ATOM      6  H2  UNL     1      43.721 -42.017   4.763  1.00  0.00     0.168 HD
HETATM    7  C13 UNL     1      43.153 -42.135   6.747  1.00  0.00     0.040 A 
HETATM    8  C17 UNL     1      43.448 -42.815   7.914  1.00  0.00     0.118 A 
HETATM    9  C18 UNL     1      42.680 -42.458   9.075  1.00  0.00     0.106 C 
HETATM   10  N3  UNL     1      42.082 -42.175  10.017  1.00  0.00    -0.191 NA
ENDROOT
BRANCH   1  11
HETATM   11  O1  UNL     1      44.645 -44.415   9.217  1.00  0.00    -0.329 OA
BRANCH  11  12
HETATM   12  C5  UNL     1      44.515 -45.795   9.443  1.00  0.00     0.127 C 
HETATM   13  C6  UNL     1      44.474 -46.160  10.906  1.00  0.00     0.040 C 
BRANCH  12  14
HETATM   14  C4  UNL     1      45.775 -46.465   8.872  1.00  0.00     0.036 C 
BRANCH  14  15
HETATM   15  C3  UNL     1      45.661 -47.971   8.999  1.00  0.00     0.029 C 
BRANCH  15  16
HETATM   16  C2  UNL     1      45.966 -48.584   7.665  1.00  0.00    -0.037 C 
HETATM   17  C1  UNL     1      47.195 -48.881   7.303  1.00  0.00     0.007 C 
ENDBRANCH  15  16
ENDBRANCH  14  15
ENDBRANCH  12  14
ENDBRANCH  11  12
ENDBRANCH   1  11
BRANCH   7  18
HETATM   18  C14 UNL     1      42.098 -41.089   6.677  1.00  0.00     0.029 C 
HETATM   19  C15 UNL     1      42.551 -40.084   5.610  1.00  0.00     0.016 C 
HETATM   20  C16 UNL     1      40.760 -41.654   6.278  1.00  0.00     0.016 C 
ENDBRANCH   7  18
BRANCH   4  21
HETATM   21  S1  UNL     1      45.767 -43.840   4.270  1.00  0.00    -0.089 SA
BRANCH  21  22
HETATM   22  C9  UNL     1      44.885 -44.886   3.124  1.00  0.00     0.051 C 
HETATM   23  C10 UNL     1      44.215 -44.128   2.002  1.00  0.00     0.022 C 
BRANCH  22  24
HETATM   24  C11 UNL     1      43.858 -45.752   3.835  1.00  0.00     0.011 C 
HETATM   25  C12 UNL     1      44.532 -46.910   4.532  1.00  0.00     0.006 C 
ENDBRANCH  22  24
ENDBRANCH  21  22
ENDBRANCH   4  21
TORSDOF 9
ENDMDL
MODEL 3
REMARK VINA RESULT: -8.223958403      2.653      5.446
REMARK  9 active torsions:
REMARK  status: ('A' for Active; 'I' for Inactive)
REMARK    1  A    between atoms: C2_2  and  C3_3 
REMARK    2  A    between atoms: C3_3  and  C4_4 
REMARK    3  A    between atoms: C4_4  and  C5_5 
REMARK    4  A    between atoms: C5_5  and  O1_7 
REMARK    5  A    between atoms: O1_7  and  C7_8 
REMARK    6  A    between atoms: C8_11  and  S1_12 
REMARK    7  A    between atoms: S1_12  and  C9_13 
REMARK    8  A    between atoms: C9_13  and  C11_15 
REMARK    9  A    between atoms: C13_19  and  C14_20 
ROOT
HETATM    1  C7  UNL     1      45.026 -46.494   6.750  1.00  0.00     0.167 A 
HETATM    2  N1  UNL     1      44.882 -46.231   5.415  1.00  0.00    -0.316 N 
ATOM      3  H1  UNL     1      44.434 -45.363   5.119  1.00  0.00     0.170 HD
HETATM    4  C8  UNL     1      45.321 -47.097   4.490  1.00  0.00     0.146 A 
HETATM    5  N2  UNL     1      45.916 -48.249   4.829  1.00  0.00    -0.338 N 
ATOM      6  H2  UNL     1      46.235 -48.881   4.095  1.00  0.00     0.168 HD
HETATM    7  C13 UNL     1      46.103 -48.595   6.137  1.00  0.00     0.040 A 
HETATM    8  C17 UNL     1      45.641 -47.685   7.071  1.00  0.00     0.118 A 
HETATM    9  C18 UNL     1      45.828 -48.033   8.452  1.00  0.00     0.106 C 
HETATM   10  N3  UNL     1      45.960 -48.303   9.563  1.00  0.00    -0.191 NA
ENDROOT
BRANCH   1  11
HETATM   11  O1  UNL     1      44.596 -45.648   7.742  1.00  0.00    -0.329 OA
BRANCH  11  12
HETATM   12  C5  UNL     1      45.157 -44.392   8.027  1.00  0.00     0.127 C 
HETATM   13  C6  UNL     1      46.116 -44.416   9.191  1.00  0.00     0.040 C 
BRANCH  12  14
HETATM   14  C4  UNL     1      44.001 -43.469   8.446  1.00  0.00     0.036 C 
BRANCH  14  15
HETATM   15  C3  UNL     1      43.413 -42.792   7.224  1.00  0.00     0.029 C 
BRANCH  15  16
HETATM   16  C2  UNL     1      43.467 -41.307   7.432  1.00  0.00    -0.037 C 
HETATM   17  C1  UNL     1      43.367 -40.463   6.430  1.00  0.00     0.007 C 
ENDBRANCH  15  16
ENDBRANCH  14  15
ENDBRANCH  12  14
ENDBRANCH  11  12
ENDBRANCH   1  11
BRANCH   7  18
HETATM   18  C14 UNL     1      46.764 -49.869   6.525  1.00  0.00     0.029 C 
HETATM   19  C15 UNL     1      46.550 -50.843   5.358  1.00  0.00     0.016 C 
HETATM   20  C16 UNL     1      48.243 -49.699   6.753  1.00  0.00     0.016 C 
ENDBRANCH   7  18
BRANCH   4  21
HETATM   21  S1  UNL     1      45.108 -46.705   2.774  1.00  0.00    -0.089 SA
BRANCH  21  22
HETATM   22  C9  UNL     1      43.868 -45.459   2.467  1.00  0.00     0.051 C 
HETATM   23  C10 UNL     1      43.031 -45.724   1.238  1.00  0.00     0.022 C 
BRANCH  22  24
HETATM   24  C11 UNL     1      44.482 -44.072   2.373  1.00  0.00     0.011 C 
HETATM   25  C12 UNL     1      44.359 -43.347   3.693  1.00  0.00     0.006 C 
ENDBRANCH  22  24
ENDBRANCH  21  22
ENDBRANCH   4  21
TORSDOF 9
ENDMDL
MODEL 4
REMARK VINA RESULT: -8.171855290      2.066      5.286
REMARK  9 active torsions:
REMARK  status: ('A' for Active; 'I' for Inactive)
REMARK    1  A    between atoms: C2_2  and  C3_3 
REMARK    2  A    between atoms: C3_3  and  C4_4 
REMARK    3  A    between atoms: C4_4  and  C5_5 
REMARK    4  A    between atoms: C5_5  and  O1_7 
REMARK    5  A    between atoms: O1_7  and  C7_8 
REMARK    6  A    between atoms: C8_11  and  S1_12 
REMARK    7  A    between atoms: S1_12  and  C9_13 
REMARK    8  A    between atoms: C9_13  and  C11_15 
REMARK    9  A    between atoms: C13_19  and  C14_20 
ROOT
HETATM    1  C7  UNL     1      45.211 -46.771   5.556  1.00  0.00     0.167 A 
HETATM    2  N1  UNL     1      44.839 -45.703   6.325  1.00  0.00    -0.316 N 
ATOM      3  H1  UNL     1      44.979 -45.737   7.335  1.00  0.00     0.170 HD
HETATM    4  C8  UNL     1      44.293 -44.610   5.770  1.00  0.00     0.146 A 
HETATM    5  N2  UNL     1      44.089 -44.518   4.448  1.00  0.00    -0.338 N 
ATOM      6  H2  UNL     1      43.671 -43.671   4.066  1.00  0.00     0.168 HD
HETATM    7  C13 UNL     1      44.431 -45.536   3.603  1.00  0.00     0.040 A 
HETATM    8  C17 UNL     1      44.992 -46.651   4.201  1.00  0.00     0.118 A 
HETATM    9  C18 UNL     1      45.355 -47.732   3.328  1.00  0.00     0.106 C 
HETATM   10  N3  UNL     1      45.641 -48.611   2.643  1.00  0.00    -0.191 NA
ENDROOT
BRANCH   1  11
HETATM   11  O1  UNL     1      45.773 -47.916   6.067  1.00  0.00    -0.329 OA
BRANCH  11  12
HETATM   12  C5  UNL     1      46.410 -48.011   7.315  1.00  0.00     0.127 C 
HETATM   13  C6  UNL     1      47.478 -49.075   7.361  1.00  0.00     0.040 C 
BRANCH  12  14
HETATM   14  C4  UNL     1      45.340 -48.437   8.334  1.00  0.00     0.036 C 
BRANCH  14  15
HETATM   15  C3  UNL     1      45.660 -47.850   9.694  1.00  0.00     0.029 C 
BRANCH  15  16
HETATM   16  C2  UNL     1      44.928 -46.548   9.832  1.00  0.00    -0.037 C 
HETATM   17  C1  UNL     1      45.563 -45.399   9.896  1.00  0.00     0.007 C 
ENDBRANCH  15  16
ENDBRANCH  14  15
ENDBRANCH  12  14
ENDBRANCH  11  12
ENDBRANCH   1  11
BRANCH   7  18
HETATM   18  C14 UNL     1      44.212 -45.444   2.136  1.00  0.00     0.029 C 
HETATM   19  C15 UNL     1      42.865 -46.122   1.853  1.00  0.00     0.016 C 
HETATM   20  C16 UNL     1      44.149 -44.017   1.657  1.00  0.00     0.016 C 
ENDBRANCH   7  18
BRANCH   4  21
HETATM   21  S1  UNL     1      43.829 -43.255   6.814  1.00  0.00    -0.089 SA
BRANCH  21  22
HETATM   22  C9  UNL     1      42.435 -42.321   6.207  1.00  0.00     0.051 C 
HETATM   23  C10 UNL     1      42.817 -41.011   5.558  1.00  0.00     0.022 C 
BRANCH  22  24
HETATM   24  C11 UNL     1      41.414 -42.066   7.303  1.00  0.00     0.011 C 
HETATM   25  C12 UNL     1      40.068 -41.727   6.705  1.00  0.00     0.006 C 
ENDBRANCH  22  24
ENDBRANCH  21  22
ENDBRANCH   4  21
TORSDOF 9
ENDMDL
MODEL 5
REMARK VINA RESULT: -8.108695800      2.154      6.923
REMARK  9 active torsions:
REMARK  status: ('A' for Active; 'I' for Inactive)
REMARK    1  A    between atoms: C2_2  and  C3_3 
REMARK    2  A    between atoms: C3_3  and  C4_4 
REMARK    3  A    between atoms: C4_4  and  C5_5 
REMARK    4  A    between atoms: C5_5  and  O1_7 
REMARK    5  A    between atoms: O1_7  and  C7_8 
REMARK    6  A    between atoms: C8_11  and  S1_12 
REMARK    7  A    between atoms: S1_12  and  C9_13 
REMARK    8  A    between atoms: C9_13  and  C11_15 
REMARK    9  A    between atoms: C13_19  and  C14_20 
ROOT
HETATM    1  C7  UNL     1      44.715 -46.341   5.301  1.00  0.00     0.167 A 
HETATM    2  N1  UNL     1      44.246 -45.092   4.999  1.00  0.00    -0.316 N 
ATOM      3  H1  UNL     1      43.927 -44.890   4.051  1.00  0.00     0.170 HD
HETATM    4  C8  UNL     1      44.198 -44.129   5.932  1.00  0.00     0.146 A 
HETATM    5  N2  UNL     1      44.606 -44.345   7.190  1.00  0.00    -0.338 N 
ATOM      6  H2  UNL     1      44.555 -43.587   7.869  1.00  0.00     0.168 HD
HETATM    7  C13 UNL     1      45.089 -45.562   7.582  1.00  0.00     0.040 A 
HETATM    8  C17 UNL     1      45.126 -46.538   6.602  1.00  0.00     0.118 A 
HETATM    9  C18 UNL     1      45.632 -47.823   6.995  1.00  0.00     0.106 C 
HETATM   10  N3  UNL     1      46.047 -48.855   7.292  1.00  0.00    -0.191 NA
ENDROOT
BRANCH   1  11
HETATM   11  O1  UNL     1      44.788 -47.365   4.390  1.00  0.00    -0.329 OA
BRANCH  11  12
HETATM   12  C5  UNL     1      45.132 -47.215   3.036  1.00  0.00     0.127 C 
HETATM   13  C6  UNL     1      43.950 -46.917   2.148  1.00  0.00     0.040 C 
BRANCH  12  14
HETATM   14  C4  UNL     1      45.692 -48.566   2.562  1.00  0.00     0.036 C 
BRANCH  14  15
HETATM   15  C3  UNL     1      46.321 -49.302   3.728  1.00  0.00     0.029 C 
BRANCH  15  16
HETATM   16  C2  UNL     1      47.106 -50.461   3.190  1.00  0.00    -0.037 C 
HETATM   17  C1  UNL     1      47.554 -50.481   1.954  1.00  0.00     0.007 C 
ENDBRANCH  15  16
ENDBRANCH  14  15
ENDBRANCH  12  14
ENDBRANCH  11  12
ENDBRANCH   1  11
BRANCH   7  18
HETATM   18  C14 UNL     1      45.540 -45.815   8.975  1.00  0.00     0.029 C 
HETATM   19  C15 UNL     1      46.352 -44.583   9.400  1.00  0.00     0.016 C 
HETATM   20  C16 UNL     1      44.386 -45.990   9.927  1.00  0.00     0.016 C 
ENDBRANCH   7  18
BRANCH   4  21
HETATM   21  S1  UNL     1      43.582 -42.527   5.485  1.00  0.00    -0.089 SA
BRANCH  21  22
HETATM   22  C9  UNL     1      43.068 -41.539   6.879  1.00  0.00     0.051 C 
HETATM   23  C10 UNL     1      41.681 -41.870   7.381  1.00  0.00     0.022 C 
BRANCH  22  24
HETATM   24  C11 UNL     1      43.154 -40.053   6.572  1.00  0.00     0.011 C 
HETATM   25  C12 UNL     1      42.110 -39.661   5.552  1.00  0.00     0.006 C 
ENDBRANCH  22  24
ENDBRANCH  21  22
ENDBRANCH   4  21
TORSDOF 9
ENDMDL
