MODEL 1
REMARK VINA RESULT: -8.329245807      0.000      0.000
REMARK  9 active torsions:
REMARK  status: ('A' for Active; 'I' for Inactive)
REMARK    1  A    between atoms: C2_2  and  C3_4 
REMARK    2  A    between atoms: C3_4  and  C16_21 
REMARK    3  A    between atoms: N1_5  and  O2_7 
REMARK    4  A    between atoms: O2_7  and  C4_8 
REMARK    5  A    between atoms: C4_8  and  C5_9 
REMARK    6  A    between atoms: C4_8  and  C10_15 
REMARK    7  A    between atoms: C5_9  and  O3_10 
REMARK    8  A    between atoms: O3_10  and  C6_11 
REMARK    9  A    between atoms: C6_11  and  C7_12 
ROOT
HETATM    1  C4  UNL     1      44.333 -43.083   6.025  1.00  0.00     0.180 C 
ENDROOT
BRANCH   1   2
HETATM    2  O2  UNL     1      43.727 -44.206   5.385  1.00  0.00    -0.272 OA
BRANCH   2   3
HETATM    3  N1  UNL     1      44.301 -45.401   5.232  1.00  0.00    -0.262 N 
HETATM    4  C3  UNL     1      44.504 -45.845   3.990  1.00  0.00     0.111 C 
ATOM      5  H1  UNL     1      44.575 -45.959   6.040  1.00  0.00     0.194 HD
BRANCH   4   6
HETATM    6  C2  UNL     1      44.115 -45.054   2.883  1.00  0.00     0.174 C 
HETATM    7  C1  UNL     1      44.689 -43.783   2.469  1.00  0.00     0.098 C 
HETATM    8  O1  UNL     1      43.144 -45.478   2.133  1.00  0.00    -0.291 OA
ENDBRANCH   4   6
BRANCH   4   9
HETATM    9  C16 UNL     1      45.134 -47.157   3.952  1.00  0.00     0.020 A 
HETATM   10  C17 UNL     1      45.531 -47.874   5.112  1.00  0.00     0.040 A 
HETATM   11  C18 UNL     1      46.078 -49.052   4.660  1.00  0.00     0.142 A 
HETATM   12  O4  UNL     1      46.024 -49.062   3.369  1.00  0.00    -0.334 OA
HETATM   13  C19 UNL     1      45.468 -47.947   2.913  1.00  0.00     0.155 A 
ENDBRANCH   4   9
ENDBRANCH   2   3
ENDBRANCH   1   2
BRANCH   1  14
HETATM   14  C5  UNL     1      45.203 -43.560   7.142  1.00  0.00     0.202 C 
BRANCH  14  15
HETATM   15  O3  UNL     1      44.505 -44.317   8.077  1.00  0.00    -0.388 OA
BRANCH  15  16
HETATM   16  C6  UNL     1      45.430 -45.106   8.742  1.00  0.00     0.171 C 
BRANCH  16  17
HETATM   17  C7  UNL     1      44.845 -46.413   9.231  1.00  0.00     0.001 C 
HETATM   18  C8  UNL     1      44.638 -46.384  10.731  1.00  0.00     0.011 C 
HETATM   19  C9  UNL     1      45.692 -47.589   8.853  1.00  0.00     0.011 C 
ENDBRANCH  16  17
ENDBRANCH  15  16
ENDBRANCH  14  15
ENDBRANCH   1  14
BRANCH   1  20
HETATM   20  C10 UNL     1      43.218 -42.181   6.439  1.00  0.00     0.019 C 
HETATM   21  C11 UNL     1      43.347 -40.831   5.814  1.00  0.00     0.007 C 
HETATM   22  C12 UNL     1      41.955 -40.255   5.664  1.00  0.00     0.000 C 
HETATM   23  C13 UNL     1      41.213 -40.466   6.976  1.00  0.00     0.000 C 
HETATM   24  C14 UNL     1      40.922 -41.958   7.190  1.00  0.00     0.000 C 
HETATM   25  C15 UNL     1      41.841 -42.777   6.270  1.00  0.00     0.007 C 
ENDBRANCH   1  20
TORSDOF 9
ENDMDL
MODEL 2
REMARK VINA RESULT: -8.274399131      3.443      5.404
REMARK  9 active torsions:
REMARK  status: ('A' for Active; 'I' for Inactive)
REMARK    1  A    between atoms: C2_2  and  C3_4 
REMARK    2  A    between atoms: C3_4  and  C16_21 
REMARK    3  A    between atoms: N1_5  and  O2_7 
REMARK    4  A    between atoms: O2_7  and  C4_8 
REMARK    5  A    between atoms: C4_8  and  C5_9 
REMARK    6  A    between atoms: C4_8  and  C10_15 
REMARK    7  A    between atoms: C5_9  and  O3_10 
REMARK    8  A    between atoms: O3_10  and  C6_11 
REMARK    9  A    between atoms: C6_11  and  C7_12 
ROOT
HETATM    1  C4  UNL     1      45.702 -47.703   6.253  1.00  0.00     0.180 C 
ENDROOT
BRANCH   1   2
HETATM    2  O2  UNL     1      46.448 -48.664   5.507  1.00  0.00    -0.272 OA
BRANCH   2   3
HETATM    3  N1  UNL     1      47.312 -49.537   6.030  1.00  0.00    -0.262 N 
HETATM    4  C3  UNL     1      48.185 -50.124   5.210  1.00  0.00     0.111 C 
ATOM      5  H1  UNL     1      47.305 -49.748   7.028  1.00  0.00     0.194 HD
BRANCH   4   6
HETATM    6  C2  UNL     1      48.177 -49.815   3.828  1.00  0.00     0.174 C 
HETATM    7  C1  UNL     1      47.286 -50.359   2.815  1.00  0.00     0.098 C 
HETATM    8  O1  UNL     1      49.044 -48.959   3.383  1.00  0.00    -0.291 OA
ENDBRANCH   4   6
BRANCH   4   9
HETATM    9  C16 UNL     1      49.072 -51.053   5.896  1.00  0.00     0.020 A 
HETATM   10  C17 UNL     1      48.994 -51.337   7.285  1.00  0.00     0.040 A 
HETATM   11  C18 UNL     1      49.989 -52.250   7.541  1.00  0.00     0.142 A 
HETATM   12  O4  UNL     1      50.611 -52.502   6.437  1.00  0.00    -0.334 OA
HETATM   13  C19 UNL     1      50.090 -51.805   5.435  1.00  0.00     0.155 A 
ENDBRANCH   4   9
ENDBRANCH   2   3
ENDBRANCH   1   2
BRANCH   1  14
HETATM   14  C5  UNL     1      44.917 -48.402   7.316  1.00  0.00     0.202 C 
BRANCH  14  15
HETATM   15  O3  UNL     1      45.571 -48.410   8.543  1.00  0.00    -0.388 OA
BRANCH  15  16
HETATM   16  C6  UNL     1      45.937 -47.103   8.823  1.00  0.00     0.171 C 
BRANCH  16  17
HETATM   17  C7  UNL     1      44.793 -46.274   9.363  1.00  0.00     0.001 C 
HETATM   18  C8  UNL     1      45.000 -44.804   9.059  1.00  0.00     0.011 C 
HETATM   19  C9  UNL     1      44.596 -46.470  10.835  1.00  0.00     0.011 C 
ENDBRANCH  16  17
ENDBRANCH  15  16
ENDBRANCH  14  15
ENDBRANCH   1  14
BRANCH   1  20
HETATM   20  C10 UNL     1      44.882 -46.945   5.263  1.00  0.00     0.019 C 
HETATM   21  C11 UNL     1      45.003 -45.471   5.469  1.00  0.00     0.007 C 
HETATM   22  C12 UNL     1      44.793 -44.797   4.129  1.00  0.00     0.000 C 
HETATM   23  C13 UNL     1      43.567 -45.420   3.476  1.00  0.00     0.000 C 
HETATM   24  C14 UNL     1      43.861 -46.869   3.064  1.00  0.00     0.000 C 
HETATM   25  C15 UNL     1      45.102 -47.357   3.827  1.00  0.00     0.007 C 
ENDBRANCH   1  20
TORSDOF 9
ENDMDL
MODEL 3
REMARK VINA RESULT: -8.143050548      2.158      6.672
REMARK  9 active torsions:
REMARK  status: ('A' for Active; 'I' for Inactive)
REMARK    1  A    between atoms: C2_2  and  C3_4 
REMARK    2  A    between atoms: C3_4  and  C16_21 
REMARK    3  A    between atoms: N1_5  and  O2_7 
REMARK    4  A    between atoms: O2_7  and  C4_8 
REMARK    5  A    between atoms: C4_8  and  C5_9 
REMARK    6  A    between atoms: C4_8  and  C10_15 
REMARK    7  A    between atoms: C5_9  and  O3_10 
REMARK    8  A    between atoms: O3_10  and  C6_11 
REMARK    9  A    between atoms: C6_11  and  C7_12 
ROOT
HETATM    1  C4  UNL     1      46.255 -48.864   6.238  1.00  0.00     0.180 C 
ENDROOT
BRANCH   1   2
HETATM    2  O2  UNL     1      45.882 -47.785   5.381  1.00  0.00    -0.272 OA
BRANCH   2   3
HETATM    3  N1  UNL     1      45.279 -46.664   5.780  1.00  0.00    -0.262 N 
HETATM    4  C3  UNL     1      44.847 -45.816   4.844  1.00  0.00     0.111 C 
ATOM      5  H1  UNL     1      45.151 -46.460   6.771  1.00  0.00     0.194 HD
BRANCH   4   6
HETATM    6  C2  UNL     1      45.035 -46.119   3.474  1.00  0.00     0.174 C 
HETATM    7  C1  UNL     1      44.164 -46.918   2.626  1.00  0.00     0.098 C 
HETATM    8  O1  UNL     1      46.087 -45.649   2.877  1.00  0.00    -0.291 OA
ENDBRANCH   4   6
BRANCH   4   9
HETATM    9  C16 UNL     1      44.209 -44.632   5.401  1.00  0.00     0.020 A 
HETATM   10  C17 UNL     1      44.572 -44.054   6.647  1.00  0.00     0.040 A 
HETATM   11  C18 UNL     1      43.747 -42.967   6.813  1.00  0.00     0.142 A 
HETATM   12  O4  UNL     1      42.965 -42.882   5.788  1.00  0.00    -0.334 OA
HETATM   13  C19 UNL     1      43.213 -43.860   4.926  1.00  0.00     0.155 A 
ENDBRANCH   4   9
ENDBRANCH   2   3
ENDBRANCH   1   2
BRANCH   1  14
HETATM   14  C5  UNL     1      46.469 -48.344   7.623  1.00  0.00     0.202 C 
BRANCH  14  15
HETATM   15  O3  UNL     1      45.300 -48.331   8.375  1.00  0.00    -0.388 OA
BRANCH  15  16
HETATM   16  C6  UNL     1      45.603 -47.754   9.598  1.00  0.00     0.171 C 
BRANCH  16  17
HETATM   17  C7  UNL     1      44.953 -46.401   9.787  1.00  0.00     0.001 C 
HETATM   18  C8  UNL     1      45.967 -45.288   9.628  1.00  0.00     0.011 C 
HETATM   19  C9  UNL     1      44.266 -46.283  11.114  1.00  0.00     0.011 C 
ENDBRANCH  16  17
ENDBRANCH  15  16
ENDBRANCH  14  15
ENDBRANCH   1  14
BRANCH   1  20
HETATM   20  C10 UNL     1      47.451 -49.504   5.615  1.00  0.00     0.019 C 
HETATM   21  C11 UNL     1      48.234 -50.287   6.616  1.00  0.00     0.007 C 
HETATM   22  C12 UNL     1      48.928 -51.415   5.881  1.00  0.00     0.000 C 
HETATM   23  C13 UNL     1      49.574 -50.835   4.631  1.00  0.00     0.000 C 
HETATM   24  C14 UNL     1      48.497 -50.410   3.623  1.00  0.00     0.000 C 
HETATM   25  C15 UNL     1      47.153 -50.287   4.359  1.00  0.00     0.007 C 
ENDBRANCH   1  20
TORSDOF 9
ENDMDL
MODEL 4
REMARK VINA RESULT: -8.142427327      1.628      4.678
REMARK  9 active torsions:
REMARK  status: ('A' for Active; 'I' for Inactive)
REMARK    1  A    between atoms: C2_2  and  C3_4 
REMARK    2  A    between atoms: C3_4  and  C16_21 
REMARK    3  A    between atoms: N1_5  and  O2_7 
REMARK    4  A    between atoms: O2_7  and  C4_8 
REMARK    5  A    between atoms: C4_8  and  C5_9 
REMARK    6  A    between atoms: C4_8  and  C10_15 
REMARK    7  A    between atoms: C5_9  and  O3_10 
REMARK    8  A    between atoms: O3_10  and  C6_11 
REMARK    9  A    between atoms: C6_11  and  C7_12 
ROOT
HETATM    1  C4  UNL     1      43.672 -43.513   4.891  1.00  0.00     0.180 C 
ENDROOT
BRANCH   1   2
HETATM    2  O2  UNL     1      44.569 -43.853   5.948  1.00  0.00    -0.272 OA
BRANCH   2   3
HETATM    3  N1  UNL     1      44.773 -45.088   6.412  1.00  0.00    -0.262 N 
HETATM    4  C3  UNL     1      44.970 -45.241   7.723  1.00  0.00     0.111 C 
ATOM      5  H1  UNL     1      44.777 -45.890   5.783  1.00  0.00     0.194 HD
BRANCH   4   6
HETATM    6  C2  UNL     1      44.959 -44.112   8.577  1.00  0.00     0.174 C 
HETATM    7  C1  UNL     1      43.796 -43.489   9.191  1.00  0.00     0.098 C 
HETATM    8  O1  UNL     1      46.091 -43.547   8.865  1.00  0.00    -0.291 OA
ENDBRANCH   4   6
BRANCH   4   9
HETATM    9  C16 UNL     1      45.181 -46.630   8.107  1.00  0.00     0.020 A 
HETATM   10  C17 UNL     1      45.567 -47.037   9.411  1.00  0.00     0.040 A 
HETATM   11  C18 UNL     1      45.660 -48.407   9.367  1.00  0.00     0.142 A 
HETATM   12  O4  UNL     1      45.364 -48.803   8.174  1.00  0.00    -0.334 OA
HETATM   13  C19 UNL     1      45.073 -47.768   7.395  1.00  0.00     0.155 A 
ENDBRANCH   4   9
ENDBRANCH   2   3
ENDBRANCH   1   2
BRANCH   1  14
HETATM   14  C5  UNL     1      44.451 -43.274   3.638  1.00  0.00     0.202 C 
BRANCH  14  15
HETATM   15  O3  UNL     1      44.161 -44.203   2.644  1.00  0.00    -0.388 OA
BRANCH  15  16
HETATM   16  C6  UNL     1      45.004 -45.287   2.835  1.00  0.00     0.171 C 
BRANCH  16  17
HETATM   17  C7  UNL     1      44.259 -46.598   2.959  1.00  0.00     0.001 C 
HETATM   18  C8  UNL     1      45.206 -47.772   2.828  1.00  0.00     0.011 C 
HETATM   19  C9  UNL     1      43.153 -46.717   1.954  1.00  0.00     0.011 C 
ENDBRANCH  16  17
ENDBRANCH  15  16
ENDBRANCH  14  15
ENDBRANCH   1  14
BRANCH   1  20
HETATM   20  C10 UNL     1      42.879 -42.343   5.370  1.00  0.00     0.019 C 
HETATM   21  C11 UNL     1      41.778 -42.767   6.285  1.00  0.00     0.007 C 
HETATM   22  C12 UNL     1      41.507 -41.626   7.243  1.00  0.00     0.000 C 
HETATM   23  C13 UNL     1      41.429 -40.339   6.434  1.00  0.00     0.000 C 
HETATM   24  C14 UNL     1      42.813 -39.972   5.881  1.00  0.00     0.000 C 
HETATM   25  C15 UNL     1      43.712 -41.217   5.935  1.00  0.00     0.007 C 
ENDBRANCH   1  20
TORSDOF 9
ENDMDL
MODEL 5
REMARK VINA RESULT: -8.115688207      3.302      6.035
REMARK  9 active torsions:
REMARK  status: ('A' for Active; 'I' for Inactive)
REMARK    1  A    between atoms: C2_2  and  C3_4 
REMARK    2  A    between atoms: C3_4  and  C16_21 
REMARK    3  A    between atoms: N1_5  and  O2_7 
REMARK    4  A    between atoms: O2_7  and  C4_8 
REMARK    5  A    between atoms: C4_8  and  C5_9 
REMARK    6  A    between atoms: C4_8  and  C10_15 
REMARK    7  A    between atoms: C5_9  and  O3_10 
REMARK    8  A    between atoms: O3_10  and  C6_11 
REMARK    9  A    between atoms: C6_11  and  C7_12 
ROOT
HETATM    1  C4  UNL     1      44.970 -47.071   6.265  1.00  0.00     0.180 C 
ENDROOT
BRANCH   1   2
HETATM    2  O2  UNL     1      46.026 -48.006   6.046  1.00  0.00    -0.272 OA
BRANCH   2   3
HETATM    3  N1  UNL     1      46.419 -48.451   4.851  1.00  0.00    -0.262 N 
HETATM    4  C3  UNL     1      47.199 -49.533   4.810  1.00  0.00     0.111 C 
ATOM      5  H1  UNL     1      46.131 -47.978   3.995  1.00  0.00     0.194 HD
BRANCH   4   6
HETATM    6  C2  UNL     1      47.586 -50.173   6.012  1.00  0.00     0.174 C 
HETATM    7  C1  UNL     1      48.302 -49.578   7.130  1.00  0.00     0.098 C 
HETATM    8  O1  UNL     1      47.285 -51.426   6.167  1.00  0.00    -0.291 OA
ENDBRANCH   4   6
BRANCH   4   9
HETATM    9  C16 UNL     1      47.562 -49.920   3.454  1.00  0.00     0.020 A 
HETATM   10  C17 UNL     1      48.870 -50.319   3.071  1.00  0.00     0.040 A 
HETATM   11  C18 UNL     1      48.801 -50.600   1.728  1.00  0.00     0.142 A 
HETATM   12  O4  UNL     1      47.590 -50.399   1.326  1.00  0.00    -0.334 OA
HETATM   13  C19 UNL     1      46.824 -49.992   2.330  1.00  0.00     0.155 A 
ENDBRANCH   4   9
ENDBRANCH   2   3
ENDBRANCH   1   2
BRANCH   1  14
HETATM   14  C5  UNL     1      45.279 -45.798   5.545  1.00  0.00     0.202 C 
BRANCH  14  15
HETATM   15  O3  UNL     1      45.246 -45.945   4.163  1.00  0.00    -0.388 OA
BRANCH  15  16
HETATM   16  C6  UNL     1      43.915 -46.050   3.792  1.00  0.00     0.171 C 
BRANCH  16  17
HETATM   17  C7  UNL     1      43.539 -45.104   2.672  1.00  0.00     0.001 C 
HETATM   18  C8  UNL     1      43.215 -45.868   1.406  1.00  0.00     0.011 C 
HETATM   19  C9  UNL     1      44.612 -44.094   2.401  1.00  0.00     0.011 C 
ENDBRANCH  16  17
ENDBRANCH  15  16
ENDBRANCH  14  15
ENDBRANCH   1  14
BRANCH   1  20
HETATM   20  C10 UNL     1      44.825 -46.936   7.744  1.00  0.00     0.019 C 
HETATM   21  C11 UNL     1      45.241 -48.185   8.449  1.00  0.00     0.007 C 
HETATM   22  C12 UNL     1      45.748 -47.796   9.822  1.00  0.00     0.000 C 
HETATM   23  C13 UNL     1      44.750 -46.821  10.433  1.00  0.00     0.000 C 
HETATM   24  C14 UNL     1      44.787 -45.482   9.685  1.00  0.00     0.000 C 
HETATM   25  C15 UNL     1      45.463 -45.696   8.322  1.00  0.00     0.007 C 
ENDBRANCH   1  20
TORSDOF 9
ENDMDL
