MODEL 1
REMARK VINA RESULT: -8.289192288      0.000      0.000
REMARK  8 active torsions:
REMARK  status: ('A' for Active; 'I' for Inactive)
REMARK    1  A    between atoms: C2_2  and  C3_3 
REMARK    2  A    between atoms: C3_3  and  C4_4 
REMARK    3  A    between atoms: C4_4  and  C5_5 
REMARK    4  A    between atoms: C6_6  and  C7_7 
REMARK    5  A    between atoms: C10_10  and  O1_11 
REMARK    6  A    between atoms: C12_15  and  O2_16 
REMARK    7  A    between atoms: C16_20  and  O3_21 
REMARK    8  A    between atoms: C18_23  and  O4_24 
ROOT
HETATM    1  C7  UNL     1      45.112 -46.400   6.553  1.00  0.00     0.001 A 
HETATM    2  C8  UNL     1      44.874 -46.321   5.174  1.00  0.00     0.031 A 
HETATM    3  C9  UNL     1      45.335 -47.328   4.339  1.00  0.00     0.029 A 
HETATM    4  C10 UNL     1      45.117 -47.280   2.971  1.00  0.00     0.155 A 
HETATM    5  N1  UNL     1      45.569 -48.264   2.174  1.00  0.00    -0.317 N 
ATOM      6  H1  UNL     1      45.391 -48.195   1.172  1.00  0.00     0.170 HD
HETATM    7  C12 UNL     1      46.245 -49.334   2.629  1.00  0.00     0.144 A 
HETATM    8  C14 UNL     1      46.476 -49.406   3.987  1.00  0.00     0.071 A 
HETATM    9  C15 UNL     1      46.021 -48.402   4.847  1.00  0.00     0.019 A 
HETATM   10  C16 UNL     1      46.245 -48.463   6.207  1.00  0.00     0.113 A 
HETATM   11  C18 UNL     1      45.808 -47.489   7.068  1.00  0.00     0.112 A 
ENDROOT
BRANCH   1  12
HETATM   12  C6  UNL     1      44.673 -45.404   7.493  1.00  0.00     0.010 C 
HETATM   13  C5  UNL     1      44.780 -44.128   7.252  1.00  0.00    -0.025 C 
BRANCH  13  14
HETATM   14  C4  UNL     1      44.326 -43.073   8.220  1.00  0.00     0.031 C 
BRANCH  14  15
HETATM   15  C3  UNL     1      43.630 -41.950   7.516  1.00  0.00     0.030 C 
BRANCH  15  16
HETATM   16  C2  UNL     1      42.709 -42.496   6.467  1.00  0.00    -0.037 C 
HETATM   17  C1  UNL     1      41.398 -42.467   6.634  1.00  0.00     0.007 C 
ENDBRANCH  15  16
ENDBRANCH  14  15
ENDBRANCH  13  14
ENDBRANCH   1  12
BRANCH  11  18
HETATM   18  O4  UNL     1      46.049 -47.588   8.399  1.00  0.00    -0.352 OA
HETATM   19  C19 UNL     1      45.366 -48.408   9.313  1.00  0.00     0.210 C 
ENDBRANCH  11  18
BRANCH  10  20
HETATM   20  O3  UNL     1      46.951 -49.589   6.648  1.00  0.00    -0.352 OA
HETATM   21  C17 UNL     1      48.269 -49.525   7.110  1.00  0.00     0.210 C 
ENDBRANCH  10  20
BRANCH   4  22
HETATM   22  O1  UNL     1      44.420 -46.178   2.494  1.00  0.00    -0.340 OA
HETATM   23  C11 UNL     1      43.213 -46.374   1.753  1.00  0.00     0.211 C 
ENDBRANCH   4  22
BRANCH   7  24
HETATM   24  O2  UNL     1      46.705 -50.347   1.763  1.00  0.00    -0.341 OA
HETATM   25  C13 UNL     1      48.063 -50.717   1.738  1.00  0.00     0.211 C 
ENDBRANCH   7  24
TORSDOF 8
ENDMDL
MODEL 2
REMARK VINA RESULT: -8.126353640      1.554      2.436
REMARK  8 active torsions:
REMARK  status: ('A' for Active; 'I' for Inactive)
REMARK    1  A    between atoms: C2_2  and  C3_3 
REMARK    2  A    between atoms: C3_3  and  C4_4 
REMARK    3  A    between atoms: C4_4  and  C5_5 
REMARK    4  A    between atoms: C6_6  and  C7_7 
REMARK    5  A    between atoms: C10_10  and  O1_11 
REMARK    6  A    between atoms: C12_15  and  O2_16 
REMARK    7  A    between atoms: C16_20  and  O3_21 
REMARK    8  A    between atoms: C18_23  and  O4_24 
ROOT
HETATM    1  C7  UNL     1      44.147 -44.214   5.914  1.00  0.00     0.001 A 
HETATM    2  C8  UNL     1      44.100 -44.537   4.551  1.00  0.00     0.031 A 
HETATM    3  C9  UNL     1      44.585 -45.763   4.119  1.00  0.00     0.029 A 
HETATM    4  C10 UNL     1      44.553 -46.113   2.779  1.00  0.00     0.155 A 
HETATM    5  N1  UNL     1      45.026 -47.306   2.375  1.00  0.00    -0.317 N 
ATOM      6  H1  UNL     1      44.987 -47.530   1.381  1.00  0.00     0.170 HD
HETATM    7  C12 UNL     1      45.548 -48.218   3.214  1.00  0.00     0.144 A 
HETATM    8  C14 UNL     1      45.592 -47.894   4.554  1.00  0.00     0.071 A 
HETATM    9  C15 UNL     1      45.109 -46.664   5.012  1.00  0.00     0.019 A 
HETATM   10  C16 UNL     1      45.146 -46.328   6.348  1.00  0.00     0.113 A 
HETATM   11  C18 UNL     1      44.679 -45.127   6.818  1.00  0.00     0.112 A 
ENDROOT
BRANCH   1  12
HETATM   12  C6  UNL     1      43.669 -42.967   6.450  1.00  0.00     0.010 C 
HETATM   13  C5  UNL     1      43.668 -41.867   5.754  1.00  0.00    -0.025 C 
BRANCH  13  14
HETATM   14  C4  UNL     1      43.173 -40.557   6.297  1.00  0.00     0.031 C 
BRANCH  14  15
HETATM   15  C3  UNL     1      41.782 -40.263   5.826  1.00  0.00     0.030 C 
BRANCH  15  16
HETATM   16  C2  UNL     1      40.793 -40.627   6.891  1.00  0.00    -0.037 C 
HETATM   17  C1  UNL     1      40.080 -41.737   6.806  1.00  0.00     0.007 C 
ENDBRANCH  15  16
ENDBRANCH  14  15
ENDBRANCH  13  14
ENDBRANCH   1  12
BRANCH  11  18
HETATM   18  O4  UNL     1      44.734 -44.837   8.142  1.00  0.00    -0.352 OA
HETATM   19  C19 UNL     1      45.848 -44.346   8.843  1.00  0.00     0.210 C 
ENDBRANCH  11  18
BRANCH  10  20
HETATM   20  O3  UNL     1      45.695 -47.299   7.195  1.00  0.00    -0.352 OA
HETATM   21  C17 UNL     1      44.913 -48.169   7.960  1.00  0.00     0.210 C 
ENDBRANCH  10  20
BRANCH   4  22
HETATM   22  O1  UNL     1      44.016 -45.176   1.907  1.00  0.00    -0.340 OA
HETATM   23  C11 UNL     1      43.030 -45.584   0.954  1.00  0.00     0.211 C 
ENDBRANCH   4  22
BRANCH   7  24
HETATM   24  O2  UNL     1      46.035 -49.459   2.755  1.00  0.00    -0.341 OA
HETATM   25  C13 UNL     1      46.853 -50.262   3.571  1.00  0.00     0.211 C 
ENDBRANCH   7  24
TORSDOF 8
ENDMDL
MODEL 3
REMARK VINA RESULT: -8.087901868      1.481      2.121
REMARK  8 active torsions:
REMARK  status: ('A' for Active; 'I' for Inactive)
REMARK    1  A    between atoms: C2_2  and  C3_3 
REMARK    2  A    between atoms: C3_3  and  C4_4 
REMARK    3  A    between atoms: C4_4  and  C5_5 
REMARK    4  A    between atoms: C6_6  and  C7_7 
REMARK    5  A    between atoms: C10_10  and  O1_11 
REMARK    6  A    between atoms: C12_15  and  O2_16 
REMARK    7  A    between atoms: C16_20  and  O3_21 
REMARK    8  A    between atoms: C18_23  and  O4_24 
ROOT
HETATM    1  C7  UNL     1      44.222 -44.672   5.907  1.00  0.00     0.001 A 
HETATM    2  C8  UNL     1      44.180 -44.914   4.527  1.00  0.00     0.031 A 
HETATM    3  C9  UNL     1      44.686 -46.104   4.023  1.00  0.00     0.029 A 
HETATM    4  C10 UNL     1      44.660 -46.373   2.664  1.00  0.00     0.155 A 
HETATM    5  N1  UNL     1      45.154 -47.532   2.190  1.00  0.00    -0.317 N 
ATOM      6  H1  UNL     1      45.118 -47.697   1.185  1.00  0.00     0.170 HD
HETATM    7  C12 UNL     1      45.691 -48.483   2.974  1.00  0.00     0.144 A 
HETATM    8  C14 UNL     1      45.729 -48.239   4.331  1.00  0.00     0.071 A 
HETATM    9  C15 UNL     1      45.226 -47.047   4.861  1.00  0.00     0.019 A 
HETATM   10  C16 UNL     1      45.257 -46.791   6.215  1.00  0.00     0.113 A 
HETATM   11  C18 UNL     1      44.769 -45.629   6.756  1.00  0.00     0.112 A 
ENDROOT
BRANCH   1  12
HETATM   12  C6  UNL     1      43.722 -43.469   6.517  1.00  0.00     0.010 C 
HETATM   13  C5  UNL     1      42.497 -43.060   6.344  1.00  0.00    -0.025 C 
BRANCH  13  14
HETATM   14  C4  UNL     1      41.958 -41.807   6.972  1.00  0.00     0.031 C 
BRANCH  14  15
HETATM   15  C3  UNL     1      43.057 -40.844   7.298  1.00  0.00     0.030 C 
BRANCH  15  16
HETATM   16  C2  UNL     1      43.203 -39.841   6.195  1.00  0.00    -0.037 C 
HETATM   17  C1  UNL     1      42.145 -39.392   5.541  1.00  0.00     0.007 C 
ENDBRANCH  15  16
ENDBRANCH  14  15
ENDBRANCH  13  14
ENDBRANCH   1  12
BRANCH  11  18
HETATM   18  O4  UNL     1      44.820 -45.417   8.094  1.00  0.00    -0.352 OA
HETATM   19  C19 UNL     1      45.882 -44.838   8.809  1.00  0.00     0.210 C 
ENDBRANCH  11  18
BRANCH  10  20
HETATM   20  O3  UNL     1      45.823 -47.802   7.003  1.00  0.00    -0.352 OA
HETATM   21  C17 UNL     1      45.082 -48.557   7.916  1.00  0.00     0.210 C 
ENDBRANCH  10  20
BRANCH   4  22
HETATM   22  O1  UNL     1      44.106 -45.396   1.849  1.00  0.00    -0.340 OA
HETATM   23  C11 UNL     1      42.969 -45.712   1.041  1.00  0.00     0.211 C 
ENDBRANCH   4  22
BRANCH   7  24
HETATM   24  O2  UNL     1      46.199 -49.686   2.442  1.00  0.00    -0.341 OA
HETATM   25  C13 UNL     1      47.398 -50.242   2.927  1.00  0.00     0.211 C 
ENDBRANCH   7  24
TORSDOF 8
ENDMDL
MODEL 4
REMARK VINA RESULT: -7.977636623      2.308      4.890
REMARK  8 active torsions:
REMARK  status: ('A' for Active; 'I' for Inactive)
REMARK    1  A    between atoms: C2_2  and  C3_3 
REMARK    2  A    between atoms: C3_3  and  C4_4 
REMARK    3  A    between atoms: C4_4  and  C5_5 
REMARK    4  A    between atoms: C6_6  and  C7_7 
REMARK    5  A    between atoms: C10_10  and  O1_11 
REMARK    6  A    between atoms: C12_15  and  O2_16 
REMARK    7  A    between atoms: C16_20  and  O3_21 
REMARK    8  A    between atoms: C18_23  and  O4_24 
ROOT
HETATM    1  C7  UNL     1      44.011 -43.731   5.564  1.00  0.00     0.001 A 
HETATM    2  C8  UNL     1      44.369 -44.318   6.785  1.00  0.00     0.031 A 
HETATM    3  C9  UNL     1      44.861 -45.615   6.804  1.00  0.00     0.029 A 
HETATM    4  C10 UNL     1      45.224 -46.225   7.995  1.00  0.00     0.155 A 
HETATM    5  N1  UNL     1      45.701 -47.483   7.998  1.00  0.00    -0.317 N 
ATOM      6  H1  UNL     1      45.957 -47.900   8.892  1.00  0.00     0.170 HD
HETATM    7  C12 UNL     1      45.856 -48.218   6.883  1.00  0.00     0.144 A 
HETATM    8  C14 UNL     1      45.502 -47.634   5.685  1.00  0.00     0.071 A 
HETATM    9  C15 UNL     1      45.004 -46.329   5.641  1.00  0.00     0.019 A 
HETATM   10  C16 UNL     1      44.647 -45.734   4.450  1.00  0.00     0.113 A 
HETATM   11  C18 UNL     1      44.155 -44.455   4.385  1.00  0.00     0.112 A 
ENDROOT
BRANCH   1  12
HETATM   12  C6  UNL     1      43.492 -42.394   5.449  1.00  0.00     0.010 C 
HETATM   13  C5  UNL     1      43.581 -41.529   6.419  1.00  0.00    -0.025 C 
BRANCH  13  14
HETATM   14  C4  UNL     1      43.046 -40.129   6.317  1.00  0.00     0.031 C 
BRANCH  14  15
HETATM   15  C3  UNL     1      41.616 -40.124   5.872  1.00  0.00     0.030 C 
BRANCH  15  16
HETATM   16  C2  UNL     1      40.731 -40.592   6.987  1.00  0.00    -0.037 C 
HETATM   17  C1  UNL     1      39.956 -41.652   6.839  1.00  0.00     0.007 C 
ENDBRANCH  15  16
ENDBRANCH  14  15
ENDBRANCH  13  14
ENDBRANCH   1  12
BRANCH  11  18
HETATM   18  O4  UNL     1      43.817 -43.907   3.192  1.00  0.00    -0.352 OA
HETATM   19  C19 UNL     1      44.702 -43.489   2.183  1.00  0.00     0.210 C 
ENDBRANCH  11  18
BRANCH  10  20
HETATM   20  O3  UNL     1      44.821 -46.527   3.308  1.00  0.00    -0.352 OA
HETATM   21  C17 UNL     1      43.753 -46.972   2.524  1.00  0.00     0.210 C 
ENDBRANCH  10  20
BRANCH   4  22
HETATM   22  O1  UNL     1      45.066 -45.472   9.150  1.00  0.00    -0.340 OA
HETATM   23  C11 UNL     1      44.909 -46.134  10.407  1.00  0.00     0.211 C 
ENDBRANCH   4  22
BRANCH   7  24
HETATM   24  O2  UNL     1      46.359 -49.535   6.924  1.00  0.00    -0.341 OA
HETATM   25  C13 UNL     1      47.457 -49.916   6.130  1.00  0.00     0.211 C 
ENDBRANCH   7  24
TORSDOF 8
ENDMDL
MODEL 5
REMARK VINA RESULT: -7.956600390     10.534     13.829
REMARK  8 active torsions:
REMARK  status: ('A' for Active; 'I' for Inactive)
REMARK    1  A    between atoms: C2_2  and  C3_3 
REMARK    2  A    between atoms: C3_3  and  C4_4 
REMARK    3  A    between atoms: C4_4  and  C5_5 
REMARK    4  A    between atoms: C6_6  and  C7_7 
REMARK    5  A    between atoms: C10_10  and  O1_11 
REMARK    6  A    between atoms: C12_15  and  O2_16 
REMARK    7  A    between atoms: C16_20  and  O3_21 
REMARK    8  A    between atoms: C18_23  and  O4_24 
ROOT
HETATM    1  C7  UNL     1      35.342 -43.799  10.250  1.00  0.00     0.001 A 
HETATM    2  C8  UNL     1      35.673 -42.841   9.282  1.00  0.00     0.031 A 
HETATM    3  C9  UNL     1      34.732 -41.895   8.903  1.00  0.00     0.029 A 
HETATM    4  C10 UNL     1      35.027 -40.934   7.950  1.00  0.00     0.155 A 
HETATM    5  N1  UNL     1      34.104 -40.022   7.593  1.00  0.00    -0.317 N 
ATOM      6  H1  UNL     1      34.356 -39.330   6.888  1.00  0.00     0.170 HD
HETATM    7  C12 UNL     1      32.867 -39.976   8.119  1.00  0.00     0.144 A 
HETATM    8  C14 UNL     1      32.548 -40.922   9.070  1.00  0.00     0.071 A 
HETATM    9  C15 UNL     1      33.481 -41.885   9.467  1.00  0.00     0.019 A 
HETATM   10  C16 UNL     1      33.174 -42.836  10.418  1.00  0.00     0.113 A 
HETATM   11  C18 UNL     1      34.074 -43.790  10.820  1.00  0.00     0.112 A 
ENDROOT
BRANCH   1  12
HETATM   12  C6  UNL     1      36.253 -44.817  10.702  1.00  0.00     0.010 C 
HETATM   13  C5  UNL     1      36.488 -45.896  10.011  1.00  0.00    -0.025 C 
BRANCH  13  14
HETATM   14  C4  UNL     1      37.435 -46.968  10.467  1.00  0.00     0.031 C 
BRANCH  14  15
HETATM   15  C3  UNL     1      36.967 -48.326  10.040  1.00  0.00     0.030 C 
BRANCH  15  16
HETATM   16  C2  UNL     1      36.601 -49.142  11.242  1.00  0.00    -0.037 C 
HETATM   17  C1  UNL     1      36.703 -50.460  11.224  1.00  0.00     0.007 C 
ENDBRANCH  15  16
ENDBRANCH  14  15
ENDBRANCH  13  14
ENDBRANCH   1  12
BRANCH  11  18
HETATM   18  O4  UNL     1      33.731 -44.706  11.759  1.00  0.00    -0.352 OA
HETATM   19  C19 UNL     1      33.927 -44.594  13.146  1.00  0.00     0.210 C 
ENDBRANCH  11  18
BRANCH  10  20
HETATM   20  O3  UNL     1      31.878 -42.760  10.944  1.00  0.00    -0.352 OA
HETATM   21  C17 UNL     1      31.582 -42.092  12.136  1.00  0.00     0.210 C 
ENDBRANCH  10  20
BRANCH   4  22
HETATM   22  O1  UNL     1      36.302 -40.975   7.403  1.00  0.00    -0.340 OA
HETATM   23  C11 UNL     1      36.941 -39.757   7.011  1.00  0.00     0.211 C 
ENDBRANCH   4  22
BRANCH   7  24
HETATM   24  O2  UNL     1      31.925 -39.006   7.720  1.00  0.00    -0.341 OA
HETATM   25  C13 UNL     1      30.585 -39.082   8.143  1.00  0.00     0.211 C 
ENDBRANCH   7  24
TORSDOF 8
ENDMDL
