MODEL 1
REMARK VINA RESULT: -5.979474806      0.000      0.000
REMARK  1 active torsions:
REMARK  status: ('A' for Active; 'I' for Inactive)
REMARK    1  A    between atoms: N2_4  and  N3_6 
ROOT
HETATM    1  N3  UNL     1     -29.433 -32.340   7.643  1.00  0.00    -0.269 N 
ATOM      2  H3  UNL     1     -29.023 -32.280   6.710  1.00  0.00     0.190 HD
HETATM    3  C1  UNL     1     -29.440 -31.324   8.428  1.00  0.00     0.137 C 
HETATM    4  C2  UNL     1     -28.823 -30.046   7.922  1.00  0.00     0.112 C 
HETATM    5  C3  UNL     1     -28.425 -29.249   9.142  1.00  0.00    -0.021 C 
HETATM    6  C4  UNL     1     -29.134 -29.270  10.262  1.00  0.00    -0.004 C 
HETATM    7  C5  UNL     1     -30.353 -30.121  10.265  1.00  0.00     0.204 C 
HETATM    8  O1  UNL     1     -29.990 -31.370   9.704  1.00  0.00    -0.334 OA
ENDROOT
BRANCH   1   9
HETATM    9  N2  UNL     1     -29.999 -33.522   8.100  1.00  0.00    -0.248 N 
HETATM   10  N1  UNL     1     -31.233 -33.727   7.957  1.00  0.00    -0.331 N 
ATOM     11  H12 UNL     1     -31.803 -33.013   7.502  1.00  0.00     0.178 HD
ATOM     12  H11 UNL     1     -31.649 -34.596   8.293  1.00  0.00     0.178 HD
ATOM     13  H2  UNL     1     -29.415 -34.225   8.553  1.00  0.00     0.207 HD
ENDBRANCH   1   9
TORSDOF 1
ENDMDL
MODEL 2
REMARK VINA RESULT: -5.824717273      2.145      2.866
REMARK  1 active torsions:
REMARK  status: ('A' for Active; 'I' for Inactive)
REMARK    1  A    between atoms: N2_4  and  N3_6 
ROOT
HETATM    1  N3  UNL     1     -28.861 -32.163  10.236  1.00  0.00    -0.269 N 
ATOM      2  H3  UNL     1     -29.443 -32.426  11.032  1.00  0.00     0.190 HD
HETATM    3  C1  UNL     1     -29.054 -31.056   9.614  1.00  0.00     0.137 C 
HETATM    4  C2  UNL     1     -30.166 -30.165  10.100  1.00  0.00     0.112 C 
HETATM    5  C3  UNL     1     -30.565 -29.298   8.929  1.00  0.00    -0.021 C 
HETATM    6  C4  UNL     1     -29.685 -28.868   8.036  1.00  0.00    -0.004 C 
HETATM    7  C5  UNL     1     -28.272 -29.280   8.239  1.00  0.00     0.204 C 
HETATM    8  O1  UNL     1     -28.279 -30.668   8.526  1.00  0.00    -0.334 OA
ENDROOT
BRANCH   1   9
HETATM    9  N2  UNL     1     -27.839 -32.991   9.794  1.00  0.00    -0.248 N 
HETATM   10  N1  UNL     1     -26.679 -32.870  10.270  1.00  0.00    -0.331 N 
ATOM     11  H12 UNL     1     -26.508 -32.157  10.980  1.00  0.00     0.178 HD
ATOM     12  H11 UNL     1     -25.928 -33.479   9.946  1.00  0.00     0.178 HD
ATOM     13  H2  UNL     1     -28.026 -33.698   9.084  1.00  0.00     0.207 HD
ENDBRANCH   1   9
TORSDOF 1
ENDMDL
MODEL 3
REMARK VINA RESULT: -5.759468896      1.166      1.539
REMARK  1 active torsions:
REMARK  status: ('A' for Active; 'I' for Inactive)
REMARK    1  A    between atoms: N2_4  and  N3_6 
ROOT
HETATM    1  N3  UNL     1     -30.042 -33.500   8.156  1.00  0.00    -0.269 N 
ATOM      2  H3  UNL     1     -29.368 -34.266   8.171  1.00  0.00     0.190 HD
HETATM    3  C1  UNL     1     -29.699 -32.310   8.495  1.00  0.00     0.137 C 
HETATM    4  C2  UNL     1     -28.270 -32.089   8.915  1.00  0.00     0.112 C 
HETATM    5  C3  UNL     1     -28.265 -30.856   9.789  1.00  0.00    -0.021 C 
HETATM    6  C4  UNL     1     -29.080 -29.833   9.572  1.00  0.00    -0.004 C 
HETATM    7  C5  UNL     1     -30.010 -29.954   8.419  1.00  0.00     0.204 C 
HETATM    8  O1  UNL     1     -30.592 -31.244   8.485  1.00  0.00    -0.334 OA
ENDROOT
BRANCH   1   9
HETATM    9  N2  UNL     1     -31.358 -33.714   7.768  1.00  0.00    -0.248 N 
HETATM   10  N1  UNL     1     -32.015 -34.666   8.264  1.00  0.00    -0.331 N 
ATOM     11  H12 UNL     1     -31.565 -35.272   8.951  1.00  0.00     0.178 HD
ATOM     12  H11 UNL     1     -32.981 -34.823   7.978  1.00  0.00     0.178 HD
ATOM     13  H2  UNL     1     -31.793 -33.099   7.080  1.00  0.00     0.207 HD
ENDBRANCH   1   9
TORSDOF 1
ENDMDL
MODEL 4
REMARK VINA RESULT: -5.565170615      1.871      2.480
REMARK  1 active torsions:
REMARK  status: ('A' for Active; 'I' for Inactive)
REMARK    1  A    between atoms: N2_4  and  N3_6 
ROOT
HETATM    1  N3  UNL     1     -31.068 -33.034   7.980  1.00  0.00    -0.269 N 
ATOM      2  H3  UNL     1     -31.653 -32.267   7.645  1.00  0.00     0.190 HD
HETATM    3  C1  UNL     1     -29.950 -32.805   8.569  1.00  0.00     0.137 C 
HETATM    4  C2  UNL     1     -29.536 -31.368   8.745  1.00  0.00     0.112 C 
HETATM    5  C3  UNL     1     -28.031 -31.370   8.887  1.00  0.00    -0.021 C 
HETATM    6  C4  UNL     1     -27.381 -32.349   9.498  1.00  0.00    -0.004 C 
HETATM    7  C5  UNL     1     -28.204 -33.460  10.044  1.00  0.00     0.204 C 
HETATM    8  O1  UNL     1     -29.131 -33.826   9.037  1.00  0.00    -0.334 OA
ENDROOT
BRANCH   1   9
HETATM    9  N2  UNL     1     -31.459 -34.355   7.812  1.00  0.00    -0.248 N 
HETATM   10  N1  UNL     1     -32.376 -34.837   8.529  1.00  0.00    -0.331 N 
ATOM     11  H12 UNL     1     -32.821 -34.243   9.228  1.00  0.00     0.178 HD
ATOM     12  H11 UNL     1     -32.663 -35.808   8.405  1.00  0.00     0.178 HD
ATOM     13  H2  UNL     1     -31.004 -34.936   7.109  1.00  0.00     0.207 HD
ENDBRANCH   1   9
TORSDOF 1
ENDMDL
MODEL 5
REMARK VINA RESULT: -5.493751060      1.611      2.321
REMARK  1 active torsions:
REMARK  status: ('A' for Active; 'I' for Inactive)
REMARK    1  A    between atoms: N2_4  and  N3_6 
ROOT
HETATM    1  N3  UNL     1     -29.620 -32.101  10.384  1.00  0.00    -0.269 N 
ATOM      2  H3  UNL     1     -30.093 -32.179  11.285  1.00  0.00     0.190 HD
HETATM    3  C1  UNL     1     -29.665 -31.011   9.707  1.00  0.00     0.137 C 
HETATM    4  C2  UNL     1     -30.440 -29.858  10.289  1.00  0.00     0.112 C 
HETATM    5  C3  UNL     1     -30.836 -28.978   9.127  1.00  0.00    -0.021 C 
HETATM    6  C4  UNL     1     -30.058 -28.813   8.067  1.00  0.00    -0.004 C 
HETATM    7  C5  UNL     1     -28.762 -29.541   8.071  1.00  0.00     0.204 C 
HETATM    8  O1  UNL     1     -29.032 -30.871   8.477  1.00  0.00    -0.334 OA
ENDROOT
BRANCH   1   9
HETATM    9  N2  UNL     1     -28.909 -33.170   9.856  1.00  0.00    -0.248 N 
HETATM   10  N1  UNL     1     -29.366 -33.804   8.869  1.00  0.00    -0.331 N 
ATOM     11  H12 UNL     1     -30.260 -33.520   8.470  1.00  0.00     0.178 HD
ATOM     12  H11 UNL     1     -28.843 -34.590   8.481  1.00  0.00     0.178 HD
ATOM     13  H2  UNL     1     -28.016 -33.441  10.267  1.00  0.00     0.207 HD
ENDBRANCH   1   9
TORSDOF 1
ENDMDL
