MODEL 1
REMARK VINA RESULT: -5.320140402      0.000      0.000
REMARK  2 active torsions:
REMARK  status: ('A' for Active; 'I' for Inactive)
REMARK    1  A    between atoms: N2_4  and  C2_5 
REMARK    2  A    between atoms: C2_5  and  C3_6 
ROOT
HETATM    1  C1  UNL     1     -30.941 -34.798   8.134  1.00  0.00     0.198 A 
HETATM    2  N1  UNL     1     -31.039 -33.472   7.877  1.00  0.00    -0.293 N 
ATOM      3  H1  UNL     1     -31.756 -33.044   7.291  1.00  0.00     0.188 HD
HETATM    4  N2  UNL     1     -30.071 -32.811   8.494  1.00  0.00    -0.286 N 
HETATM    5  C6  UNL     1     -29.360 -33.749   9.145  1.00  0.00     0.201 A 
HETATM    6  N3  UNL     1     -29.884 -34.971   8.932  1.00  0.00    -0.346 N 
ATOM      7  H3  UNL     1     -29.541 -35.855   9.306  1.00  0.00     0.167 HD
ENDROOT
BRANCH   4   8
HETATM    8  C2  UNL     1     -29.829 -31.370   8.468  1.00  0.00     0.154 C 
BRANCH   8   9
HETATM    9  C3  UNL     1     -29.753 -30.782   9.834  1.00  0.00     0.005 A 
HETATM   10  C4  UNL     1     -29.014 -29.517  10.097  1.00  0.00     0.007 A 
HETATM   11  C5  UNL     1     -30.492 -29.483  10.034  1.00  0.00     0.007 A 
ENDBRANCH   8   9
ENDBRANCH   4   8
TORSDOF 2
ENDMDL
MODEL 2
REMARK VINA RESULT: -5.222963518      1.742      2.219
REMARK  2 active torsions:
REMARK  status: ('A' for Active; 'I' for Inactive)
REMARK    1  A    between atoms: N2_4  and  C2_5 
REMARK    2  A    between atoms: C2_5  and  C3_6 
ROOT
HETATM    1  C1  UNL     1     -28.988 -34.184   9.821  1.00  0.00     0.198 A 
HETATM    2  N1  UNL     1     -29.858 -33.147   9.863  1.00  0.00    -0.293 N 
ATOM      3  H1  UNL     1     -30.874 -33.240   9.865  1.00  0.00     0.188 HD
HETATM    4  N2  UNL     1     -29.202 -31.997   9.899  1.00  0.00    -0.286 N 
HETATM    5  C6  UNL     1     -27.899 -32.331   9.878  1.00  0.00     0.201 A 
HETATM    6  N3  UNL     1     -27.756 -33.669   9.831  1.00  0.00    -0.346 N 
ATOM      7  H3  UNL     1     -26.878 -34.187   9.807  1.00  0.00     0.167 HD
ENDROOT
BRANCH   4   8
HETATM    8  C2  UNL     1     -29.776 -30.654   9.949  1.00  0.00     0.154 C 
BRANCH   8   9
HETATM    9  C3  UNL     1     -30.225 -30.178   8.611  1.00  0.00     0.005 A 
HETATM   10  C4  UNL     1     -30.920 -28.873   8.441  1.00  0.00     0.007 A 
HETATM   11  C5  UNL     1     -29.494 -28.980   8.059  1.00  0.00     0.007 A 
ENDBRANCH   8   9
ENDBRANCH   4   8
TORSDOF 2
ENDMDL
MODEL 3
REMARK VINA RESULT: -5.199181438      1.069      1.338
REMARK  2 active torsions:
REMARK  status: ('A' for Active; 'I' for Inactive)
REMARK    1  A    between atoms: N2_4  and  C2_5 
REMARK    2  A    between atoms: C2_5  and  C3_6 
ROOT
HETATM    1  C1  UNL     1     -30.332 -34.431   8.113  1.00  0.00     0.198 A 
HETATM    2  N1  UNL     1     -30.491 -33.087   8.132  1.00  0.00    -0.293 N 
ATOM      3  H1  UNL     1     -31.109 -32.564   7.511  1.00  0.00     0.188 HD
HETATM    4  N2  UNL     1     -29.729 -32.546   9.072  1.00  0.00    -0.286 N 
HETATM    5  C6  UNL     1     -29.086 -33.580   9.644  1.00  0.00     0.201 A 
HETATM    6  N3  UNL     1     -29.448 -34.740   9.064  1.00  0.00    -0.346 N 
ATOM      7  H3  UNL     1     -29.112 -35.672   9.305  1.00  0.00     0.167 HD
ENDROOT
BRANCH   4   8
HETATM    8  C2  UNL     1     -29.614 -31.129   9.410  1.00  0.00     0.154 C 
BRANCH   8   9
HETATM    9  C3  UNL     1     -30.255 -30.249   8.394  1.00  0.00     0.005 A 
HETATM   10  C4  UNL     1     -30.917 -28.972   8.776  1.00  0.00     0.007 A 
HETATM   11  C5  UNL     1     -29.578 -28.924   8.149  1.00  0.00     0.007 A 
ENDBRANCH   8   9
ENDBRANCH   4   8
TORSDOF 2
ENDMDL
MODEL 4
REMARK VINA RESULT: -5.118152407      1.676      1.956
REMARK  2 active torsions:
REMARK  status: ('A' for Active; 'I' for Inactive)
REMARK    1  A    between atoms: N2_4  and  C2_5 
REMARK    2  A    between atoms: C2_5  and  C3_6 
ROOT
HETATM    1  C1  UNL     1     -29.912 -34.771  10.315  1.00  0.00     0.198 A 
HETATM    2  N1  UNL     1     -29.769 -33.470   9.970  1.00  0.00    -0.293 N 
ATOM      3  H1  UNL     1     -30.534 -32.799   9.894  1.00  0.00     0.188 HD
HETATM    4  N2  UNL     1     -28.493 -33.192   9.744  1.00  0.00    -0.286 N 
HETATM    5  C6  UNL     1     -27.836 -34.347   9.953  1.00  0.00     0.201 A 
HETATM    6  N3  UNL     1     -28.696 -35.322  10.304  1.00  0.00    -0.346 N 
ATOM      7  H3  UNL     1     -28.464 -36.291  10.519  1.00  0.00     0.167 HD
ENDROOT
BRANCH   4   8
HETATM    8  C2  UNL     1     -27.926 -31.904   9.350  1.00  0.00     0.154 C 
BRANCH   8   9
HETATM    9  C3  UNL     1     -28.968 -30.858   9.160  1.00  0.00     0.005 A 
HETATM   10  C4  UNL     1     -29.044 -29.665  10.046  1.00  0.00     0.007 A 
HETATM   11  C5  UNL     1     -28.474 -29.513   8.689  1.00  0.00     0.007 A 
ENDBRANCH   8   9
ENDBRANCH   4   8
TORSDOF 2
ENDMDL
MODEL 5
REMARK VINA RESULT: -5.116921569      1.862      2.236
REMARK  2 active torsions:
REMARK  status: ('A' for Active; 'I' for Inactive)
REMARK    1  A    between atoms: N2_4  and  C2_5 
REMARK    2  A    between atoms: C2_5  and  C3_6 
ROOT
HETATM    1  C1  UNL     1     -27.925 -34.491   9.953  1.00  0.00     0.198 A 
HETATM    2  N1  UNL     1     -29.013 -33.963   9.344  1.00  0.00    -0.293 N 
ATOM      3  H1  UNL     1     -29.832 -34.496   9.049  1.00  0.00     0.188 HD
HETATM    4  N2  UNL     1     -28.863 -32.657   9.185  1.00  0.00    -0.286 N 
HETATM    5  C6  UNL     1     -27.655 -32.373   9.707  1.00  0.00     0.201 A 
HETATM    6  N3  UNL     1     -27.072 -33.490  10.180  1.00  0.00    -0.346 N 
ATOM      7  H3  UNL     1     -26.157 -33.558  10.626  1.00  0.00     0.167 HD
ENDROOT
BRANCH   4   8
HETATM    8  C2  UNL     1     -29.808 -31.726   8.572  1.00  0.00     0.154 C 
BRANCH   8   9
HETATM    9  C3  UNL     1     -29.620 -30.328   9.049  1.00  0.00     0.005 A 
HETATM   10  C4  UNL     1     -29.198 -29.240   8.125  1.00  0.00     0.007 A 
HETATM   11  C5  UNL     1     -30.617 -29.318   8.538  1.00  0.00     0.007 A 
ENDBRANCH   8   9
ENDBRANCH   4   8
TORSDOF 2
ENDMDL
