MODEL 1
REMARK VINA RESULT: -5.483142383      0.000      0.000
REMARK  1 active torsions:
REMARK  status: ('A' for Active; 'I' for Inactive)
REMARK    1  A    between atoms: N2_4  and  N3_6 
ROOT
HETATM    1  N3  UNL     1     -30.968 -33.272   7.934  1.00  0.00    -0.269 N 
ATOM      2  H3  UNL     1     -31.468 -32.667   7.283  1.00  0.00     0.190 HD
HETATM    3  C1  UNL     1     -29.954 -32.774   8.557  1.00  0.00     0.133 C 
HETATM    4  C2  UNL     1     -29.509 -31.367   8.348  1.00  0.00     0.087 C 
HETATM    5  C3  UNL     1     -28.234 -31.257   9.184  1.00  0.00     0.035 C 
HETATM    6  C4  UNL     1     -27.973 -32.643   9.724  1.00  0.00     0.177 C 
HETATM    7  O1  UNL     1     -29.136 -33.405   9.476  1.00  0.00    -0.338 OA
ENDROOT
BRANCH   1   8
HETATM    8  N2  UNL     1     -31.425 -34.565   8.086  1.00  0.00    -0.248 N 
HETATM    9  N1  UNL     1     -32.611 -34.762   8.482  1.00  0.00    -0.331 N 
ATOM     10  H12 UNL     1     -33.210 -33.962   8.683  1.00  0.00     0.178 HD
ATOM     11  H11 UNL     1     -32.949 -35.718   8.594  1.00  0.00     0.178 HD
ATOM     12  H2  UNL     1     -30.812 -35.354   7.881  1.00  0.00     0.207 HD
ENDBRANCH   1   8
TORSDOF 1
ENDMDL
MODEL 2
REMARK VINA RESULT: -5.442030989      1.417      1.875
REMARK  1 active torsions:
REMARK  status: ('A' for Active; 'I' for Inactive)
REMARK    1  A    between atoms: N2_4  and  N3_6 
ROOT
HETATM    1  N3  UNL     1     -30.238 -33.363   8.652  1.00  0.00    -0.269 N 
ATOM      2  H3  UNL     1     -29.735 -34.065   9.195  1.00  0.00     0.190 HD
HETATM    3  C1  UNL     1     -29.859 -32.135   8.764  1.00  0.00     0.133 C 
HETATM    4  C2  UNL     1     -28.731 -31.731   9.649  1.00  0.00     0.087 C 
HETATM    5  C3  UNL     1     -28.716 -30.206   9.554  1.00  0.00     0.035 C 
HETATM    6  C4  UNL     1     -29.912 -29.834   8.709  1.00  0.00     0.177 C 
HETATM    7  O1  UNL     1     -30.390 -31.028   8.128  1.00  0.00    -0.338 OA
ENDROOT
BRANCH   1   8
HETATM    8  N2  UNL     1     -31.274 -33.795   7.850  1.00  0.00    -0.248 N 
HETATM    9  N1  UNL     1     -32.082 -34.663   8.293  1.00  0.00    -0.331 N 
ATOM     10  H12 UNL     1     -31.955 -35.029   9.237  1.00  0.00     0.178 HD
ATOM     11  H11 UNL     1     -32.849 -34.983   7.701  1.00  0.00     0.178 HD
ATOM     12  H2  UNL     1     -31.387 -33.419   6.909  1.00  0.00     0.207 HD
ENDBRANCH   1   8
TORSDOF 1
ENDMDL
MODEL 3
REMARK VINA RESULT: -5.346873265      1.688      2.095
REMARK  1 active torsions:
REMARK  status: ('A' for Active; 'I' for Inactive)
REMARK    1  A    between atoms: N2_4  and  N3_6 
ROOT
HETATM    1  N3  UNL     1     -29.809 -32.378   8.034  1.00  0.00    -0.269 N 
ATOM      2  H3  UNL     1     -29.355 -32.536   7.134  1.00  0.00     0.190 HD
HETATM    3  C1  UNL     1     -29.587 -31.254   8.627  1.00  0.00     0.133 C 
HETATM    4  C2  UNL     1     -28.703 -30.209   8.040  1.00  0.00     0.087 C 
HETATM    5  C3  UNL     1     -28.646 -29.127   9.118  1.00  0.00     0.035 C 
HETATM    6  C4  UNL     1     -29.411 -29.679  10.297  1.00  0.00     0.177 C 
HETATM    7  O1  UNL     1     -30.093 -30.828   9.841  1.00  0.00    -0.338 OA
ENDROOT
BRANCH   1   8
HETATM    8  N2  UNL     1     -30.617 -33.381   8.528  1.00  0.00    -0.248 N 
HETATM    9  N1  UNL     1     -31.414 -33.979   7.747  1.00  0.00    -0.331 N 
ATOM     10  H12 UNL     1     -31.447 -33.709   6.764  1.00  0.00     0.178 HD
ATOM     11  H11 UNL     1     -32.011 -34.721   8.113  1.00  0.00     0.178 HD
ATOM     12  H2  UNL     1     -30.571 -33.639   9.514  1.00  0.00     0.207 HD
ENDBRANCH   1   8
TORSDOF 1
ENDMDL
MODEL 4
REMARK VINA RESULT: -5.214145717      2.044      2.649
REMARK  1 active torsions:
REMARK  status: ('A' for Active; 'I' for Inactive)
REMARK    1  A    between atoms: N2_4  and  N3_6 
ROOT
HETATM    1  N3  UNL     1     -29.801 -32.133  10.033  1.00  0.00    -0.269 N 
ATOM      2  H3  UNL     1     -30.028 -32.086  11.026  1.00  0.00     0.190 HD
HETATM    3  C1  UNL     1     -29.299 -31.080   9.483  1.00  0.00     0.133 C 
HETATM    4  C2  UNL     1     -29.052 -29.826  10.249  1.00  0.00     0.087 C 
HETATM    5  C3  UNL     1     -28.572 -28.836   9.189  1.00  0.00     0.035 C 
HETATM    6  C4  UNL     1     -28.686 -29.558   7.867  1.00  0.00     0.177 C 
HETATM    7  O1  UNL     1     -28.918 -30.919   8.163  1.00  0.00    -0.338 OA
ENDROOT
BRANCH   1   8
HETATM    8  N2  UNL     1     -30.052 -33.319   9.375  1.00  0.00    -0.248 N 
HETATM    9  N1  UNL     1     -30.610 -33.294   8.240  1.00  0.00    -0.331 N 
ATOM     10  H12 UNL     1     -30.866 -32.396   7.828  1.00  0.00     0.178 HD
ATOM     11  H11 UNL     1     -30.796 -34.172   7.753  1.00  0.00     0.178 HD
ATOM     12  H2  UNL     1     -29.789 -34.209   9.801  1.00  0.00     0.207 HD
ENDBRANCH   1   8
TORSDOF 1
ENDMDL
MODEL 5
REMARK VINA RESULT: -5.211644683      3.523      3.808
REMARK  1 active torsions:
REMARK  status: ('A' for Active; 'I' for Inactive)
REMARK    1  A    between atoms: N2_4  and  N3_6 
ROOT
HETATM    1  N3  UNL     1     -29.913 -29.196   8.556  1.00  0.00    -0.269 N 
ATOM      2  H3  UNL     1     -29.373 -28.684   7.858  1.00  0.00     0.190 HD
HETATM    3  C1  UNL     1     -29.406 -30.286   9.025  1.00  0.00     0.133 C 
HETATM    4  C2  UNL     1     -28.081 -30.800   8.578  1.00  0.00     0.087 C 
HETATM    5  C3  UNL     1     -27.945 -32.141   9.298  1.00  0.00     0.035 C 
HETATM    6  C4  UNL     1     -29.254 -32.356  10.020  1.00  0.00     0.177 C 
HETATM    7  O1  UNL     1     -29.956 -31.132   9.970  1.00  0.00    -0.338 OA
ENDROOT
BRANCH   1   8
HETATM    8  N2  UNL     1     -31.133 -28.672   8.931  1.00  0.00    -0.248 N 
HETATM    9  N1  UNL     1     -31.355 -28.428  10.153  1.00  0.00    -0.331 N 
ATOM     10  H12 UNL     1     -30.628 -28.622  10.842  1.00  0.00     0.178 HD
ATOM     11  H11 UNL     1     -32.257 -28.040  10.431  1.00  0.00     0.178 HD
ATOM     12  H2  UNL     1     -31.849 -28.484   8.230  1.00  0.00     0.207 HD
ENDBRANCH   1   8
TORSDOF 1
ENDMDL
