MODEL 1
REMARK VINA RESULT: -6.220526457      0.000      0.000
REMARK  1 active torsions:
REMARK  status: ('A' for Active; 'I' for Inactive)
REMARK    1  A    between atoms: N2_4  and  N3_6 
ROOT
HETATM    1  N3  UNL     1     -30.126 -33.094   8.468  1.00  0.00    -0.269 N 
ATOM      2  H3  UNL     1     -29.486 -33.820   8.791  1.00  0.00     0.190 HD
HETATM    3  C1  UNL     1     -29.784 -31.873   8.674  1.00  0.00     0.133 C 
HETATM    4  C2  UNL     1     -28.476 -31.658   9.368  1.00  0.00     0.086 C 
HETATM    5  C3  UNL     1     -28.556 -30.269   9.989  1.00  0.00     0.010 C 
HETATM    6  C4  UNL     1     -28.646 -29.297   8.814  1.00  0.00     0.027 C 
HETATM    7  C5  UNL     1     -30.021 -29.460   8.215  1.00  0.00     0.177 C 
HETATM    8  O1  UNL     1     -30.510 -30.774   8.312  1.00  0.00    -0.338 OA
ENDROOT
BRANCH   1   9
HETATM    9  N2  UNL     1     -31.281 -33.504   7.850  1.00  0.00    -0.248 N 
HETATM   10  N1  UNL     1     -31.862 -34.572   8.215  1.00  0.00    -0.331 N 
ATOM     11  H12 UNL     1     -31.455 -35.117   8.975  1.00  0.00     0.178 HD
ATOM     12  H11 UNL     1     -32.721 -34.876   7.756  1.00  0.00     0.178 HD
ATOM     13  H2  UNL     1     -31.675 -32.947   7.092  1.00  0.00     0.207 HD
ENDBRANCH   1   9
TORSDOF 1
ENDMDL
MODEL 2
REMARK VINA RESULT: -6.002129658      1.867      2.607
REMARK  1 active torsions:
REMARK  status: ('A' for Active; 'I' for Inactive)
REMARK    1  A    between atoms: N2_4  and  N3_6 
ROOT
HETATM    1  N3  UNL     1     -31.060 -33.289   7.948  1.00  0.00    -0.269 N 
ATOM      2  H3  UNL     1     -31.565 -32.478   7.592  1.00  0.00     0.190 HD
HETATM    3  C1  UNL     1     -29.913 -33.078   8.489  1.00  0.00     0.133 C 
HETATM    4  C2  UNL     1     -29.451 -31.655   8.531  1.00  0.00     0.086 C 
HETATM    5  C3  UNL     1     -27.934 -31.712   8.660  1.00  0.00     0.010 C 
HETATM    6  C4  UNL     1     -27.660 -32.351  10.020  1.00  0.00     0.027 C 
HETATM    7  C5  UNL     1     -28.027 -33.810   9.900  1.00  0.00     0.177 C 
HETATM    8  O1  UNL     1     -29.098 -34.037   9.020  1.00  0.00    -0.338 OA
ENDROOT
BRANCH   1   9
HETATM    9  N2  UNL     1     -31.661 -34.515   7.811  1.00  0.00    -0.248 N 
HETATM   10  N1  UNL     1     -32.677 -34.815   8.511  1.00  0.00    -0.331 N 
ATOM     11  H12 UNL     1     -33.035 -34.129   9.175  1.00  0.00     0.178 HD
ATOM     12  H11 UNL     1     -33.124 -35.726   8.409  1.00  0.00     0.178 HD
ATOM     13  H2  UNL     1     -31.289 -35.190   7.143  1.00  0.00     0.207 HD
ENDBRANCH   1   9
TORSDOF 1
ENDMDL
MODEL 3
REMARK VINA RESULT: -5.780503884      1.716      1.905
REMARK  1 active torsions:
REMARK  status: ('A' for Active; 'I' for Inactive)
REMARK    1  A    between atoms: N2_4  and  N3_6 
ROOT
HETATM    1  N3  UNL     1     -29.088 -32.423  10.004  1.00  0.00    -0.269 N 
ATOM      2  H3  UNL     1     -28.203 -32.881   9.785  1.00  0.00     0.190 HD
HETATM    3  C1  UNL     1     -29.275 -31.246   9.524  1.00  0.00     0.133 C 
HETATM    4  C2  UNL     1     -28.165 -30.682   8.694  1.00  0.00     0.086 C 
HETATM    5  C3  UNL     1     -28.343 -29.169   8.730  1.00  0.00     0.010 C 
HETATM    6  C4  UNL     1     -29.666 -28.893   8.020  1.00  0.00     0.027 C 
HETATM    7  C5  UNL     1     -30.765 -29.367   8.941  1.00  0.00     0.177 C 
HETATM    8  O1  UNL     1     -30.393 -30.482   9.710  1.00  0.00    -0.338 OA
ENDROOT
BRANCH   1   9
HETATM    9  N2  UNL     1     -29.978 -33.115  10.786  1.00  0.00    -0.248 N 
HETATM   10  N1  UNL     1     -30.317 -34.299  10.480  1.00  0.00    -0.331 N 
ATOM     11  H12 UNL     1     -29.917 -34.724   9.644  1.00  0.00     0.178 HD
ATOM     12  H11 UNL     1     -30.979 -34.814  11.062  1.00  0.00     0.178 HD
ATOM     13  H2  UNL     1     -30.370 -32.675  11.618  1.00  0.00     0.207 HD
ENDBRANCH   1   9
TORSDOF 1
ENDMDL
MODEL 4
REMARK VINA RESULT: -5.740945204      1.481      1.792
REMARK  1 active torsions:
REMARK  status: ('A' for Active; 'I' for Inactive)
REMARK    1  A    between atoms: N2_4  and  N3_6 
ROOT
HETATM    1  N3  UNL     1     -30.761 -34.510   8.689  1.00  0.00    -0.269 N 
ATOM      2  H3  UNL     1     -30.452 -35.393   9.097  1.00  0.00     0.190 HD
HETATM    3  C1  UNL     1     -29.975 -33.500   8.805  1.00  0.00     0.133 C 
HETATM    4  C2  UNL     1     -28.689 -33.741   9.531  1.00  0.00     0.086 C 
HETATM    5  C3  UNL     1     -28.230 -32.375  10.030  1.00  0.00     0.010 C 
HETATM    6  C4  UNL     1     -27.933 -31.557   8.775  1.00  0.00     0.027 C 
HETATM    7  C5  UNL     1     -29.262 -31.235   8.137  1.00  0.00     0.177 C 
HETATM    8  O1  UNL     1     -30.220 -32.245   8.324  1.00  0.00    -0.338 OA
ENDROOT
BRANCH   1   9
HETATM    9  N2  UNL     1     -31.982 -34.501   8.061  1.00  0.00    -0.248 N 
HETATM   10  N1  UNL     1     -33.022 -34.895   8.673  1.00  0.00    -0.331 N 
ATOM     11  H12 UNL     1     -32.933 -35.218   9.636  1.00  0.00     0.178 HD
ATOM     12  H11 UNL     1     -33.929 -34.888   8.207  1.00  0.00     0.178 HD
ATOM     13  H2  UNL     1     -32.053 -34.176   7.098  1.00  0.00     0.207 HD
ENDBRANCH   1   9
TORSDOF 1
ENDMDL
MODEL 5
REMARK VINA RESULT: -5.722299446      2.613      3.279
REMARK  1 active torsions:
REMARK  status: ('A' for Active; 'I' for Inactive)
REMARK    1  A    between atoms: N2_4  and  N3_6 
ROOT
HETATM    1  N3  UNL     1     -27.763 -31.933   9.340  1.00  0.00    -0.269 N 
ATOM      2  H3  UNL     1     -27.365 -32.265   8.462  1.00  0.00     0.190 HD
HETATM    3  C1  UNL     1     -28.609 -30.968   9.276  1.00  0.00     0.133 C 
HETATM    4  C2  UNL     1     -28.913 -30.442   7.908  1.00  0.00     0.086 C 
HETATM    5  C3  UNL     1     -29.439 -29.026   8.113  1.00  0.00     0.010 C 
HETATM    6  C4  UNL     1     -30.752 -29.180   8.875  1.00  0.00     0.027 C 
HETATM    7  C5  UNL     1     -30.396 -29.596  10.282  1.00  0.00     0.177 C 
HETATM    8  O1  UNL     1     -29.243 -30.396  10.343  1.00  0.00    -0.338 OA
ENDROOT
BRANCH   1   9
HETATM    9  N2  UNL     1     -27.350 -32.553  10.493  1.00  0.00    -0.248 N 
HETATM   10  N1  UNL     1     -26.248 -33.183  10.524  1.00  0.00    -0.331 N 
ATOM     11  H12 UNL     1     -25.679 -33.219   9.679  1.00  0.00     0.178 HD
ATOM     12  H11 UNL     1     -25.941 -33.644  11.381  1.00  0.00     0.178 HD
ATOM     13  H2  UNL     1     -27.932 -32.509  11.328  1.00  0.00     0.207 HD
ENDBRANCH   1   9
TORSDOF 1
ENDMDL
