MODEL 1
REMARK VINA RESULT: -4.730613843      0.000      0.000
REMARK  2 active torsions:
REMARK  status: ('A' for Active; 'I' for Inactive)
REMARK    1  A    between atoms: C2_2  and  C3_3 
REMARK    2  A    between atoms: N1_5  and  C5_6 
ROOT
HETATM    1  C5  UNL     1     -29.125 -33.161   8.449  1.00  0.00     0.274 C 
HETATM    2  C6  UNL     1     -29.303 -33.607   9.871  1.00  0.00     0.269 C 
HETATM    3  N2  UNL     1     -30.451 -34.439   9.517  1.00  0.00    -0.071 N 
ATOM      4  H21 UNL     1     -31.307 -34.395  10.070  1.00  0.00     0.277 HD
ATOM      5  H22 UNL     1     -30.418 -35.449   9.658  1.00  0.00     0.277 HD
HETATM    6  C7  UNL     1     -30.419 -33.892   8.186  1.00  0.00     0.269 C 
ENDROOT
BRANCH   1   7
HETATM    7  N1  UNL     1     -29.242 -31.780   8.160  1.00  0.00     0.108 N 
HETATM    8  C3  UNL     1     -29.667 -30.793   9.105  1.00  0.00     0.274 A 
HETATM    9  C4  UNL     1     -28.183 -30.881   8.731  1.00  0.00     0.313 A 
BRANCH   8  10
HETATM   10  C2  UNL     1     -30.471 -29.702   8.484  1.00  0.00     0.000 C 
HETATM   11  C1  UNL     1     -31.148 -28.843   9.233  1.00  0.00     0.009 C 
ENDBRANCH   8  10
ENDBRANCH   1   7
TORSDOF 2
ENDMDL
MODEL 2
REMARK VINA RESULT: -4.677635785      1.890      4.120
REMARK  2 active torsions:
REMARK  status: ('A' for Active; 'I' for Inactive)
REMARK    1  A    between atoms: C2_2  and  C3_3 
REMARK    2  A    between atoms: N1_5  and  C5_6 
ROOT
HETATM    1  C5  UNL     1     -29.207 -29.754   8.936  1.00  0.00     0.274 C 
HETATM    2  C6  UNL     1     -30.581 -29.331   8.501  1.00  0.00     0.269 C 
HETATM    3  N2  UNL     1     -30.940 -28.931   9.859  1.00  0.00    -0.071 N 
ATOM      4  H21 UNL     1     -31.829 -29.227  10.263  1.00  0.00     0.277 HD
ATOM      5  H22 UNL     1     -31.176 -27.960  10.063  1.00  0.00     0.277 HD
HETATM    6  C7  UNL     1     -29.704 -29.492  10.337  1.00  0.00     0.269 C 
ENDROOT
BRANCH   1   7
HETATM    7  N1  UNL     1     -28.836 -31.109   8.763  1.00  0.00     0.108 N 
HETATM    8  C3  UNL     1     -29.100 -32.144   9.715  1.00  0.00     0.274 A 
HETATM    9  C4  UNL     1     -29.939 -32.073   8.434  1.00  0.00     0.313 A 
BRANCH   8  10
HETATM   10  C2  UNL     1     -28.019 -33.168   9.775  1.00  0.00     0.000 C 
HETATM   11  C1  UNL     1     -26.865 -32.909  10.373  1.00  0.00     0.009 C 
ENDBRANCH   8  10
ENDBRANCH   1   7
TORSDOF 2
ENDMDL
MODEL 3
REMARK VINA RESULT: -4.575578350      1.793      4.253
REMARK  2 active torsions:
REMARK  status: ('A' for Active; 'I' for Inactive)
REMARK    1  A    between atoms: C2_2  and  C3_3 
REMARK    2  A    between atoms: N1_5  and  C5_6 
ROOT
HETATM    1  C5  UNL     1     -28.970 -29.988   9.332  1.00  0.00     0.274 C 
HETATM    2  C6  UNL     1     -28.448 -28.890   8.452  1.00  0.00     0.269 C 
HETATM    3  N2  UNL     1     -29.796 -28.537   8.012  1.00  0.00    -0.071 N 
ATOM      4  H21 UNL     1     -29.993 -28.401   7.020  1.00  0.00     0.277 HD
ATOM      5  H22 UNL     1     -30.176 -27.611   8.209  1.00  0.00     0.277 HD
HETATM    6  C7  UNL     1     -30.309 -29.693   8.701  1.00  0.00     0.269 C 
ENDROOT
BRANCH   1   7
HETATM    7  N1  UNL     1     -28.554 -31.315   9.067  1.00  0.00     0.108 N 
HETATM    8  C3  UNL     1     -29.015 -32.463   9.788  1.00  0.00     0.274 A 
HETATM    9  C4  UNL     1     -29.544 -32.205   8.372  1.00  0.00     0.313 A 
BRANCH   8  10
HETATM   10  C2  UNL     1     -27.965 -33.507   9.952  1.00  0.00     0.000 C 
HETATM   11  C1  UNL     1     -26.772 -33.204  10.446  1.00  0.00     0.009 C 
ENDBRANCH   8  10
ENDBRANCH   1   7
TORSDOF 2
ENDMDL
MODEL 4
REMARK VINA RESULT: -4.558707690      1.474      3.972
REMARK  2 active torsions:
REMARK  status: ('A' for Active; 'I' for Inactive)
REMARK    1  A    between atoms: C2_2  and  C3_3 
REMARK    2  A    between atoms: N1_5  and  C5_6 
ROOT
HETATM    1  C5  UNL     1     -29.264 -29.985   9.643  1.00  0.00     0.274 C 
HETATM    2  C6  UNL     1     -28.428 -29.118   8.746  1.00  0.00     0.269 C 
HETATM    3  N2  UNL     1     -29.606 -28.661   8.011  1.00  0.00    -0.071 N 
ATOM      4  H21 UNL     1     -29.605 -28.657   6.991  1.00  0.00     0.277 HD
ATOM      5  H22 UNL     1     -29.859 -27.673   8.010  1.00  0.00     0.277 HD
HETATM    6  C7  UNL     1     -30.408 -29.614   8.732  1.00  0.00     0.269 C 
ENDROOT
BRANCH   1   7
HETATM    7  N1  UNL     1     -29.028 -31.380   9.638  1.00  0.00     0.108 N 
HETATM    8  C3  UNL     1     -29.230 -32.226   8.501  1.00  0.00     0.274 A 
HETATM    9  C4  UNL     1     -27.801 -31.853   8.913  1.00  0.00     0.313 A 
BRANCH   8  10
HETATM   10  C2  UNL     1     -29.720 -33.585   8.867  1.00  0.00     0.000 C 
HETATM   11  C1  UNL     1     -30.491 -34.278   8.041  1.00  0.00     0.009 C 
ENDBRANCH   8  10
ENDBRANCH   1   7
TORSDOF 2
ENDMDL
MODEL 5
REMARK VINA RESULT: -4.547446916      1.091      1.137
REMARK  2 active torsions:
REMARK  status: ('A' for Active; 'I' for Inactive)
REMARK    1  A    between atoms: C2_2  and  C3_3 
REMARK    2  A    between atoms: N1_5  and  C5_6 
ROOT
HETATM    1  C5  UNL     1     -28.582 -32.210   8.210  1.00  0.00     0.274 C 
HETATM    2  C6  UNL     1     -28.005 -32.617   9.534  1.00  0.00     0.269 C 
HETATM    3  N2  UNL     1     -28.948 -33.726   9.658  1.00  0.00    -0.071 N 
ATOM      4  H21 UNL     1     -29.458 -33.872  10.529  1.00  0.00     0.277 HD
ATOM      5  H22 UNL     1     -28.608 -34.687   9.701  1.00  0.00     0.277 HD
HETATM    6  C7  UNL     1     -29.636 -33.254   8.485  1.00  0.00     0.269 C 
ENDROOT
BRANCH   1   7
HETATM    7  N1  UNL     1     -29.150 -30.918   8.094  1.00  0.00     0.108 N 
HETATM    8  C3  UNL     1     -29.511 -30.095   9.207  1.00  0.00     0.274 A 
HETATM    9  C4  UNL     1     -28.250 -29.757   8.403  1.00  0.00     0.313 A 
BRANCH   8  10
HETATM   10  C2  UNL     1     -30.729 -29.276   8.954  1.00  0.00     0.000 C 
HETATM   11  C1  UNL     1     -31.300 -28.581   9.928  1.00  0.00     0.009 C 
ENDBRANCH   8  10
ENDBRANCH   1   7
TORSDOF 2
ENDMDL
