MODEL 1
REMARK VINA RESULT: -5.146880720      0.000      0.000
REMARK  1 active torsions:
REMARK  status: ('A' for Active; 'I' for Inactive)
REMARK    1  A    between atoms: C1_4  and  C2_5 
ROOT
HETATM    1  C2  UNL     1      29.172  30.360   9.357  1.00  0.00     0.122 C 
HETATM    2  C3  UNL     1      29.566  29.967   7.946  1.00  0.00     0.040 C 
HETATM    3  C4  UNL     1      29.889  28.498   8.144  1.00  0.00     0.105 C 
HETATM    4  C5  UNL     1      30.599  28.530   9.454  1.00  0.00     0.218 C 
HETATM    5  O1  UNL     1      31.443  27.701   9.879  1.00  0.00    -0.274 OA
HETATM    6  N2  UNL     1      30.154  29.680  10.162  1.00  0.00    -0.352 N 
ATOM      7  H2  UNL     1      30.476  29.973  11.085  1.00  0.00     0.163 HD
ENDROOT
BRANCH   1   8
HETATM    8  C1  UNL     1      29.157  31.814   9.567  1.00  0.00     0.078 C 
HETATM    9  N1  UNL     1      30.113  32.496  10.060  1.00  0.00    -0.409 N 
ATOM     10  H12 UNL     1      30.950  31.976  10.325  1.00  0.00     0.155 HD
ATOM     11  H11 UNL     1      30.103  33.506  10.205  1.00  0.00     0.155 HD
ENDBRANCH   1   8
TORSDOF 1
ENDMDL
MODEL 2
REMARK VINA RESULT: -4.955388474      2.638      3.532
REMARK  1 active torsions:
REMARK  status: ('A' for Active; 'I' for Inactive)
REMARK    1  A    between atoms: C1_4  and  C2_5 
ROOT
HETATM    1  C2  UNL     1      29.788  30.056   9.436  1.00  0.00     0.122 C 
HETATM    2  C3  UNL     1      29.617  29.970   7.931  1.00  0.00     0.040 C 
HETATM    3  C4  UNL     1      28.820  31.234   7.667  1.00  0.00     0.105 C 
HETATM    4  C5  UNL     1      27.882  31.233   8.825  1.00  0.00     0.218 C 
HETATM    5  O1  UNL     1      26.750  31.778   8.883  1.00  0.00    -0.274 OA
HETATM    6  N2  UNL     1      28.491  30.499   9.878  1.00  0.00    -0.352 N 
ATOM      7  H2  UNL     1      28.078  30.316  10.793  1.00  0.00     0.163 HD
ENDROOT
BRANCH   1   8
HETATM    8  C1  UNL     1      30.206  28.785  10.042  1.00  0.00     0.078 C 
HETATM    9  N1  UNL     1      31.034  27.963   9.529  1.00  0.00    -0.409 N 
ATOM     10  H12 UNL     1      31.428  28.223   8.626  1.00  0.00     0.155 HD
ATOM     11  H11 UNL     1      31.324  27.080   9.950  1.00  0.00     0.155 HD
ENDBRANCH   1   8
TORSDOF 1
ENDMDL
MODEL 3
REMARK VINA RESULT: -4.932806600      1.151      1.151
REMARK  1 active torsions:
REMARK  status: ('A' for Active; 'I' for Inactive)
REMARK    1  A    between atoms: C1_4  and  C2_5 
ROOT
HETATM    1  C2  UNL     1      28.684  30.033   9.286  1.00  0.00     0.122 C 
HETATM    2  C3  UNL     1      29.234  29.822   7.889  1.00  0.00     0.040 C 
HETATM    3  C4  UNL     1      29.832  28.434   8.030  1.00  0.00     0.105 C 
HETATM    4  C5  UNL     1      30.439  28.516   9.389  1.00  0.00     0.218 C 
HETATM    5  O1  UNL     1      31.405  27.842   9.829  1.00  0.00    -0.274 OA
HETATM    6  N2  UNL     1      29.731  29.505  10.123  1.00  0.00    -0.352 N 
ATOM      7  H2  UNL     1      29.931  29.793  11.081  1.00  0.00     0.163 HD
ENDROOT
BRANCH   1   8
HETATM    8  C1  UNL     1      28.365  31.438   9.573  1.00  0.00     0.078 C 
HETATM    9  N1  UNL     1      27.191  31.933   9.611  1.00  0.00    -0.409 N 
ATOM     10  H12 UNL     1      26.423  31.288   9.425  1.00  0.00     0.155 HD
ATOM     11  H11 UNL     1      26.969  32.908   9.810  1.00  0.00     0.155 HD
ENDBRANCH   1   8
TORSDOF 1
ENDMDL
MODEL 4
REMARK VINA RESULT: -4.883083788      2.074      2.284
REMARK  1 active torsions:
REMARK  status: ('A' for Active; 'I' for Inactive)
REMARK    1  A    between atoms: C1_4  and  C2_5 
ROOT
HETATM    1  C2  UNL     1      29.745  30.619   8.246  1.00  0.00     0.122 C 
HETATM    2  C3  UNL     1      30.386  29.421   8.920  1.00  0.00     0.040 C 
HETATM    3  C4  UNL     1      30.012  28.319   7.945  1.00  0.00     0.105 C 
HETATM    4  C5  UNL     1      28.612  28.698   7.601  1.00  0.00     0.218 C 
HETATM    5  O1  UNL     1      27.698  27.933   7.199  1.00  0.00    -0.274 OA
HETATM    6  N2  UNL     1      28.476  30.097   7.807  1.00  0.00    -0.352 N 
ATOM      7  H2  UNL     1      27.624  30.640   7.668  1.00  0.00     0.163 HD
ENDROOT
BRANCH   1   8
HETATM    8  C1  UNL     1      29.618  31.781   9.136  1.00  0.00     0.078 C 
HETATM    9  N1  UNL     1      30.068  31.848  10.326  1.00  0.00    -0.409 N 
ATOM     10  H12 UNL     1      30.551  31.020  10.674  1.00  0.00     0.155 HD
ATOM     11  H11 UNL     1      29.980  32.655  10.944  1.00  0.00     0.155 HD
ENDBRANCH   1   8
TORSDOF 1
ENDMDL
MODEL 5
REMARK VINA RESULT: -4.874356749      1.698      1.881
REMARK  1 active torsions:
REMARK  status: ('A' for Active; 'I' for Inactive)
REMARK    1  A    between atoms: C1_4  and  C2_5 
ROOT
HETATM    1  C2  UNL     1      29.446  30.663   8.919  1.00  0.00     0.122 C 
HETATM    2  C3  UNL     1      28.667  29.565   9.616  1.00  0.00     0.040 C 
HETATM    3  C4  UNL     1      29.791  28.612   9.980  1.00  0.00     0.105 C 
HETATM    4  C5  UNL     1      30.634  28.675   8.753  1.00  0.00     0.218 C 
HETATM    5  O1  UNL     1      31.424  27.792   8.331  1.00  0.00    -0.274 OA
HETATM    6  N2  UNL     1      30.392  29.925   8.122  1.00  0.00    -0.352 N 
ATOM      7  H2  UNL     1      30.817  30.245   7.252  1.00  0.00     0.163 HD
ENDROOT
BRANCH   1   8
HETATM    8  C1  UNL     1      28.594  31.560   8.126  1.00  0.00     0.078 C 
HETATM    9  N1  UNL     1      28.894  32.041   6.985  1.00  0.00    -0.409 N 
ATOM     10  H12 UNL     1      29.802  31.773   6.606  1.00  0.00     0.155 HD
ATOM     11  H11 UNL     1      28.302  32.663   6.434  1.00  0.00     0.155 HD
ENDBRANCH   1   8
TORSDOF 1
ENDMDL
