MODEL 1
REMARK VINA RESULT: -5.522202102      0.000      0.000
REMARK  2 active torsions:
REMARK  status: ('A' for Active; 'I' for Inactive)
REMARK    1  A    between atoms: C1_2  and  N1_3 
REMARK    2  A    between atoms: N1_3  and  C2_5 
ROOT
HETATM    1  C2  UNL     1      29.494  29.787   8.764  1.00  0.00     0.090 A 
HETATM    2  C3  UNL     1      28.132  28.933   7.884  1.00  0.00     0.052 A 
HETATM    3  C4  UNL     1      29.038  28.109   7.635  1.00  0.00    -0.029 A 
HETATM    4  C5  UNL     1      29.786  27.995   7.774  1.00  0.00    -0.029 A 
HETATM    5  C6  UNL     1      30.748  28.530   8.367  1.00  0.00     0.052 A 
ENDROOT
BRANCH   1   6
HETATM    6  N1  UNL     1      29.774  30.723   7.858  1.00  0.00    -0.363 N 
ATOM      7  H1  UNL     1      29.923  30.403   6.900  1.00  0.00     0.162 HD
BRANCH   6   8
HETATM    8  C1  UNL     1      29.890  32.146   8.091  1.00  0.00     0.348 C 
HETATM    9  O1  UNL     1      30.894  32.735   7.684  1.00  0.00    -0.284 OA
ENDBRANCH   6   8
ENDBRANCH   1   6
TORSDOF 2
ENDMDL
MODEL 2
REMARK VINA RESULT: -5.516370709      1.947      2.095
REMARK  2 active torsions:
REMARK  status: ('A' for Active; 'I' for Inactive)
REMARK    1  A    between atoms: C1_2  and  N1_3 
REMARK    2  A    between atoms: N1_3  and  C2_5 
ROOT
HETATM    1  C2  UNL     1      28.861  29.071   9.492  1.00  0.00     0.090 A 
HETATM    2  C3  UNL     1      29.044  28.727   7.701  1.00  0.00     0.052 A 
HETATM    3  C4  UNL     1      30.213  28.452   8.047  1.00  0.00    -0.029 A 
HETATM    4  C5  UNL     1      30.651  28.426   8.679  1.00  0.00    -0.029 A 
HETATM    5  C6  UNL     1      30.579  28.636   9.909  1.00  0.00     0.052 A 
ENDROOT
BRANCH   1   6
HETATM    6  N1  UNL     1      28.936  30.402   9.459  1.00  0.00    -0.363 N 
ATOM      7  H1  UNL     1      29.860  30.805   9.301  1.00  0.00     0.162 HD
BRANCH   6   8
HETATM    8  C1  UNL     1      27.841  31.334   9.623  1.00  0.00     0.348 C 
HETATM    9  O1  UNL     1      27.136  31.599   8.647  1.00  0.00    -0.284 OA
ENDBRANCH   6   8
ENDBRANCH   1   6
TORSDOF 2
ENDMDL
MODEL 3
REMARK VINA RESULT: -5.469294968      1.294      1.294
REMARK  2 active torsions:
REMARK  status: ('A' for Active; 'I' for Inactive)
REMARK    1  A    between atoms: C1_2  and  N1_3 
REMARK    2  A    between atoms: N1_3  and  C2_5 
ROOT
HETATM    1  C2  UNL     1      29.153  29.304   9.289  1.00  0.00     0.090 A 
HETATM    2  C3  UNL     1      28.160  28.591   7.924  1.00  0.00     0.052 A 
HETATM    3  C4  UNL     1      29.261  28.095   7.609  1.00  0.00    -0.029 A 
HETATM    4  C5  UNL     1      29.992  28.077   7.851  1.00  0.00    -0.029 A 
HETATM    5  C6  UNL     1      30.714  28.527   8.766  1.00  0.00     0.052 A 
ENDROOT
BRANCH   1   6
HETATM    6  N1  UNL     1      29.310  30.539   8.813  1.00  0.00    -0.363 N 
ATOM      7  H1  UNL     1      29.459  30.626   7.807  1.00  0.00     0.162 HD
BRANCH   6   8
HETATM    8  C1  UNL     1      29.291  31.769   9.574  1.00  0.00     0.348 C 
HETATM    9  O1  UNL     1      30.178  31.964  10.408  1.00  0.00    -0.284 OA
ENDBRANCH   6   8
ENDBRANCH   1   6
TORSDOF 2
ENDMDL
MODEL 4
REMARK VINA RESULT: -5.457694281      1.019      1.719
REMARK  2 active torsions:
REMARK  status: ('A' for Active; 'I' for Inactive)
REMARK    1  A    between atoms: C1_2  and  N1_3 
REMARK    2  A    between atoms: N1_3  and  C2_5 
ROOT
HETATM    1  C2  UNL     1      29.935  29.866   8.268  1.00  0.00     0.090 A 
HETATM    2  C3  UNL     1      30.248  29.191   9.942  1.00  0.00     0.052 A 
HETATM    3  C4  UNL     1      29.198  28.560   9.698  1.00  0.00    -0.029 A 
HETATM    4  C5  UNL     1      28.676  28.476   9.139  1.00  0.00    -0.029 A 
HETATM    5  C6  UNL     1      28.420  28.896   7.990  1.00  0.00     0.052 A 
ENDROOT
BRANCH   1   6
HETATM    6  N1  UNL     1      29.422  31.048   8.611  1.00  0.00    -0.363 N 
ATOM      7  H1  UNL     1      28.697  31.041   9.329  1.00  0.00     0.162 HD
BRANCH   6   8
HETATM    8  C1  UNL     1      29.786  32.339   8.070  1.00  0.00     0.348 C 
HETATM    9  O1  UNL     1      30.931  32.501   7.642  1.00  0.00    -0.284 OA
ENDBRANCH   6   8
ENDBRANCH   1   6
TORSDOF 2
ENDMDL
MODEL 5
REMARK VINA RESULT: -5.393198321      1.032      1.853
REMARK  2 active torsions:
REMARK  status: ('A' for Active; 'I' for Inactive)
REMARK    1  A    between atoms: C1_2  and  N1_3 
REMARK    2  A    between atoms: N1_3  and  C2_5 
ROOT
HETATM    1  C2  UNL     1      29.634  29.479   8.235  1.00  0.00     0.090 A 
HETATM    2  C3  UNL     1      31.046  28.320   8.385  1.00  0.00     0.052 A 
HETATM    3  C4  UNL     1      30.615  28.215   9.553  1.00  0.00    -0.029 A 
HETATM    4  C5  UNL     1      30.048  28.483  10.000  1.00  0.00    -0.029 A 
HETATM    5  C6  UNL     1      29.066  29.254   9.950  1.00  0.00     0.052 A 
ENDROOT
BRANCH   1   6
HETATM    6  N1  UNL     1      30.297  30.631   8.335  1.00  0.00    -0.363 N 
ATOM      7  H1  UNL     1      31.214  30.595   8.780  1.00  0.00     0.162 HD
BRANCH   6   8
HETATM    8  C1  UNL     1      29.849  31.929   7.877  1.00  0.00     0.348 C 
HETATM    9  O1  UNL     1      30.691  32.797   7.638  1.00  0.00    -0.284 OA
ENDBRANCH   6   8
ENDBRANCH   1   6
TORSDOF 2
ENDMDL
