MODEL 1
REMARK VINA RESULT: -5.790106512      0.000      0.000
REMARK  2 active torsions:
REMARK  status: ('A' for Active; 'I' for Inactive)
REMARK    1  A    between atoms: N3_4  and  N4_6 
REMARK    2  A    between atoms: C2_8  and  N5_9 
ROOT
HETATM    1  N4  UNL     1      31.883  13.362  10.180  1.00  0.00    -0.292 N 
ATOM      2  H4  UNL     1      32.732  13.683  10.646  1.00  0.00     0.187 HD
HETATM    3  C2  UNL     1      31.383  14.110   9.259  1.00  0.00     0.222 C 
ENDROOT
BRANCH   1   4
HETATM    4  N3  UNL     1      31.346  12.147  10.578  1.00  0.00    -0.275 N 
HETATM    5  C1  UNL     1      32.016  11.074  10.331  1.00  0.00     0.215 C 
HETATM    6  N1  UNL     1      33.284  11.122   9.665  1.00  0.00    -0.065 NA
HETATM    7  N2  UNL     1      31.505   9.805  10.721  1.00  0.00    -0.065 NA
ATOM      8  H3  UNL     1      30.444  12.104  11.054  1.00  0.00     0.189 HD
ENDBRANCH   1   4
BRANCH   3   9
HETATM    9  N5  UNL     1      32.042  15.330   8.956  1.00  0.00    -0.262 N 
HETATM   10  C3  UNL     1      33.376  15.469   8.731  1.00  0.00     0.118 A 
HETATM   11  C4  UNL     1      33.610  16.800   8.473  1.00  0.00     0.038 A 
HETATM   12  C5  UNL     1      32.380  17.431   8.554  1.00  0.00     0.109 A 
HETATM   13  N6  UNL     1      31.461  16.508   8.847  1.00  0.00    -0.305 N 
ATOM     14  H6  UNL     1      30.464  16.687   8.968  1.00  0.00     0.186 HD
ENDBRANCH   3   9
TORSDOF 2
ENDMDL
MODEL 2
REMARK VINA RESULT: -5.647914975      2.318      2.488
REMARK  2 active torsions:
REMARK  status: ('A' for Active; 'I' for Inactive)
REMARK    1  A    between atoms: N3_4  and  N4_6 
REMARK    2  A    between atoms: C2_8  and  N5_9 
ROOT
HETATM    1  N4  UNL     1      32.276  12.834   8.206  1.00  0.00    -0.292 N 
ATOM      2  H4  UNL     1      32.960  13.306   7.614  1.00  0.00     0.187 HD
HETATM    3  C2  UNL     1      31.790  13.490   9.202  1.00  0.00     0.222 C 
ENDROOT
BRANCH   1   4
HETATM    4  N3  UNL     1      31.931  11.530   7.885  1.00  0.00    -0.275 N 
HETATM    5  C1  UNL     1      32.361  11.043   6.772  1.00  0.00     0.215 C 
HETATM    6  N1  UNL     1      33.175  11.817   5.882  1.00  0.00    -0.065 NA
HETATM    7  N2  UNL     1      32.033   9.710   6.401  1.00  0.00    -0.065 NA
ATOM      8  H3  UNL     1      31.353  10.972   8.513  1.00  0.00     0.189 HD
ENDBRANCH   1   4
BRANCH   3   9
HETATM    9  N5  UNL     1      32.236  14.821   9.410  1.00  0.00    -0.262 N 
HETATM   10  C3  UNL     1      33.004  15.538   8.546  1.00  0.00     0.118 A 
HETATM   11  C4  UNL     1      33.214  16.772   9.115  1.00  0.00     0.038 A 
HETATM   12  C5  UNL     1      32.551  16.756  10.331  1.00  0.00     0.109 A 
HETATM   13  N6  UNL     1      31.974  15.560  10.470  1.00  0.00    -0.305 N 
ATOM     14  H6  UNL     1      31.418  15.265  11.272  1.00  0.00     0.186 HD
ENDBRANCH   3   9
TORSDOF 2
ENDMDL
MODEL 3
REMARK VINA RESULT: -5.578795966      1.599      1.730
REMARK  2 active torsions:
REMARK  status: ('A' for Active; 'I' for Inactive)
REMARK    1  A    between atoms: N3_4  and  N4_6 
REMARK    2  A    between atoms: C2_8  and  N5_9 
ROOT
HETATM    1  N4  UNL     1      32.368  12.815   8.308  1.00  0.00    -0.292 N 
ATOM      2  H4  UNL     1      33.261  13.161   7.956  1.00  0.00     0.187 HD
HETATM    3  C2  UNL     1      31.672  13.599   9.056  1.00  0.00     0.222 C 
ENDROOT
BRANCH   1   4
HETATM    4  N3  UNL     1      31.983  11.532   7.948  1.00  0.00    -0.275 N 
HETATM    5  C1  UNL     1      32.613  10.537   8.473  1.00  0.00     0.215 C 
HETATM    6  N1  UNL     1      33.684  10.739   9.404  1.00  0.00    -0.065 NA
HETATM    7  N2  UNL     1      32.253   9.204   8.134  1.00  0.00    -0.065 NA
ATOM      8  H3  UNL     1      31.221  11.380   7.286  1.00  0.00     0.189 HD
ENDBRANCH   1   4
BRANCH   3   9
HETATM    9  N5  UNL     1      32.193  14.888   9.341  1.00  0.00    -0.262 N 
HETATM   10  C3  UNL     1      32.995  15.614   8.517  1.00  0.00     0.118 A 
HETATM   11  C4  UNL     1      33.276  16.798   9.158  1.00  0.00     0.038 A 
HETATM   12  C5  UNL     1      32.618  16.743  10.376  1.00  0.00     0.109 A 
HETATM   13  N6  UNL     1      31.977  15.574  10.446  1.00  0.00    -0.305 N 
ATOM     14  H6  UNL     1      31.409  15.260  11.233  1.00  0.00     0.186 HD
ENDBRANCH   3   9
TORSDOF 2
ENDMDL
MODEL 4
REMARK VINA RESULT: -5.553122496      1.295      1.758
REMARK  2 active torsions:
REMARK  status: ('A' for Active; 'I' for Inactive)
REMARK    1  A    between atoms: N3_4  and  N4_6 
REMARK    2  A    between atoms: C2_8  and  N5_9 
ROOT
HETATM    1  N4  UNL     1      31.237  13.118  10.244  1.00  0.00    -0.292 N 
ATOM      2  H4  UNL     1      30.303  13.524  10.307  1.00  0.00     0.187 HD
HETATM    3  C2  UNL     1      32.189  13.867   9.806  1.00  0.00     0.222 C 
ENDROOT
BRANCH   1   4
HETATM    4  N3  UNL     1      31.397  11.798  10.635  1.00  0.00    -0.275 N 
HETATM    5  C1  UNL     1      30.801  10.882   9.950  1.00  0.00     0.215 C 
HETATM    6  N1  UNL     1      29.993  11.208   8.812  1.00  0.00    -0.065 NA
HETATM    7  N2  UNL     1      30.937   9.514  10.314  1.00  0.00    -0.065 NA
ATOM      8  H3  UNL     1      31.971  11.557  11.444  1.00  0.00     0.189 HD
ENDBRANCH   1   4
BRANCH   3   9
HETATM    9  N5  UNL     1      31.877  15.203   9.442  1.00  0.00    -0.262 N 
HETATM   10  C3  UNL     1      30.807  15.912   9.890  1.00  0.00     0.118 A 
HETATM   11  C4  UNL     1      30.866  17.154   9.303  1.00  0.00     0.038 A 
HETATM   12  C5  UNL     1      31.996  17.151   8.502  1.00  0.00     0.109 A 
HETATM   13  N6  UNL     1      32.577  15.954   8.615  1.00  0.00    -0.305 N 
ATOM     14  H6  UNL     1      33.430  15.666   8.135  1.00  0.00     0.186 HD
ENDBRANCH   3   9
TORSDOF 2
ENDMDL
MODEL 5
REMARK VINA RESULT: -5.528013970      1.542      2.149
REMARK  2 active torsions:
REMARK  status: ('A' for Active; 'I' for Inactive)
REMARK    1  A    between atoms: N3_4  and  N4_6 
REMARK    2  A    between atoms: C2_8  and  N5_9 
ROOT
HETATM    1  N4  UNL     1      32.810  14.030  10.014  1.00  0.00    -0.292 N 
ATOM      2  H4  UNL     1      32.085  14.036  10.732  1.00  0.00     0.187 HD
HETATM    3  C2  UNL     1      32.848  15.018   9.189  1.00  0.00     0.222 C 
ENDROOT
BRANCH   1   4
HETATM    4  N3  UNL     1      33.688  12.957   9.989  1.00  0.00    -0.275 N 
HETATM    5  C1  UNL     1      33.196  11.769   9.891  1.00  0.00     0.215 C 
HETATM    6  N1  UNL     1      31.782  11.550   9.807  1.00  0.00    -0.065 NA
HETATM    7  N2  UNL     1      34.058  10.638   9.862  1.00  0.00    -0.065 NA
ATOM      8  H3  UNL     1      34.696  13.103  10.048  1.00  0.00     0.189 HD
ENDBRANCH   1   4
BRANCH   3   9
HETATM    9  N5  UNL     1      31.884  16.049   9.334  1.00  0.00    -0.262 N 
HETATM   10  C3  UNL     1      30.936  16.110  10.308  1.00  0.00     0.118 A 
HETATM   11  C4  UNL     1      30.207  17.256  10.097  1.00  0.00     0.038 A 
HETATM   12  C5  UNL     1      30.752  17.861   8.976  1.00  0.00     0.109 A 
HETATM   13  N6  UNL     1      31.761  17.099   8.547  1.00  0.00    -0.305 N 
ATOM     14  H6  UNL     1      32.346  17.300   7.736  1.00  0.00     0.186 HD
ENDBRANCH   3   9
TORSDOF 2
ENDMDL
