MODEL 1
REMARK VINA RESULT: -4.769708528      0.000      0.000
REMARK  2 active torsions:
REMARK  status: ('A' for Active; 'I' for Inactive)
REMARK    1  A    between atoms: N1_1  and  S1_4 
REMARK    2  A    between atoms: S1_4  and  N2_6 
ROOT
HETATM    1  N2  UNL     1      31.190  15.394   9.837  1.00  0.00    -0.164 N 
HETATM    2  C1  UNL     1      31.630  14.244   9.270  1.00  0.00     0.231 A 
HETATM    3  N3  UNL     1      31.385  13.566  10.402  1.00  0.00    -0.277 N 
ATOM      4  H3  UNL     1      31.483  12.600  10.713  1.00  0.00     0.185 HD
HETATM    5  N4  UNL     1      30.957  14.705  10.941  1.00  0.00    -0.004 NA
ENDROOT
BRANCH   1   6
HETATM    6  S1  UNL     1      31.060  16.853   9.312  1.00  0.00     0.235 S 
HETATM    7  O1  UNL     1      29.866  17.503   9.329  1.00  0.00    -0.210 OA
BRANCH   6   8
HETATM    8  N1  UNL     1      32.193  17.410   8.431  1.00  0.00    -0.331 N 
ATOM      9  H12 UNL     1      31.954  18.108   7.726  1.00  0.00     0.168 HD
ATOM     10  H11 UNL     1      33.159  17.265   8.725  1.00  0.00     0.168 HD
ENDBRANCH   6   8
ENDBRANCH   1   6
TORSDOF 2
ENDMDL
MODEL 2
REMARK VINA RESULT: -4.553631764      1.393      3.046
REMARK  2 active torsions:
REMARK  status: ('A' for Active; 'I' for Inactive)
REMARK    1  A    between atoms: N1_1  and  S1_4 
REMARK    2  A    between atoms: S1_4  and  N2_6 
ROOT
HETATM    1  N2  UNL     1      32.162  16.701   9.178  1.00  0.00    -0.164 N 
HETATM    2  C1  UNL     1      33.417  16.187   9.177  1.00  0.00     0.231 A 
HETATM    3  N3  UNL     1      33.760  16.969   8.142  1.00  0.00    -0.277 N 
ATOM      4  H3  UNL     1      34.600  17.121   7.585  1.00  0.00     0.185 HD
HETATM    5  N4  UNL     1      32.523  17.461   8.159  1.00  0.00    -0.004 NA
ENDROOT
BRANCH   1   6
HETATM    6  S1  UNL     1      30.908  16.431  10.059  1.00  0.00     0.235 S 
HETATM    7  O1  UNL     1      30.006  17.415  10.319  1.00  0.00    -0.210 OA
BRANCH   6   8
HETATM    8  N1  UNL     1      30.896  15.166  10.937  1.00  0.00    -0.331 N 
ATOM      9  H12 UNL     1      30.177  14.465  10.759  1.00  0.00     0.168 HD
ATOM     10  H11 UNL     1      31.726  14.944  11.488  1.00  0.00     0.168 HD
ENDBRANCH   6   8
ENDBRANCH   1   6
TORSDOF 2
ENDMDL
MODEL 3
REMARK VINA RESULT: -4.458387597      1.432      1.600
REMARK  2 active torsions:
REMARK  status: ('A' for Active; 'I' for Inactive)
REMARK    1  A    between atoms: N1_1  and  S1_4 
REMARK    2  A    between atoms: S1_4  and  N2_6 
ROOT
HETATM    1  N2  UNL     1      31.543  14.799   9.288  1.00  0.00    -0.164 N 
HETATM    2  C1  UNL     1      32.657  14.228   8.765  1.00  0.00     0.231 A 
HETATM    3  N3  UNL     1      31.976  13.108   8.482  1.00  0.00    -0.277 N 
ATOM      4  H3  UNL     1      32.192  12.207   8.055  1.00  0.00     0.185 HD
HETATM    5  N4  UNL     1      30.893  13.684   8.999  1.00  0.00    -0.004 NA
ENDROOT
BRANCH   1   6
HETATM    6  S1  UNL     1      31.266  16.189   9.929  1.00  0.00     0.235 S 
HETATM    7  O1  UNL     1      30.183  16.928   9.569  1.00  0.00    -0.210 OA
BRANCH   6   8
HETATM    8  N1  UNL     1      32.416  16.882  10.683  1.00  0.00    -0.331 N 
ATOM      9  H12 UNL     1      32.292  17.857  10.957  1.00  0.00     0.168 HD
ATOM     10  H11 UNL     1      33.148  16.305  11.098  1.00  0.00     0.168 HD
ENDBRANCH   6   8
ENDBRANCH   1   6
TORSDOF 2
ENDMDL
MODEL 4
REMARK VINA RESULT: -4.426529014      3.823      3.955
REMARK  2 active torsions:
REMARK  status: ('A' for Active; 'I' for Inactive)
REMARK    1  A    between atoms: N1_1  and  S1_4 
REMARK    2  A    between atoms: S1_4  and  N2_6 
ROOT
HETATM    1  N2  UNL     1      31.863  12.762   9.211  1.00  0.00    -0.164 N 
HETATM    2  C1  UNL     1      31.261  11.604   8.842  1.00  0.00     0.231 A 
HETATM    3  N3  UNL     1      30.143  12.267   8.507  1.00  0.00    -0.277 N 
ATOM      4  H3  UNL     1      29.227  12.018   8.134  1.00  0.00     0.185 HD
HETATM    5  N4  UNL     1      30.751  13.393   8.874  1.00  0.00    -0.004 NA
ENDROOT
BRANCH   1   6
HETATM    6  S1  UNL     1      33.275  13.088   9.777  1.00  0.00     0.235 S 
HETATM    7  O1  UNL     1      34.168  12.100  10.055  1.00  0.00    -0.210 OA
BRANCH   6   8
HETATM    8  N1  UNL     1      33.511  14.488  10.374  1.00  0.00    -0.331 N 
ATOM      9  H12 UNL     1      32.890  15.244  10.085  1.00  0.00     0.168 HD
ATOM     10  H11 UNL     1      34.099  14.574  11.204  1.00  0.00     0.168 HD
ENDBRANCH   6   8
ENDBRANCH   1   6
TORSDOF 2
ENDMDL
MODEL 5
REMARK VINA RESULT: -4.405515393      2.502      3.516
REMARK  2 active torsions:
REMARK  status: ('A' for Active; 'I' for Inactive)
REMARK    1  A    between atoms: N1_1  and  S1_4 
REMARK    2  A    between atoms: S1_4  and  N2_6 
ROOT
HETATM    1  N2  UNL     1      31.397  15.913   9.234  1.00  0.00    -0.164 N 
HETATM    2  C1  UNL     1      30.459  16.843   9.540  1.00  0.00     0.231 A 
HETATM    3  N3  UNL     1      31.089  17.757   8.787  1.00  0.00    -0.277 N 
ATOM      4  H3  UNL     1      30.936  18.735   8.541  1.00  0.00     0.185 HD
HETATM    5  N4  UNL     1      32.000  16.830   8.498  1.00  0.00    -0.004 NA
ENDROOT
BRANCH   1   6
HETATM    6  S1  UNL     1      31.582  14.422   9.639  1.00  0.00     0.235 S 
HETATM    7  O1  UNL     1      32.637  14.024  10.399  1.00  0.00    -0.210 OA
BRANCH   6   8
HETATM    8  N1  UNL     1      30.786  13.355   8.863  1.00  0.00    -0.331 N 
ATOM      9  H12 UNL     1      31.083  12.383   8.943  1.00  0.00     0.168 HD
ATOM     10  H11 UNL     1      29.864  13.599   8.502  1.00  0.00     0.168 HD
ENDBRANCH   6   8
ENDBRANCH   1   6
TORSDOF 2
ENDMDL
