MODEL 1
REMARK VINA RESULT: -5.800935903      0.000      0.000
REMARK  1 active torsions:
REMARK  status: ('A' for Active; 'I' for Inactive)
REMARK    1  A    between atoms: N2_4  and  N3_6 
ROOT
HETATM    1  N3  UNL     1      31.285  12.312   8.796  1.00  0.00    -0.267 N 
ATOM      2  H3  UNL     1      31.899  11.502   8.716  1.00  0.00     0.190 HD
HETATM    3  C1  UNL     1      31.758  13.415   9.268  1.00  0.00     0.191 A 
HETATM    4  N4  UNL     1      31.041  14.633   9.444  1.00  0.00    -0.333 N 
ATOM      5  H4  UNL     1      30.059  14.786   9.218  1.00  0.00     0.168 HD
HETATM    6  C2  UNL     1      31.932  15.599   9.990  1.00  0.00     0.185 A 
HETATM    7  N5  UNL     1      33.095  15.078  10.153  1.00  0.00    -0.316 N 
ATOM      8  H5  UNL     1      33.903  15.573  10.531  1.00  0.00     0.170 HD
HETATM    9  C3  UNL     1      33.103  13.720   9.736  1.00  0.00     0.291 A 
HETATM   10  O1  UNL     1      34.042  12.888   9.739  1.00  0.00    -0.264 OA
ENDROOT
BRANCH   1  11
HETATM   11  N2  UNL     1      29.961  12.200   8.392  1.00  0.00    -0.248 N 
HETATM   12  N1  UNL     1      29.187  11.255   8.716  1.00  0.00    -0.331 N 
ATOM     13  H12 UNL     1      29.580  10.530   9.317  1.00  0.00     0.178 HD
ATOM     14  H11 UNL     1      28.215  11.172   8.420  1.00  0.00     0.178 HD
ATOM     15  H2  UNL     1      29.586  12.934   7.792  1.00  0.00     0.207 HD
ENDBRANCH   1  11
TORSDOF 1
ENDMDL
MODEL 2
REMARK VINA RESULT: -5.783938182      2.279      2.760
REMARK  1 active torsions:
REMARK  status: ('A' for Active; 'I' for Inactive)
REMARK    1  A    between atoms: N2_4  and  N3_6 
ROOT
HETATM    1  N3  UNL     1      30.809  14.269   9.384  1.00  0.00    -0.267 N 
ATOM      2  H3  UNL     1      29.947  14.407   9.912  1.00  0.00     0.190 HD
HETATM    3  C1  UNL     1      31.619  15.261   9.231  1.00  0.00     0.191 A 
HETATM    4  N4  UNL     1      32.857  15.239   8.528  1.00  0.00    -0.333 N 
ATOM      5  H4  UNL     1      33.260  14.432   8.053  1.00  0.00     0.168 HD
HETATM    6  C2  UNL     1      33.434  16.538   8.601  1.00  0.00     0.185 A 
HETATM    7  N5  UNL     1      32.667  17.320   9.272  1.00  0.00    -0.316 N 
ATOM      8  H5  UNL     1      32.865  18.303   9.461  1.00  0.00     0.170 HD
HETATM    9  C3  UNL     1      31.506  16.631   9.715  1.00  0.00     0.291 A 
HETATM   10  O1  UNL     1      30.536  17.050  10.390  1.00  0.00    -0.264 OA
ENDROOT
BRANCH   1  11
HETATM   11  N2  UNL     1      31.080  13.018   8.848  1.00  0.00    -0.248 N 
HETATM   12  N1  UNL     1      30.203  12.191   8.468  1.00  0.00    -0.331 N 
ATOM     13  H12 UNL     1      29.230  12.480   8.570  1.00  0.00     0.178 HD
ATOM     14  H11 UNL     1      30.402  11.272   8.075  1.00  0.00     0.178 HD
ATOM     15  H2  UNL     1      32.059  12.746   8.753  1.00  0.00     0.207 HD
ENDBRANCH   1  11
TORSDOF 1
ENDMDL
MODEL 3
REMARK VINA RESULT: -5.651620911      1.585      1.975
REMARK  1 active torsions:
REMARK  status: ('A' for Active; 'I' for Inactive)
REMARK    1  A    between atoms: N2_4  and  N3_6 
ROOT
HETATM    1  N3  UNL     1      30.523  13.211   8.811  1.00  0.00    -0.267 N 
ATOM      2  H3  UNL     1      29.777  13.896   8.691  1.00  0.00     0.190 HD
HETATM    3  C1  UNL     1      31.657  13.593   9.291  1.00  0.00     0.191 A 
HETATM    4  N4  UNL     1      32.796  12.769   9.522  1.00  0.00    -0.333 N 
ATOM      5  H4  UNL     1      32.858  11.769   9.336  1.00  0.00     0.168 HD
HETATM    6  C2  UNL     1      33.833  13.584  10.057  1.00  0.00     0.185 A 
HETATM    7  N5  UNL     1      33.425  14.797  10.165  1.00  0.00    -0.316 N 
ATOM      8  H5  UNL     1      33.989  15.568  10.524  1.00  0.00     0.170 HD
HETATM    9  C3  UNL     1      32.082  14.920   9.717  1.00  0.00     0.291 A 
HETATM   10  O1  UNL     1      31.345  15.933   9.668  1.00  0.00    -0.264 OA
ENDROOT
BRANCH   1  11
HETATM   11  N2  UNL     1      30.291  11.889   8.454  1.00  0.00    -0.248 N 
HETATM   12  N1  UNL     1      29.220  11.258   8.685  1.00  0.00    -0.331 N 
ATOM     13  H12 UNL     1      28.484  11.772   9.170  1.00  0.00     0.178 HD
ATOM     14  H11 UNL     1      29.049  10.287   8.424  1.00  0.00     0.178 HD
ATOM     15  H2  UNL     1      31.038  11.391   7.971  1.00  0.00     0.207 HD
ENDBRANCH   1  11
TORSDOF 1
ENDMDL
MODEL 4
REMARK VINA RESULT: -5.412514682      3.349      3.899
REMARK  1 active torsions:
REMARK  status: ('A' for Active; 'I' for Inactive)
REMARK    1  A    between atoms: N2_4  and  N3_6 
ROOT
HETATM    1  N3  UNL     1      33.593  15.141   9.556  1.00  0.00    -0.267 N 
ATOM      2  H3  UNL     1      34.321  15.330   8.867  1.00  0.00     0.190 HD
HETATM    3  C1  UNL     1      32.541  15.886   9.580  1.00  0.00     0.191 A 
HETATM    4  N4  UNL     1      31.437  15.759  10.471  1.00  0.00    -0.333 N 
ATOM      5  H4  UNL     1      31.340  15.058  11.205  1.00  0.00     0.168 HD
HETATM    6  C2  UNL     1      30.494  16.778  10.160  1.00  0.00     0.185 A 
HETATM    7  N5  UNL     1      30.926  17.490   9.181  1.00  0.00    -0.316 N 
ATOM      8  H5  UNL     1      30.427  18.283   8.777  1.00  0.00     0.170 HD
HETATM    9  C3  UNL     1      32.195  17.024   8.740  1.00  0.00     0.291 A 
HETATM   10  O1  UNL     1      32.928  17.456   7.818  1.00  0.00    -0.264 OA
ENDROOT
BRANCH   1  11
HETATM   11  N2  UNL     1      33.759  14.085  10.443  1.00  0.00    -0.248 N 
HETATM   12  N1  UNL     1      34.740  13.288  10.438  1.00  0.00    -0.331 N 
ATOM     13  H12 UNL     1      35.452  13.445   9.724  1.00  0.00     0.178 HD
ATOM     14  H11 UNL     1      34.862  12.513  11.089  1.00  0.00     0.178 HD
ATOM     15  H2  UNL     1      33.037  13.943  11.149  1.00  0.00     0.207 HD
ENDBRANCH   1  11
TORSDOF 1
ENDMDL
MODEL 5
REMARK VINA RESULT: -5.391751324      1.025      1.073
REMARK  1 active torsions:
REMARK  status: ('A' for Active; 'I' for Inactive)
REMARK    1  A    between atoms: N2_4  and  N3_6 
ROOT
HETATM    1  N3  UNL     1      31.808  11.790   8.398  1.00  0.00    -0.267 N 
ATOM      2  H3  UNL     1      32.594  11.140   8.403  1.00  0.00     0.190 HD
HETATM    3  C1  UNL     1      31.929  12.928   8.993  1.00  0.00     0.191 A 
HETATM    4  N4  UNL     1      30.936  13.945   9.079  1.00  0.00    -0.333 N 
ATOM      5  H4  UNL     1      29.999  13.900   8.680  1.00  0.00     0.168 HD
HETATM    6  C2  UNL     1      31.477  15.033   9.819  1.00  0.00     0.185 A 
HETATM    7  N5  UNL     1      32.682  14.764  10.176  1.00  0.00    -0.316 N 
ATOM      8  H5  UNL     1      33.278  15.390  10.718  1.00  0.00     0.170 HD
HETATM    9  C3  UNL     1      33.069  13.477   9.715  1.00  0.00     0.291 A 
HETATM   10  O1  UNL     1      34.156  12.869   9.862  1.00  0.00    -0.264 OA
ENDROOT
BRANCH   1  11
HETATM   11  N2  UNL     1      30.634  11.427   7.750  1.00  0.00    -0.248 N 
HETATM   12  N1  UNL     1      30.580  10.749   6.685  1.00  0.00    -0.331 N 
ATOM     13  H12 UNL     1      31.471  10.455   6.286  1.00  0.00     0.178 HD
ATOM     14  H11 UNL     1      29.718  10.483   6.209  1.00  0.00     0.178 HD
ATOM     15  H2  UNL     1      29.753  11.731   8.164  1.00  0.00     0.207 HD
ENDBRANCH   1  11
TORSDOF 1
ENDMDL
