MODEL 1
REMARK VINA RESULT: -6.845836972      0.000      0.000
REMARK  2 active torsions:
REMARK  status: ('A' for Active; 'I' for Inactive)
REMARK    1  A    between atoms: C1_4  and  O1_5 
REMARK    2  A    between atoms: C1_4  and  C2_7 
ROOT
HETATM    1  C2  UNL     1      33.172  15.180   9.269  1.00  0.00     0.027 A 
HETATM    2  C3  UNL     1      32.069  15.899   9.471  1.00  0.00     0.006 A 
HETATM    3  C4  UNL     1      30.863  15.942  10.155  1.00  0.00     0.031 A 
HETATM    4  C5  UNL     1      30.186  17.103   9.832  1.00  0.00     0.089 A 
HETATM    5  N2  UNL     1      30.970  17.762   8.958  1.00  0.00    -0.365 N 
ATOM      6  H2  UNL     1      30.744  18.661   8.532  1.00  0.00     0.165 HD
HETATM    7  C6  UNL     1      32.096  17.061   8.731  1.00  0.00     0.043 A 
HETATM    8  C7  UNL     1      33.245  17.022   8.079  1.00  0.00     0.031 A 
HETATM    9  C8  UNL     1      33.965  15.952   8.320  1.00  0.00     0.019 A 
ENDROOT
BRANCH   1  10
HETATM   10  C1  UNL     1      33.492  13.893   9.881  1.00  0.00     0.144 C 
HETATM   11  N1  UNL     1      32.586  13.120  10.344  1.00  0.00    -0.379 N 
ATOM     12  H12 UNL     1      32.810  12.222  10.771  1.00  0.00     0.158 HD
ATOM     13  H11 UNL     1      31.610  13.409  10.283  1.00  0.00     0.158 HD
BRANCH  10  14
HETATM   14  O1  UNL     1      34.815  13.500   9.963  1.00  0.00    -0.346 OA
ATOM     15  H1  UNL     1      35.471  14.139  10.217  1.00  0.00     0.219 HD
ENDBRANCH  10  14
ENDBRANCH   1  10
TORSDOF 2
ENDMDL
MODEL 2
REMARK VINA RESULT: -6.649717545      2.400      3.736
REMARK  2 active torsions:
REMARK  status: ('A' for Active; 'I' for Inactive)
REMARK    1  A    between atoms: C1_4  and  O1_5 
REMARK    2  A    between atoms: C1_4  and  C2_7 
ROOT
HETATM    1  C2  UNL     1      31.852  16.696   9.009  1.00  0.00     0.027 A 
HETATM    2  C3  UNL     1      31.932  15.367   9.042  1.00  0.00     0.006 A 
HETATM    3  C4  UNL     1      31.229  14.204   9.321  1.00  0.00     0.031 A 
HETATM    4  C5  UNL     1      32.043  13.107   9.106  1.00  0.00     0.089 A 
HETATM    5  N2  UNL     1      33.231  13.595   8.702  1.00  0.00    -0.365 N 
ATOM      6  H2  UNL     1      34.046  13.030   8.465  1.00  0.00     0.165 HD
HETATM    7  C6  UNL     1      33.185  14.940   8.658  1.00  0.00     0.043 A 
HETATM    8  C7  UNL     1      33.855  16.047   8.393  1.00  0.00     0.031 A 
HETATM    9  C8  UNL     1      33.165  17.149   8.567  1.00  0.00     0.019 A 
ENDROOT
BRANCH   1  10
HETATM   10  C1  UNL     1      30.683  17.503   9.351  1.00  0.00     0.144 C 
HETATM   11  N1  UNL     1      30.073  17.373  10.466  1.00  0.00    -0.379 N 
ATOM     12  H12 UNL     1      29.258  17.936  10.704  1.00  0.00     0.158 HD
ATOM     13  H11 UNL     1      30.413  16.685  11.139  1.00  0.00     0.158 HD
BRANCH  10  14
HETATM   14  O1  UNL     1      30.223  18.436   8.440  1.00  0.00    -0.346 OA
ATOM     15  H1  UNL     1      30.310  18.256   7.511  1.00  0.00     0.219 HD
ENDBRANCH  10  14
ENDBRANCH   1  10
TORSDOF 2
ENDMDL
MODEL 3
REMARK VINA RESULT: -6.559637589      1.744      1.847
REMARK  2 active torsions:
REMARK  status: ('A' for Active; 'I' for Inactive)
REMARK    1  A    between atoms: C1_4  and  O1_5 
REMARK    2  A    between atoms: C1_4  and  C2_7 
ROOT
HETATM    1  C2  UNL     1      32.045  14.404   9.245  1.00  0.00     0.027 A 
HETATM    2  C3  UNL     1      31.582  15.648   9.135  1.00  0.00     0.006 A 
HETATM    3  C4  UNL     1      30.466  16.454   9.312  1.00  0.00     0.031 A 
HETATM    4  C5  UNL     1      30.771  17.755   8.956  1.00  0.00     0.089 A 
HETATM    5  N2  UNL     1      32.059  17.743   8.563  1.00  0.00    -0.365 N 
ATOM      6  H2  UNL     1      32.579  18.559   8.238  1.00  0.00     0.165 HD
HETATM    7  C6  UNL     1      32.559  16.498   8.662  1.00  0.00     0.043 A 
HETATM    8  C7  UNL     1      33.622  15.731   8.492  1.00  0.00     0.031 A 
HETATM    9  C8  UNL     1      33.433  14.471   8.805  1.00  0.00     0.019 A 
ENDROOT
BRANCH   1  10
HETATM   10  C1  UNL     1      31.298  13.239   9.710  1.00  0.00     0.144 C 
HETATM   11  N1  UNL     1      30.766  12.408   8.897  1.00  0.00    -0.379 N 
ATOM     12  H12 UNL     1      30.244  11.595   9.221  1.00  0.00     0.158 HD
ATOM     13  H11 UNL     1      30.867  12.564   7.894  1.00  0.00     0.158 HD
BRANCH  10  14
HETATM   14  O1  UNL     1      31.161  13.028  11.069  1.00  0.00    -0.346 OA
ATOM     15  H1  UNL     1      31.157  13.776  11.654  1.00  0.00     0.219 HD
ENDBRANCH  10  14
ENDBRANCH   1  10
TORSDOF 2
ENDMDL
MODEL 4
REMARK VINA RESULT: -6.417936981      1.871      2.868
REMARK  2 active torsions:
REMARK  status: ('A' for Active; 'I' for Inactive)
REMARK    1  A    between atoms: C1_4  and  O1_5 
REMARK    2  A    between atoms: C1_4  and  C2_7 
ROOT
HETATM    1  C2  UNL     1      31.509  14.681   9.631  1.00  0.00     0.027 A 
HETATM    2  C3  UNL     1      32.387  15.523   9.087  1.00  0.00     0.006 A 
HETATM    3  C4  UNL     1      33.433  15.629   8.183  1.00  0.00     0.031 A 
HETATM    4  C5  UNL     1      33.888  16.934   8.148  1.00  0.00     0.089 A 
HETATM    5  N2  UNL     1      33.128  17.618   9.024  1.00  0.00    -0.365 N 
ATOM      6  H2  UNL     1      33.220  18.614   9.226  1.00  0.00     0.165 HD
HETATM    7  C6  UNL     1      32.228  16.795   9.593  1.00  0.00     0.043 A 
HETATM    8  C7  UNL     1      31.231  16.696  10.455  1.00  0.00     0.031 A 
HETATM    9  C8  UNL     1      30.728  15.489  10.561  1.00  0.00     0.019 A 
ENDROOT
BRANCH   1  10
HETATM   10  C1  UNL     1      31.380  13.256   9.340  1.00  0.00     0.144 C 
HETATM   11  N1  UNL     1      32.218  12.397   9.780  1.00  0.00    -0.379 N 
ATOM     12  H12 UNL     1      32.128  11.402   9.577  1.00  0.00     0.158 HD
ATOM     13  H11 UNL     1      33.001  12.717  10.351  1.00  0.00     0.158 HD
BRANCH  10  14
HETATM   14  O1  UNL     1      30.320  12.823   8.566  1.00  0.00    -0.346 OA
ATOM     15  H1  UNL     1      29.440  13.098   8.794  1.00  0.00     0.219 HD
ENDBRANCH  10  14
ENDBRANCH   1  10
TORSDOF 2
ENDMDL
MODEL 5
REMARK VINA RESULT: -6.267132310      2.073      2.309
REMARK  2 active torsions:
REMARK  status: ('A' for Active; 'I' for Inactive)
REMARK    1  A    between atoms: C1_4  and  O1_5 
REMARK    2  A    between atoms: C1_4  and  C2_7 
ROOT
HETATM    1  C2  UNL     1      32.014  13.794   9.327  1.00  0.00     0.027 A 
HETATM    2  C3  UNL     1      31.759  15.051   9.686  1.00  0.00     0.006 A 
HETATM    3  C4  UNL     1      30.792  15.899  10.206  1.00  0.00     0.031 A 
HETATM    4  C5  UNL     1      31.302  17.180  10.305  1.00  0.00     0.089 A 
HETATM    5  N2  UNL     1      32.567  17.115   9.849  1.00  0.00    -0.365 N 
ATOM      6  H2  UNL     1      33.210  17.905   9.794  1.00  0.00     0.165 HD
HETATM    7  C6  UNL     1      32.858  15.855   9.476  1.00  0.00     0.043 A 
HETATM    8  C7  UNL     1      33.780  15.049   8.980  1.00  0.00     0.031 A 
HETATM    9  C8  UNL     1      33.390  13.803   8.847  1.00  0.00     0.019 A 
ENDROOT
BRANCH   1  10
HETATM   10  C1  UNL     1      31.090  12.665   9.405  1.00  0.00     0.144 C 
HETATM   11  N1  UNL     1      31.121  11.832  10.374  1.00  0.00    -0.379 N 
ATOM     12  H12 UNL     1      30.476  11.044  10.429  1.00  0.00     0.158 HD
ATOM     13  H11 UNL     1      31.810  11.960  11.115  1.00  0.00     0.158 HD
BRANCH  10  14
HETATM   14  O1  UNL     1      30.155  12.492   8.402  1.00  0.00    -0.346 OA
ATOM     15  H1  UNL     1      30.362  11.919   7.673  1.00  0.00     0.219 HD
ENDBRANCH  10  14
ENDBRANCH   1  10
TORSDOF 2
ENDMDL
