MODEL 1
REMARK VINA RESULT: -5.828176104      0.000      0.000
REMARK  1 active torsions:
REMARK  status: ('A' for Active; 'I' for Inactive)
REMARK    1  A    between atoms: C6_9  and  C7_10 
ROOT
HETATM    1  C1  UNL     1      33.124  11.186  10.020  1.00  0.00     0.177 C 
HETATM    2  N1  UNL     1      32.899  12.620   9.884  1.00  0.00    -0.306 N 
HETATM    3  C2  UNL     1      31.736  13.268   9.776  1.00  0.00     0.124 A 
HETATM    4  C3  UNL     1      31.969  14.624   9.667  1.00  0.00     0.021 A 
HETATM    5  C4  UNL     1      33.341  14.767   9.713  1.00  0.00     0.061 A 
HETATM    6  N2  UNL     1      33.853  13.534   9.844  1.00  0.00    -0.298 N 
ATOM      7  H2  UNL     1      34.850  13.328   9.904  1.00  0.00     0.187 HD
HETATM    8  C5  UNL     1      33.182  16.086   9.589  1.00  0.00     0.045 A 
HETATM    9  C6  UNL     1      31.733  15.938   9.540  1.00  0.00    -0.005 A 
ENDROOT
BRANCH   9  10
HETATM   10  C7  UNL     1      30.562  16.787   9.415  1.00  0.00     0.092 C 
HETATM   11  N3  UNL     1      30.120  17.528  10.363  1.00  0.00    -0.407 N 
ATOM     12  H32 UNL     1      30.631  17.508  11.246  1.00  0.00     0.155 HD
ATOM     13  H31 UNL     1      29.297  18.125  10.275  1.00  0.00     0.155 HD
ENDBRANCH   9  10
TORSDOF 1
ENDMDL
MODEL 2
REMARK VINA RESULT: -5.565527820      1.268      1.268
REMARK  1 active torsions:
REMARK  status: ('A' for Active; 'I' for Inactive)
REMARK    1  A    between atoms: C6_9  and  C7_10 
ROOT
HETATM    1  C1  UNL     1      32.202  10.965   8.168  1.00  0.00     0.177 C 
HETATM    2  N1  UNL     1      32.187  12.388   8.486  1.00  0.00    -0.306 N 
HETATM    3  C2  UNL     1      31.360  13.043   9.305  1.00  0.00     0.124 A 
HETATM    4  C3  UNL     1      31.690  14.384   9.323  1.00  0.00     0.021 A 
HETATM    5  C4  UNL     1      32.765  14.509   8.467  1.00  0.00     0.061 A 
HETATM    6  N2  UNL     1      33.024  13.282   7.991  1.00  0.00    -0.298 N 
ATOM      7  H2  UNL     1      33.772  13.067   7.331  1.00  0.00     0.187 HD
HETATM    8  C5  UNL     1      32.788  15.817   8.729  1.00  0.00     0.045 A 
HETATM    9  C6  UNL     1      31.652  15.687   9.633  1.00  0.00    -0.005 A 
ENDROOT
BRANCH   9  10
HETATM   10  C7  UNL     1      30.842  16.542  10.482  1.00  0.00     0.092 C 
HETATM   11  N3  UNL     1      30.094  17.481  10.033  1.00  0.00    -0.407 N 
ATOM     12  H32 UNL     1      30.079  17.622   9.023  1.00  0.00     0.155 HD
ATOM     13  H31 UNL     1      29.523  18.082  10.630  1.00  0.00     0.155 HD
ENDBRANCH   9  10
TORSDOF 1
ENDMDL
MODEL 3
REMARK VINA RESULT: -5.443199500      1.578      2.080
REMARK  1 active torsions:
REMARK  status: ('A' for Active; 'I' for Inactive)
REMARK    1  A    between atoms: C6_9  and  C7_10 
ROOT
HETATM    1  C1  UNL     1      32.615  10.662  10.071  1.00  0.00     0.177 C 
HETATM    2  N1  UNL     1      32.374  12.072   9.786  1.00  0.00    -0.306 N 
HETATM    3  C2  UNL     1      33.241  12.987   9.348  1.00  0.00     0.124 A 
HETATM    4  C3  UNL     1      32.603  14.204   9.208  1.00  0.00     0.021 A 
HETATM    5  C4  UNL     1      31.295  13.977   9.589  1.00  0.00     0.061 A 
HETATM    6  N2  UNL     1      31.210  12.682   9.927  1.00  0.00    -0.298 N 
ATOM      7  H2  UNL     1      30.356  12.227  10.251  1.00  0.00     0.187 HD
HETATM    8  C5  UNL     1      31.029  15.261   9.341  1.00  0.00     0.045 A 
HETATM    9  C6  UNL     1      32.409  15.502   8.939  1.00  0.00    -0.005 A 
ENDROOT
BRANCH   9  10
HETATM   10  C7  UNL     1      33.221  16.609   8.467  1.00  0.00     0.092 C 
HETATM   11  N3  UNL     1      33.318  17.729   9.083  1.00  0.00    -0.407 N 
ATOM     12  H32 UNL     1      32.790  17.831   9.949  1.00  0.00     0.155 HD
ATOM     13  H31 UNL     1      33.889  18.507   8.751  1.00  0.00     0.155 HD
ENDBRANCH   9  10
TORSDOF 1
ENDMDL
MODEL 4
REMARK VINA RESULT: -5.353638369      1.938      3.959
REMARK  1 active torsions:
REMARK  status: ('A' for Active; 'I' for Inactive)
REMARK    1  A    between atoms: C6_9  and  C7_10 
ROOT
HETATM    1  C1  UNL     1      32.735  16.635  10.072  1.00  0.00     0.177 C 
HETATM    2  N1  UNL     1      32.479  15.215   9.863  1.00  0.00    -0.306 N 
HETATM    3  C2  UNL     1      31.442  14.644   9.244  1.00  0.00     0.124 A 
HETATM    4  C3  UNL     1      31.586  13.271   9.266  1.00  0.00     0.021 A 
HETATM    5  C4  UNL     1      32.770  13.037   9.937  1.00  0.00     0.061 A 
HETATM    6  N2  UNL     1      33.267  14.236  10.274  1.00  0.00    -0.298 N 
ATOM      7  H2  UNL     1      34.140  14.375  10.781  1.00  0.00     0.187 HD
HETATM    8  C5  UNL     1      32.575  11.728   9.768  1.00  0.00     0.045 A 
HETATM    9  C6  UNL     1      31.324  11.973   9.061  1.00  0.00    -0.005 A 
ENDROOT
BRANCH   9  10
HETATM   10  C7  UNL     1      30.273  11.202   8.424  1.00  0.00     0.092 C 
HETATM   11  N3  UNL     1      29.051  11.215   8.812  1.00  0.00    -0.407 N 
ATOM     12  H32 UNL     1      28.823  11.804   9.612  1.00  0.00     0.155 HD
ATOM     13  H31 UNL     1      28.311  10.673   8.364  1.00  0.00     0.155 HD
ENDBRANCH   9  10
TORSDOF 1
ENDMDL
MODEL 5
REMARK VINA RESULT: -5.203249852      1.540      4.211
REMARK  1 active torsions:
REMARK  status: ('A' for Active; 'I' for Inactive)
REMARK    1  A    between atoms: C6_9  and  C7_10 
ROOT
HETATM    1  C1  UNL     1      30.546  16.909   9.881  1.00  0.00     0.177 C 
HETATM    2  N1  UNL     1      31.469  15.780   9.893  1.00  0.00    -0.306 N 
HETATM    3  C2  UNL     1      31.207  14.496   9.638  1.00  0.00     0.124 A 
HETATM    4  C3  UNL     1      32.365  13.753   9.759  1.00  0.00     0.021 A 
HETATM    5  C4  UNL     1      33.348  14.658  10.105  1.00  0.00     0.061 A 
HETATM    6  N2  UNL     1      32.758  15.861  10.172  1.00  0.00    -0.298 N 
ATOM      7  H2  UNL     1      33.242  16.727  10.409  1.00  0.00     0.187 HD
HETATM    8  C5  UNL     1      34.226  13.655  10.128  1.00  0.00     0.045 A 
HETATM    9  C6  UNL     1      33.190  12.697   9.763  1.00  0.00    -0.005 A 
ENDROOT
BRANCH   9  10
HETATM   10  C7  UNL     1      33.073  11.272   9.515  1.00  0.00     0.092 C 
HETATM   11  N3  UNL     1      33.049  10.390  10.445  1.00  0.00    -0.407 N 
ATOM     12  H32 UNL     1      33.117  10.726  11.406  1.00  0.00     0.155 HD
ATOM     13  H31 UNL     1      32.967   9.388  10.270  1.00  0.00     0.155 HD
ENDBRANCH   9  10
TORSDOF 1
ENDMDL
