MODEL 1
REMARK VINA RESULT: -5.625367037      0.000      0.000
REMARK  2 active torsions:
REMARK  status: ('A' for Active; 'I' for Inactive)
REMARK    1  A    between atoms: C2_7  and  C3_8 
REMARK    2  A    between atoms: C3_8  and  N4_9 
ROOT
HETATM    1  C1  UNL     1      33.830  16.831   7.901  1.00  0.00     0.181 C 
HETATM    2  N1  UNL     1      33.233  16.568   9.215  1.00  0.00    -0.267 N 
HETATM    3  N2  UNL     1      32.714  17.345  10.152  1.00  0.00    -0.238 N 
ATOM      4  H2  UNL     1      32.560  18.347  10.274  1.00  0.00     0.208 HD
HETATM    5  N3  UNL     1      32.482  16.256  10.858  1.00  0.00    -0.272 N 
ATOM      6  H3  UNL     1      32.063  16.091  11.774  1.00  0.00     0.190 HD
HETATM    7  C2  UNL     1      32.996  15.452   9.934  1.00  0.00     0.135 A 
ENDROOT
BRANCH   7   8
HETATM    8  C3  UNL     1      33.240  13.995   9.713  1.00  0.00     0.230 C 
BRANCH   8   9
HETATM    9  N4  UNL     1      32.027  13.390   9.233  1.00  0.00    -0.265 N 
HETATM   10  C4  UNL     1      31.698  12.129   8.916  1.00  0.00     0.220 A 
HETATM   11  N5  UNL     1      30.470  12.554   8.606  1.00  0.00    -0.280 N 
HETATM   12  N6  UNL     1      30.813  13.795   8.924  1.00  0.00    -0.238 N 
ATOM     13  H5  UNL     1      29.619  12.107   8.264  1.00  0.00     0.189 HD
ATOM     14  H6  UNL     1      30.333  14.695   8.927  1.00  0.00     0.208 HD
ENDBRANCH   8   9
ENDBRANCH   7   8
TORSDOF 2
ENDMDL
MODEL 2
REMARK VINA RESULT: -5.551753654      0.923      4.232
REMARK  2 active torsions:
REMARK  status: ('A' for Active; 'I' for Inactive)
REMARK    1  A    between atoms: C2_7  and  C3_8 
REMARK    2  A    between atoms: C3_8  and  N4_9 
ROOT
HETATM    1  C1  UNL     1      32.442  10.914   8.903  1.00  0.00     0.181 C 
HETATM    2  N1  UNL     1      31.734  12.200   8.921  1.00  0.00    -0.267 N 
HETATM    3  N2  UNL     1      30.504  12.567   8.599  1.00  0.00    -0.238 N 
ATOM      4  H2  UNL     1      29.668  12.103   8.245  1.00  0.00     0.208 HD
HETATM    5  N3  UNL     1      30.835  13.798   8.939  1.00  0.00    -0.272 N 
ATOM      6  H3  UNL     1      30.328  14.683   8.946  1.00  0.00     0.190 HD
HETATM    7  C2  UNL     1      32.076  13.457   9.271  1.00  0.00     0.135 A 
ENDROOT
BRANCH   7   8
HETATM    8  C3  UNL     1      33.322  14.095   9.790  1.00  0.00     0.230 C 
BRANCH   8   9
HETATM    9  N4  UNL     1      33.159  15.523   9.760  1.00  0.00    -0.265 N 
HETATM   10  C4  UNL     1      33.488  16.462   8.861  1.00  0.00     0.220 A 
HETATM   11  N5  UNL     1      32.969  17.387   9.674  1.00  0.00    -0.280 N 
HETATM   12  N6  UNL     1      32.650  16.444  10.551  1.00  0.00    -0.238 N 
ATOM     13  H5  UNL     1      32.862  18.400   9.635  1.00  0.00     0.189 HD
ATOM     14  H6  UNL     1      32.197  16.437  11.465  1.00  0.00     0.208 HD
ENDBRANCH   8   9
ENDBRANCH   7   8
TORSDOF 2
ENDMDL
MODEL 3
REMARK VINA RESULT: -5.487239161      1.353      1.594
REMARK  2 active torsions:
REMARK  status: ('A' for Active; 'I' for Inactive)
REMARK    1  A    between atoms: C2_7  and  C3_8 
REMARK    2  A    between atoms: C3_8  and  N4_9 
ROOT
HETATM    1  C1  UNL     1      33.278  16.097   8.667  1.00  0.00     0.181 C 
HETATM    2  N1  UNL     1      32.326  15.516   9.620  1.00  0.00    -0.267 N 
HETATM    3  N2  UNL     1      31.500  16.035  10.514  1.00  0.00    -0.238 N 
ATOM      4  H2  UNL     1      31.256  16.973  10.832  1.00  0.00     0.208 HD
HETATM    5  N3  UNL     1      31.130  14.805  10.815  1.00  0.00    -0.272 N 
ATOM      6  H3  UNL     1      30.462  14.418  11.482  1.00  0.00     0.190 HD
HETATM    7  C2  UNL     1      31.949  14.257   9.924  1.00  0.00     0.135 A 
ENDROOT
BRANCH   7   8
HETATM    8  C3  UNL     1      32.335  12.902   9.428  1.00  0.00     0.230 C 
BRANCH   8   9
HETATM    9  N4  UNL     1      31.143  12.180   9.076  1.00  0.00    -0.265 N 
HETATM   10  C4  UNL     1      30.763  10.905   9.247  1.00  0.00     0.220 A 
HETATM   11  N5  UNL     1      29.609  11.194   8.639  1.00  0.00    -0.280 N 
HETATM   12  N6  UNL     1      30.001  12.450   8.479  1.00  0.00    -0.238 N 
ATOM     13  H5  UNL     1      28.771  10.665   8.397  1.00  0.00     0.189 HD
ATOM     14  H6  UNL     1      29.588  13.285   8.063  1.00  0.00     0.208 HD
ENDBRANCH   8   9
ENDBRANCH   7   8
TORSDOF 2
ENDMDL
MODEL 4
REMARK VINA RESULT: -5.459659262      1.250      1.770
REMARK  2 active torsions:
REMARK  status: ('A' for Active; 'I' for Inactive)
REMARK    1  A    between atoms: C2_7  and  C3_8 
REMARK    2  A    between atoms: C3_8  and  N4_9 
ROOT
HETATM    1  C1  UNL     1      30.518  16.867  10.219  1.00  0.00     0.181 C 
HETATM    2  N1  UNL     1      31.666  16.697   9.321  1.00  0.00    -0.267 N 
HETATM    3  N2  UNL     1      32.222  17.465   8.398  1.00  0.00    -0.238 N 
ATOM      4  H2  UNL     1      32.049  18.393   8.013  1.00  0.00     0.208 HD
HETATM    5  N3  UNL     1      33.100  16.501   8.195  1.00  0.00    -0.272 N 
ATOM      6  H3  UNL     1      33.895  16.400   7.564  1.00  0.00     0.190 HD
HETATM    7  C2  UNL     1      32.562  15.710   9.117  1.00  0.00     0.135 A 
ENDROOT
BRANCH   7   8
HETATM    8  C3  UNL     1      32.779  14.357   9.710  1.00  0.00     0.230 C 
BRANCH   8   9
HETATM    9  N4  UNL     1      31.795  13.454   9.178  1.00  0.00    -0.265 N 
HETATM   10  C4  UNL     1      31.822  12.148   8.875  1.00  0.00     0.220 A 
HETATM   11  N5  UNL     1      30.547  12.238   8.486  1.00  0.00    -0.280 N 
HETATM   12  N6  UNL     1      30.539  13.528   8.791  1.00  0.00    -0.238 N 
ATOM     13  H5  UNL     1      29.862  11.582   8.109  1.00  0.00     0.189 HD
ATOM     14  H6  UNL     1      29.844  14.273   8.745  1.00  0.00     0.208 HD
ENDBRANCH   8   9
ENDBRANCH   7   8
TORSDOF 2
ENDMDL
MODEL 5
REMARK VINA RESULT: -5.401100128      1.580      3.995
REMARK  2 active torsions:
REMARK  status: ('A' for Active; 'I' for Inactive)
REMARK    1  A    between atoms: C2_7  and  C3_8 
REMARK    2  A    between atoms: C3_8  and  N4_9 
ROOT
HETATM    1  C1  UNL     1      33.864  13.483   9.958  1.00  0.00     0.181 C 
HETATM    2  N1  UNL     1      32.492  13.439   9.440  1.00  0.00    -0.267 N 
HETATM    3  N2  UNL     1      31.838  12.591   8.661  1.00  0.00    -0.238 N 
ATOM      4  H2  UNL     1      32.057  11.719   8.178  1.00  0.00     0.208 HD
HETATM    5  N3  UNL     1      30.779  13.368   8.786  1.00  0.00    -0.272 N 
ATOM      6  H3  UNL     1      29.829  13.321   8.418  1.00  0.00     0.190 HD
HETATM    7  C2  UNL     1      31.410  14.235   9.570  1.00  0.00     0.135 A 
ENDROOT
BRANCH   7   8
HETATM    8  C3  UNL     1      31.134  15.511  10.295  1.00  0.00     0.230 C 
BRANCH   8   9
HETATM    9  N4  UNL     1      31.379  16.613   9.404  1.00  0.00    -0.265 N 
HETATM   10  C4  UNL     1      32.397  16.918   8.586  1.00  0.00     0.220 A 
HETATM   11  N5  UNL     1      31.744  18.027   8.228  1.00  0.00    -0.280 N 
HETATM   12  N6  UNL     1      30.746  17.708   9.041  1.00  0.00    -0.238 N 
ATOM     13  H5  UNL     1      31.935  18.800   7.591  1.00  0.00     0.189 HD
ATOM     14  H6  UNL     1      29.854  18.138   9.286  1.00  0.00     0.208 HD
ENDBRANCH   8   9
ENDBRANCH   7   8
TORSDOF 2
ENDMDL
