MODEL 1
REMARK VINA RESULT: -5.391688835      0.000      0.000
REMARK  1 active torsions:
REMARK  status: ('A' for Active; 'I' for Inactive)
REMARK       I    between atoms: N3_4  and  C2_6 
REMARK    1  A    between atoms: N5_8  and  C3_10 
ROOT
HETATM    1  N1  UNL     1      33.868  13.001   9.479  1.00  0.00    -0.066 NA
HETATM    2  C1  UNL     1      32.848  13.166   8.497  1.00  0.00     0.203 C 
HETATM    3  N2  UNL     1      33.020  12.621   7.200  1.00  0.00    -0.066 NA
HETATM    4  N3  UNL     1      31.769  13.797   8.747  1.00  0.00    -0.307 N 
ATOM      5  H3  UNL     1      31.082  13.877   7.997  1.00  0.00     0.170 HD
HETATM    6  C2  UNL     1      31.454  14.398   9.996  1.00  0.00     0.194 C 
HETATM    7  N4  UNL     1      31.106  13.606  11.118  1.00  0.00    -0.063 NA
HETATM    8  N5  UNL     1      31.488  15.693  10.107  1.00  0.00    -0.331 N 
ATOM      9  H5  UNL     1      31.265  16.132  11.000  1.00  0.00     0.168 HD
ENDROOT
BRANCH   8  10
HETATM   10  C3  UNL     1      31.836  16.498   8.991  1.00  0.00     0.172 C 
HETATM   11  S1  UNL     1      33.330  17.033   8.709  1.00  0.00    -0.074 SA
ENDBRANCH   8  10
TORSDOF 1
ENDMDL
MODEL 2
REMARK VINA RESULT: -5.283878932      1.133      1.133
REMARK  1 active torsions:
REMARK  status: ('A' for Active; 'I' for Inactive)
REMARK       I    between atoms: N3_4  and  C2_6 
REMARK    1  A    between atoms: N5_8  and  C3_10 
ROOT
HETATM    1  N1  UNL     1      33.252  11.443   9.394  1.00  0.00    -0.066 NA
HETATM    2  C1  UNL     1      32.609  12.203   8.373  1.00  0.00     0.203 C 
HETATM    3  N2  UNL     1      32.610  11.733   7.035  1.00  0.00    -0.066 NA
HETATM    4  N3  UNL     1      32.026  13.309   8.623  1.00  0.00    -0.307 N 
ATOM      5  H3  UNL     1      31.587  13.800   7.844  1.00  0.00     0.170 HD
HETATM    6  C2  UNL     1      31.944  13.906   9.910  1.00  0.00     0.194 C 
HETATM    7  N4  UNL     1      31.092  13.372  10.908  1.00  0.00    -0.063 NA
HETATM    8  N5  UNL     1      32.663  14.957  10.172  1.00  0.00    -0.331 N 
ATOM      9  H5  UNL     1      32.610  15.392  11.093  1.00  0.00     0.168 HD
ENDROOT
BRANCH   8  10
HETATM   10  C3  UNL     1      33.520  15.502   9.182  1.00  0.00     0.172 C 
HETATM   11  S1  UNL     1      33.290  16.945   8.499  1.00  0.00    -0.074 SA
ENDBRANCH   8  10
TORSDOF 1
ENDMDL
MODEL 3
REMARK VINA RESULT: -5.220529005      1.359      1.395
REMARK  1 active torsions:
REMARK  status: ('A' for Active; 'I' for Inactive)
REMARK       I    between atoms: N3_4  and  C2_6 
REMARK    1  A    between atoms: N5_8  and  C3_10 
ROOT
HETATM    1  N1  UNL     1      33.805  12.454   9.500  1.00  0.00    -0.066 NA
HETATM    2  C1  UNL     1      32.795  12.814   8.558  1.00  0.00     0.203 C 
HETATM    3  N2  UNL     1      33.059  12.721   7.169  1.00  0.00    -0.066 NA
HETATM    4  N3  UNL     1      31.646  13.222   8.928  1.00  0.00    -0.307 N 
ATOM      5  H3  UNL     1      30.972  13.462   8.201  1.00  0.00     0.170 HD
HETATM    6  C2  UNL     1      31.236  13.367  10.281  1.00  0.00     0.194 C 
HETATM    7  N4  UNL     1      30.954  12.234  11.083  1.00  0.00    -0.063 NA
HETATM    8  N5  UNL     1      31.119  14.559  10.787  1.00  0.00    -0.331 N 
ATOM      9  H5  UNL     1      30.826  14.673  11.757  1.00  0.00     0.168 HD
ENDROOT
BRANCH   8  10
HETATM   10  C3  UNL     1      31.397  15.703   9.995  1.00  0.00     0.172 C 
HETATM   11  S1  UNL     1      30.438  16.997   9.930  1.00  0.00    -0.074 SA
ENDBRANCH   8  10
TORSDOF 1
ENDMDL
MODEL 4
REMARK VINA RESULT: -5.176506440      1.761      2.686
REMARK  1 active torsions:
REMARK  status: ('A' for Active; 'I' for Inactive)
REMARK       I    between atoms: N3_4  and  C2_6 
REMARK    1  A    between atoms: N5_8  and  C3_10 
ROOT
HETATM    1  N1  UNL     1      31.558  12.763   8.620  1.00  0.00    -0.066 NA
HETATM    2  C1  UNL     1      31.724  12.947  10.024  1.00  0.00     0.203 C 
HETATM    3  N2  UNL     1      30.949  12.185  10.934  1.00  0.00    -0.066 NA
HETATM    4  N3  UNL     1      32.558  13.787  10.498  1.00  0.00    -0.307 N 
ATOM      5  H3  UNL     1      32.625  13.867  11.513  1.00  0.00     0.170 HD
HETATM    6  C2  UNL     1      33.401  14.620   9.714  1.00  0.00     0.194 C 
HETATM    7  N4  UNL     1      34.518  14.085   9.027  1.00  0.00    -0.063 NA
HETATM    8  N5  UNL     1      33.139  15.891   9.628  1.00  0.00    -0.331 N 
ATOM      9  H5  UNL     1      33.739  16.496   9.066  1.00  0.00     0.168 HD
ENDROOT
BRANCH   8  10
HETATM   10  C3  UNL     1      32.024  16.439  10.311  1.00  0.00     0.172 C 
HETATM   11  S1  UNL     1      30.630  16.810   9.588  1.00  0.00    -0.074 SA
ENDBRANCH   8  10
TORSDOF 1
ENDMDL
MODEL 5
REMARK VINA RESULT: -5.049126564      1.591      2.297
REMARK  1 active torsions:
REMARK  status: ('A' for Active; 'I' for Inactive)
REMARK       I    between atoms: N3_4  and  C2_6 
REMARK    1  A    between atoms: N5_8  and  C3_10 
ROOT
HETATM    1  N1  UNL     1      32.652  12.238   7.670  1.00  0.00    -0.066 NA
HETATM    2  C1  UNL     1      31.809  12.588   8.765  1.00  0.00     0.203 C 
HETATM    3  N2  UNL     1      30.418  12.321   8.700  1.00  0.00    -0.066 NA
HETATM    4  N3  UNL     1      32.268  13.142   9.817  1.00  0.00    -0.307 N 
ATOM      5  H3  UNL     1      31.608  13.366  10.562  1.00  0.00     0.170 HD
HETATM    6  C2  UNL     1      33.635  13.471  10.027  1.00  0.00     0.194 C 
HETATM    7  N4  UNL     1      34.595  12.463  10.287  1.00  0.00    -0.063 NA
HETATM    8  N5  UNL     1      34.005  14.717   9.977  1.00  0.00    -0.331 N 
ATOM      9  H5  UNL     1      34.984  14.962  10.126  1.00  0.00     0.168 HD
ENDROOT
BRANCH   8  10
HETATM   10  C3  UNL     1      33.054  15.736   9.717  1.00  0.00     0.172 C 
HETATM   11  S1  UNL     1      33.264  16.892   8.612  1.00  0.00    -0.074 SA
ENDBRANCH   8  10
TORSDOF 1
ENDMDL
