MODEL 1
REMARK VINA RESULT: -8.169479235      0.000      0.000
REMARK  6 active torsions:
REMARK  status: ('A' for Active; 'I' for Inactive)
REMARK    1  A    between atoms: C2_2  and  N1_3 
REMARK    2  A    between atoms: C7_11  and  N3_12 
REMARK    3  A    between atoms: N3_12  and  C8_14 
REMARK    4  A    between atoms: C13_21  and  N5_22 
REMARK    5  A    between atoms: N5_22  and  C14_24 
REMARK    6  A    between atoms: C16_26  and  C17_27 
ROOT
HETATM    1  C1  UNL     1      32.247  -7.840  -6.409  1.00  0.00     0.098 A 
HETATM    2  C2  UNL     1      31.686  -7.014  -7.343  1.00  0.00     0.122 A 
HETATM    3  N2  UNL     1      31.336  -7.568  -8.519  1.00  0.00    -0.177 N 
ATOM      4  H2  UNL     1      30.916  -6.979  -9.237  1.00  0.00     0.185 HD
HETATM    5  C7  UNL     1      31.526  -8.895  -8.780  1.00  0.00     0.681 A 
HETATM    6  N4  UNL     1      32.081  -9.672  -7.830  1.00  0.00    -0.177 N 
ATOM      7  H4  UNL     1      32.222 -10.663  -8.030  1.00  0.00     0.186 HD
HETATM    8  C13 UNL     1      32.459  -9.196  -6.630  1.00  0.00     0.126 A 
ENDROOT
BRANCH   8   9
HETATM    9  N5  UNL     1      33.041  -9.945  -5.606  1.00  0.00    -0.327 N 
ATOM     10  H5  UNL     1      32.799 -10.936  -5.576  1.00  0.00     0.169 HD
BRANCH   9  11
HETATM   11  C14 UNL     1      33.836  -9.532  -4.710  1.00  0.00     0.123 A 
HETATM   12  C15 UNL     1      33.463  -8.926  -3.530  1.00  0.00     0.076 A 
HETATM   13  C16 UNL     1      34.609  -8.610  -2.792  1.00  0.00     0.033 A 
HETATM   14  N6  UNL     1      35.631  -9.038  -3.553  1.00  0.00    -0.303 N 
HETATM   15  N7  UNL     1      35.178  -9.583  -4.686  1.00  0.00    -0.285 N 
ATOM     16  H6  UNL     1      36.616  -8.958  -3.301  1.00  0.00     0.186 HD
ATOM     17  H7  UNL     1      35.763  -9.978  -5.423  1.00  0.00     0.188 HD
BRANCH  13  18
HETATM   18  C17 UNL     1      34.692  -7.950  -1.463  1.00  0.00     0.037 A 
HETATM   19  C18 UNL     1      33.610  -7.024  -1.056  1.00  0.00     0.011 A 
HETATM   20  C19 UNL     1      33.717  -8.376  -0.396  1.00  0.00     0.011 A 
ENDBRANCH  13  18
ENDBRANCH   9  11
ENDBRANCH   8   9
BRANCH   2  21
HETATM   21  N1  UNL     1      31.465  -5.628  -7.132  1.00  0.00    -0.363 N 
HETATM   22  C3  UNL     1      32.552  -4.684  -7.253  1.00  0.00     0.150 C 
HETATM   23  C4  UNL     1      32.140  -3.374  -7.861  1.00  0.00     0.187 C 
HETATM   24  O1  UNL     1      30.765  -3.206  -7.933  1.00  0.00    -0.388 OA
HETATM   25  C5  UNL     1      30.228  -3.633  -6.712  1.00  0.00     0.187 C 
HETATM   26  C6  UNL     1      30.159  -5.158  -6.796  1.00  0.00     0.150 C 
ENDBRANCH   2  21
BRANCH   5  27
HETATM   27  N3  UNL     1      31.153  -9.297  -9.926  1.00  0.00    -0.221 N 
ATOM     28  H3  UNL     1      30.158  -9.480 -10.054  1.00  0.00     0.178 HD
BRANCH  27  29
HETATM   29  C8  UNL     1      32.012  -9.518 -11.062  1.00  0.00     0.099 C 
HETATM   30  C9  UNL     1      33.002  -8.382 -11.134  1.00  0.00     0.026 C 
HETATM   31  C10 UNL     1      32.444  -7.408 -12.121  1.00  0.00     0.002 C 
HETATM   32  C11 UNL     1      31.794  -8.312 -13.149  1.00  0.00     0.002 C 
HETATM   33  C12 UNL     1      31.284  -9.498 -12.365  1.00  0.00     0.026 C 
ENDBRANCH  27  29
ENDBRANCH   5  27
TORSDOF 6
ENDMDL
MODEL 2
REMARK VINA RESULT: -8.111576494      3.363      6.689
REMARK  6 active torsions:
REMARK  status: ('A' for Active; 'I' for Inactive)
REMARK    1  A    between atoms: C2_2  and  N1_3 
REMARK    2  A    between atoms: C7_11  and  N3_12 
REMARK    3  A    between atoms: N3_12  and  C8_14 
REMARK    4  A    between atoms: C13_21  and  N5_22 
REMARK    5  A    between atoms: N5_22  and  C14_24 
REMARK    6  A    between atoms: C16_26  and  C17_27 
ROOT
HETATM    1  C1  UNL     1      30.474  -6.544  -6.116  1.00  0.00     0.098 A 
HETATM    2  C2  UNL     1      31.042  -7.712  -6.545  1.00  0.00     0.122 A 
HETATM    3  N2  UNL     1      31.495  -7.743  -7.813  1.00  0.00    -0.177 N 
ATOM      4  H2  UNL     1      31.923  -8.600  -8.164  1.00  0.00     0.185 HD
HETATM    5  C7  UNL     1      31.399  -6.664  -8.643  1.00  0.00     0.681 A 
HETATM    6  N4  UNL     1      30.832  -5.534  -8.179  1.00  0.00    -0.177 N 
ATOM      7  H4  UNL     1      30.762  -4.730  -8.803  1.00  0.00     0.186 HD
HETATM    8  C13 UNL     1      30.355  -5.421  -6.926  1.00  0.00     0.126 A 
ENDROOT
BRANCH   8   9
HETATM    9  N5  UNL     1      29.757  -4.282  -6.385  1.00  0.00    -0.327 N 
ATOM     10  H5  UNL     1      30.354  -3.461  -6.285  1.00  0.00     0.169 HD
BRANCH   9  11
HETATM   11  C14 UNL     1      28.556  -4.154  -6.003  1.00  0.00     0.123 A 
HETATM   12  C15 UNL     1      27.485  -3.864  -6.820  1.00  0.00     0.076 A 
HETATM   13  C16 UNL     1      26.319  -3.803  -6.049  1.00  0.00     0.033 A 
HETATM   14  N6  UNL     1      26.729  -4.059  -4.794  1.00  0.00    -0.303 N 
HETATM   15  N7  UNL     1      28.049  -4.267  -4.764  1.00  0.00    -0.285 N 
ATOM     16  H6  UNL     1      26.118  -4.091  -3.979  1.00  0.00     0.186 HD
ATOM     17  H7  UNL     1      28.591  -4.479  -3.926  1.00  0.00     0.188 HD
BRANCH  13  18
HETATM   18  C17 UNL     1      24.932  -3.520  -6.501  1.00  0.00     0.037 A 
HETATM   19  C18 UNL     1      23.867  -4.505  -6.200  1.00  0.00     0.011 A 
HETATM   20  C19 UNL     1      23.897  -3.193  -5.456  1.00  0.00     0.011 A 
ENDBRANCH  13  18
ENDBRANCH   9  11
ENDBRANCH   8   9
BRANCH   2  21
HETATM   21  N1  UNL     1      31.170  -8.867  -5.730  1.00  0.00    -0.363 N 
HETATM   22  C3  UNL     1      30.395 -10.054  -6.012  1.00  0.00     0.150 C 
HETATM   23  C4  UNL     1      31.144 -11.331  -5.757  1.00  0.00     0.187 C 
HETATM   24  O1  UNL     1      32.319 -11.148  -5.042  1.00  0.00    -0.388 OA
HETATM   25  C5  UNL     1      32.040 -10.257  -3.999  1.00  0.00     0.187 C 
HETATM   26  C6  UNL     1      32.070  -8.861  -4.622  1.00  0.00     0.150 C 
ENDBRANCH   2  21
BRANCH   5  27
HETATM   27  N3  UNL     1      31.863  -6.819  -9.816  1.00  0.00    -0.221 N 
ATOM     28  H3  UNL     1      32.037  -5.975 -10.362  1.00  0.00     0.178 HD
BRANCH  27  29
HETATM   29  C8  UNL     1      32.166  -8.080 -10.443  1.00  0.00     0.099 C 
HETATM   30  C9  UNL     1      33.128  -7.826 -11.577  1.00  0.00     0.026 C 
HETATM   31  C10 UNL     1      32.296  -7.748 -12.816  1.00  0.00     0.002 C 
HETATM   32  C11 UNL     1      31.215  -8.776 -12.557  1.00  0.00     0.002 C 
HETATM   33  C12 UNL     1      30.975  -8.730 -11.066  1.00  0.00     0.026 C 
ENDBRANCH  27  29
ENDBRANCH   5  27
TORSDOF 6
ENDMDL
MODEL 3
REMARK VINA RESULT: -8.104400620      3.599      6.124
REMARK  6 active torsions:
REMARK  status: ('A' for Active; 'I' for Inactive)
REMARK    1  A    between atoms: C2_2  and  N1_3 
REMARK    2  A    between atoms: C7_11  and  N3_12 
REMARK    3  A    between atoms: N3_12  and  C8_14 
REMARK    4  A    between atoms: C13_21  and  N5_22 
REMARK    5  A    between atoms: N5_22  and  C14_24 
REMARK    6  A    between atoms: C16_26  and  C17_27 
ROOT
HETATM    1  C1  UNL     1      31.549  -7.253  -6.869  1.00  0.00     0.098 A 
HETATM    2  C2  UNL     1      31.490  -8.426  -7.570  1.00  0.00     0.122 A 
HETATM    3  N2  UNL     1      31.687  -8.355  -8.901  1.00  0.00    -0.177 N 
ATOM      4  H2  UNL     1      31.648  -9.212  -9.452  1.00  0.00     0.185 HD
HETATM    5  C7  UNL     1      31.936  -7.172  -9.534  1.00  0.00     0.681 A 
HETATM    6  N4  UNL     1      31.985  -6.041  -8.804  1.00  0.00    -0.177 N 
ATOM      7  H4  UNL     1      32.171  -5.159  -9.282  1.00  0.00     0.186 HD
HETATM    8  C13 UNL     1      31.800  -6.026  -7.472  1.00  0.00     0.126 A 
ENDROOT
BRANCH   8   9
HETATM    9  N5  UNL     1      31.836  -4.892  -6.660  1.00  0.00    -0.327 N 
ATOM     10  H5  UNL     1      32.702  -4.731  -6.145  1.00  0.00     0.169 HD
BRANCH   9  11
HETATM   11  C14 UNL     1      30.914  -4.039  -6.491  1.00  0.00     0.123 A 
HETATM   12  C15 UNL     1      29.565  -4.316  -6.467  1.00  0.00     0.076 A 
HETATM   13  C16 UNL     1      28.854  -3.130  -6.257  1.00  0.00     0.033 A 
HETATM   14  N6  UNL     1      29.800  -2.180  -6.161  1.00  0.00    -0.303 N 
HETATM   15  N7  UNL     1      31.018  -2.714  -6.299  1.00  0.00    -0.285 N 
ATOM     16  H6  UNL     1      29.615  -1.189  -6.005  1.00  0.00     0.186 HD
ATOM     17  H7  UNL     1      31.894  -2.193  -6.264  1.00  0.00     0.188 HD
BRANCH  13  18
HETATM   18  C17 UNL     1      27.382  -2.946  -6.159  1.00  0.00     0.037 A 
HETATM   19  C18 UNL     1      26.499  -3.805  -6.982  1.00  0.00     0.011 A 
HETATM   20  C19 UNL     1      26.574  -4.030  -5.493  1.00  0.00     0.011 A 
ENDBRANCH  13  18
ENDBRANCH   9  11
ENDBRANCH   8   9
BRANCH   2  21
HETATM   21  N1  UNL     1      31.235  -9.687  -6.969  1.00  0.00    -0.363 N 
HETATM   22  C3  UNL     1      30.135  -9.850  -6.046  1.00  0.00     0.150 C 
HETATM   23  C4  UNL     1      29.446 -11.179  -6.167  1.00  0.00     0.187 C 
HETATM   24  O1  UNL     1      30.152 -12.100  -6.928  1.00  0.00    -0.388 OA
HETATM   25  C5  UNL     1      31.496 -12.017  -6.542  1.00  0.00     0.187 C 
HETATM   26  C6  UNL     1      32.068 -10.804  -7.275  1.00  0.00     0.150 C 
ENDBRANCH   2  21
BRANCH   5  27
HETATM   27  N3  UNL     1      32.104  -7.237 -10.792  1.00  0.00    -0.221 N 
ATOM     28  H3  UNL     1      33.064  -7.206 -11.134  1.00  0.00     0.178 HD
BRANCH  27  29
HETATM   29  C8  UNL     1      31.059  -7.350 -11.777  1.00  0.00     0.099 C 
HETATM   30  C9  UNL     1      30.569  -8.778 -11.785  1.00  0.00     0.026 C 
HETATM   31  C10 UNL     1      31.291  -9.456 -12.904  1.00  0.00     0.002 C 
HETATM   32  C11 UNL     1      31.384  -8.365 -13.950  1.00  0.00     0.002 C 
HETATM   33  C12 UNL     1      31.527  -7.080 -13.169  1.00  0.00     0.026 C 
ENDBRANCH  27  29
ENDBRANCH   5  27
TORSDOF 6
ENDMDL
MODEL 4
REMARK VINA RESULT: -7.994662599      3.624      6.791
REMARK  6 active torsions:
REMARK  status: ('A' for Active; 'I' for Inactive)
REMARK    1  A    between atoms: C2_2  and  N1_3 
REMARK    2  A    between atoms: C7_11  and  N3_12 
REMARK    3  A    between atoms: N3_12  and  C8_14 
REMARK    4  A    between atoms: C13_21  and  N5_22 
REMARK    5  A    between atoms: N5_22  and  C14_24 
REMARK    6  A    between atoms: C16_26  and  C17_27 
ROOT
HETATM    1  C1  UNL     1      30.248  -6.710  -6.290  1.00  0.00     0.098 A 
HETATM    2  C2  UNL     1      30.839  -7.818  -6.831  1.00  0.00     0.122 A 
HETATM    3  N2  UNL     1      31.676  -7.621  -7.867  1.00  0.00    -0.177 N 
ATOM      4  H2  UNL     1      32.132  -8.427  -8.293  1.00  0.00     0.185 HD
HETATM    5  C7  UNL     1      31.933  -6.376  -8.365  1.00  0.00     0.681 A 
HETATM    6  N4  UNL     1      31.328  -5.313  -7.801  1.00  0.00    -0.177 N 
ATOM      7  H4  UNL     1      31.523  -4.384  -8.176  1.00  0.00     0.186 HD
HETATM    8  C13 UNL     1      30.479  -5.424  -6.763  1.00  0.00     0.126 A 
ENDROOT
BRANCH   8   9
HETATM    9  N5  UNL     1      29.821  -4.365  -6.136  1.00  0.00    -0.327 N 
ATOM     10  H5  UNL     1      30.397  -3.563  -5.877  1.00  0.00     0.169 HD
BRANCH   9  11
HETATM   11  C14 UNL     1      28.589  -4.289  -5.852  1.00  0.00     0.123 A 
HETATM   12  C15 UNL     1      27.584  -3.965  -6.737  1.00  0.00     0.076 A 
HETATM   13  C16 UNL     1      26.356  -3.981  -6.067  1.00  0.00     0.033 A 
HETATM   14  N6  UNL     1      26.664  -4.314  -4.802  1.00  0.00    -0.303 N 
HETATM   15  N7  UNL     1      27.982  -4.496  -4.671  1.00  0.00    -0.285 N 
ATOM     16  H6  UNL     1      25.987  -4.414  -4.046  1.00  0.00     0.186 HD
ATOM     17  H7  UNL     1      28.456  -4.754  -3.805  1.00  0.00     0.188 HD
BRANCH  13  18
HETATM   18  C17 UNL     1      25.005  -3.695  -6.618  1.00  0.00     0.037 A 
HETATM   19  C18 UNL     1      23.865  -4.539  -6.187  1.00  0.00     0.011 A 
HETATM   20  C19 UNL     1      23.967  -3.118  -5.690  1.00  0.00     0.011 A 
ENDBRANCH  13  18
ENDBRANCH   9  11
ENDBRANCH   8   9
BRANCH   2  21
HETATM   21  N1  UNL     1      30.612  -9.137  -6.358  1.00  0.00    -0.363 N 
HETATM   22  C3  UNL     1      29.348  -9.493  -5.755  1.00  0.00     0.150 C 
HETATM   23  C4  UNL     1      28.895 -10.884  -6.093  1.00  0.00     0.187 C 
HETATM   24  O1  UNL     1      29.885 -11.661  -6.678  1.00  0.00    -0.388 OA
HETATM   25  C5  UNL     1      31.066 -11.443  -5.958  1.00  0.00     0.187 C 
HETATM   26  C6  UNL     1      31.637 -10.124  -6.478  1.00  0.00     0.150 C 
ENDBRANCH   2  21
BRANCH   5  27
HETATM   27  N3  UNL     1      32.740  -6.322  -9.344  1.00  0.00    -0.221 N 
ATOM     28  H3  UNL     1      33.735  -6.383  -9.129  1.00  0.00     0.178 HD
BRANCH  27  29
HETATM   29  C8  UNL     1      32.375  -6.183 -10.731  1.00  0.00     0.099 C 
HETATM   30  C9  UNL     1      31.033  -6.842 -10.935  1.00  0.00     0.026 C 
HETATM   31  C10 UNL     1      31.321  -8.213 -11.456  1.00  0.00     0.002 C 
HETATM   32  C11 UNL     1      32.533  -7.988 -12.335  1.00  0.00     0.002 C 
HETATM   33  C12 UNL     1      33.310  -6.882 -11.661  1.00  0.00     0.026 C 
ENDBRANCH  27  29
ENDBRANCH   5  27
TORSDOF 6
ENDMDL
MODEL 5
REMARK VINA RESULT: -7.993396702      3.117      6.477
REMARK  6 active torsions:
REMARK  status: ('A' for Active; 'I' for Inactive)
REMARK    1  A    between atoms: C2_2  and  N1_3 
REMARK    2  A    between atoms: C7_11  and  N3_12 
REMARK    3  A    between atoms: N3_12  and  C8_14 
REMARK    4  A    between atoms: C13_21  and  N5_22 
REMARK    5  A    between atoms: N5_22  and  C14_24 
REMARK    6  A    between atoms: C16_26  and  C17_27 
ROOT
HETATM    1  C1  UNL     1      31.117  -6.936  -6.478  1.00  0.00     0.098 A 
HETATM    2  C2  UNL     1      31.663  -8.037  -7.077  1.00  0.00     0.122 A 
HETATM    3  N2  UNL     1      31.910  -7.956  -8.399  1.00  0.00    -0.177 N 
ATOM      4  H2  UNL     1      32.317  -8.761  -8.875  1.00  0.00     0.185 HD
HETATM    5  C7  UNL     1      31.634  -6.831  -9.120  1.00  0.00     0.681 A 
HETATM    6  N4  UNL     1      31.096  -5.769  -8.489  1.00  0.00    -0.177 N 
ATOM      7  H4  UNL     1      30.890  -4.930  -9.033  1.00  0.00     0.186 HD
HETATM    8  C13 UNL     1      30.819  -5.769  -7.173  1.00  0.00     0.126 A 
ENDROOT
BRANCH   8   9
HETATM    9  N5  UNL     1      30.261  -4.706  -6.461  1.00  0.00    -0.327 N 
ATOM     10  H5  UNL     1      30.897  -3.950  -6.204  1.00  0.00     0.169 HD
BRANCH   9  11
HETATM   11  C14 UNL     1      29.055  -4.574  -6.098  1.00  0.00     0.123 A 
HETATM   12  C15 UNL     1      28.067  -3.946  -6.824  1.00  0.00     0.076 A 
HETATM   13  C16 UNL     1      26.865  -3.997  -6.109  1.00  0.00     0.033 A 
HETATM   14  N6  UNL     1      27.172  -4.655  -4.977  1.00  0.00    -0.303 N 
HETATM   15  N7  UNL     1      28.464  -4.997  -4.968  1.00  0.00    -0.285 N 
ATOM     16  H6  UNL     1      26.511  -4.864  -4.230  1.00  0.00     0.186 HD
ATOM     17  H7  UNL     1      28.932  -5.503  -4.215  1.00  0.00     0.188 HD
BRANCH  13  18
HETATM   18  C17 UNL     1      25.539  -3.451  -6.500  1.00  0.00     0.037 A 
HETATM   19  C18 UNL     1      24.325  -4.247  -6.209  1.00  0.00     0.011 A 
HETATM   20  C19 UNL     1      24.605  -3.001  -5.406  1.00  0.00     0.011 A 
ENDBRANCH  13  18
ENDBRANCH   9  11
ENDBRANCH   8   9
BRANCH   2  21
HETATM   21  N1  UNL     1      31.972  -9.235  -6.381  1.00  0.00    -0.363 N 
HETATM   22  C3  UNL     1      32.477  -9.188  -5.028  1.00  0.00     0.150 C 
HETATM   23  C4  UNL     1      31.963 -10.301  -4.160  1.00  0.00     0.187 C 
HETATM   24  O1  UNL     1      31.336 -11.313  -4.873  1.00  0.00    -0.388 OA
HETATM   25  C5  UNL     1      32.126 -11.583  -5.998  1.00  0.00     0.187 C 
HETATM   26  C6  UNL     1      31.784 -10.499  -7.019  1.00  0.00     0.150 C 
ENDBRANCH   2  21
BRANCH   5  27
HETATM   27  N3  UNL     1      31.913  -6.879 -10.359  1.00  0.00    -0.221 N 
ATOM     28  H3  UNL     1      32.878  -6.685 -10.625  1.00  0.00     0.178 HD
BRANCH  27  29
HETATM   29  C8  UNL     1      30.988  -7.185 -11.420  1.00  0.00     0.099 C 
HETATM   30  C9  UNL     1      30.603  -8.640 -11.308  1.00  0.00     0.026 C 
HETATM   31  C10 UNL     1      31.484  -9.375 -12.265  1.00  0.00     0.002 C 
HETATM   32  C11 UNL     1      31.610  -8.401 -13.418  1.00  0.00     0.002 C 
HETATM   33  C12 UNL     1      31.579  -7.031 -12.782  1.00  0.00     0.026 C 
ENDBRANCH  27  29
ENDBRANCH   5  27
TORSDOF 6
ENDMDL
