MODEL 1
REMARK VINA RESULT: -8.526455841      0.000      0.000
REMARK  7 active torsions:
REMARK  status: ('A' for Active; 'I' for Inactive)
REMARK    1  A    between atoms: N1_2  and  C3_4 
REMARK    2  A    between atoms: C3_4  and  C4_5 
REMARK    3  A    between atoms: C6_7  and  O1_8 
REMARK    4  A    between atoms: C7_10  and  O2_11 
REMARK    5  A    between atoms: C8_13  and  N2_14 
REMARK       I    between atoms: N2_14  and  C9_16 
REMARK    6  A    between atoms: C9_16  and  O4_18 
REMARK    7  A    between atoms: O4_18  and  C10_19 
ROOT
HETATM    1  N2  UNL     1      32.376  -9.260  -5.775  1.00  0.00    -0.329 N 
ATOM      2  H2  UNL     1      32.056  -8.292  -5.794  1.00  0.00     0.165 HD
HETATM    3  C9  UNL     1      32.181 -10.015  -6.940  1.00  0.00     0.361 C 
HETATM    4  O3  UNL     1      32.573 -11.206  -6.938  1.00  0.00    -0.238 OA
ENDROOT
BRANCH   1   5
HETATM    5  C8  UNL     1      32.979  -9.716  -4.568  1.00  0.00     0.122 C 
HETATM    6  C7  UNL     1      34.411  -9.240  -4.540  1.00  0.00     0.173 C 
HETATM    7  C6  UNL     1      34.705  -8.388  -3.328  1.00  0.00     0.172 C 
HETATM    8  C5  UNL     1      34.167  -9.044  -2.093  1.00  0.00     0.011 C 
HETATM    9  C4  UNL     1      32.895  -9.399  -2.115  1.00  0.00    -0.062 C 
HETATM   10  C21 UNL     1      32.191  -9.073  -3.421  1.00  0.00     0.063 C 
BRANCH   6  11
HETATM   11  O2  UNL     1      35.290 -10.337  -4.476  1.00  0.00    -0.391 OA
ATOM     12  H2  UNL     1      35.909 -10.226  -5.190  1.00  0.00     0.210 HD
ENDBRANCH   6  11
BRANCH   7  13
HETATM   13  O1  UNL     1      36.077  -8.229  -3.136  1.00  0.00    -0.389 OA
ATOM     14  H1  UNL     1      36.463  -8.107  -3.995  1.00  0.00     0.210 HD
ENDBRANCH   7  13
BRANCH   9  15
HETATM   15  C3  UNL     1      32.151 -10.053  -1.022  1.00  0.00     0.150 C 
BRANCH  15  16
HETATM   16  N1  UNL     1      31.251  -9.162  -0.390  1.00  0.00    -0.417 N 
HETATM   17  C1  UNL     1      29.892  -9.587  -0.288  1.00  0.00     0.142 C 
HETATM   18  C2  UNL     1      31.761  -8.561   0.816  1.00  0.00     0.142 C 
ENDBRANCH  15  16
ENDBRANCH   9  15
ENDBRANCH   1   5
BRANCH   3  19
HETATM   19  O4  UNL     1      31.589  -9.549  -8.092  1.00  0.00    -0.298 OA
BRANCH  19  20
HETATM   20  C10 UNL     1      32.314  -8.992  -9.202  1.00  0.00     0.138 C 
HETATM   21  C11 UNL     1      32.545 -10.016 -10.268  1.00  0.00     0.033 C 
HETATM   22  C12 UNL     1      31.651 -10.034 -11.425  1.00  0.00     0.007 C 
HETATM   23  C13 UNL     1      30.968  -8.768 -11.798  1.00  0.00    -0.010 C 
HETATM   24  C14 UNL     1      31.281  -8.316 -13.235  1.00  0.00     0.005 C 
HETATM   25  C20 UNL     1      31.306  -7.587 -11.018  1.00  0.00     0.000 C 
HETATM   26  C15 UNL     1      32.057  -6.996 -13.088  1.00  0.00     0.005 C 
HETATM   27  C16 UNL     1      32.594  -7.130 -11.728  1.00  0.00    -0.010 C 
HETATM   28  C17 UNL     1      32.852  -5.915 -10.921  1.00  0.00     0.005 C 
HETATM   29  C18 UNL     1      32.720  -6.516  -9.507  1.00  0.00     0.008 C 
HETATM   30  C19 UNL     1      31.770  -7.692  -9.648  1.00  0.00     0.020 C 
ENDBRANCH  19  20
ENDBRANCH   3  19
TORSDOF 7
ENDMDL
MODEL 2
REMARK VINA RESULT: -7.909935930      1.049      2.030
REMARK  7 active torsions:
REMARK  status: ('A' for Active; 'I' for Inactive)
REMARK    1  A    between atoms: N1_2  and  C3_4 
REMARK    2  A    between atoms: C3_4  and  C4_5 
REMARK    3  A    between atoms: C6_7  and  O1_8 
REMARK    4  A    between atoms: C7_10  and  O2_11 
REMARK    5  A    between atoms: C8_13  and  N2_14 
REMARK       I    between atoms: N2_14  and  C9_16 
REMARK    6  A    between atoms: C9_16  and  O4_18 
REMARK    7  A    between atoms: O4_18  and  C10_19 
ROOT
HETATM    1  N2  UNL     1      33.361  -8.219  -5.984  1.00  0.00    -0.329 N 
ATOM      2  H2  UNL     1      33.336  -7.205  -5.877  1.00  0.00     0.165 HD
HETATM    3  C9  UNL     1      33.268  -8.723  -7.289  1.00  0.00     0.361 C 
HETATM    4  O3  UNL     1      33.303  -9.967  -7.441  1.00  0.00    -0.238 OA
ENDROOT
BRANCH   1   5
HETATM    5  C8  UNL     1      33.487  -8.990  -4.793  1.00  0.00     0.122 C 
HETATM    6  C7  UNL     1      34.909  -8.875  -4.298  1.00  0.00     0.173 C 
HETATM    7  C6  UNL     1      34.982  -8.319  -2.896  1.00  0.00     0.172 C 
HETATM    8  C5  UNL     1      33.993  -9.017  -2.012  1.00  0.00     0.011 C 
HETATM    9  C4  UNL     1      32.742  -9.054  -2.433  1.00  0.00    -0.062 C 
HETATM   10  C21 UNL     1      32.526  -8.368  -3.772  1.00  0.00     0.063 C 
BRANCH   6  11
HETATM   11  O2  UNL     1      35.516 -10.144  -4.254  1.00  0.00    -0.391 OA
ATOM     12  H2  UNL     1      34.898 -10.750  -4.646  1.00  0.00     0.210 HD
ENDBRANCH   6  11
BRANCH   7  13
HETATM   13  O1  UNL     1      36.241  -8.520  -2.331  1.00  0.00    -0.389 OA
ATOM     14  H1  UNL     1      36.872  -8.456  -3.037  1.00  0.00     0.210 HD
ENDBRANCH   7  13
BRANCH   9  15
HETATM   15  C3  UNL     1      31.603  -9.678  -1.736  1.00  0.00     0.150 C 
BRANCH  15  16
HETATM   16  N1  UNL     1      30.735  -8.712  -1.172  1.00  0.00    -0.417 N 
HETATM   17  C1  UNL     1      29.399  -8.679  -1.674  1.00  0.00     0.142 C 
HETATM   18  C2  UNL     1      30.817  -8.607   0.262  1.00  0.00     0.142 C 
ENDBRANCH  15  16
ENDBRANCH   9  15
ENDBRANCH   1   5
BRANCH   3  19
HETATM   19  O4  UNL     1      33.141  -7.953  -8.424  1.00  0.00    -0.298 OA
BRANCH  19  20
HETATM   20  C10 UNL     1      32.174  -8.197  -9.459  1.00  0.00     0.138 C 
HETATM   21  C11 UNL     1      31.443  -6.943  -9.825  1.00  0.00     0.033 C 
HETATM   22  C12 UNL     1      31.877  -6.202 -11.009  1.00  0.00     0.007 C 
HETATM   23  C13 UNL     1      32.572  -6.954 -12.086  1.00  0.00    -0.010 C 
HETATM   24  C14 UNL     1      31.860  -6.855 -13.445  1.00  0.00     0.005 C 
HETATM   25  C20 UNL     1      32.701  -8.392 -11.902  1.00  0.00     0.000 C 
HETATM   26  C15 UNL     1      31.386  -8.284 -13.763  1.00  0.00     0.005 C 
HETATM   27  C16 UNL     1      31.331  -8.873 -12.419  1.00  0.00    -0.010 C 
HETATM   28  C17 UNL     1      31.548 -10.328 -12.249  1.00  0.00     0.005 C 
HETATM   29  C18 UNL     1      32.062 -10.340 -10.795  1.00  0.00     0.008 C 
HETATM   30  C19 UNL     1      32.721  -8.989 -10.582  1.00  0.00     0.020 C 
ENDBRANCH  19  20
ENDBRANCH   3  19
TORSDOF 7
ENDMDL
MODEL 3
REMARK VINA RESULT: -7.539404179      6.127      8.675
REMARK  7 active torsions:
REMARK  status: ('A' for Active; 'I' for Inactive)
REMARK    1  A    between atoms: N1_2  and  C3_4 
REMARK    2  A    between atoms: C3_4  and  C4_5 
REMARK    3  A    between atoms: C6_7  and  O1_8 
REMARK    4  A    between atoms: C7_10  and  O2_11 
REMARK    5  A    between atoms: C8_13  and  N2_14 
REMARK       I    between atoms: N2_14  and  C9_16 
REMARK    6  A    between atoms: C9_16  and  O4_18 
REMARK    7  A    between atoms: O4_18  and  C10_19 
ROOT
HETATM    1  N2  UNL     1      30.501  -6.137  -7.008  1.00  0.00    -0.329 N 
ATOM      2  H2  UNL     1      30.034  -6.903  -6.523  1.00  0.00     0.165 HD
HETATM    3  C9  UNL     1      29.862  -4.889  -6.988  1.00  0.00     0.361 C 
HETATM    4  O3  UNL     1      30.425  -3.934  -7.574  1.00  0.00    -0.238 OA
ENDROOT
BRANCH   1   5
HETATM    5  C8  UNL     1      31.741  -6.437  -7.641  1.00  0.00     0.122 C 
HETATM    6  C7  UNL     1      32.617  -7.168  -6.653  1.00  0.00     0.173 C 
HETATM    7  C6  UNL     1      33.038  -8.527  -7.160  1.00  0.00     0.172 C 
HETATM    8  C5  UNL     1      33.524  -8.422  -8.574  1.00  0.00     0.011 C 
HETATM    9  C4  UNL     1      32.716  -7.832  -9.438  1.00  0.00    -0.062 C 
HETATM   10  C21 UNL     1      31.411  -7.353  -8.826  1.00  0.00     0.063 C 
BRANCH   6  11
HETATM   11  O2  UNL     1      33.802  -6.446  -6.422  1.00  0.00    -0.391 OA
ATOM     12  H2  UNL     1      33.600  -5.807  -5.748  1.00  0.00     0.210 HD
ENDBRANCH   6  11
BRANCH   7  13
HETATM   13  O1  UNL     1      34.091  -9.049  -6.410  1.00  0.00    -0.389 OA
ATOM     14  H1  UNL     1      34.440  -8.334  -5.891  1.00  0.00     0.210 HD
ENDBRANCH   7  13
BRANCH   9  15
HETATM   15  C3  UNL     1      32.977  -7.619 -10.873  1.00  0.00     0.150 C 
BRANCH  15  16
HETATM   16  N1  UNL     1      31.875  -8.004 -11.673  1.00  0.00    -0.417 N 
HETATM   17  C1  UNL     1      31.739  -7.353 -12.936  1.00  0.00     0.142 C 
HETATM   18  C2  UNL     1      31.651  -9.426 -11.729  1.00  0.00     0.142 C 
ENDBRANCH  15  16
ENDBRANCH   9  15
ENDBRANCH   1   5
BRANCH   3  19
HETATM   19  O4  UNL     1      28.659  -4.629  -6.372  1.00  0.00    -0.298 OA
BRANCH  19  20
HETATM   20  C10 UNL     1      27.947  -3.386  -6.485  1.00  0.00     0.138 C 
HETATM   21  C11 UNL     1      26.542  -3.604  -6.950  1.00  0.00     0.033 C 
HETATM   22  C12 UNL     1      25.472  -3.623  -5.953  1.00  0.00     0.007 C 
HETATM   23  C13 UNL     1      25.688  -2.881  -4.684  1.00  0.00    -0.010 C 
HETATM   24  C14 UNL     1      24.623  -1.801  -4.429  1.00  0.00     0.005 C 
HETATM   25  C20 UNL     1      26.929  -2.131  -4.567  1.00  0.00     0.000 C 
HETATM   26  C15 UNL     1      25.378  -0.461  -4.484  1.00  0.00     0.005 C 
HETATM   27  C16 UNL     1      26.548  -0.826  -5.292  1.00  0.00    -0.010 C 
HETATM   28  C17 UNL     1      27.826  -0.103  -5.097  1.00  0.00     0.005 C 
HETATM   29  C18 UNL     1      28.809  -1.191  -5.573  1.00  0.00     0.008 C 
HETATM   30  C19 UNL     1      28.119  -2.515  -5.301  1.00  0.00     0.020 C 
ENDBRANCH  19  20
ENDBRANCH   3  19
TORSDOF 7
ENDMDL
MODEL 4
REMARK VINA RESULT: -7.443859287      6.022      7.631
REMARK  7 active torsions:
REMARK  status: ('A' for Active; 'I' for Inactive)
REMARK    1  A    between atoms: N1_2  and  C3_4 
REMARK    2  A    between atoms: C3_4  and  C4_5 
REMARK    3  A    between atoms: C6_7  and  O1_8 
REMARK    4  A    between atoms: C7_10  and  O2_11 
REMARK    5  A    between atoms: C8_13  and  N2_14 
REMARK       I    between atoms: N2_14  and  C9_16 
REMARK    6  A    between atoms: C9_16  and  O4_18 
REMARK    7  A    between atoms: O4_18  and  C10_19 
ROOT
HETATM    1  N2  UNL     1      30.460  -5.522  -6.464  1.00  0.00    -0.329 N 
ATOM      2  H2  UNL     1      29.847  -5.704  -5.670  1.00  0.00     0.165 HD
HETATM    3  C9  UNL     1      30.207  -4.361  -7.208  1.00  0.00     0.361 C 
HETATM    4  O3  UNL     1      30.954  -4.117  -8.185  1.00  0.00    -0.238 OA
ENDROOT
BRANCH   1   5
HETATM    5  C8  UNL     1      31.492  -6.471  -6.712  1.00  0.00     0.122 C 
HETATM    6  C7  UNL     1      32.684  -6.114  -5.856  1.00  0.00     0.173 C 
HETATM    7  C6  UNL     1      33.081  -7.241  -4.933  1.00  0.00     0.172 C 
HETATM    8  C5  UNL     1      33.131  -8.534  -5.689  1.00  0.00     0.011 C 
HETATM    9  C4  UNL     1      32.055  -8.859  -6.384  1.00  0.00    -0.062 C 
HETATM   10  C21 UNL     1      30.935  -7.836  -6.290  1.00  0.00     0.063 C 
BRANCH   6  11
HETATM   11  O2  UNL     1      33.805  -5.849  -6.664  1.00  0.00    -0.391 OA
ATOM     12  H2  UNL     1      33.469  -5.627  -7.525  1.00  0.00     0.210 HD
ENDBRANCH   6  11
BRANCH   7  13
HETATM   13  O1  UNL     1      34.352  -7.038  -4.396  1.00  0.00    -0.389 OA
ATOM     14  H1  UNL     1      34.536  -6.109  -4.466  1.00  0.00     0.210 HD
ENDBRANCH   7  13
BRANCH   9  15
HETATM   15  C3  UNL     1      31.874 -10.075  -7.197  1.00  0.00     0.150 C 
BRANCH  15  16
HETATM   16  N1  UNL     1      31.408 -11.164  -6.422  1.00  0.00    -0.417 N 
HETATM   17  C1  UNL     1      30.021 -11.167  -6.086  1.00  0.00     0.142 C 
HETATM   18  C2  UNL     1      31.902 -12.448  -6.847  1.00  0.00     0.142 C 
ENDBRANCH  15  16
ENDBRANCH   9  15
ENDBRANCH   1   5
BRANCH   3  19
HETATM   19  O4  UNL     1      29.196  -3.463  -6.949  1.00  0.00    -0.298 OA
BRANCH  19  20
HETATM   20  C10 UNL     1      27.997  -3.785  -6.225  1.00  0.00     0.138 C 
HETATM   21  C11 UNL     1      28.170  -3.555  -4.757  1.00  0.00     0.033 C 
HETATM   22  C12 UNL     1      27.661  -2.311  -4.180  1.00  0.00     0.007 C 
HETATM   23  C13 UNL     1      26.538  -1.629  -4.874  1.00  0.00    -0.010 C 
HETATM   24  C14 UNL     1      25.301  -1.445  -3.979  1.00  0.00     0.005 C 
HETATM   25  C20 UNL     1      25.985  -2.300  -6.041  1.00  0.00     0.000 C 
HETATM   26  C15 UNL     1      24.202  -2.312  -4.619  1.00  0.00     0.005 C 
HETATM   27  C16 UNL     1      25.005  -3.283  -5.372  1.00  0.00    -0.010 C 
HETATM   28  C17 UNL     1      24.452  -3.892  -6.603  1.00  0.00     0.005 C 
HETATM   29  C18 UNL     1      25.768  -4.226  -7.335  1.00  0.00     0.008 C 
HETATM   30  C19 UNL     1      26.782  -3.209  -6.841  1.00  0.00     0.020 C 
ENDBRANCH  19  20
ENDBRANCH   3  19
TORSDOF 7
ENDMDL
MODEL 5
REMARK VINA RESULT: -7.385089153      2.091      3.368
REMARK  7 active torsions:
REMARK  status: ('A' for Active; 'I' for Inactive)
REMARK    1  A    between atoms: N1_2  and  C3_4 
REMARK    2  A    between atoms: C3_4  and  C4_5 
REMARK    3  A    between atoms: C6_7  and  O1_8 
REMARK    4  A    between atoms: C7_10  and  O2_11 
REMARK    5  A    between atoms: C8_13  and  N2_14 
REMARK       I    between atoms: N2_14  and  C9_16 
REMARK    6  A    between atoms: C9_16  and  O4_18 
REMARK    7  A    between atoms: O4_18  and  C10_19 
ROOT
HETATM    1  N2  UNL     1      32.858  -9.592  -3.834  1.00  0.00    -0.329 N 
ATOM      2  H2  UNL     1      33.556  -8.862  -3.973  1.00  0.00     0.165 HD
HETATM    3  C9  UNL     1      32.521 -10.370  -4.951  1.00  0.00     0.361 C 
HETATM    4  O3  UNL     1      31.669 -11.277  -4.798  1.00  0.00    -0.238 OA
ENDROOT
BRANCH   1   5
HETATM    5  C8  UNL     1      32.318  -9.725  -2.523  1.00  0.00     0.122 C 
HETATM    6  C7  UNL     1      33.399  -9.392  -1.525  1.00  0.00     0.173 C 
HETATM    7  C6  UNL     1      33.006  -8.251  -0.616  1.00  0.00     0.172 C 
HETATM    8  C5  UNL     1      31.618  -8.465  -0.092  1.00  0.00     0.011 C 
HETATM    9  C4  UNL     1      30.674  -8.695  -0.986  1.00  0.00    -0.062 C 
HETATM   10  C21 UNL     1      31.177  -8.705  -2.419  1.00  0.00     0.063 C 
BRANCH   6  11
HETATM   11  O2  UNL     1      33.651 -10.496  -0.689  1.00  0.00    -0.391 OA
ATOM     12  H2  UNL     1      34.112 -11.135  -1.220  1.00  0.00     0.210 HD
ENDBRANCH   6  11
BRANCH   7  13
HETATM   13  O1  UNL     1      33.848  -8.166   0.492  1.00  0.00    -0.389 OA
ATOM     14  H1  UNL     1      34.286  -7.325   0.441  1.00  0.00     0.210 HD
ENDBRANCH   7  13
BRANCH   9  15
HETATM   15  C3  UNL     1      29.245  -8.929  -0.707  1.00  0.00     0.150 C 
BRANCH  15  16
HETATM   16  N1  UNL     1      28.453  -7.801  -1.027  1.00  0.00    -0.417 N 
HETATM   17  C1  UNL     1      27.326  -8.026  -1.874  1.00  0.00     0.142 C 
HETATM   18  C2  UNL     1      28.172  -6.938   0.091  1.00  0.00     0.142 C 
ENDBRANCH  15  16
ENDBRANCH   9  15
ENDBRANCH   1   5
BRANCH   3  19
HETATM   19  O4  UNL     1      33.056 -10.215  -6.210  1.00  0.00    -0.298 OA
BRANCH  19  20
HETATM   20  C10 UNL     1      32.398  -9.528  -7.286  1.00  0.00     0.138 C 
HETATM   21  C11 UNL     1      31.260  -8.696  -6.785  1.00  0.00     0.033 C 
HETATM   22  C12 UNL     1      31.477  -7.263  -6.584  1.00  0.00     0.007 C 
HETATM   23  C13 UNL     1      32.536  -6.599  -7.388  1.00  0.00    -0.010 C 
HETATM   24  C14 UNL     1      32.003  -5.439  -8.245  1.00  0.00     0.005 C 
HETATM   25  C20 UNL     1      33.226  -7.423  -8.369  1.00  0.00     0.000 C 
HETATM   26  C15 UNL     1      32.201  -5.885  -9.705  1.00  0.00     0.005 C 
HETATM   27  C16 UNL     1      32.245  -7.344  -9.554  1.00  0.00    -0.010 C 
HETATM   28  C17 UNL     1      33.023  -8.156 -10.519  1.00  0.00     0.005 C 
HETATM   29  C18 UNL     1      33.331  -9.379  -9.631  1.00  0.00     0.008 C 
HETATM   30  C19 UNL     1      33.344  -8.858  -8.205  1.00  0.00     0.020 C 
ENDBRANCH  19  20
ENDBRANCH   3  19
TORSDOF 7
ENDMDL
