MODEL 1
REMARK VINA RESULT: -7.557315049      0.000      0.000
REMARK  4 active torsions:
REMARK  status: ('A' for Active; 'I' for Inactive)
REMARK    1  A    between atoms: C10_16  and  N4_17 
REMARK    2  A    between atoms: N4_17  and  C11_19 
REMARK    3  A    between atoms: C11_19  and  C12_20 
REMARK    4  A    between atoms: C12_20  and  N5_21 
ROOT
HETATM    1  C1  UNL     1      28.771  -1.443  -4.454  1.00  0.00     0.070 C 
HETATM    2  C2  UNL     1      27.660  -1.766  -5.369  1.00  0.00     0.035 A 
HETATM    3  N1  UNL     1      26.580  -1.096  -5.703  1.00  0.00    -0.304 N 
ATOM      4  H1  UNL     1      26.393  -0.142  -5.392  1.00  0.00     0.186 HD
HETATM    5  N2  UNL     1      25.757  -1.782  -6.483  1.00  0.00    -0.304 N 
ATOM      6  H2  UNL     1      24.864  -1.467  -6.864  1.00  0.00     0.186 HD
HETATM    7  C3  UNL     1      26.341  -2.976  -6.670  1.00  0.00     0.035 A 
HETATM    8  C4  UNL     1      25.776  -4.085  -7.518  1.00  0.00     0.070 C 
HETATM    9  C5  UNL     1      27.563  -3.040  -5.991  1.00  0.00     0.021 A 
HETATM   10  C6  UNL     1      28.573  -4.055  -6.046  1.00  0.00     0.008 C 
HETATM   11  C7  UNL     1      28.716  -5.033  -4.923  1.00  0.00     0.050 C 
HETATM   12  C8  UNL     1      30.156  -5.027  -4.402  1.00  0.00     0.063 C 
HETATM   13  C9  UNL     1      31.088  -5.537  -5.494  1.00  0.00     0.033 A 
HETATM   14  N3  UNL     1      31.953  -6.492  -5.421  1.00  0.00    -0.339 N 
ATOM     15  H3  UNL     1      32.145  -6.964  -4.536  1.00  0.00     0.168 HD
HETATM   16  C10 UNL     1      32.607  -6.852  -6.574  1.00  0.00     0.149 A 
HETATM   17  S1  UNL     1      31.933  -5.769  -7.712  1.00  0.00    -0.048 SA
HETATM   18  C16 UNL     1      30.862  -4.926  -6.695  1.00  0.00     0.081 A 
HETATM   19  C17 UNL     1      29.846  -3.832  -6.742  1.00  0.00     0.198 C 
HETATM   20  O2  UNL     1      30.197  -2.830  -7.391  1.00  0.00    -0.286 OA
ENDROOT
BRANCH  16  21
HETATM   21  N4  UNL     1      33.473  -7.780  -6.644  1.00  0.00    -0.348 N 
ATOM     22  H4  UNL     1      34.433  -7.434  -6.641  1.00  0.00     0.167 HD
BRANCH  21  23
HETATM   23  C11 UNL     1      33.392  -9.157  -6.724  1.00  0.00     0.083 C 
BRANCH  23  24
HETATM   24  C12 UNL     1      32.814  -9.880  -5.511  1.00  0.00     0.172 C 
BRANCH  24  25
HETATM   25  N5  UNL     1      31.450 -10.306  -5.792  1.00  0.00    -0.328 N 
HETATM   26  C13 UNL     1      30.224  -9.563  -5.779  1.00  0.00     0.147 C 
HETATM   27  C14 UNL     1      29.122 -10.536  -6.063  1.00  0.00     0.144 C 
HETATM   28  N6  UNL     1      29.738 -11.763  -6.473  1.00  0.00    -0.341 N 
HETATM   29  C15 UNL     1      31.109 -11.662  -6.208  1.00  0.00     0.318 C 
ATOM     30  H6  UNL     1      29.263 -12.566  -6.883  1.00  0.00     0.164 HD
HETATM   31  O1  UNL     1      31.949 -12.578  -6.307  1.00  0.00    -0.247 OA
ENDBRANCH  24  25
ENDBRANCH  23  24
ENDBRANCH  21  23
ENDBRANCH  16  21
TORSDOF 4
ENDMDL
MODEL 2
REMARK VINA RESULT: -7.457856700      2.352      3.397
REMARK  4 active torsions:
REMARK  status: ('A' for Active; 'I' for Inactive)
REMARK    1  A    between atoms: C10_16  and  N4_17 
REMARK    2  A    between atoms: N4_17  and  C11_19 
REMARK    3  A    between atoms: C11_19  and  C12_20 
REMARK    4  A    between atoms: C12_20  and  N5_21 
ROOT
HETATM    1  C1  UNL     1      24.273  -2.221  -4.197  1.00  0.00     0.070 C 
HETATM    2  C2  UNL     1      25.026  -0.952  -4.180  1.00  0.00     0.035 A 
HETATM    3  N1  UNL     1      24.715   0.242  -3.727  1.00  0.00    -0.304 N 
ATOM      4  H1  UNL     1      23.855   0.442  -3.217  1.00  0.00     0.186 HD
HETATM    5  N2  UNL     1      25.630   1.161  -4.001  1.00  0.00    -0.304 N 
ATOM      6  H2  UNL     1      25.603   2.150  -3.751  1.00  0.00     0.186 HD
HETATM    7  C3  UNL     1      26.600   0.523  -4.674  1.00  0.00     0.035 A 
HETATM    8  C4  UNL     1      27.866   1.166  -5.173  1.00  0.00     0.070 C 
HETATM    9  C5  UNL     1      26.287  -0.833  -4.825  1.00  0.00     0.021 A 
HETATM   10  C6  UNL     1      27.101  -1.897  -5.334  1.00  0.00     0.008 C 
HETATM   11  C7  UNL     1      26.869  -2.427  -6.714  1.00  0.00     0.050 C 
HETATM   12  C8  UNL     1      26.662  -3.943  -6.665  1.00  0.00     0.063 C 
HETATM   13  C9  UNL     1      27.948  -4.610  -6.195  1.00  0.00     0.033 A 
HETATM   14  N3  UNL     1      28.608  -5.561  -6.767  1.00  0.00    -0.339 N 
ATOM     15  H3  UNL     1      28.249  -6.023  -7.604  1.00  0.00     0.168 HD
HETATM   16  C10 UNL     1      29.809  -5.930  -6.212  1.00  0.00     0.149 A 
HETATM   17  S1  UNL     1      29.915  -4.875  -4.871  1.00  0.00    -0.048 SA
HETATM   18  C16 UNL     1      28.459  -4.019  -5.073  1.00  0.00     0.081 A 
HETATM   19  C17 UNL     1      27.672  -2.916  -4.446  1.00  0.00     0.198 C 
HETATM   20  O2  UNL     1      27.594  -2.979  -3.205  1.00  0.00    -0.286 OA
ENDROOT
BRANCH  16  21
HETATM   21  N4  UNL     1      30.562  -6.841  -6.680  1.00  0.00    -0.348 N 
ATOM     22  H4  UNL     1      30.276  -7.163  -7.605  1.00  0.00     0.167 HD
BRANCH  21  23
HETATM   23  C11 UNL     1      31.686  -7.490  -6.203  1.00  0.00     0.083 C 
BRANCH  23  24
HETATM   24  C12 UNL     1      31.466  -8.510  -5.090  1.00  0.00     0.172 C 
BRANCH  24  25
HETATM   25  N5  UNL     1      31.306  -9.840  -5.661  1.00  0.00    -0.328 N 
HETATM   26  C13 UNL     1      32.260 -10.896  -5.832  1.00  0.00     0.147 C 
HETATM   27  C14 UNL     1      31.558 -12.004  -6.555  1.00  0.00     0.144 C 
HETATM   28  N6  UNL     1      30.163 -11.676  -6.574  1.00  0.00    -0.341 N 
HETATM   29  C15 UNL     1      30.029 -10.351  -6.145  1.00  0.00     0.318 C 
ATOM     30  H6  UNL     1      29.403 -12.298  -6.852  1.00  0.00     0.164 HD
HETATM   31  O1  UNL     1      28.981  -9.674  -6.156  1.00  0.00    -0.247 OA
ENDBRANCH  24  25
ENDBRANCH  23  24
ENDBRANCH  21  23
ENDBRANCH  16  21
TORSDOF 4
ENDMDL
MODEL 3
REMARK VINA RESULT: -7.288595143      2.214      3.213
REMARK  4 active torsions:
REMARK  status: ('A' for Active; 'I' for Inactive)
REMARK    1  A    between atoms: C10_16  and  N4_17 
REMARK    2  A    between atoms: N4_17  and  C11_19 
REMARK    3  A    between atoms: C11_19  and  C12_20 
REMARK    4  A    between atoms: C12_20  and  N5_21 
ROOT
HETATM    1  C1  UNL     1      24.304  -2.316  -4.206  1.00  0.00     0.070 C 
HETATM    2  C2  UNL     1      25.006  -1.018  -4.188  1.00  0.00     0.035 A 
HETATM    3  N1  UNL     1      24.653   0.160  -3.725  1.00  0.00    -0.304 N 
ATOM      4  H1  UNL     1      23.791   0.322  -3.204  1.00  0.00     0.186 HD
HETATM    5  N2  UNL     1      25.528   1.115  -4.001  1.00  0.00    -0.304 N 
ATOM      6  H2  UNL     1      25.464   2.101  -3.745  1.00  0.00     0.186 HD
HETATM    7  C3  UNL     1      26.516   0.520  -4.688  1.00  0.00     0.035 A 
HETATM    8  C4  UNL     1      27.750   1.217  -5.196  1.00  0.00     0.070 C 
HETATM    9  C5  UNL     1      26.255  -0.846  -4.845  1.00  0.00     0.021 A 
HETATM   10  C6  UNL     1      27.105  -1.873  -5.369  1.00  0.00     0.008 C 
HETATM   11  C7  UNL     1      26.880  -2.404  -6.750  1.00  0.00     0.050 C 
HETATM   12  C8  UNL     1      26.734  -3.927  -6.709  1.00  0.00     0.063 C 
HETATM   13  C9  UNL     1      28.051  -4.546  -6.255  1.00  0.00     0.033 A 
HETATM   14  N3  UNL     1      28.742  -5.466  -6.841  1.00  0.00    -0.339 N 
ATOM     15  H3  UNL     1      28.393  -5.937  -7.677  1.00  0.00     0.168 HD
HETATM   16  C10 UNL     1      29.962  -5.791  -6.300  1.00  0.00     0.149 A 
HETATM   17  S1  UNL     1      30.039  -4.740  -4.953  1.00  0.00    -0.048 SA
HETATM   18  C16 UNL     1      28.549  -3.942  -5.135  1.00  0.00     0.081 A 
HETATM   19  C17 UNL     1      27.725  -2.875  -4.493  1.00  0.00     0.198 C 
HETATM   20  O2  UNL     1      27.662  -2.949  -3.252  1.00  0.00    -0.286 OA
ENDROOT
BRANCH  16  21
HETATM   21  N4  UNL     1      30.745  -6.668  -6.781  1.00  0.00    -0.348 N 
ATOM     22  H4  UNL     1      30.650  -6.781  -7.790  1.00  0.00     0.167 HD
BRANCH  21  23
HETATM   23  C11 UNL     1      31.699  -7.503  -6.228  1.00  0.00     0.083 C 
BRANCH  23  24
HETATM   24  C12 UNL     1      31.249  -8.375  -5.060  1.00  0.00     0.172 C 
BRANCH  24  25
HETATM   25  N5  UNL     1      30.506  -9.525  -5.557  1.00  0.00    -0.328 N 
HETATM   26  C13 UNL     1      29.142  -9.632  -5.985  1.00  0.00     0.147 C 
HETATM   27  C14 UNL     1      28.900 -11.073  -6.310  1.00  0.00     0.144 C 
HETATM   28  N6  UNL     1      30.175 -11.727  -6.300  1.00  0.00    -0.341 N 
HETATM   29  C15 UNL     1      31.106 -10.839  -5.750  1.00  0.00     0.318 C 
ATOM     30  H6  UNL     1      30.369 -12.671  -6.634  1.00  0.00     0.164 HD
HETATM   31  O1  UNL     1      32.291 -11.100  -5.457  1.00  0.00    -0.247 OA
ENDBRANCH  24  25
ENDBRANCH  23  24
ENDBRANCH  21  23
ENDBRANCH  16  21
TORSDOF 4
ENDMDL
MODEL 4
REMARK VINA RESULT: -7.270668613      4.690      6.199
REMARK  4 active torsions:
REMARK  status: ('A' for Active; 'I' for Inactive)
REMARK    1  A    between atoms: C10_16  and  N4_17 
REMARK    2  A    between atoms: N4_17  and  C11_19 
REMARK    3  A    between atoms: C11_19  and  C12_20 
REMARK    4  A    between atoms: C12_20  and  N5_21 
ROOT
HETATM    1  C1  UNL     1      31.803 -10.196  -1.150  1.00  0.00     0.070 C 
HETATM    2  C2  UNL     1      30.502  -9.564  -0.856  1.00  0.00     0.035 A 
HETATM    3  N1  UNL     1      29.729  -9.609   0.206  1.00  0.00    -0.304 N 
ATOM      4  H1  UNL     1      29.993 -10.079   1.072  1.00  0.00     0.186 HD
HETATM    5  N2  UNL     1      28.572  -8.985   0.038  1.00  0.00    -0.304 N 
ATOM      6  H2  UNL     1      27.819  -8.891   0.720  1.00  0.00     0.186 HD
HETATM    7  C3  UNL     1      28.595  -8.501  -1.213  1.00  0.00     0.035 A 
HETATM    8  C4  UNL     1      27.492  -7.691  -1.842  1.00  0.00     0.070 C 
HETATM    9  C5  UNL     1      29.799  -8.828  -1.848  1.00  0.00     0.021 A 
HETATM   10  C6  UNL     1      30.302  -8.384  -3.114  1.00  0.00     0.008 C 
HETATM   11  C7  UNL     1      30.260  -9.296  -4.300  1.00  0.00     0.050 C 
HETATM   12  C8  UNL     1      31.658  -9.425  -4.911  1.00  0.00     0.063 C 
HETATM   13  C9  UNL     1      32.091  -8.073  -5.464  1.00  0.00     0.033 A 
HETATM   14  N3  UNL     1      32.511  -7.796  -6.654  1.00  0.00    -0.339 N 
ATOM     15  H3  UNL     1      32.666  -8.533  -7.343  1.00  0.00     0.168 HD
HETATM   16  C10 UNL     1      32.741  -6.477  -6.960  1.00  0.00     0.149 A 
HETATM   17  S1  UNL     1      32.343  -5.702  -5.489  1.00  0.00    -0.048 SA
HETATM   18  C16 UNL     1      31.900  -7.060  -4.567  1.00  0.00     0.081 A 
HETATM   19  C17 UNL     1      31.404  -7.419  -3.205  1.00  0.00     0.198 C 
HETATM   20  O2  UNL     1      31.989  -6.837  -2.274  1.00  0.00    -0.286 OA
ENDROOT
BRANCH  16  21
HETATM   21  N4  UNL     1      33.144  -6.067  -8.093  1.00  0.00    -0.348 N 
ATOM     22  H4  UNL     1      34.159  -6.097  -8.193  1.00  0.00     0.167 HD
BRANCH  21  23
HETATM   23  C11 UNL     1      32.502  -5.589  -9.220  1.00  0.00     0.083 C 
BRANCH  23  24
HETATM   24  C12 UNL     1      32.911  -6.205 -10.554  1.00  0.00     0.172 C 
BRANCH  24  25
HETATM   25  N5  UNL     1      32.067  -7.355 -10.847  1.00  0.00    -0.328 N 
HETATM   26  C13 UNL     1      30.923  -7.471 -11.704  1.00  0.00     0.147 C 
HETATM   27  C14 UNL     1      30.403  -8.867 -11.550  1.00  0.00     0.144 C 
HETATM   28  N6  UNL     1      31.383  -9.602 -10.805  1.00  0.00    -0.341 N 
HETATM   29  C15 UNL     1      32.310  -8.684 -10.298  1.00  0.00     0.318 C 
ATOM     30  H6  UNL     1      31.402 -10.612 -10.669  1.00  0.00     0.164 HD
HETATM   31  O1  UNL     1      33.230  -8.933  -9.492  1.00  0.00    -0.247 OA
ENDBRANCH  24  25
ENDBRANCH  23  24
ENDBRANCH  21  23
ENDBRANCH  16  21
TORSDOF 4
ENDMDL
MODEL 5
REMARK VINA RESULT: -7.236929506      1.169      1.235
REMARK  4 active torsions:
REMARK  status: ('A' for Active; 'I' for Inactive)
REMARK    1  A    between atoms: C10_16  and  N4_17 
REMARK    2  A    between atoms: N4_17  and  C11_19 
REMARK    3  A    between atoms: C11_19  and  C12_20 
REMARK    4  A    between atoms: C12_20  and  N5_21 
ROOT
HETATM    1  C1  UNL     1      27.273  -1.548  -3.827  1.00  0.00     0.070 C 
HETATM    2  C2  UNL     1      26.167  -2.076  -4.649  1.00  0.00     0.035 A 
HETATM    3  N1  UNL     1      24.974  -1.595  -4.921  1.00  0.00    -0.304 N 
ATOM      4  H1  UNL     1      24.660  -0.672  -4.623  1.00  0.00     0.186 HD
HETATM    5  N2  UNL     1      24.220  -2.430  -5.621  1.00  0.00    -0.304 N 
ATOM      6  H2  UNL     1      23.265  -2.274  -5.943  1.00  0.00     0.186 HD
HETATM    7  C3  UNL     1      24.971  -3.525  -5.818  1.00  0.00     0.035 A 
HETATM    8  C4  UNL     1      24.533  -4.740  -6.592  1.00  0.00     0.070 C 
HETATM    9  C5  UNL     1      26.232  -3.372  -5.229  1.00  0.00     0.021 A 
HETATM   10  C6  UNL     1      27.384  -4.218  -5.330  1.00  0.00     0.008 C 
HETATM   11  C7  UNL     1      27.756  -5.118  -4.194  1.00  0.00     0.050 C 
HETATM   12  C8  UNL     1      29.209  -4.867  -3.780  1.00  0.00     0.063 C 
HETATM   13  C9  UNL     1      30.133  -5.266  -4.923  1.00  0.00     0.033 A 
HETATM   14  N3  UNL     1      31.142  -6.071  -4.888  1.00  0.00    -0.339 N 
ATOM     15  H3  UNL     1      31.466  -6.473  -4.008  1.00  0.00     0.168 HD
HETATM   16  C10 UNL     1      31.765  -6.367  -6.076  1.00  0.00     0.149 A 
HETATM   17  S1  UNL     1      30.852  -5.446  -7.190  1.00  0.00    -0.048 SA
HETATM   18  C16 UNL     1      29.733  -4.743  -6.121  1.00  0.00     0.081 A 
HETATM   19  C17 UNL     1      28.555  -3.825  -6.122  1.00  0.00     0.198 C 
HETATM   20  O2  UNL     1      28.697  -2.805  -6.822  1.00  0.00    -0.286 OA
ENDROOT
BRANCH  16  21
HETATM   21  N4  UNL     1      32.760  -7.150  -6.185  1.00  0.00    -0.348 N 
ATOM     22  H4  UNL     1      33.658  -6.675  -6.083  1.00  0.00     0.167 HD
BRANCH  21  23
HETATM   23  C11 UNL     1      32.887  -8.508  -6.411  1.00  0.00     0.083 C 
BRANCH  23  24
HETATM   24  C12 UNL     1      32.426  -9.434  -5.289  1.00  0.00     0.172 C 
BRANCH  24  25
HETATM   25  N5  UNL     1      31.181 -10.087  -5.667  1.00  0.00    -0.328 N 
HETATM   26  C13 UNL     1      29.847  -9.567  -5.745  1.00  0.00     0.147 C 
HETATM   27  C14 UNL     1      28.952 -10.713  -6.105  1.00  0.00     0.144 C 
HETATM   28  N6  UNL     1      29.799 -11.811  -6.465  1.00  0.00    -0.341 N 
HETATM   29  C15 UNL     1      31.109 -11.477  -6.102  1.00  0.00     0.318 C 
ATOM     30  H6  UNL     1      29.501 -12.681  -6.906  1.00  0.00     0.164 HD
HETATM   31  O1  UNL     1      32.101 -12.234  -6.138  1.00  0.00    -0.247 OA
ENDBRANCH  24  25
ENDBRANCH  23  24
ENDBRANCH  21  23
ENDBRANCH  16  21
TORSDOF 4
ENDMDL
