MODEL 1
REMARK VINA RESULT: -7.416631751      0.000      0.000
REMARK  7 active torsions:
REMARK  status: ('A' for Active; 'I' for Inactive)
REMARK    1  A    between atoms: C2_2  and  C3_3 
REMARK    2  A    between atoms: C3_3  and  C4_4 
REMARK    3  A    between atoms: C4_4  and  O2_6 
REMARK    4  A    between atoms: O2_6  and  C5_7 
REMARK    5  A    between atoms: C13_16  and  C15_18 
REMARK    6  A    between atoms: C15_18  and  O4_19 
REMARK    7  A    between atoms: C21_26  and  O5_27 
ROOT
HETATM    1  C5  UNL     1       1.327  -0.556  28.965  1.00  0.00     0.164 C 
HETATM    2  C6  UNL     1       2.351   0.409  28.412  1.00  0.00     0.068 C 
HETATM    3  C7  UNL     1       1.891   0.617  26.982  1.00  0.00     0.135 C 
HETATM    4  O3  UNL     1       2.229   1.783  26.409  1.00  0.00    -0.374 OA
HETATM    5  C8  UNL     1       2.482   1.809  25.074  1.00  0.00     0.062 C 
HETATM    6  C9  UNL     1       2.596   3.288  24.724  1.00  0.00     0.046 C 
HETATM    7  C10 UNL     1       3.933   1.312  24.926  1.00  0.00     0.038 C 
HETATM    8  C11 UNL     1       4.400   1.454  23.500  1.00  0.00     0.004 C 
HETATM    9  C12 UNL     1       3.310   1.316  22.500  1.00  0.00     0.012 C 
HETATM   10  C13 UNL     1       2.227   0.389  23.028  1.00  0.00    -0.016 C 
HETATM   11  C14 UNL     1       2.777  -0.932  23.340  1.00  0.00     0.018 C 
HETATM   12  C16 UNL     1       1.536   1.131  24.156  1.00  0.00     0.030 C 
HETATM   13  C17 UNL     1       0.503   0.250  24.742  1.00  0.00     0.009 C 
HETATM   14  C18 UNL     1      -0.266   0.828  25.906  1.00  0.00     0.015 C 
HETATM   15  C19 UNL     1       0.382   0.692  27.226  1.00  0.00     0.011 C 
HETATM   16  C20 UNL     1       0.107   1.927  28.046  1.00  0.00     0.020 C 
HETATM   17  C21 UNL     1       0.137  -0.539  28.004  1.00  0.00     0.158 C 
ENDROOT
BRANCH   1  18
HETATM   18  O2  UNL     1       0.950  -0.247  30.280  1.00  0.00    -0.313 OA
BRANCH  18  19
HETATM   19  C4  UNL     1       1.644  -0.700  31.398  1.00  0.00     0.262 C 
HETATM   20  O1  UNL     1       2.655  -0.072  31.795  1.00  0.00    -0.265 OA
BRANCH  19  21
HETATM   21  C3  UNL     1       1.232  -1.917  32.158  1.00  0.00     0.137 C 
BRANCH  21  22
HETATM   22  C2  UNL     1      -0.081  -2.343  31.647  1.00  0.00    -0.027 C 
HETATM   23  C1  UNL     1      -0.298  -3.605  31.333  1.00  0.00     0.007 C 
ENDBRANCH  21  22
ENDBRANCH  19  21
ENDBRANCH  18  19
ENDBRANCH   1  18
BRANCH  17  24
HETATM   24  O5  UNL     1      -1.010  -0.333  28.800  1.00  0.00    -0.392 OA
ATOM     25  H5  UNL     1      -1.696  -0.868  28.421  1.00  0.00     0.210 HD
ENDBRANCH  17  24
BRANCH  10  26
HETATM   26  C15 UNL     1       1.188   0.225  21.910  1.00  0.00     0.173 C 
BRANCH  26  27
HETATM   27  O4  UNL     1       1.397  -1.078  21.428  1.00  0.00    -0.400 OA
ATOM     28  H4  UNL     1       1.157  -1.031  20.510  1.00  0.00     0.209 HD
ENDBRANCH  26  27
ENDBRANCH  10  26
TORSDOF 7
ENDMDL
MODEL 2
REMARK VINA RESULT: -7.190421096      0.868      1.407
REMARK  7 active torsions:
REMARK  status: ('A' for Active; 'I' for Inactive)
REMARK    1  A    between atoms: C2_2  and  C3_3 
REMARK    2  A    between atoms: C3_3  and  C4_4 
REMARK    3  A    between atoms: C4_4  and  O2_6 
REMARK    4  A    between atoms: O2_6  and  C5_7 
REMARK    5  A    between atoms: C13_16  and  C15_18 
REMARK    6  A    between atoms: C15_18  and  O4_19 
REMARK    7  A    between atoms: C21_26  and  O5_27 
ROOT
HETATM    1  C5  UNL     1       0.728  -0.810  28.751  1.00  0.00     0.164 C 
HETATM    2  C6  UNL     1       1.846   0.143  28.391  1.00  0.00     0.068 C 
HETATM    3  C7  UNL     1       1.562   0.474  26.939  1.00  0.00     0.135 C 
HETATM    4  O3  UNL     1       2.009   1.662  26.499  1.00  0.00    -0.374 OA
HETATM    5  C8  UNL     1       2.414   1.771  25.206  1.00  0.00     0.062 C 
HETATM    6  C9  UNL     1       2.625   3.265  24.985  1.00  0.00     0.046 C 
HETATM    7  C10 UNL     1       3.851   1.217  25.182  1.00  0.00     0.038 C 
HETATM    8  C11 UNL     1       4.484   1.439  23.832  1.00  0.00     0.004 C 
HETATM    9  C12 UNL     1       3.510   1.425  22.710  1.00  0.00     0.012 C 
HETATM   10  C13 UNL     1       2.339   0.516  23.041  1.00  0.00    -0.016 C 
HETATM   11  C14 UNL     1       2.797  -0.849  23.309  1.00  0.00     0.018 C 
HETATM   12  C16 UNL     1       1.553   1.207  24.138  1.00  0.00     0.030 C 
HETATM   13  C17 UNL     1       0.426   0.336  24.537  1.00  0.00     0.009 C 
HETATM   14  C18 UNL     1      -0.448   0.866  25.649  1.00  0.00     0.015 C 
HETATM   15  C19 UNL     1       0.038   0.604  27.018  1.00  0.00     0.011 C 
HETATM   16  C20 UNL     1      -0.280   1.788  27.895  1.00  0.00     0.020 C 
HETATM   17  C21 UNL     1      -0.342  -0.666  27.668  1.00  0.00     0.158 C 
ENDROOT
BRANCH   1  18
HETATM   18  O2  UNL     1       0.216  -0.579  30.035  1.00  0.00    -0.313 OA
BRANCH  18  19
HETATM   19  C4  UNL     1      -0.151  -1.601  30.905  1.00  0.00     0.262 C 
HETATM   20  O1  UNL     1      -1.332  -2.026  30.897  1.00  0.00    -0.265 OA
BRANCH  19  21
HETATM   21  C3  UNL     1       0.812  -2.225  31.860  1.00  0.00     0.137 C 
BRANCH  21  22
HETATM   22  C2  UNL     1       1.388  -1.150  32.684  1.00  0.00    -0.027 C 
HETATM   23  C1  UNL     1       2.686  -0.918  32.667  1.00  0.00     0.007 C 
ENDBRANCH  21  22
ENDBRANCH  19  21
ENDBRANCH  18  19
ENDBRANCH   1  18
BRANCH  17  24
HETATM   24  O5  UNL     1      -1.564  -0.463  28.345  1.00  0.00    -0.392 OA
ATOM     25  H5  UNL     1      -2.208  -0.999  27.897  1.00  0.00     0.210 HD
ENDBRANCH  17  24
BRANCH  10  26
HETATM   26  C15 UNL     1       1.429   0.483  21.805  1.00  0.00     0.173 C 
BRANCH  26  27
HETATM   27  O4  UNL     1       1.399  -0.870  21.430  1.00  0.00    -0.400 OA
ATOM     28  H4  UNL     1       0.874  -0.885  20.639  1.00  0.00     0.209 HD
ENDBRANCH  26  27
ENDBRANCH  10  26
TORSDOF 7
ENDMDL
MODEL 3
REMARK VINA RESULT: -6.868901337      2.382      4.033
REMARK  7 active torsions:
REMARK  status: ('A' for Active; 'I' for Inactive)
REMARK    1  A    between atoms: C2_2  and  C3_3 
REMARK    2  A    between atoms: C3_3  and  C4_4 
REMARK    3  A    between atoms: C4_4  and  O2_6 
REMARK    4  A    between atoms: O2_6  and  C5_7 
REMARK    5  A    between atoms: C13_16  and  C15_18 
REMARK    6  A    between atoms: C15_18  and  O4_19 
REMARK    7  A    between atoms: C21_26  and  O5_27 
ROOT
HETATM    1  C5  UNL     1       3.318   2.001  31.042  1.00  0.00     0.164 C 
HETATM    2  C6  UNL     1       1.923   2.230  30.504  1.00  0.00     0.068 C 
HETATM    3  C7  UNL     1       1.941   1.493  29.179  1.00  0.00     0.135 C 
HETATM    4  O3  UNL     1       0.758   1.044  28.729  1.00  0.00    -0.374 OA
HETATM    5  C8  UNL     1       0.536   1.010  27.389  1.00  0.00     0.062 C 
HETATM    6  C9  UNL     1      -0.772   0.244  27.226  1.00  0.00     0.046 C 
HETATM    7  C10 UNL     1       0.139   2.448  27.006  1.00  0.00     0.038 C 
HETATM    8  C11 UNL     1      -0.303   2.511  25.566  1.00  0.00     0.004 C 
HETATM    9  C12 UNL     1       0.371   1.516  24.693  1.00  0.00     0.012 C 
HETATM   10  C13 UNL     1       1.765   1.215  25.217  1.00  0.00    -0.016 C 
HETATM   11  C14 UNL     1       2.573   2.435  25.284  1.00  0.00     0.018 C 
HETATM   12  C16 UNL     1       1.582   0.438  26.507  1.00  0.00     0.030 C 
HETATM   13  C17 UNL     1       2.914   0.164  27.089  1.00  0.00     0.009 C 
HETATM   14  C18 UNL     1       2.912  -0.583  28.402  1.00  0.00     0.015 C 
HETATM   15  C19 UNL     1       2.726   0.250  29.607  1.00  0.00     0.011 C 
HETATM   16  C20 UNL     1       1.889  -0.502  30.609  1.00  0.00     0.020 C 
HETATM   17  C21 UNL     1       3.920   0.847  30.239  1.00  0.00     0.158 C 
ENDROOT
BRANCH   1  18
HETATM   18  O2  UNL     1       3.330   1.750  32.421  1.00  0.00    -0.313 OA
BRANCH  18  19
HETATM   19  C4  UNL     1       2.350   2.220  33.290  1.00  0.00     0.262 C 
HETATM   20  O1  UNL     1       2.254   3.453  33.504  1.00  0.00    -0.265 OA
BRANCH  19  21
HETATM   21  C3  UNL     1       1.394   1.311  33.987  1.00  0.00     0.137 C 
BRANCH  21  22
HETATM   22  C2  UNL     1       0.510   2.142  34.821  1.00  0.00    -0.027 C 
HETATM   23  C1  UNL     1       0.134   1.728  36.015  1.00  0.00     0.007 C 
ENDBRANCH  21  22
ENDBRANCH  19  21
ENDBRANCH  18  19
ENDBRANCH   1  18
BRANCH  17  24
HETATM   24  O5  UNL     1       4.420  -0.073  31.185  1.00  0.00    -0.392 OA
ATOM     25  H5  UNL     1       4.589  -0.878  30.709  1.00  0.00     0.210 HD
ENDBRANCH  17  24
BRANCH  10  26
HETATM   26  C15 UNL     1       2.427   0.256  24.218  1.00  0.00     0.173 C 
BRANCH  26  27
HETATM   27  O4  UNL     1       1.362  -0.226  23.440  1.00  0.00    -0.400 OA
ATOM     28  H4  UNL     1       0.976  -0.915  23.967  1.00  0.00     0.209 HD
ENDBRANCH  26  27
ENDBRANCH  10  26
TORSDOF 7
ENDMDL
MODEL 4
REMARK VINA RESULT: -6.854785640      2.128      7.005
REMARK  7 active torsions:
REMARK  status: ('A' for Active; 'I' for Inactive)
REMARK    1  A    between atoms: C2_2  and  C3_3 
REMARK    2  A    between atoms: C3_3  and  C4_4 
REMARK    3  A    between atoms: C4_4  and  O2_6 
REMARK    4  A    between atoms: O2_6  and  C5_7 
REMARK    5  A    between atoms: C13_16  and  C15_18 
REMARK    6  A    between atoms: C15_18  and  O4_19 
REMARK    7  A    between atoms: C21_26  and  O5_27 
ROOT
HETATM    1  C5  UNL     1       1.587   1.771  24.257  1.00  0.00     0.164 C 
HETATM    2  C6  UNL     1       2.028   0.548  25.029  1.00  0.00     0.068 C 
HETATM    3  C7  UNL     1       1.787   0.947  26.472  1.00  0.00     0.135 C 
HETATM    4  O3  UNL     1       1.554  -0.053  27.337  1.00  0.00    -0.374 OA
HETATM    5  C8  UNL     1       1.985   0.076  28.619  1.00  0.00     0.062 C 
HETATM    6  C9  UNL     1       1.362  -1.099  29.364  1.00  0.00     0.046 C 
HETATM    7  C10 UNL     1       3.480  -0.296  28.586  1.00  0.00     0.038 C 
HETATM    8  C11 UNL     1       4.043  -0.359  29.982  1.00  0.00     0.004 C 
HETATM    9  C12 UNL     1       3.384   0.574  30.933  1.00  0.00     0.012 C 
HETATM   10  C13 UNL     1       2.878   1.803  30.197  1.00  0.00    -0.016 C 
HETATM   11  C14 UNL     1       3.977   2.493  29.516  1.00  0.00     0.018 C 
HETATM   12  C16 UNL     1       1.715   1.345  29.338  1.00  0.00     0.030 C 
HETATM   13  C17 UNL     1       1.217   2.498  28.557  1.00  0.00     0.009 C 
HETATM   14  C18 UNL     1       0.069   2.206  27.621  1.00  0.00     0.015 C 
HETATM   15  C19 UNL     1       0.448   1.670  26.298  1.00  0.00     0.011 C 
HETATM   16  C20 UNL     1      -0.574   0.652  25.862  1.00  0.00     0.020 C 
HETATM   17  C21 UNL     1       0.756   2.625  25.216  1.00  0.00     0.158 C 
ENDROOT
BRANCH   1  18
HETATM   18  O2  UNL     1       0.881   1.446  23.090  1.00  0.00    -0.313 OA
BRANCH  18  19
HETATM   19  C4  UNL     1       1.489   0.930  21.950  1.00  0.00     0.262 C 
HETATM   20  O1  UNL     1       2.174   1.686  21.218  1.00  0.00    -0.265 OA
BRANCH  19  21
HETATM   21  C3  UNL     1       1.362  -0.503  21.552  1.00  0.00     0.137 C 
BRANCH  21  22
HETATM   22  C2  UNL     1       2.652  -1.159  21.821  1.00  0.00    -0.027 C 
HETATM   23  C1  UNL     1       3.312  -1.759  20.850  1.00  0.00     0.007 C 
ENDBRANCH  21  22
ENDBRANCH  19  21
ENDBRANCH  18  19
ENDBRANCH   1  18
BRANCH  17  24
HETATM   24  O5  UNL     1      -0.446   2.922  24.539  1.00  0.00    -0.392 OA
ATOM     25  H5  UNL     1      -1.031   3.295  25.187  1.00  0.00     0.210 HD
ENDBRANCH  17  24
BRANCH  10  26
HETATM   26  C15 UNL     1       2.296   2.754  31.252  1.00  0.00     0.173 C 
BRANCH  26  27
HETATM   27  O4  UNL     1       3.190   3.836  31.278  1.00  0.00    -0.400 OA
ATOM     28  H4  UNL     1       3.867   3.569  31.889  1.00  0.00     0.209 HD
ENDBRANCH  26  27
ENDBRANCH  10  26
TORSDOF 7
ENDMDL
MODEL 5
REMARK VINA RESULT: -6.805706189      1.313      1.513
REMARK  7 active torsions:
REMARK  status: ('A' for Active; 'I' for Inactive)
REMARK    1  A    between atoms: C2_2  and  C3_3 
REMARK    2  A    between atoms: C3_3  and  C4_4 
REMARK    3  A    between atoms: C4_4  and  O2_6 
REMARK    4  A    between atoms: O2_6  and  C5_7 
REMARK    5  A    between atoms: C13_16  and  C15_18 
REMARK    6  A    between atoms: C15_18  and  O4_19 
REMARK    7  A    between atoms: C21_26  and  O5_27 
ROOT
HETATM    1  C5  UNL     1       2.368  -0.119  28.993  1.00  0.00     0.164 C 
HETATM    2  C6  UNL     1       3.178   0.847  28.159  1.00  0.00     0.068 C 
HETATM    3  C7  UNL     1       2.436   0.864  26.836  1.00  0.00     0.135 C 
HETATM    4  O3  UNL     1       2.554   1.981  26.099  1.00  0.00    -0.374 OA
HETATM    5  C8  UNL     1       2.544   1.877  24.745  1.00  0.00     0.062 C 
HETATM    6  C9  UNL     1       2.456   3.313  24.240  1.00  0.00     0.046 C 
HETATM    7  C10 UNL     1       3.977   1.467  24.357  1.00  0.00     0.038 C 
HETATM    8  C11 UNL     1       4.148   1.483  22.860  1.00  0.00     0.004 C 
HETATM    9  C12 UNL     1       2.903   1.161  22.115  1.00  0.00     0.012 C 
HETATM   10  C13 UNL     1       2.028   0.227  22.934  1.00  0.00    -0.016 C 
HETATM   11  C14 UNL     1       2.742  -1.012  23.253  1.00  0.00     0.018 C 
HETATM   12  C16 UNL     1       1.502   1.039  24.101  1.00  0.00     0.030 C 
HETATM   13  C17 UNL     1       0.683   0.159  24.963  1.00  0.00     0.009 C 
HETATM   14  C18 UNL     1       0.103   0.809  26.197  1.00  0.00     0.015 C 
HETATM   15  C19 UNL     1       1.001   0.863  27.368  1.00  0.00     0.011 C 
HETATM   16  C20 UNL     1       0.780   2.159  28.106  1.00  0.00     0.020 C 
HETATM   17  C21 UNL     1       1.019  -0.289  28.292  1.00  0.00     0.158 C 
ENDROOT
BRANCH   1  18
HETATM   18  O2  UNL     1       2.224   0.306  30.321  1.00  0.00    -0.313 OA
BRANCH  18  19
HETATM   19  C4  UNL     1       3.085  -0.082  31.343  1.00  0.00     0.262 C 
HETATM   20  O1  UNL     1       4.312   0.163  31.245  1.00  0.00    -0.265 OA
BRANCH  19  21
HETATM   21  C3  UNL     1       2.608  -0.785  32.571  1.00  0.00     0.137 C 
BRANCH  21  22
HETATM   22  C2  UNL     1       1.418  -0.071  33.063  1.00  0.00    -0.027 C 
HETATM   23  C1  UNL     1       1.547   1.026  33.783  1.00  0.00     0.007 C 
ENDBRANCH  21  22
ENDBRANCH  19  21
ENDBRANCH  18  19
ENDBRANCH   1  18
BRANCH  17  24
HETATM   24  O5  UNL     1       0.032  -0.075  29.278  1.00  0.00    -0.392 OA
ATOM     25  H5  UNL     1      -0.629  -0.743  29.140  1.00  0.00     0.210 HD
ENDBRANCH  17  24
BRANCH  10  26
HETATM   26  C15 UNL     1       0.813  -0.130  22.067  1.00  0.00     0.173 C 
BRANCH  26  27
HETATM   27  O4  UNL     1       1.309  -1.053  21.132  1.00  0.00    -0.400 OA
ATOM     28  H4  UNL     1       1.480  -1.837  21.642  1.00  0.00     0.209 HD
ENDBRANCH  26  27
ENDBRANCH  10  26
TORSDOF 7
ENDMDL
