MODEL 1
REMARK VINA RESULT: -7.943123186      0.000      0.000
REMARK  4 active torsions:
REMARK  status: ('A' for Active; 'I' for Inactive)
REMARK    1  A    between atoms: C9_9  and  C10_10 
REMARK    2  A    between atoms: C10_10  and  N1_11 
REMARK    3  A    between atoms: C14_15  and  C15_16 
REMARK    4  A    between atoms: C15_16  and  O1_17 
ROOT
HETATM    1  C1  UNL     1       2.569   0.368  22.470  1.00  0.00     0.021 C 
HETATM    2  C2  UNL     1       1.671   0.754  23.645  1.00  0.00    -0.001 C 
HETATM    3  C3  UNL     1       1.518   2.230  23.642  1.00  0.00     0.016 C 
HETATM    4  C4  UNL     1       0.993   2.828  24.904  1.00  0.00     0.013 C 
HETATM    5  C5  UNL     1       1.397   2.149  26.164  1.00  0.00    -0.009 C 
HETATM    6  C6  UNL     1       2.813   2.652  26.497  1.00  0.00     0.018 C 
HETATM    7  C7  UNL     1       0.512   2.577  27.309  1.00  0.00     0.042 C 
HETATM    8  C8  UNL     1       0.904   1.831  28.548  1.00  0.00     0.008 C 
HETATM    9  C9  UNL     1       1.646   0.752  28.520  1.00  0.00     0.072 C 
HETATM   10  O2  UNL     1       2.122   0.229  27.292  1.00  0.00    -0.342 OA
HETATM   11  C16 UNL     1       1.504   0.663  26.095  1.00  0.00     0.076 C 
HETATM   12  C17 UNL     1       0.204  -0.083  25.984  1.00  0.00     0.051 C 
HETATM   13  C18 UNL     1      -0.544   0.134  24.726  1.00  0.00     0.052 C 
HETATM   14  C19 UNL     1      -1.462  -1.056  24.420  1.00  0.00     0.145 C 
HETATM   15  N2  UNL     1      -1.522  -0.912  22.965  1.00  0.00    -0.141 NA
HETATM   16  N3  UNL     1      -0.257  -0.473  22.575  1.00  0.00    -0.311 N 
ATOM     17  H3  UNL     1       0.139  -0.609  21.645  1.00  0.00     0.181 HD
HETATM   18  C20 UNL     1       0.337   0.116  23.526  1.00  0.00     0.014 C 
HETATM   19  C21 UNL     1       2.374   0.315  24.905  1.00  0.00     0.054 C 
ENDROOT
BRANCH   9  20
HETATM   20  C10 UNL     1       2.013   0.045  29.772  1.00  0.00     0.337 C 
BRANCH  20  21
HETATM   21  N1  UNL     1       0.956  -0.341  30.624  1.00  0.00     0.101 N 
HETATM   22  C11 UNL     1       1.265  -0.461  32.017  1.00  0.00     0.273 C 
HETATM   23  C12 UNL     1       1.345  -1.925  32.331  1.00  0.00     0.032 C 
HETATM   24  C13 UNL     1       0.459  -2.565  31.318  1.00  0.00     0.040 C 
HETATM   25  C14 UNL     1       0.345  -1.569  30.215  1.00  0.00     0.246 C 
BRANCH  25  26
HETATM   26  C15 UNL     1      -1.113  -1.327  29.898  1.00  0.00     0.199 C 
BRANCH  26  27
HETATM   27  O1  UNL     1      -1.437  -1.630  28.583  1.00  0.00    -0.399 OA
ATOM     28  H1  UNL     1      -1.990  -2.399  28.505  1.00  0.00     0.209 HD
ENDBRANCH  26  27
ENDBRANCH  25  26
ENDBRANCH  20  21
ENDBRANCH   9  20
TORSDOF 4
ENDMDL
MODEL 2
REMARK VINA RESULT: -7.811562960      1.847      6.912
REMARK  4 active torsions:
REMARK  status: ('A' for Active; 'I' for Inactive)
REMARK    1  A    between atoms: C9_9  and  C10_10 
REMARK    2  A    between atoms: C10_10  and  N1_11 
REMARK    3  A    between atoms: C14_15  and  C15_16 
REMARK    4  A    between atoms: C15_16  and  O1_17 
ROOT
HETATM    1  C1  UNL     1       0.159  -3.308  31.203  1.00  0.00     0.021 C 
HETATM    2  C2  UNL     1       0.292  -1.867  30.711  1.00  0.00    -0.001 C 
HETATM    3  C3  UNL     1      -1.074  -1.313  30.536  1.00  0.00     0.016 C 
HETATM    4  C4  UNL     1      -1.166  -0.066  29.723  1.00  0.00     0.013 C 
HETATM    5  C5  UNL     1      -0.191   0.056  28.605  1.00  0.00    -0.009 C 
HETATM    6  C6  UNL     1      -0.761  -0.767  27.436  1.00  0.00     0.018 C 
HETATM    7  C7  UNL     1      -0.110   1.484  28.122  1.00  0.00     0.042 C 
HETATM    8  C8  UNL     1       0.923   1.586  27.041  1.00  0.00     0.008 C 
HETATM    9  C9  UNL     1       1.822   0.657  26.831  1.00  0.00     0.072 C 
HETATM   10  O2  UNL     1       1.862  -0.511  27.633  1.00  0.00    -0.342 OA
HETATM   11  C16 UNL     1       1.168  -0.501  28.866  1.00  0.00     0.076 C 
HETATM   12  C17 UNL     1       2.017   0.273  29.834  1.00  0.00     0.051 C 
HETATM   13  C18 UNL     1       1.526   0.293  31.229  1.00  0.00     0.052 C 
HETATM   14  C19 UNL     1       2.679   0.527  32.214  1.00  0.00     0.145 C 
HETATM   15  N2  UNL     1       2.097  -0.129  33.386  1.00  0.00    -0.141 NA
HETATM   16  N3  UNL     1       1.383  -1.221  32.892  1.00  0.00    -0.311 N 
ATOM     17  H3  UNL     1       1.164  -2.058  33.433  1.00  0.00     0.181 HD
HETATM   18  C20 UNL     1       1.043  -1.040  31.686  1.00  0.00     0.014 C 
HETATM   19  C21 UNL     1       0.998  -1.915  29.380  1.00  0.00     0.054 C 
ENDROOT
BRANCH   9  20
HETATM   20  C10 UNL     1       2.825   0.797  25.747  1.00  0.00     0.337 C 
BRANCH  20  21
HETATM   21  N1  UNL     1       2.598   0.061  24.564  1.00  0.00     0.101 N 
HETATM   22  C11 UNL     1       3.758  -0.371  23.843  1.00  0.00     0.273 C 
HETATM   23  C12 UNL     1       3.887   0.510  22.637  1.00  0.00     0.032 C 
HETATM   24  C13 UNL     1       2.492   0.955  22.358  1.00  0.00     0.040 C 
HETATM   25  C14 UNL     1       1.757   0.759  23.640  1.00  0.00     0.246 C 
BRANCH  25  26
HETATM   26  C15 UNL     1       0.504  -0.049  23.387  1.00  0.00     0.199 C 
BRANCH  26  27
HETATM   27  O1  UNL     1      -0.618   0.488  24.003  1.00  0.00    -0.399 OA
ATOM     28  H1  UNL     1      -1.180  -0.174  24.388  1.00  0.00     0.209 HD
ENDBRANCH  26  27
ENDBRANCH  25  26
ENDBRANCH  20  21
ENDBRANCH   9  20
TORSDOF 4
ENDMDL
MODEL 3
REMARK VINA RESULT: -7.693023259      0.996      1.569
REMARK  4 active torsions:
REMARK  status: ('A' for Active; 'I' for Inactive)
REMARK    1  A    between atoms: C9_9  and  C10_10 
REMARK    2  A    between atoms: C10_10  and  N1_11 
REMARK    3  A    between atoms: C14_15  and  C15_16 
REMARK    4  A    between atoms: C15_16  and  O1_17 
ROOT
HETATM    1  C1  UNL     1       2.711   0.222  22.386  1.00  0.00     0.021 C 
HETATM    2  C2  UNL     1       1.706   0.668  23.447  1.00  0.00    -0.001 C 
HETATM    3  C3  UNL     1       1.552   2.141  23.345  1.00  0.00     0.016 C 
HETATM    4  C4  UNL     1       0.911   2.806  24.515  1.00  0.00     0.013 C 
HETATM    5  C5  UNL     1       1.195   2.203  25.845  1.00  0.00    -0.009 C 
HETATM    6  C6  UNL     1       2.572   2.734  26.280  1.00  0.00     0.018 C 
HETATM    7  C7  UNL     1       0.205   2.691  26.875  1.00  0.00     0.042 C 
HETATM    8  C8  UNL     1       0.479   2.019  28.187  1.00  0.00     0.008 C 
HETATM    9  C9  UNL     1       1.222   0.945  28.290  1.00  0.00     0.072 C 
HETATM   10  O2  UNL     1       1.812   0.355  27.144  1.00  0.00    -0.342 OA
HETATM   11  C16 UNL     1       1.309   0.716  25.871  1.00  0.00     0.076 C 
HETATM   12  C17 UNL     1       0.026  -0.042  25.682  1.00  0.00     0.051 C 
HETATM   13  C18 UNL     1      -0.600   0.098  24.349  1.00  0.00     0.052 C 
HETATM   14  C19 UNL     1      -1.485  -1.114  24.028  1.00  0.00     0.145 C 
HETATM   15  N2  UNL     1      -1.408  -1.053  22.567  1.00  0.00    -0.141 NA
HETATM   16  N3  UNL     1      -0.112  -0.630  22.273  1.00  0.00    -0.311 N 
ATOM     17  H3  UNL     1       0.370  -0.817  21.394  1.00  0.00     0.181 HD
HETATM   18  C20 UNL     1       0.390   0.017  23.240  1.00  0.00     0.014 C 
HETATM   19  C21 UNL     1       2.287   0.307  24.790  1.00  0.00     0.054 C 
ENDROOT
BRANCH   9  20
HETATM   20  C10 UNL     1       1.470   0.314  29.609  1.00  0.00     0.337 C 
BRANCH  20  21
HETATM   21  N1  UNL     1       0.908  -0.964  29.825  1.00  0.00     0.101 N 
HETATM   22  C11 UNL     1      -0.035  -1.424  28.851  1.00  0.00     0.273 C 
HETATM   23  C12 UNL     1      -1.399  -1.307  29.461  1.00  0.00     0.032 C 
HETATM   24  C13 UNL     1      -1.154  -1.417  30.927  1.00  0.00     0.040 C 
HETATM   25  C14 UNL     1       0.285  -1.076  31.108  1.00  0.00     0.246 C 
BRANCH  25  26
HETATM   26  C15 UNL     1       0.967  -2.163  31.908  1.00  0.00     0.199 C 
BRANCH  26  27
HETATM   27  O1  UNL     1       0.257  -3.355  31.916  1.00  0.00    -0.399 OA
ATOM     28  H1  UNL     1      -0.398  -3.391  32.603  1.00  0.00     0.209 HD
ENDBRANCH  26  27
ENDBRANCH  25  26
ENDBRANCH  20  21
ENDBRANCH   9  20
TORSDOF 4
ENDMDL
MODEL 4
REMARK VINA RESULT: -7.281593650      1.597      2.315
REMARK  4 active torsions:
REMARK  status: ('A' for Active; 'I' for Inactive)
REMARK    1  A    between atoms: C9_9  and  C10_10 
REMARK    2  A    between atoms: C10_10  and  N1_11 
REMARK    3  A    between atoms: C14_15  and  C15_16 
REMARK    4  A    between atoms: C15_16  and  O1_17 
ROOT
HETATM    1  C1  UNL     1       2.781   0.293  22.595  1.00  0.00     0.021 C 
HETATM    2  C2  UNL     1       1.704   0.705  23.598  1.00  0.00    -0.001 C 
HETATM    3  C3  UNL     1       1.547   2.180  23.526  1.00  0.00     0.016 C 
HETATM    4  C4  UNL     1       0.824   2.809  24.668  1.00  0.00     0.013 C 
HETATM    5  C5  UNL     1       1.023   2.171  25.997  1.00  0.00    -0.009 C 
HETATM    6  C6  UNL     1       2.364   2.696  26.538  1.00  0.00     0.018 C 
HETATM    7  C7  UNL     1      -0.037   2.625  26.971  1.00  0.00     0.042 C 
HETATM    8  C8  UNL     1       0.153   1.919  28.279  1.00  0.00     0.008 C 
HETATM    9  C9  UNL     1       0.894   0.846  28.403  1.00  0.00     0.072 C 
HETATM   10  O2  UNL     1       1.564   0.291  27.284  1.00  0.00    -0.342 OA
HETATM   11  C16 UNL     1       1.145   0.684  25.990  1.00  0.00     0.076 C 
HETATM   12  C17 UNL     1      -0.118  -0.075  25.695  1.00  0.00     0.051 C 
HETATM   13  C18 UNL     1      -0.654   0.098  24.327  1.00  0.00     0.052 C 
HETATM   14  C19 UNL     1      -1.506  -1.108  23.914  1.00  0.00     0.145 C 
HETATM   15  N2  UNL     1      -1.332  -1.007  22.464  1.00  0.00    -0.141 NA
HETATM   16  N3  UNL     1      -0.022  -0.569  22.270  1.00  0.00    -0.311 N 
ATOM     17  H3  UNL     1       0.518  -0.729  21.420  1.00  0.00     0.181 HD
HETATM   18  C20 UNL     1       0.409   0.053  23.285  1.00  0.00     0.014 C 
HETATM   19  C21 UNL     1       2.196   0.310  24.967  1.00  0.00     0.054 C 
ENDROOT
BRANCH   9  20
HETATM   20  C10 UNL     1       1.057   0.180  29.718  1.00  0.00     0.337 C 
BRANCH  20  21
HETATM   21  N1  UNL     1       1.895   0.816  30.660  1.00  0.00     0.101 N 
HETATM   22  C11 UNL     1       2.506   2.045  30.249  1.00  0.00     0.273 C 
HETATM   23  C12 UNL     1       3.947   1.751  29.961  1.00  0.00     0.032 C 
HETATM   24  C13 UNL     1       4.259   0.573  30.819  1.00  0.00     0.040 C 
HETATM   25  C14 UNL     1       2.939  -0.042  31.131  1.00  0.00     0.246 C 
BRANCH  25  26
HETATM   26  C15 UNL     1       2.805  -0.228  32.626  1.00  0.00     0.199 C 
BRANCH  26  27
HETATM   27  O1  UNL     1       2.755  -1.562  33.002  1.00  0.00    -0.399 OA
ATOM     28  H1  UNL     1       3.412  -2.094  32.569  1.00  0.00     0.209 HD
ENDBRANCH  26  27
ENDBRANCH  25  26
ENDBRANCH  20  21
ENDBRANCH   9  20
TORSDOF 4
ENDMDL
MODEL 5
REMARK VINA RESULT: -7.254781265      2.528      7.000
REMARK  4 active torsions:
REMARK  status: ('A' for Active; 'I' for Inactive)
REMARK    1  A    between atoms: C9_9  and  C10_10 
REMARK    2  A    between atoms: C10_10  and  N1_11 
REMARK    3  A    between atoms: C14_15  and  C15_16 
REMARK    4  A    between atoms: C15_16  and  O1_17 
ROOT
HETATM    1  C1  UNL     1       0.318  -3.216  31.440  1.00  0.00     0.021 C 
HETATM    2  C2  UNL     1       0.363  -1.795  30.879  1.00  0.00    -0.001 C 
HETATM    3  C3  UNL     1      -1.032  -1.353  30.634  1.00  0.00     0.016 C 
HETATM    4  C4  UNL     1      -1.186  -0.158  29.756  1.00  0.00     0.013 C 
HETATM    5  C5  UNL     1      -0.185  -0.017  28.664  1.00  0.00    -0.009 C 
HETATM    6  C6  UNL     1      -0.653  -0.936  27.522  1.00  0.00     0.018 C 
HETATM    7  C7  UNL     1      -0.191   1.387  28.112  1.00  0.00     0.042 C 
HETATM    8  C8  UNL     1       0.869   1.513  27.059  1.00  0.00     0.008 C 
HETATM    9  C9  UNL     1       1.840   0.644  26.925  1.00  0.00     0.072 C 
HETATM   10  O2  UNL     1       1.936  -0.478  27.786  1.00  0.00    -0.342 OA
HETATM   11  C16 UNL     1       1.201  -0.459  28.995  1.00  0.00     0.076 C 
HETATM   12  C17 UNL     1       1.958   0.421  29.948  1.00  0.00     0.051 C 
HETATM   13  C18 UNL     1       1.419   0.473  31.325  1.00  0.00     0.052 C 
HETATM   14  C19 UNL     1       2.517   0.840  32.332  1.00  0.00     0.145 C 
HETATM   15  N2  UNL     1       1.943   0.200  33.516  1.00  0.00    -0.141 NA
HETATM   16  N3  UNL     1       1.328  -0.965  33.058  1.00  0.00    -0.311 N 
ATOM     17  H3  UNL     1       1.152  -1.789  33.633  1.00  0.00     0.181 HD
HETATM   18  C20 UNL     1       1.017  -0.868  31.834  1.00  0.00     0.014 C 
HETATM   19  C21 UNL     1       1.116  -1.855  29.575  1.00  0.00     0.054 C 
ENDROOT
BRANCH   9  20
HETATM   20  C10 UNL     1       2.867   0.805  25.867  1.00  0.00     0.337 C 
BRANCH  20  21
HETATM   21  N1  UNL     1       3.335   2.114  25.621  1.00  0.00     0.101 N 
HETATM   22  C11 UNL     1       3.758   2.404  24.284  1.00  0.00     0.273 C 
HETATM   23  C12 UNL     1       5.257   2.442  24.290  1.00  0.00     0.032 C 
HETATM   24  C13 UNL     1       5.607   2.824  25.687  1.00  0.00     0.040 C 
HETATM   25  C14 UNL     1       4.403   2.486  26.497  1.00  0.00     0.246 C 
BRANCH  25  26
HETATM   26  C15 UNL     1       3.989   3.688  27.317  1.00  0.00     0.199 C 
BRANCH  26  27
HETATM   27  O1  UNL     1       3.536   3.347  28.583  1.00  0.00    -0.399 OA
ATOM     28  H1  UNL     1       2.964   4.005  28.961  1.00  0.00     0.209 HD
ENDBRANCH  26  27
ENDBRANCH  25  26
ENDBRANCH  20  21
ENDBRANCH   9  20
TORSDOF 4
ENDMDL
