MODEL 1
REMARK VINA RESULT: -7.799323537      0.000      0.000
REMARK  6 active torsions:
REMARK  status: ('A' for Active; 'I' for Inactive)
REMARK    1  A    between atoms: C2_2  and  C9_13 
REMARK    2  A    between atoms: C3_3  and  C4_4 
REMARK    3  A    between atoms: C4_4  and  C5_5 
REMARK    4  A    between atoms: C5_5  and  O1_6 
REMARK    5  A    between atoms: C5_5  and  C6_8 
REMARK    6  A    between atoms: C6_8  and  O2_11 
ROOT
HETATM    1  C9  UNL     1       0.955  -0.663  32.250  1.00  0.00     0.173 C 
HETATM    2  C10 UNL     1       1.056  -0.497  30.767  1.00  0.00     0.013 C 
HETATM    3  C11 UNL     1       0.411  -1.090  29.802  1.00  0.00    -0.062 C 
HETATM    4  C12 UNL     1      -0.645  -2.137  29.918  1.00  0.00     0.017 C 
HETATM    5  C13 UNL     1      -0.702  -2.644  31.317  1.00  0.00     0.035 C 
HETATM    6  C14 UNL     1       0.708  -2.922  31.813  1.00  0.00     0.169 C 
HETATM    7  O3  UNL     1       1.216  -1.952  32.633  1.00  0.00    -0.378 OA
HETATM    8  C15 UNL     1      -1.918  -1.501  29.423  1.00  0.00     0.010 C 
HETATM    9  C16 UNL     1      -1.670  -0.134  28.830  1.00  0.00     0.013 C 
HETATM   10  C17 UNL     1      -0.538  -0.078  27.855  1.00  0.00    -0.005 C 
HETATM   11  C18 UNL     1      -0.936  -0.748  26.540  1.00  0.00     0.018 C 
HETATM   12  C19 UNL     1      -0.155   1.353  27.657  1.00  0.00     0.189 C 
HETATM   13  O4  UNL     1       1.204   1.512  28.010  1.00  0.00    -0.320 OA
HETATM   14  C20 UNL     1       1.792   0.284  28.253  1.00  0.00     0.268 C 
HETATM   15  O5  UNL     1       3.022   0.097  28.314  1.00  0.00    -0.264 OA
HETATM   16  C21 UNL     1       0.734  -0.694  28.414  1.00  0.00     0.124 C 
ENDROOT
BRANCH   1  17
HETATM   17  C2  UNL     1       1.822   0.318  32.934  1.00  0.00    -0.055 C 
HETATM   18  C1  UNL     1       1.351   1.006  34.166  1.00  0.00     0.046 C 
HETATM   19  C3  UNL     1       3.051   0.629  32.480  1.00  0.00    -0.019 C 
BRANCH  19  20
HETATM   20  C4  UNL     1       3.922   1.592  33.137  1.00  0.00     0.062 C 
BRANCH  20  21
HETATM   21  C5  UNL     1       4.859   2.373  32.252  1.00  0.00     0.155 C 
BRANCH  21  22
HETATM   22  O1  UNL     1       5.343   1.526  31.226  1.00  0.00    -0.392 OA
ATOM     23  H1  UNL     1       5.832   0.811  31.617  1.00  0.00     0.210 HD
ENDBRANCH  21  22
BRANCH  21  24
HETATM   24  C6  UNL     1       4.199   3.548  31.614  1.00  0.00     0.076 C 
HETATM   25  C7  UNL     1       5.210   4.662  31.323  1.00  0.00     0.048 C 
HETATM   26  C8  UNL     1       3.148   4.170  32.517  1.00  0.00     0.048 C 
BRANCH  24  27
HETATM   27  O2  UNL     1       3.580   3.273  30.410  1.00  0.00    -0.388 OA
ATOM     28  H2  UNL     1       2.705   3.633  30.325  1.00  0.00     0.210 HD
ENDBRANCH  24  27
ENDBRANCH  21  24
ENDBRANCH  20  21
ENDBRANCH  19  20
ENDBRANCH   1  17
TORSDOF 6
ENDMDL
MODEL 2
REMARK VINA RESULT: -7.667837015      0.985      1.582
REMARK  6 active torsions:
REMARK  status: ('A' for Active; 'I' for Inactive)
REMARK    1  A    between atoms: C2_2  and  C9_13 
REMARK    2  A    between atoms: C3_3  and  C4_4 
REMARK    3  A    between atoms: C4_4  and  C5_5 
REMARK    4  A    between atoms: C5_5  and  O1_6 
REMARK    5  A    between atoms: C5_5  and  C6_8 
REMARK    6  A    between atoms: C6_8  and  O2_11 
ROOT
HETATM    1  C9  UNL     1       1.126  -0.571  32.047  1.00  0.00     0.173 C 
HETATM    2  C10 UNL     1       1.169  -0.437  30.557  1.00  0.00     0.013 C 
HETATM    3  C11 UNL     1       0.444  -1.003  29.634  1.00  0.00    -0.062 C 
HETATM    4  C12 UNL     1      -0.672  -1.976  29.817  1.00  0.00     0.017 C 
HETATM    5  C13 UNL     1      -0.697  -2.454  31.228  1.00  0.00     0.035 C 
HETATM    6  C14 UNL     1       0.713  -2.816  31.667  1.00  0.00     0.169 C 
HETATM    7  O3  UNL     1       1.320  -1.867  32.443  1.00  0.00    -0.378 OA
HETATM    8  C15 UNL     1      -1.922  -1.266  29.367  1.00  0.00     0.010 C 
HETATM    9  C16 UNL     1      -1.612   0.071  28.736  1.00  0.00     0.013 C 
HETATM   10  C17 UNL     1      -0.525   0.036  27.711  1.00  0.00    -0.005 C 
HETATM   11  C18 UNL     1      -1.025  -0.629  26.428  1.00  0.00     0.018 C 
HETATM   12  C19 UNL     1      -0.059   1.435  27.467  1.00  0.00     0.189 C 
HETATM   13  O4  UNL     1       1.322   1.510  27.756  1.00  0.00    -0.320 OA
HETATM   14  C20 UNL     1       1.840   0.250  27.998  1.00  0.00     0.268 C 
HETATM   15  O5  UNL     1       3.056  -0.016  28.008  1.00  0.00    -0.264 OA
HETATM   16  C21 UNL     1       0.729  -0.653  28.225  1.00  0.00     0.124 C 
ENDROOT
BRANCH   1  17
HETATM   17  C2  UNL     1       2.085   0.363  32.671  1.00  0.00    -0.055 C 
HETATM   18  C1  UNL     1       1.721   1.092  33.915  1.00  0.00     0.046 C 
HETATM   19  C3  UNL     1       3.306   0.592  32.151  1.00  0.00    -0.019 C 
BRANCH  19  20
HETATM   20  C4  UNL     1       4.266   1.507  32.748  1.00  0.00     0.062 C 
BRANCH  20  21
HETATM   21  C5  UNL     1       5.391   1.983  31.865  1.00  0.00     0.155 C 
BRANCH  21  22
HETATM   22  O1  UNL     1       4.922   3.039  31.046  1.00  0.00    -0.392 OA
ATOM     23  H1  UNL     1       5.656   3.586  30.792  1.00  0.00     0.210 HD
ENDBRANCH  21  22
BRANCH  21  24
HETATM   24  C6  UNL     1       6.560   2.482  32.644  1.00  0.00     0.076 C 
HETATM   25  C7  UNL     1       6.172   2.786  34.095  1.00  0.00     0.048 C 
HETATM   26  C8  UNL     1       7.105   3.783  32.081  1.00  0.00     0.048 C 
BRANCH  24  27
HETATM   27  O2  UNL     1       7.621   1.599  32.711  1.00  0.00    -0.388 OA
ATOM     28  H2  UNL     1       8.280   1.724  32.038  1.00  0.00     0.210 HD
ENDBRANCH  24  27
ENDBRANCH  21  24
ENDBRANCH  20  21
ENDBRANCH  19  20
ENDBRANCH   1  17
TORSDOF 6
ENDMDL
MODEL 3
REMARK VINA RESULT: -7.393455202      3.223      6.992
REMARK  6 active torsions:
REMARK  status: ('A' for Active; 'I' for Inactive)
REMARK    1  A    between atoms: C2_2  and  C9_13 
REMARK    2  A    between atoms: C3_3  and  C4_4 
REMARK    3  A    between atoms: C4_4  and  C5_5 
REMARK    4  A    between atoms: C5_5  and  O1_6 
REMARK    5  A    between atoms: C5_5  and  C6_8 
REMARK    6  A    between atoms: C6_8  and  O2_11 
ROOT
HETATM    1  C9  UNL     1      -1.418  -1.050  25.986  1.00  0.00     0.173 C 
HETATM    2  C10 UNL     1      -0.735  -0.358  27.124  1.00  0.00     0.013 C 
HETATM    3  C11 UNL     1      -0.839  -0.538  28.410  1.00  0.00    -0.062 C 
HETATM    4  C12 UNL     1      -1.700  -1.522  29.128  1.00  0.00     0.017 C 
HETATM    5  C13 UNL     1      -2.672  -2.131  28.177  1.00  0.00     0.035 C 
HETATM    6  C14 UNL     1      -3.303  -1.038  27.328  1.00  0.00     0.169 C 
HETATM    7  O3  UNL     1      -2.780  -0.934  26.069  1.00  0.00    -0.378 OA
HETATM    8  C15 UNL     1      -0.759  -2.499  29.784  1.00  0.00     0.010 C 
HETATM    9  C16 UNL     1       0.682  -2.066  29.651  1.00  0.00     0.013 C 
HETATM   10  C17 UNL     1       0.936  -0.638  30.009  1.00  0.00    -0.005 C 
HETATM   11  C18 UNL     1       0.856  -0.448  31.524  1.00  0.00     0.018 C 
HETATM   12  C19 UNL     1       2.273  -0.245  29.469  1.00  0.00     0.189 C 
HETATM   13  O4  UNL     1       2.104   0.847  28.588  1.00  0.00    -0.320 OA
HETATM   14  C20 UNL     1       0.804   1.318  28.638  1.00  0.00     0.268 C 
HETATM   15  O5  UNL     1       0.441   2.420  28.187  1.00  0.00    -0.264 OA
HETATM   16  C21 UNL     1      -0.010   0.312  29.293  1.00  0.00     0.124 C 
ENDROOT
BRANCH   1  17
HETATM   17  C2  UNL     1      -0.883  -0.564  24.698  1.00  0.00    -0.055 C 
HETATM   18  C1  UNL     1      -1.493  -1.008  23.417  1.00  0.00     0.046 C 
HETATM   19  C3  UNL     1       0.159   0.286  24.629  1.00  0.00    -0.019 C 
BRANCH  19  20
HETATM   20  C4  UNL     1       0.702   0.778  23.372  1.00  0.00     0.062 C 
BRANCH  20  21
HETATM   21  C5  UNL     1       2.159   0.501  23.107  1.00  0.00     0.155 C 
BRANCH  21  22
HETATM   22  O1  UNL     1       2.797   0.169  24.327  1.00  0.00    -0.392 OA
ATOM     23  H1  UNL     1       3.663   0.562  24.342  1.00  0.00     0.210 HD
ENDBRANCH  21  22
BRANCH  21  24
HETATM   24  C6  UNL     1       2.364  -0.627  22.152  1.00  0.00     0.076 C 
HETATM   25  C7  UNL     1       3.756  -0.568  21.516  1.00  0.00     0.048 C 
HETATM   26  C8  UNL     1       1.379  -0.579  20.997  1.00  0.00     0.048 C 
BRANCH  24  27
HETATM   27  O2  UNL     1       2.257  -1.882  22.718  1.00  0.00    -0.388 OA
ATOM     28  H2  UNL     1       2.997  -2.135  23.258  1.00  0.00     0.210 HD
ENDBRANCH  24  27
ENDBRANCH  21  24
ENDBRANCH  20  21
ENDBRANCH  19  20
ENDBRANCH   1  17
TORSDOF 6
ENDMDL
MODEL 4
REMARK VINA RESULT: -7.375145743      1.251      1.710
REMARK  6 active torsions:
REMARK  status: ('A' for Active; 'I' for Inactive)
REMARK    1  A    between atoms: C2_2  and  C9_13 
REMARK    2  A    between atoms: C3_3  and  C4_4 
REMARK    3  A    between atoms: C4_4  and  C5_5 
REMARK    4  A    between atoms: C5_5  and  O1_6 
REMARK    5  A    between atoms: C5_5  and  C6_8 
REMARK    6  A    between atoms: C6_8  and  O2_11 
ROOT
HETATM    1  C9  UNL     1       1.000  -0.664  32.166  1.00  0.00     0.173 C 
HETATM    2  C10 UNL     1       1.064  -0.530  30.677  1.00  0.00     0.013 C 
HETATM    3  C11 UNL     1       0.378  -1.124  29.743  1.00  0.00    -0.062 C 
HETATM    4  C12 UNL     1      -0.702  -2.139  29.908  1.00  0.00     0.017 C 
HETATM    5  C13 UNL     1      -0.734  -2.617  31.319  1.00  0.00     0.035 C 
HETATM    6  C14 UNL     1       0.681  -2.923  31.782  1.00  0.00     0.169 C 
HETATM    7  O3  UNL     1       1.237  -1.951  32.567  1.00  0.00    -0.378 OA
HETATM    8  C15 UNL     1      -1.971  -1.480  29.434  1.00  0.00     0.010 C 
HETATM    9  C16 UNL     1      -1.703  -0.132  28.807  1.00  0.00     0.013 C 
HETATM   10  C17 UNL     1      -0.597  -0.125  27.801  1.00  0.00    -0.005 C 
HETATM   11  C18 UNL     1      -1.048  -0.810  26.511  1.00  0.00     0.018 C 
HETATM   12  C19 UNL     1      -0.182   1.291  27.563  1.00  0.00     0.189 C 
HETATM   13  O4  UNL     1       1.190   1.420  27.877  1.00  0.00    -0.320 OA
HETATM   14  C20 UNL     1       1.752   0.182  28.129  1.00  0.00     0.268 C 
HETATM   15  O5  UNL     1       2.978  -0.037  28.161  1.00  0.00    -0.264 OA
HETATM   16  C21 UNL     1       0.673  -0.764  28.338  1.00  0.00     0.124 C 
ENDROOT
BRANCH   1  17
HETATM   17  C2  UNL     1       1.910   0.308  32.806  1.00  0.00    -0.055 C 
HETATM   18  C1  UNL     1       3.359   0.312  32.470  1.00  0.00     0.046 C 
HETATM   19  C3  UNL     1       1.477   1.213  33.704  1.00  0.00    -0.019 C 
BRANCH  19  20
HETATM   20  C4  UNL     1       2.355   2.180  34.346  1.00  0.00     0.062 C 
BRANCH  20  21
HETATM   21  C5  UNL     1       2.103   3.633  34.042  1.00  0.00     0.155 C 
BRANCH  21  22
HETATM   22  O1  UNL     1       2.288   4.393  35.222  1.00  0.00    -0.392 OA
ATOM     23  H1  UNL     1       1.914   5.258  35.099  1.00  0.00     0.210 HD
ENDBRANCH  21  22
BRANCH  21  24
HETATM   24  C6  UNL     1       3.019   4.168  32.994  1.00  0.00     0.076 C 
HETATM   25  C7  UNL     1       4.477   3.802  33.293  1.00  0.00     0.048 C 
HETATM   26  C8  UNL     1       2.981   5.685  32.927  1.00  0.00     0.048 C 
BRANCH  24  27
HETATM   27  O2  UNL     1       2.764   3.704  31.719  1.00  0.00    -0.388 OA
ATOM     28  H2  UNL     1       2.219   2.926  31.685  1.00  0.00     0.210 HD
ENDBRANCH  24  27
ENDBRANCH  21  24
ENDBRANCH  20  21
ENDBRANCH  19  20
ENDBRANCH   1  17
TORSDOF 6
ENDMDL
MODEL 5
REMARK VINA RESULT: -7.366043232      1.211      1.481
REMARK  6 active torsions:
REMARK  status: ('A' for Active; 'I' for Inactive)
REMARK    1  A    between atoms: C2_2  and  C9_13 
REMARK    2  A    between atoms: C3_3  and  C4_4 
REMARK    3  A    between atoms: C4_4  and  C5_5 
REMARK    4  A    between atoms: C5_5  and  O1_6 
REMARK    5  A    between atoms: C5_5  and  C6_8 
REMARK    6  A    between atoms: C6_8  and  O2_11 
ROOT
HETATM    1  C9  UNL     1       1.292  -0.136  31.932  1.00  0.00     0.173 C 
HETATM    2  C10 UNL     1       1.701   0.092  30.510  1.00  0.00     0.013 C 
HETATM    3  C11 UNL     1       1.197  -0.367  29.400  1.00  0.00    -0.062 C 
HETATM    4  C12 UNL     1       0.029  -1.280  29.235  1.00  0.00     0.017 C 
HETATM    5  C13 UNL     1      -0.358  -1.847  30.557  1.00  0.00     0.035 C 
HETATM    6  C14 UNL     1       0.886  -2.322  31.290  1.00  0.00     0.169 C 
HETATM    7  O3  UNL     1       1.328  -1.465  32.260  1.00  0.00    -0.378 OA
HETATM    8  C15 UNL     1      -1.043  -0.468  28.556  1.00  0.00     0.010 C 
HETATM    9  C16 UNL     1      -0.532   0.887  28.124  1.00  0.00     0.013 C 
HETATM   10  C17 UNL     1       0.769   0.853  27.389  1.00  0.00    -0.005 C 
HETATM   11  C18 UNL     1       0.566   0.305  25.975  1.00  0.00     0.018 C 
HETATM   12  C19 UNL     1       1.340   2.233  27.373  1.00  0.00     0.189 C 
HETATM   13  O4  UNL     1       2.612   2.206  27.989  1.00  0.00    -0.320 OA
HETATM   14  C20 UNL     1       3.000   0.903  28.247  1.00  0.00     0.268 C 
HETATM   15  O5  UNL     1       4.165   0.563  28.526  1.00  0.00    -0.264 OA
HETATM   16  C21 UNL     1       1.829   0.057  28.131  1.00  0.00     0.124 C 
ENDROOT
BRANCH   1  17
HETATM   17  C2  UNL     1       2.111   0.695  32.838  1.00  0.00    -0.055 C 
HETATM   18  C1  UNL     1       1.545   1.184  34.123  1.00  0.00     0.046 C 
HETATM   19  C3  UNL     1       3.379   1.040  32.545  1.00  0.00    -0.019 C 
BRANCH  19  20
HETATM   20  C4  UNL     1       4.204   1.857  33.422  1.00  0.00     0.062 C 
BRANCH  20  21
HETATM   21  C5  UNL     1       5.460   2.437  32.826  1.00  0.00     0.155 C 
BRANCH  21  22
HETATM   22  O1  UNL     1       5.896   1.607  31.765  1.00  0.00    -0.392 OA
ATOM     23  H1  UNL     1       5.396   0.799  31.775  1.00  0.00     0.210 HD
ENDBRANCH  21  22
BRANCH  21  24
HETATM   24  C6  UNL     1       5.257   3.813  32.288  1.00  0.00     0.076 C 
HETATM   25  C7  UNL     1       4.078   4.510  32.977  1.00  0.00     0.048 C 
HETATM   26  C8  UNL     1       4.921   3.801  30.807  1.00  0.00     0.048 C 
BRANCH  24  27
HETATM   27  O2  UNL     1       6.341   4.654  32.446  1.00  0.00    -0.388 OA
ATOM     28  H2  UNL     1       6.446   5.296  31.753  1.00  0.00     0.210 HD
ENDBRANCH  24  27
ENDBRANCH  21  24
ENDBRANCH  20  21
ENDBRANCH  19  20
ENDBRANCH   1  17
TORSDOF 6
ENDMDL
