MODEL 1
REMARK VINA RESULT: -6.093720903      0.000      0.000
REMARK  12 active torsions:
REMARK  status: ('A' for Active; 'I' for Inactive)
REMARK    1  A    between atoms: C2_2  and  N1_3 
REMARK    2  A    between atoms: C4_5  and  C5_6 
REMARK    3  A    between atoms: C5_6  and  C6_7 
REMARK    4  A    between atoms: N2_13  and  C9_14 
REMARK    5  A    between atoms: C9_14  and  C10_15 
REMARK    6  A    between atoms: N4_26  and  C18_28 
REMARK    7  A    between atoms: C18_28  and  C19_29 
REMARK    8  A    between atoms: C18_28  and  C20_32 
REMARK    9  A    between atoms: C19_29  and  O1_30 
REMARK   10  A    between atoms: C20_32  and  C21_33 
REMARK   11  A    between atoms: C21_33  and  C22_34 
REMARK   12  A    between atoms: C22_34  and  N5_35 
ROOT
HETATM    1  N1  UNL     1      37.816  -4.670  51.431  1.00  0.00    -0.366 N 
HETATM    2  C3  UNL     1      38.979  -5.558  51.073  1.00  0.00     0.134 C 
HETATM    3  C4  UNL     1      38.281  -6.799  50.658  1.00  0.00     0.051 C 
HETATM    4  C7  UNL     1      37.114  -6.186  49.942  1.00  0.00     0.020 A 
HETATM    5  C8  UNL     1      36.821  -4.952  50.456  1.00  0.00     0.116 A 
HETATM    6  N2  UNL     1      35.806  -4.173  50.005  1.00  0.00    -0.317 N 
HETATM    7  C13 UNL     1      35.026  -4.642  48.958  1.00  0.00     0.129 A 
HETATM    8  N3  UNL     1      34.040  -3.991  48.407  1.00  0.00    -0.339 N 
ATOM      9  H3  UNL     1      33.793  -3.068  48.766  1.00  0.00     0.168 HD
HETATM   10  C14 UNL     1      33.359  -4.484  47.409  1.00  0.00     0.049 A 
HETATM   11  C15 UNL     1      32.201  -3.904  46.642  1.00  0.00     0.076 C 
HETATM   12  S1  UNL     1      34.125  -5.987  47.186  1.00  0.00    -0.071 SA
HETATM   13  C16 UNL     1      35.308  -5.879  48.427  1.00  0.00     0.078 A 
HETATM   14  C17 UNL     1      36.357  -6.686  48.901  1.00  0.00     0.060 A 
HETATM   15  N4  UNL     1      36.561  -7.794  48.382  1.00  0.00    -0.381 N 
ATOM     16  H4  UNL     1      37.349  -8.270  48.821  1.00  0.00     0.160 HD
ENDROOT
BRANCH  15  17
HETATM   17  C18 UNL     1      36.000  -8.573  47.351  1.00  0.00     0.105 C 
BRANCH  17  18
HETATM   18  C19 UNL     1      34.857  -9.456  47.840  1.00  0.00     0.189 C 
BRANCH  18  19
HETATM   19  O1  UNL     1      33.965  -9.651  46.763  1.00  0.00    -0.399 OA
ATOM     20  H1  UNL     1      34.333 -10.319  46.197  1.00  0.00     0.209 HD
ENDBRANCH  18  19
ENDBRANCH  17  18
BRANCH  17  21
HETATM   21  C20 UNL     1      37.127  -9.490  46.827  1.00  0.00     0.029 C 
BRANCH  21  22
HETATM   22  C21 UNL     1      37.293 -10.729  47.659  1.00  0.00     0.029 C 
BRANCH  22  23
HETATM   23  C22 UNL     1      38.402 -11.602  47.161  1.00  0.00     0.230 C 
BRANCH  23  24
HETATM   24  N5  UNL     1      39.707 -11.122  47.586  1.00  0.00    -0.079 N 
ATOM     25  H53 UNL     1      39.894 -11.369  48.558  1.00  0.00     0.274 HD
ATOM     26  H52 UNL     1      40.459 -11.648  47.138  1.00  0.00     0.274 HD
ATOM     27  H51 UNL     1      39.815 -10.120  47.432  1.00  0.00     0.274 HD
ENDBRANCH  23  24
ENDBRANCH  22  23
ENDBRANCH  21  22
ENDBRANCH  17  21
ENDBRANCH  15  17
BRANCH   3  28
HETATM   28  C5  UNL     1      37.845  -7.763  51.682  1.00  0.00     0.128 C 
BRANCH  28  29
HETATM   29  C6  UNL     1      37.949  -9.190  51.262  1.00  0.00     0.388 C 
HETATM   30  F1  UNL     1      36.808  -9.797  50.888  1.00  0.00    -0.171 F 
HETATM   31  F2  UNL     1      38.532  -9.969  52.279  1.00  0.00    -0.171 F 
HETATM   32  F3  UNL     1      38.876  -9.296  50.212  1.00  0.00    -0.171 F 
ENDBRANCH  28  29
ENDBRANCH   3  28
BRANCH   1  33
HETATM   33  C2  UNL     1      37.885  -3.799  52.521  1.00  0.00     0.120 C 
HETATM   34  C1  UNL     1      39.201  -2.980  52.571  1.00  0.00     0.026 C 
ENDBRANCH   1  33
BRANCH   6  35
HETATM   35  C9  UNL     1      35.536  -2.936  50.634  1.00  0.00     0.136 C 
BRANCH  35  36
HETATM   36  C10 UNL     1      35.935  -1.675  49.919  1.00  0.00    -0.004 C 
HETATM   37  C11 UNL     1      34.746  -0.718  49.860  1.00  0.00     0.011 C 
HETATM   38  C12 UNL     1      37.051  -0.881  50.554  1.00  0.00     0.011 C 
ENDBRANCH  35  36
ENDBRANCH   6  35
TORSDOF 12
ENDMDL
MODEL 2
REMARK VINA RESULT: -5.912062852      2.257      3.864
REMARK  12 active torsions:
REMARK  status: ('A' for Active; 'I' for Inactive)
REMARK    1  A    between atoms: C2_2  and  N1_3 
REMARK    2  A    between atoms: C4_5  and  C5_6 
REMARK    3  A    between atoms: C5_6  and  C6_7 
REMARK    4  A    between atoms: N2_13  and  C9_14 
REMARK    5  A    between atoms: C9_14  and  C10_15 
REMARK    6  A    between atoms: N4_26  and  C18_28 
REMARK    7  A    between atoms: C18_28  and  C19_29 
REMARK    8  A    between atoms: C18_28  and  C20_32 
REMARK    9  A    between atoms: C19_29  and  O1_30 
REMARK   10  A    between atoms: C20_32  and  C21_33 
REMARK   11  A    between atoms: C21_33  and  C22_34 
REMARK   12  A    between atoms: C22_34  and  N5_35 
ROOT
HETATM    1  N1  UNL     1      35.311  -5.220  49.680  1.00  0.00    -0.366 N 
HETATM    2  C3  UNL     1      36.782  -5.312  49.987  1.00  0.00     0.134 C 
HETATM    3  C4  UNL     1      36.893  -6.714  50.460  1.00  0.00     0.051 C 
HETATM    4  C7  UNL     1      35.934  -7.362  49.506  1.00  0.00     0.020 A 
HETATM    5  C8  UNL     1      34.972  -6.475  49.105  1.00  0.00     0.116 A 
HETATM    6  N2  UNL     1      33.969  -6.791  48.249  1.00  0.00    -0.317 N 
HETATM    7  C13 UNL     1      33.914  -8.081  47.741  1.00  0.00     0.129 A 
HETATM    8  N3  UNL     1      33.026  -8.516  46.890  1.00  0.00    -0.339 N 
ATOM      9  H3  UNL     1      32.294  -7.881  46.571  1.00  0.00     0.168 HD
HETATM   10  C14 UNL     1      33.047  -9.738  46.436  1.00  0.00     0.049 A 
HETATM   11  C15 UNL     1      32.127 -10.429  45.465  1.00  0.00     0.076 C 
HETATM   12  S1  UNL     1      34.405 -10.376  47.237  1.00  0.00    -0.071 SA
HETATM   13  C16 UNL     1      34.874  -8.986  48.131  1.00  0.00     0.078 A 
HETATM   14  C17 UNL     1      35.910  -8.655  49.023  1.00  0.00     0.060 A 
HETATM   15  N4  UNL     1      36.745  -9.515  49.338  1.00  0.00    -0.381 N 
ATOM     16  H4  UNL     1      37.437  -9.141  49.988  1.00  0.00     0.160 HD
ENDROOT
BRANCH  15  17
HETATM   17  C18 UNL     1      37.000 -10.870  49.042  1.00  0.00     0.105 C 
BRANCH  17  18
HETATM   18  C19 UNL     1      36.930 -11.760  50.278  1.00  0.00     0.189 C 
BRANCH  18  19
HETATM   19  O1  UNL     1      35.595 -11.757  50.742  1.00  0.00    -0.399 OA
ATOM     20  H1  UNL     1      35.488 -11.009  51.318  1.00  0.00     0.209 HD
ENDBRANCH  18  19
ENDBRANCH  17  18
BRANCH  17  21
HETATM   21  C20 UNL     1      38.435 -10.937  48.480  1.00  0.00     0.029 C 
BRANCH  21  22
HETATM   22  C21 UNL     1      39.465 -10.491  49.478  1.00  0.00     0.029 C 
BRANCH  22  23
HETATM   23  C22 UNL     1      40.679 -11.367  49.470  1.00  0.00     0.230 C 
BRANCH  23  24
HETATM   24  N5  UNL     1      41.910 -10.593  49.479  1.00  0.00    -0.079 N 
ATOM     25  H53 UNL     1      42.677 -11.112  49.050  1.00  0.00     0.274 HD
ATOM     26  H52 UNL     1      41.860  -9.811  48.825  1.00  0.00     0.274 HD
ATOM     27  H51 UNL     1      42.157 -10.276  50.416  1.00  0.00     0.274 HD
ENDBRANCH  23  24
ENDBRANCH  22  23
ENDBRANCH  21  22
ENDBRANCH  17  21
ENDBRANCH  15  17
BRANCH   3  28
HETATM   28  C5  UNL     1      36.569  -7.036  51.860  1.00  0.00     0.128 C 
BRANCH  28  29
HETATM   29  C6  UNL     1      37.433  -8.094  52.459  1.00  0.00     0.388 C 
HETATM   30  F1  UNL     1      38.659  -8.249  51.929  1.00  0.00    -0.171 F 
HETATM   31  F2  UNL     1      36.790  -9.345  52.418  1.00  0.00    -0.171 F 
HETATM   32  F3  UNL     1      37.568  -7.854  53.837  1.00  0.00    -0.171 F 
ENDBRANCH  28  29
ENDBRANCH   3  28
BRANCH   1  33
HETATM   33  C2  UNL     1      34.590  -4.055  49.958  1.00  0.00     0.120 C 
HETATM   34  C1  UNL     1      35.489  -2.858  50.360  1.00  0.00     0.026 C 
ENDBRANCH   1  33
BRANCH   6  35
HETATM   35  C9  UNL     1      32.983  -5.829  47.934  1.00  0.00     0.136 C 
BRANCH  35  36
HETATM   36  C10 UNL     1      33.076  -5.125  46.610  1.00  0.00    -0.004 C 
HETATM   37  C11 UNL     1      31.824  -5.410  45.784  1.00  0.00     0.011 C 
HETATM   38  C12 UNL     1      33.178  -3.620  46.668  1.00  0.00     0.011 C 
ENDBRANCH  35  36
ENDBRANCH   6  35
TORSDOF 12
ENDMDL
MODEL 3
REMARK VINA RESULT: -5.904458678      3.495      6.534
REMARK  12 active torsions:
REMARK  status: ('A' for Active; 'I' for Inactive)
REMARK    1  A    between atoms: C2_2  and  N1_3 
REMARK    2  A    between atoms: C4_5  and  C5_6 
REMARK    3  A    between atoms: C5_6  and  C6_7 
REMARK    4  A    between atoms: N2_13  and  C9_14 
REMARK    5  A    between atoms: C9_14  and  C10_15 
REMARK    6  A    between atoms: N4_26  and  C18_28 
REMARK    7  A    between atoms: C18_28  and  C19_29 
REMARK    8  A    between atoms: C18_28  and  C20_32 
REMARK    9  A    between atoms: C19_29  and  O1_30 
REMARK   10  A    between atoms: C20_32  and  C21_33 
REMARK   11  A    between atoms: C21_33  and  C22_34 
REMARK   12  A    between atoms: C22_34  and  N5_35 
ROOT
HETATM    1  N1  UNL     1      31.771  -4.711  46.668  1.00  0.00    -0.366 N 
HETATM    2  C3  UNL     1      33.125  -4.054  46.629  1.00  0.00     0.134 C 
HETATM    3  C4  UNL     1      33.857  -4.835  47.658  1.00  0.00     0.051 C 
HETATM    4  C7  UNL     1      33.293  -6.194  47.366  1.00  0.00     0.020 A 
HETATM    5  C8  UNL     1      32.035  -6.097  46.838  1.00  0.00     0.116 A 
HETATM    6  N2  UNL     1      31.283  -7.170  46.487  1.00  0.00    -0.317 N 
HETATM    7  C13 UNL     1      31.816  -8.439  46.663  1.00  0.00     0.129 A 
HETATM    8  N3  UNL     1      31.221  -9.555  46.346  1.00  0.00    -0.339 N 
ATOM      9  H3  UNL     1      30.282  -9.519  45.950  1.00  0.00     0.168 HD
HETATM   10  C14 UNL     1      31.791 -10.715  46.520  1.00  0.00     0.049 A 
HETATM   11  C15 UNL     1      31.283 -12.101  46.225  1.00  0.00     0.076 C 
HETATM   12  S1  UNL     1      33.291 -10.261  47.183  1.00  0.00    -0.071 SA
HETATM   13  C16 UNL     1      33.081  -8.555  47.192  1.00  0.00     0.078 A 
HETATM   14  C17 UNL     1      33.856  -7.441  47.559  1.00  0.00     0.060 A 
HETATM   15  N4  UNL     1      34.989  -7.610  48.032  1.00  0.00    -0.381 N 
ATOM     16  H4  UNL     1      35.437  -6.720  48.252  1.00  0.00     0.160 HD
ENDROOT
BRANCH  15  17
HETATM   17  C18 UNL     1      35.828  -8.698  48.348  1.00  0.00     0.105 C 
BRANCH  17  18
HETATM   18  C19 UNL     1      36.061  -8.839  49.848  1.00  0.00     0.189 C 
BRANCH  18  19
HETATM   19  O1  UNL     1      34.805  -8.788  50.491  1.00  0.00    -0.399 OA
ATOM     20  H1  UNL     1      34.948  -8.906  51.423  1.00  0.00     0.209 HD
ENDBRANCH  18  19
ENDBRANCH  17  18
BRANCH  17  21
HETATM   21  C20 UNL     1      37.187  -8.420  47.672  1.00  0.00     0.029 C 
BRANCH  21  22
HETATM   22  C21 UNL     1      37.534  -6.958  47.659  1.00  0.00     0.029 C 
BRANCH  22  23
HETATM   23  C22 UNL     1      38.817  -6.674  48.375  1.00  0.00     0.230 C 
BRANCH  23  24
HETATM   24  N5  UNL     1      38.592  -6.189  49.728  1.00  0.00    -0.079 N 
ATOM     25  H53 UNL     1      37.954  -6.800  50.238  1.00  0.00     0.274 HD
ATOM     26  H52 UNL     1      39.424  -6.306  50.306  1.00  0.00     0.274 HD
ATOM     27  H51 UNL     1      38.267  -5.223  49.739  1.00  0.00     0.274 HD
ENDBRANCH  23  24
ENDBRANCH  22  23
ENDBRANCH  21  22
ENDBRANCH  17  21
ENDBRANCH  15  17
BRANCH   3  28
HETATM   28  C5  UNL     1      33.711  -4.478  49.078  1.00  0.00     0.128 C 
BRANCH  28  29
HETATM   29  C6  UNL     1      34.982  -4.540  49.857  1.00  0.00     0.388 C 
HETATM   30  F1  UNL     1      35.162  -5.619  50.640  1.00  0.00    -0.171 F 
HETATM   31  F2  UNL     1      35.127  -3.397  50.666  1.00  0.00    -0.171 F 
HETATM   32  F3  UNL     1      36.070  -4.442  48.973  1.00  0.00    -0.171 F 
ENDBRANCH  28  29
ENDBRANCH   3  28
BRANCH   1  33
HETATM   33  C2  UNL     1      30.601  -3.957  46.533  1.00  0.00     0.120 C 
HETATM   34  C1  UNL     1      30.848  -2.427  46.585  1.00  0.00     0.026 C 
ENDBRANCH   1  33
BRANCH   6  35
HETATM   35  C9  UNL     1      29.969  -6.981  46.002  1.00  0.00     0.136 C 
BRANCH  35  36
HETATM   36  C10 UNL     1      29.708  -7.229  44.543  1.00  0.00    -0.004 C 
HETATM   37  C11 UNL     1      28.510  -8.161  44.384  1.00  0.00     0.011 C 
HETATM   38  C12 UNL     1      29.377  -6.012  43.714  1.00  0.00     0.011 C 
ENDBRANCH  35  36
ENDBRANCH   6  35
TORSDOF 12
ENDMDL
MODEL 4
REMARK VINA RESULT: -5.853832126      3.944      6.407
REMARK  12 active torsions:
REMARK  status: ('A' for Active; 'I' for Inactive)
REMARK    1  A    between atoms: C2_2  and  N1_3 
REMARK    2  A    between atoms: C4_5  and  C5_6 
REMARK    3  A    between atoms: C5_6  and  C6_7 
REMARK    4  A    between atoms: N2_13  and  C9_14 
REMARK    5  A    between atoms: C9_14  and  C10_15 
REMARK    6  A    between atoms: N4_26  and  C18_28 
REMARK    7  A    between atoms: C18_28  and  C19_29 
REMARK    8  A    between atoms: C18_28  and  C20_32 
REMARK    9  A    between atoms: C19_29  and  O1_30 
REMARK   10  A    between atoms: C20_32  and  C21_33 
REMARK   11  A    between atoms: C21_33  and  C22_34 
REMARK   12  A    between atoms: C22_34  and  N5_35 
ROOT
HETATM    1  N1  UNL     1      33.543  -4.899  47.738  1.00  0.00    -0.366 N 
HETATM    2  C3  UNL     1      32.122  -5.388  47.638  1.00  0.00     0.134 C 
HETATM    3  C4  UNL     1      32.282  -6.566  46.750  1.00  0.00     0.051 C 
HETATM    4  C7  UNL     1      33.582  -7.090  47.286  1.00  0.00     0.020 A 
HETATM    5  C8  UNL     1      34.336  -6.076  47.810  1.00  0.00     0.116 A 
HETATM    6  N2  UNL     1      35.564  -6.259  48.357  1.00  0.00    -0.317 N 
HETATM    7  C13 UNL     1      36.086  -7.544  48.398  1.00  0.00     0.129 A 
HETATM    8  N3  UNL     1      37.237  -7.871  48.917  1.00  0.00    -0.339 N 
ATOM      9  H3  UNL     1      37.825  -7.140  49.317  1.00  0.00     0.168 HD
HETATM   10  C14 UNL     1      37.658  -9.105  48.940  1.00  0.00     0.049 A 
HETATM   11  C15 UNL     1      38.936  -9.685  49.483  1.00  0.00     0.076 C 
HETATM   12  S1  UNL     1      36.370  -9.918  48.182  1.00  0.00    -0.071 SA
HETATM   13  C16 UNL     1      35.341  -8.576  47.876  1.00  0.00     0.078 A 
HETATM   14  C17 UNL     1      34.071  -8.381  47.306  1.00  0.00     0.060 A 
HETATM   15  N4  UNL     1      33.448  -9.352  46.850  1.00  0.00    -0.381 N 
ATOM     16  H4  UNL     1      32.545  -9.068  46.470  1.00  0.00     0.160 HD
ENDROOT
BRANCH  15  17
HETATM   17  C18 UNL     1      33.648 -10.740  46.716  1.00  0.00     0.105 C 
BRANCH  17  18
HETATM   18  C19 UNL     1      34.283 -11.113  45.381  1.00  0.00     0.189 C 
BRANCH  18  19
HETATM   19  O1  UNL     1      33.464 -10.601  44.351  1.00  0.00    -0.399 OA
ATOM     20  H1  UNL     1      33.559  -9.656  44.344  1.00  0.00     0.209 HD
ENDBRANCH  18  19
ENDBRANCH  17  18
BRANCH  17  21
HETATM   21  C20 UNL     1      32.252 -11.397  46.786  1.00  0.00     0.029 C 
BRANCH  21  22
HETATM   22  C21 UNL     1      31.147 -10.385  46.902  1.00  0.00     0.029 C 
BRANCH  22  23
HETATM   23  C22 UNL     1      30.059 -10.617  45.900  1.00  0.00     0.230 C 
BRANCH  23  24
HETATM   24  N5  UNL     1      30.556 -11.260  44.694  1.00  0.00    -0.079 N 
ATOM     25  H53 UNL     1      29.849 -11.868  44.281  1.00  0.00     0.274 HD
ATOM     26  H52 UNL     1      30.657 -10.589  43.932  1.00  0.00     0.274 HD
ATOM     27  H51 UNL     1      31.426 -11.765  44.860  1.00  0.00     0.274 HD
ENDBRANCH  23  24
ENDBRANCH  22  23
ENDBRANCH  21  22
ENDBRANCH  17  21
ENDBRANCH  15  17
BRANCH   3  28
HETATM   28  C5  UNL     1      32.332  -6.375  45.292  1.00  0.00     0.128 C 
BRANCH  28  29
HETATM   29  C6  UNL     1      31.190  -6.990  44.555  1.00  0.00     0.388 C 
HETATM   30  F1  UNL     1      30.664  -6.274  43.545  1.00  0.00    -0.171 F 
HETATM   31  F2  UNL     1      30.144  -7.314  45.438  1.00  0.00    -0.171 F 
HETATM   32  F3  UNL     1      31.584  -8.243  44.057  1.00  0.00    -0.171 F 
ENDBRANCH  28  29
ENDBRANCH   3  28
BRANCH   1  33
HETATM   33  C2  UNL     1      33.833  -3.532  47.758  1.00  0.00     0.120 C 
HETATM   34  C1  UNL     1      33.281  -2.769  46.526  1.00  0.00     0.026 C 
ENDBRANCH   1  33
BRANCH   6  35
HETATM   35  C9  UNL     1      36.300  -5.146  48.824  1.00  0.00     0.136 C 
BRANCH  35  36
HETATM   36  C10 UNL     1      36.178  -4.772  50.274  1.00  0.00    -0.004 C 
HETATM   37  C11 UNL     1      37.430  -5.214  51.028  1.00  0.00     0.011 C 
HETATM   38  C12 UNL     1      36.039  -3.298  50.567  1.00  0.00     0.011 C 
ENDBRANCH  35  36
ENDBRANCH   6  35
TORSDOF 12
ENDMDL
MODEL 5
REMARK VINA RESULT: -5.778317536      3.852      6.751
REMARK  12 active torsions:
REMARK  status: ('A' for Active; 'I' for Inactive)
REMARK    1  A    between atoms: C2_2  and  N1_3 
REMARK    2  A    between atoms: C4_5  and  C5_6 
REMARK    3  A    between atoms: C5_6  and  C6_7 
REMARK    4  A    between atoms: N2_13  and  C9_14 
REMARK    5  A    between atoms: C9_14  and  C10_15 
REMARK    6  A    between atoms: N4_26  and  C18_28 
REMARK    7  A    between atoms: C18_28  and  C19_29 
REMARK    8  A    between atoms: C18_28  and  C20_32 
REMARK    9  A    between atoms: C19_29  and  O1_30 
REMARK   10  A    between atoms: C20_32  and  C21_33 
REMARK   11  A    between atoms: C21_33  and  C22_34 
REMARK   12  A    between atoms: C22_34  and  N5_35 
ROOT
HETATM    1  N1  UNL     1      35.316  -5.366  49.277  1.00  0.00    -0.366 N 
HETATM    2  C3  UNL     1      33.953  -4.725  49.307  1.00  0.00     0.134 C 
HETATM    3  C4  UNL     1      33.411  -5.130  47.986  1.00  0.00     0.051 C 
HETATM    4  C7  UNL     1      33.961  -6.525  47.925  1.00  0.00     0.020 A 
HETATM    5  C8  UNL     1      35.119  -6.625  48.646  1.00  0.00     0.116 A 
HETATM    6  N2  UNL     1      35.837  -7.770  48.757  1.00  0.00    -0.317 N 
HETATM    7  C13 UNL     1      35.373  -8.909  48.116  1.00  0.00     0.129 A 
HETATM    8  N3  UNL     1      35.943 -10.081  48.159  1.00  0.00    -0.339 N 
ATOM      9  H3  UNL     1      36.809 -10.191  48.687  1.00  0.00     0.168 HD
HETATM   10  C14 UNL     1      35.439 -11.116  47.547  1.00  0.00     0.049 A 
HETATM   11  C15 UNL     1      35.934 -12.536  47.472  1.00  0.00     0.076 C 
HETATM   12  S1  UNL     1      34.048 -10.446  46.834  1.00  0.00    -0.071 SA
HETATM   13  C16 UNL     1      34.209  -8.827  47.388  1.00  0.00     0.078 A 
HETATM   14  C17 UNL     1      33.470  -7.637  47.270  1.00  0.00     0.060 A 
HETATM   15  N4  UNL     1      32.427  -7.626  46.597  1.00  0.00    -0.381 N 
ATOM     16  H4  UNL     1      31.994  -6.703  46.598  1.00  0.00     0.160 HD
ENDROOT
BRANCH  15  17
HETATM   17  C18 UNL     1      31.678  -8.544  45.833  1.00  0.00     0.105 C 
BRANCH  17  18
HETATM   18  C19 UNL     1      31.544  -8.117  44.376  1.00  0.00     0.189 C 
BRANCH  18  19
HETATM   19  O1  UNL     1      31.929  -6.761  44.282  1.00  0.00    -0.399 OA
ATOM     20  H1  UNL     1      32.794  -6.729  43.891  1.00  0.00     0.209 HD
ENDBRANCH  18  19
ENDBRANCH  17  18
BRANCH  17  21
HETATM   21  C20 UNL     1      30.266  -8.587  46.455  1.00  0.00     0.029 C 
BRANCH  21  22
HETATM   22  C21 UNL     1      29.937  -7.338  47.222  1.00  0.00     0.029 C 
BRANCH  22  23
HETATM   23  C22 UNL     1      29.058  -6.410  46.443  1.00  0.00     0.230 C 
BRANCH  23  24
HETATM   24  N5  UNL     1      29.789  -5.257  45.942  1.00  0.00    -0.079 N 
ATOM     25  H53 UNL     1      30.674  -5.537  45.517  1.00  0.00     0.274 HD
ATOM     26  H52 UNL     1      29.334  -4.859  45.120  1.00  0.00     0.274 HD
ATOM     27  H51 UNL     1      29.932  -4.552  46.664  1.00  0.00     0.274 HD
ENDBRANCH  23  24
ENDBRANCH  22  23
ENDBRANCH  21  22
ENDBRANCH  17  21
ENDBRANCH  15  17
BRANCH   3  28
HETATM   28  C5  UNL     1      33.764  -4.353  46.787  1.00  0.00     0.128 C 
BRANCH  28  29
HETATM   29  C6  UNL     1      33.335  -2.925  46.837  1.00  0.00     0.388 C 
HETATM   30  F1  UNL     1      33.677  -2.227  47.935  1.00  0.00    -0.171 F 
HETATM   31  F2  UNL     1      31.941  -2.817  46.681  1.00  0.00    -0.171 F 
HETATM   32  F3  UNL     1      33.833  -2.254  45.708  1.00  0.00    -0.171 F 
ENDBRANCH  28  29
ENDBRANCH   3  28
BRANCH   1  33
HETATM   33  C2  UNL     1      36.429  -4.717  49.818  1.00  0.00     0.120 C 
HETATM   34  C1  UNL     1      36.081  -3.371  50.504  1.00  0.00     0.026 C 
ENDBRANCH   1  33
BRANCH   6  35
HETATM   35  C9  UNL     1      37.055  -7.769  49.475  1.00  0.00     0.136 C 
BRANCH  35  36
HETATM   36  C10 UNL     1      37.045  -8.274  50.891  1.00  0.00    -0.004 C 
HETATM   37  C11 UNL     1      38.001  -9.457  51.024  1.00  0.00     0.011 C 
HETATM   38  C12 UNL     1      37.485  -7.288  51.946  1.00  0.00     0.011 C 
ENDBRANCH  35  36
ENDBRANCH   6  35
TORSDOF 12
ENDMDL
