MODEL 1
REMARK VINA RESULT: -6.575630353      0.000      0.000
REMARK  11 active torsions:
REMARK  status: ('A' for Active; 'I' for Inactive)
REMARK    1  A    between atoms: C2_2  and  C3_3 
REMARK    2  A    between atoms: C3_3  and  C4_4 
REMARK    3  A    between atoms: C4_4  and  C5_5 
REMARK    4  A    between atoms: C5_5  and  O2_7 
REMARK    5  A    between atoms: O2_7  and  C6_8 
REMARK    6  A    between atoms: C12_17  and  C13_18 
REMARK    7  A    between atoms: C13_18  and  O4_20 
REMARK    8  A    between atoms: C16_24  and  N2_25 
REMARK    9  A    between atoms: N2_25  and  C17_27 
REMARK   10  A    between atoms: C17_27  and  C18_28 
REMARK   11  A    between atoms: C17_27  and  C19_30 
ROOT
HETATM    1  C6  UNL     1      37.744  -5.641  51.393  1.00  0.00     0.176 C 
HETATM    2  C7  UNL     1      37.610  -6.711  52.453  1.00  0.00     0.155 C 
HETATM    3  N1  UNL     1      38.294  -7.935  52.153  1.00  0.00    -0.385 N 
ATOM      4  H1  UNL     1      38.847  -8.420  52.860  1.00  0.00     0.159 HD
HETATM    5  C8  UNL     1      38.174  -8.440  50.843  1.00  0.00     0.059 A 
HETATM    6  C9  UNL     1      37.825  -7.599  49.846  1.00  0.00    -0.004 A 
HETATM    7  C10 UNL     1      37.708  -8.116  48.562  1.00  0.00     0.036 A 
HETATM    8  C11 UNL     1      37.930  -9.436  48.262  1.00  0.00     0.052 A 
HETATM    9 CL1  UNL     1      37.778 -10.069  46.635  1.00  0.00    -0.083 Cl
HETATM   10  C12 UNL     1      38.284 -10.259  49.306  1.00  0.00     0.085 A 
HETATM   11  C15 UNL     1      38.405  -9.761  50.589  1.00  0.00     0.079 A 
HETATM   12 CL2  UNL     1      38.856 -10.831  51.900  1.00  0.00    -0.081 Cl
HETATM   13  C16 UNL     1      37.551  -6.143  49.990  1.00  0.00     0.144 C 
ENDROOT
BRANCH  13  14
HETATM   14  N2  UNL     1      36.234  -5.939  49.464  1.00  0.00    -0.400 N 
ATOM     15  H2  UNL     1      35.955  -6.383  48.590  1.00  0.00     0.154 HD
BRANCH  14  16
HETATM   16  C17 UNL     1      35.331  -5.125  50.162  1.00  0.00     0.142 C 
BRANCH  16  17
HETATM   17  C18 UNL     1      35.038  -3.794  49.623  1.00  0.00     0.256 C 
HETATM   18  O5  UNL     1      34.640  -2.914  50.348  1.00  0.00    -0.305 OA
ENDBRANCH  16  17
BRANCH  16  19
HETATM   19  C19 UNL     1      34.026  -5.934  50.296  1.00  0.00     0.006 C 
HETATM   20  C20 UNL     1      34.341  -7.339  50.782  1.00  0.00     0.012 C 
HETATM   21  C21 UNL     1      33.307  -5.963  48.970  1.00  0.00     0.012 C 
ENDBRANCH  16  19
ENDBRANCH  14  16
ENDBRANCH  13  14
BRANCH   1  22
HETATM   22  O2  UNL     1      38.931  -4.895  51.551  1.00  0.00    -0.312 OA
BRANCH  22  23
HETATM   23  C5  UNL     1      38.941  -3.629  52.155  1.00  0.00     0.259 C 
HETATM   24  O1  UNL     1      40.017  -3.354  52.748  1.00  0.00    -0.265 OA
BRANCH  23  25
HETATM   25  C4  UNL     1      37.783  -2.727  52.085  1.00  0.00     0.111 C 
BRANCH  25  26
HETATM   26  C3  UNL     1      37.923  -1.582  51.140  1.00  0.00     0.009 C 
BRANCH  26  27
HETATM   27  C2  UNL     1      36.981  -0.443  51.356  1.00  0.00    -0.004 C 
HETATM   28  C1  UNL     1      36.412   0.077  50.054  1.00  0.00     0.005 C 
ENDBRANCH  26  27
ENDBRANCH  25  26
ENDBRANCH  23  25
ENDBRANCH  22  23
ENDBRANCH   1  22
BRANCH  10  29
HETATM   29  C13 UNL     1      38.527 -11.664  49.025  1.00  0.00     0.296 C 
HETATM   30  O3  UNL     1      37.671 -12.522  49.286  1.00  0.00    -0.259 OA
BRANCH  29  31
HETATM   31  O4  UNL     1      39.740 -12.016  48.460  1.00  0.00    -0.322 OA
HETATM   32  C14 UNL     1      40.966 -11.586  48.996  1.00  0.00     0.213 C 
ENDBRANCH  29  31
ENDBRANCH  10  29
TORSDOF 11
ENDMDL
MODEL 2
REMARK VINA RESULT: -6.517346654      2.629      4.768
REMARK  11 active torsions:
REMARK  status: ('A' for Active; 'I' for Inactive)
REMARK    1  A    between atoms: C2_2  and  C3_3 
REMARK    2  A    between atoms: C3_3  and  C4_4 
REMARK    3  A    between atoms: C4_4  and  C5_5 
REMARK    4  A    between atoms: C5_5  and  O2_7 
REMARK    5  A    between atoms: O2_7  and  C6_8 
REMARK    6  A    between atoms: C12_17  and  C13_18 
REMARK    7  A    between atoms: C13_18  and  O4_20 
REMARK    8  A    between atoms: C16_24  and  N2_25 
REMARK    9  A    between atoms: N2_25  and  C17_27 
REMARK   10  A    between atoms: C17_27  and  C18_28 
REMARK   11  A    between atoms: C17_27  and  C19_30 
ROOT
HETATM    1  C6  UNL     1      37.454  -5.830  48.090  1.00  0.00     0.176 C 
HETATM    2  C7  UNL     1      38.662  -6.706  47.847  1.00  0.00     0.155 C 
HETATM    3  N1  UNL     1      38.599  -7.993  48.477  1.00  0.00    -0.385 N 
ATOM      4  H1  UNL     1      38.874  -8.840  47.980  1.00  0.00     0.159 HD
HETATM    5  C8  UNL     1      38.143  -8.041  49.810  1.00  0.00     0.059 A 
HETATM    6  C9  UNL     1      37.398  -7.020  50.285  1.00  0.00    -0.004 A 
HETATM    7  C10 UNL     1      36.960  -7.083  51.601  1.00  0.00     0.036 A 
HETATM    8  C11 UNL     1      37.247  -8.132  52.438  1.00  0.00     0.052 A 
HETATM    9 CL1  UNL     1      36.684  -8.193  54.096  1.00  0.00    -0.083 Cl
HETATM   10  C12 UNL     1      38.009  -9.152  51.915  1.00  0.00     0.085 A 
HETATM   11  C15 UNL     1      38.453  -9.105  50.607  1.00  0.00     0.079 A 
HETATM   12 CL2  UNL     1      39.420 -10.417  49.968  1.00  0.00    -0.081 Cl
HETATM   13  C16 UNL     1      36.989  -5.810  49.519  1.00  0.00     0.144 C 
ENDROOT
BRANCH  13  14
HETATM   14  N2  UNL     1      37.459  -4.690  50.279  1.00  0.00    -0.400 N 
ATOM     15  H2  UNL     1      38.338  -4.749  50.791  1.00  0.00     0.154 HD
BRANCH  14  16
HETATM   16  C17 UNL     1      36.700  -3.511  50.311  1.00  0.00     0.142 C 
BRANCH  16  17
HETATM   17  C18 UNL     1      35.239  -3.627  50.302  1.00  0.00     0.256 C 
HETATM   18  O5  UNL     1      34.553  -2.692  49.969  1.00  0.00    -0.305 OA
ENDBRANCH  16  17
BRANCH  16  19
HETATM   19  C19 UNL     1      37.155  -2.732  51.560  1.00  0.00     0.006 C 
HETATM   20  C20 UNL     1      37.670  -1.363  51.151  1.00  0.00     0.012 C 
HETATM   21  C21 UNL     1      38.216  -3.518  52.291  1.00  0.00     0.012 C 
ENDBRANCH  16  19
ENDBRANCH  14  16
ENDBRANCH  13  14
BRANCH   1  22
HETATM   22  O2  UNL     1      36.414  -6.110  47.179  1.00  0.00    -0.312 OA
BRANCH  22  23
HETATM   23  C5  UNL     1      35.234  -6.759  47.569  1.00  0.00     0.259 C 
HETATM   24  O1  UNL     1      35.369  -7.997  47.757  1.00  0.00    -0.265 OA
BRANCH  23  25
HETATM   25  C4  UNL     1      33.967  -6.032  47.735  1.00  0.00     0.111 C 
BRANCH  25  26
HETATM   26  C3  UNL     1      33.538  -5.223  46.558  1.00  0.00     0.009 C 
BRANCH  26  27
HETATM   27  C2  UNL     1      32.643  -4.066  46.857  1.00  0.00    -0.004 C 
HETATM   28  C1  UNL     1      33.327  -2.739  46.608  1.00  0.00     0.005 C 
ENDBRANCH  26  27
ENDBRANCH  25  26
ENDBRANCH  23  25
ENDBRANCH  22  23
ENDBRANCH   1  22
BRANCH  10  29
HETATM   29  C13 UNL     1      38.333 -10.279  52.772  1.00  0.00     0.296 C 
HETATM   30  O3  UNL     1      37.863 -11.404  52.548  1.00  0.00    -0.259 OA
BRANCH  29  31
HETATM   31  O4  UNL     1      39.180 -10.062  53.844  1.00  0.00    -0.322 OA
HETATM   32  C14 UNL     1      39.996 -11.079  54.369  1.00  0.00     0.213 C 
ENDBRANCH  29  31
ENDBRANCH  10  29
TORSDOF 11
ENDMDL
MODEL 3
REMARK VINA RESULT: -6.382856151      1.372      1.543
REMARK  11 active torsions:
REMARK  status: ('A' for Active; 'I' for Inactive)
REMARK    1  A    between atoms: C2_2  and  C3_3 
REMARK    2  A    between atoms: C3_3  and  C4_4 
REMARK    3  A    between atoms: C4_4  and  C5_5 
REMARK    4  A    between atoms: C5_5  and  O2_7 
REMARK    5  A    between atoms: O2_7  and  C6_8 
REMARK    6  A    between atoms: C12_17  and  C13_18 
REMARK    7  A    between atoms: C13_18  and  O4_20 
REMARK    8  A    between atoms: C16_24  and  N2_25 
REMARK    9  A    between atoms: N2_25  and  C17_27 
REMARK   10  A    between atoms: C17_27  and  C18_28 
REMARK   11  A    between atoms: C17_27  and  C19_30 
ROOT
HETATM    1  C6  UNL     1      37.478  -6.225  51.497  1.00  0.00     0.176 C 
HETATM    2  C7  UNL     1      37.518  -7.337  52.521  1.00  0.00     0.155 C 
HETATM    3  N1  UNL     1      38.336  -8.455  52.152  1.00  0.00    -0.385 N 
ATOM      4  H1  UNL     1      38.971  -8.891  52.821  1.00  0.00     0.159 HD
HETATM    5  C8  UNL     1      38.229  -8.928  50.828  1.00  0.00     0.059 A 
HETATM    6  C9  UNL     1      37.741  -8.105  49.875  1.00  0.00    -0.004 A 
HETATM    7  C10 UNL     1      37.639  -8.590  48.578  1.00  0.00     0.036 A 
HETATM    8  C11 UNL     1      38.011  -9.861  48.221  1.00  0.00     0.052 A 
HETATM    9 CL1  UNL     1      37.876 -10.453  46.577  1.00  0.00    -0.083 Cl
HETATM   10  C12 UNL     1      38.504 -10.667  49.221  1.00  0.00     0.085 A 
HETATM   11  C15 UNL     1      38.611 -10.201  50.517  1.00  0.00     0.079 A 
HETATM   12 CL2  UNL     1      39.241 -11.249  51.771  1.00  0.00    -0.081 Cl
HETATM   13  C16 UNL     1      37.295  -6.700  50.084  1.00  0.00     0.144 C 
ENDROOT
BRANCH  13  14
HETATM   14  N2  UNL     1      35.943  -6.644  49.611  1.00  0.00    -0.400 N 
ATOM     15  H2  UNL     1      35.219  -7.206  50.058  1.00  0.00     0.154 HD
BRANCH  14  16
HETATM   16  C17 UNL     1      35.624  -5.812  48.530  1.00  0.00     0.142 C 
BRANCH  16  17
HETATM   17  C18 UNL     1      34.921  -6.399  47.386  1.00  0.00     0.256 C 
HETATM   18  O5  UNL     1      34.421  -7.494  47.471  1.00  0.00    -0.305 OA
ENDBRANCH  16  17
BRANCH  16  19
HETATM   19  C19 UNL     1      34.801  -4.643  49.106  1.00  0.00     0.006 C 
HETATM   20  C20 UNL     1      33.959  -5.134  50.271  1.00  0.00     0.012 C 
HETATM   21  C21 UNL     1      33.938  -4.046  48.021  1.00  0.00     0.012 C 
ENDBRANCH  16  19
ENDBRANCH  14  16
ENDBRANCH  13  14
BRANCH   1  22
HETATM   22  O2  UNL     1      38.569  -5.342  51.643  1.00  0.00    -0.312 OA
BRANCH  22  23
HETATM   23  C5  UNL     1      38.393  -3.979  51.925  1.00  0.00     0.259 C 
HETATM   24  O1  UNL     1      39.306  -3.481  52.636  1.00  0.00    -0.265 OA
BRANCH  23  25
HETATM   25  C4  UNL     1      37.234  -3.226  51.423  1.00  0.00     0.111 C 
BRANCH  25  26
HETATM   26  C3  UNL     1      37.254  -1.762  51.707  1.00  0.00     0.009 C 
BRANCH  26  27
HETATM   27  C2  UNL     1      36.728  -0.883  50.621  1.00  0.00    -0.004 C 
HETATM   28  C1  UNL     1      35.266  -1.149  50.333  1.00  0.00     0.005 C 
ENDBRANCH  26  27
ENDBRANCH  25  26
ENDBRANCH  23  25
ENDBRANCH  22  23
ENDBRANCH   1  22
BRANCH  10  29
HETATM   29  C13 UNL     1      38.908 -12.020  48.879  1.00  0.00     0.296 C 
HETATM   30  O3  UNL     1      38.151 -12.981  49.084  1.00  0.00    -0.259 OA
BRANCH  29  31
HETATM   31  O4  UNL     1      40.159 -12.207  48.321  1.00  0.00    -0.322 OA
HETATM   32  C14 UNL     1      41.244 -12.701  49.066  1.00  0.00     0.213 C 
ENDBRANCH  29  31
ENDBRANCH  10  29
TORSDOF 11
ENDMDL
MODEL 4
REMARK VINA RESULT: -6.310647235      3.100      6.587
REMARK  11 active torsions:
REMARK  status: ('A' for Active; 'I' for Inactive)
REMARK    1  A    between atoms: C2_2  and  C3_3 
REMARK    2  A    between atoms: C3_3  and  C4_4 
REMARK    3  A    between atoms: C4_4  and  C5_5 
REMARK    4  A    between atoms: C5_5  and  O2_7 
REMARK    5  A    between atoms: O2_7  and  C6_8 
REMARK    6  A    between atoms: C12_17  and  C13_18 
REMARK    7  A    between atoms: C13_18  and  O4_20 
REMARK    8  A    between atoms: C16_24  and  N2_25 
REMARK    9  A    between atoms: N2_25  and  C17_27 
REMARK   10  A    between atoms: C17_27  and  C18_28 
REMARK   11  A    between atoms: C17_27  and  C19_30 
ROOT
HETATM    1  C6  UNL     1      36.620  -5.309  50.788  1.00  0.00     0.176 C 
HETATM    2  C7  UNL     1      35.646  -6.445  51.003  1.00  0.00     0.155 C 
HETATM    3  N1  UNL     1      34.953  -6.866  49.821  1.00  0.00    -0.385 N 
ATOM      4  H1  UNL     1      34.831  -7.855  49.602  1.00  0.00     0.159 HD
HETATM    5  C8  UNL     1      34.448  -5.860  48.972  1.00  0.00     0.059 A 
HETATM    6  C9  UNL     1      34.977  -4.620  49.040  1.00  0.00    -0.004 A 
HETATM    7  C10 UNL     1      34.463  -3.641  48.198  1.00  0.00     0.036 A 
HETATM    8  C11 UNL     1      33.449  -3.876  47.306  1.00  0.00     0.052 A 
HETATM    9 CL1  UNL     1      32.816  -2.627  46.252  1.00  0.00    -0.083 Cl
HETATM   10  C12 UNL     1      32.938  -5.153  47.268  1.00  0.00     0.085 A 
HETATM   11  C15 UNL     1      33.437  -6.139  48.098  1.00  0.00     0.079 A 
HETATM   12 CL2  UNL     1      32.768  -7.755  48.030  1.00  0.00    -0.081 Cl
HETATM   13  C16 UNL     1      36.080  -4.191  49.943  1.00  0.00     0.144 C 
ENDROOT
BRANCH  13  14
HETATM   14  N2  UNL     1      35.565  -3.081  50.688  1.00  0.00    -0.400 N 
ATOM     15  H2  UNL     1      34.564  -3.000  50.865  1.00  0.00     0.154 HD
BRANCH  14  16
HETATM   16  C17 UNL     1      36.449  -2.106  51.173  1.00  0.00     0.142 C 
BRANCH  16  17
HETATM   17  C18 UNL     1      37.842  -2.146  50.720  1.00  0.00     0.256 C 
HETATM   18  O5  UNL     1      38.730  -2.408  51.493  1.00  0.00    -0.305 OA
ENDBRANCH  16  17
BRANCH  16  19
HETATM   19  C19 UNL     1      35.825  -0.740  50.828  1.00  0.00     0.006 C 
HETATM   20  C20 UNL     1      34.437  -0.942  50.245  1.00  0.00     0.012 C 
HETATM   21  C21 UNL     1      36.720  -0.001  49.864  1.00  0.00     0.012 C 
ENDBRANCH  16  19
ENDBRANCH  14  16
ENDBRANCH  13  14
BRANCH   1  22
HETATM   22  O2  UNL     1      37.876  -5.775  50.345  1.00  0.00    -0.312 OA
BRANCH  22  23
HETATM   23  C5  UNL     1      38.396  -7.014  50.745  1.00  0.00     0.259 C 
HETATM   24  O1  UNL     1      38.715  -7.066  51.962  1.00  0.00    -0.265 OA
BRANCH  23  25
HETATM   25  C4  UNL     1      38.545  -8.134  49.804  1.00  0.00     0.111 C 
BRANCH  25  26
HETATM   26  C3  UNL     1      38.165  -7.836  48.393  1.00  0.00     0.009 C 
BRANCH  26  27
HETATM   27  C2  UNL     1      37.748  -9.010  47.572  1.00  0.00    -0.004 C 
HETATM   28  C1  UNL     1      36.278  -8.960  47.214  1.00  0.00     0.005 C 
ENDBRANCH  26  27
ENDBRANCH  25  26
ENDBRANCH  23  25
ENDBRANCH  22  23
ENDBRANCH   1  22
BRANCH  10  29
HETATM   29  C13 UNL     1      31.862  -5.439  46.335  1.00  0.00     0.296 C 
HETATM   30  O3  UNL     1      30.681  -5.215  46.638  1.00  0.00    -0.259 OA
BRANCH  29  31
HETATM   31  O4  UNL     1      32.193  -5.966  45.099  1.00  0.00    -0.322 OA
HETATM   32  C14 UNL     1      31.423  -6.971  44.487  1.00  0.00     0.213 C 
ENDBRANCH  29  31
ENDBRANCH  10  29
TORSDOF 11
ENDMDL
MODEL 5
REMARK VINA RESULT: -6.276454424      2.589      5.282
REMARK  11 active torsions:
REMARK  status: ('A' for Active; 'I' for Inactive)
REMARK    1  A    between atoms: C2_2  and  C3_3 
REMARK    2  A    between atoms: C3_3  and  C4_4 
REMARK    3  A    between atoms: C4_4  and  C5_5 
REMARK    4  A    between atoms: C5_5  and  O2_7 
REMARK    5  A    between atoms: O2_7  and  C6_8 
REMARK    6  A    between atoms: C12_17  and  C13_18 
REMARK    7  A    between atoms: C13_18  and  O4_20 
REMARK    8  A    between atoms: C16_24  and  N2_25 
REMARK    9  A    between atoms: N2_25  and  C17_27 
REMARK   10  A    between atoms: C17_27  and  C18_28 
REMARK   11  A    between atoms: C17_27  and  C19_30 
ROOT
HETATM    1  C6  UNL     1      37.377  -5.944  48.230  1.00  0.00     0.176 C 
HETATM    2  C7  UNL     1      38.576  -6.828  47.976  1.00  0.00     0.155 C 
HETATM    3  N1  UNL     1      38.537  -8.092  48.651  1.00  0.00    -0.385 N 
ATOM      4  H1  UNL     1      38.795  -8.956  48.174  1.00  0.00     0.159 HD
HETATM    5  C8  UNL     1      38.127  -8.094  50.000  1.00  0.00     0.059 A 
HETATM    6  C9  UNL     1      37.398  -7.057  50.465  1.00  0.00    -0.004 A 
HETATM    7  C10 UNL     1      37.007  -7.075  51.797  1.00  0.00     0.036 A 
HETATM    8  C11 UNL     1      37.324  -8.094  52.659  1.00  0.00     0.052 A 
HETATM    9 CL1  UNL     1      36.820  -8.099  54.337  1.00  0.00    -0.083 Cl
HETATM   10  C12 UNL     1      38.068  -9.132  52.145  1.00  0.00     0.085 A 
HETATM   11  C15 UNL     1      38.466  -9.130  50.822  1.00  0.00     0.079 A 
HETATM   12 CL2  UNL     1      39.412 -10.463  50.195  1.00  0.00    -0.081 Cl
HETATM   13  C16 UNL     1      36.962  -5.875  49.673  1.00  0.00     0.144 C 
ENDROOT
BRANCH  13  14
HETATM   14  N2  UNL     1      37.457  -4.729  50.377  1.00  0.00    -0.400 N 
ATOM     15  H2  UNL     1      38.351  -4.773  50.866  1.00  0.00     0.154 HD
BRANCH  14  16
HETATM   16  C17 UNL     1      36.703  -3.547  50.387  1.00  0.00     0.142 C 
BRANCH  16  17
HETATM   17  C18 UNL     1      35.242  -3.656  50.423  1.00  0.00     0.256 C 
HETATM   18  O5  UNL     1      34.550  -2.731  50.075  1.00  0.00    -0.305 OA
ENDBRANCH  16  17
BRANCH  16  19
HETATM   19  C19 UNL     1      37.196  -2.724  51.593  1.00  0.00     0.006 C 
HETATM   20  C20 UNL     1      37.682  -1.363  51.122  1.00  0.00     0.012 C 
HETATM   21  C21 UNL     1      38.291  -3.476  52.309  1.00  0.00     0.012 C 
ENDBRANCH  16  19
ENDBRANCH  14  16
ENDBRANCH  13  14
BRANCH   1  22
HETATM   22  O2  UNL     1      36.306  -6.254  47.366  1.00  0.00    -0.312 OA
BRANCH  22  23
HETATM   23  C5  UNL     1      34.969  -6.212  47.788  1.00  0.00     0.259 C 
HETATM   24  O1  UNL     1      34.405  -5.104  47.592  1.00  0.00    -0.265 OA
BRANCH  23  25
HETATM   25  C4  UNL     1      34.314  -7.375  48.404  1.00  0.00     0.111 C 
BRANCH  25  26
HETATM   26  C3  UNL     1      34.928  -8.696  48.085  1.00  0.00     0.009 C 
BRANCH  26  27
HETATM   27  C2  UNL     1      34.951  -9.687  49.202  1.00  0.00    -0.004 C 
HETATM   28  C1  UNL     1      35.841 -10.871  48.891  1.00  0.00     0.005 C 
ENDBRANCH  26  27
ENDBRANCH  25  26
ENDBRANCH  23  25
ENDBRANCH  22  23
ENDBRANCH   1  22
BRANCH  10  29
HETATM   29  C13 UNL     1      38.423 -10.229  53.029  1.00  0.00     0.296 C 
HETATM   30  O3  UNL     1      37.916 -11.351  52.884  1.00  0.00    -0.259 OA
BRANCH  29  31
HETATM   31  O4  UNL     1      39.342  -9.987  54.034  1.00  0.00    -0.322 OA
HETATM   32  C14 UNL     1      40.181 -10.997  54.538  1.00  0.00     0.213 C 
ENDBRANCH  29  31
ENDBRANCH  10  29
TORSDOF 11
ENDMDL
