MODEL 1
REMARK VINA RESULT: -7.291175839      0.000      0.000
REMARK  4 active torsions:
REMARK  status: ('A' for Active; 'I' for Inactive)
REMARK    1  A    between atoms: O1_1  and  N1_3 
REMARK    2  A    between atoms: C1_5  and  N2_6 
REMARK    3  A    between atoms: C1_5  and  C6_18 
REMARK    4  A    between atoms: N2_6  and  C2_8 
ROOT
HETATM    1  N2  UNL     1      25.534   7.526  17.601  1.00  0.00    -0.324 N 
ATOM      2  H2  UNL     1      26.459   7.913  17.784  1.00  0.00     0.169 HD
ENDROOT
BRANCH   1   3
HETATM    3  C1  UNL     1      24.582   8.287  16.886  1.00  0.00     0.107 C 
HETATM    4  N1  UNL     1      24.337   8.018  15.650  1.00  0.00    -0.257 N 
ATOM      5  H1  UNL     1      23.651   8.567  15.132  1.00  0.00     0.195 HD
BRANCH   4   6
HETATM    6  O1  UNL     1      25.000   6.990  15.031  1.00  0.00    -0.288 OA
ATOM      7  H1  UNL     1      24.816   6.789  14.121  1.00  0.00     0.244 HD
ENDBRANCH   4   6
BRANCH   3   8
HETATM    8  C6  UNL     1      23.829   9.414  17.501  1.00  0.00     0.055 C 
HETATM    9  C7  UNL     1      22.727   8.908  18.411  1.00  0.00     0.012 C 
HETATM   10  C8  UNL     1      21.554   9.836  18.232  1.00  0.00     0.001 C 
HETATM   11  C9  UNL     1      22.075  10.973  17.362  1.00  0.00     0.001 C 
HETATM   12  C10 UNL     1      23.066  10.206  16.477  1.00  0.00     0.012 C 
ENDBRANCH   3   8
ENDBRANCH   1   3
BRANCH   1  13
HETATM   13  C2  UNL     1      25.232   6.321  18.032  1.00  0.00     0.153 A 
HETATM   14  N3  UNL     1      25.484   5.170  17.458  1.00  0.00    -0.328 N 
HETATM   15  C3  UNL     1      25.086   4.054  18.071  1.00  0.00     0.111 A 
ATOM     16  H3  UNL     1      25.972   5.129  16.564  1.00  0.00     0.168 HD
HETATM   17  S1  UNL     1      25.100   2.314  17.873  1.00  0.00    -0.064 SA
HETATM   18  C5  UNL     1      24.446   4.152  19.251  1.00  0.00     0.112 A 
HETATM   19  C4  UNL     1      24.293   1.875  19.303  1.00  0.00     0.141 A 
HETATM   20  N4  UNL     1      24.055   3.032  19.852  1.00  0.00    -0.352 N 
ATOM     21  H4  UNL     1      23.568   3.080  20.747  1.00  0.00     0.166 HD
HETATM   22  S2  UNL     1      24.424   5.896  19.464  1.00  0.00    -0.033 SA
ENDBRANCH   1  13
TORSDOF 4
ENDMDL
MODEL 2
REMARK VINA RESULT: -7.174594753      1.178      1.520
REMARK  4 active torsions:
REMARK  status: ('A' for Active; 'I' for Inactive)
REMARK    1  A    between atoms: O1_1  and  N1_3 
REMARK    2  A    between atoms: C1_5  and  N2_6 
REMARK    3  A    between atoms: C1_5  and  C6_18 
REMARK    4  A    between atoms: N2_6  and  C2_8 
ROOT
HETATM    1  N2  UNL     1      25.444   7.384  17.627  1.00  0.00    -0.324 N 
ATOM      2  H2  UNL     1      26.435   7.621  17.665  1.00  0.00     0.169 HD
ENDROOT
BRANCH   1   3
HETATM    3  C1  UNL     1      24.553   8.204  16.898  1.00  0.00     0.107 C 
HETATM    4  N1  UNL     1      24.352   7.985  15.644  1.00  0.00    -0.257 N 
ATOM      5  H1  UNL     1      23.709   8.577  15.118  1.00  0.00     0.195 HD
BRANCH   4   6
HETATM    6  O1  UNL     1      25.003   6.953  15.020  1.00  0.00    -0.288 OA
ATOM      7  H1  UNL     1      24.527   6.164  14.791  1.00  0.00     0.244 HD
ENDBRANCH   4   6
BRANCH   3   8
HETATM    8  C6  UNL     1      23.815   9.338  17.520  1.00  0.00     0.055 C 
HETATM    9  C7  UNL     1      22.645   8.846  18.349  1.00  0.00     0.012 C 
HETATM   10  C8  UNL     1      21.524   9.831  18.148  1.00  0.00     0.001 C 
HETATM   11  C9  UNL     1      22.139  10.977  17.354  1.00  0.00     0.001 C 
HETATM   12  C10 UNL     1      23.143  10.202  16.491  1.00  0.00     0.012 C 
ENDBRANCH   3   8
ENDBRANCH   1   3
BRANCH   1  13
HETATM   13  C2  UNL     1      25.003   6.317  18.255  1.00  0.00     0.153 A 
HETATM   14  N3  UNL     1      24.441   6.249  19.436  1.00  0.00    -0.328 N 
HETATM   15  C3  UNL     1      24.063   5.053  19.892  1.00  0.00     0.111 A 
ATOM     16  H3  UNL     1      24.296   7.089  19.994  1.00  0.00     0.168 HD
HETATM   17  S1  UNL     1      23.309   4.303  21.283  1.00  0.00    -0.064 SA
HETATM   18  C5  UNL     1      24.272   3.968  19.123  1.00  0.00     0.112 A 
HETATM   19  C4  UNL     1      23.329   2.685  20.760  1.00  0.00     0.141 A 
HETATM   20  N4  UNL     1      23.891   2.781  19.588  1.00  0.00    -0.352 N 
ATOM     21  H4  UNL     1      24.038   1.944  19.025  1.00  0.00     0.166 HD
HETATM   22  S2  UNL     1      25.030   4.706  17.720  1.00  0.00    -0.033 SA
ENDBRANCH   1  13
TORSDOF 4
ENDMDL
MODEL 3
REMARK VINA RESULT: -7.143982632      3.672      4.118
REMARK  4 active torsions:
REMARK  status: ('A' for Active; 'I' for Inactive)
REMARK    1  A    between atoms: O1_1  and  N1_3 
REMARK    2  A    between atoms: C1_5  and  N2_6 
REMARK    3  A    between atoms: C1_5  and  C6_18 
REMARK    4  A    between atoms: N2_6  and  C2_8 
ROOT
HETATM    1  N2  UNL     1      23.211   8.711  20.816  1.00  0.00    -0.324 N 
ATOM      2  H2  UNL     1      23.995   9.267  21.158  1.00  0.00     0.169 HD
ENDROOT
BRANCH   1   3
HETATM    3  C1  UNL     1      22.357   9.237  19.820  1.00  0.00     0.107 C 
HETATM    4  N1  UNL     1      21.327   9.935  20.156  1.00  0.00    -0.257 N 
ATOM      5  H1  UNL     1      20.710  10.315  19.438  1.00  0.00     0.195 HD
BRANCH   4   6
HETATM    6  O1  UNL     1      21.063  10.167  21.481  1.00  0.00    -0.288 OA
ATOM      7  H1  UNL     1      20.619  10.965  21.741  1.00  0.00     0.244 HD
ENDBRANCH   4   6
BRANCH   3   8
HETATM    8  C6  UNL     1      22.591   9.021  18.366  1.00  0.00     0.055 C 
HETATM    9  C7  UNL     1      24.060   8.791  18.072  1.00  0.00     0.012 C 
HETATM   10  C8  UNL     1      24.356   9.481  16.766  1.00  0.00     0.001 C 
HETATM   11  C9  UNL     1      23.000   9.933  16.239  1.00  0.00     0.001 C 
HETATM   12  C10 UNL     1      22.287  10.252  17.559  1.00  0.00     0.012 C 
ENDBRANCH   3   8
ENDBRANCH   1   3
BRANCH   1  13
HETATM   13  C2  UNL     1      23.001   7.508  21.303  1.00  0.00     0.153 A 
HETATM   14  N3  UNL     1      23.174   6.353  20.709  1.00  0.00    -0.328 N 
HETATM   15  C3  UNL     1      22.897   5.240  21.391  1.00  0.00     0.111 A 
ATOM     16  H3  UNL     1      23.513   6.306  19.748  1.00  0.00     0.168 HD
HETATM   17  S1  UNL     1      22.905   3.498  21.213  1.00  0.00    -0.064 SA
HETATM   18  C5  UNL     1      22.454   5.346  22.657  1.00  0.00     0.112 A 
HETATM   19  C4  UNL     1      22.346   3.068  22.759  1.00  0.00     0.141 A 
HETATM   20  N4  UNL     1      22.182   4.230  23.326  1.00  0.00    -0.352 N 
ATOM     21  H4  UNL     1      21.844   4.283  24.288  1.00  0.00     0.166 HD
HETATM   22  S2  UNL     1      22.441   7.092  22.851  1.00  0.00    -0.033 SA
ENDBRANCH   1  13
TORSDOF 4
ENDMDL
MODEL 4
REMARK VINA RESULT: -7.051889510      1.080      1.126
REMARK  4 active torsions:
REMARK  status: ('A' for Active; 'I' for Inactive)
REMARK    1  A    between atoms: O1_1  and  N1_3 
REMARK    2  A    between atoms: C1_5  and  N2_6 
REMARK    3  A    between atoms: C1_5  and  C6_18 
REMARK    4  A    between atoms: N2_6  and  C2_8 
ROOT
HETATM    1  N2  UNL     1      25.835   7.767  17.392  1.00  0.00    -0.324 N 
ATOM      2  H2  UNL     1      26.634   8.347  17.646  1.00  0.00     0.169 HD
ENDROOT
BRANCH   1   3
HETATM    3  C1  UNL     1      24.702   8.356  16.786  1.00  0.00     0.107 C 
HETATM    4  N1  UNL     1      24.328   7.979  15.612  1.00  0.00    -0.257 N 
ATOM      5  H1  UNL     1      23.511   8.404  15.174  1.00  0.00     0.195 HD
BRANCH   4   6
HETATM    6  O1  UNL     1      25.031   7.004  14.953  1.00  0.00    -0.288 OA
ATOM      7  H1  UNL     1      25.829   7.228  14.490  1.00  0.00     0.244 HD
ENDBRANCH   4   6
BRANCH   3   8
HETATM    8  C6  UNL     1      23.898   9.418  17.451  1.00  0.00     0.055 C 
HETATM    9  C7  UNL     1      22.917   8.826  18.444  1.00  0.00     0.012 C 
HETATM   10  C8  UNL     1      21.655   9.642  18.349  1.00  0.00     0.001 C 
HETATM   11  C9  UNL     1      22.005  10.811  17.436  1.00  0.00     0.001 C 
HETATM   12  C10 UNL     1      22.993  10.125  16.483  1.00  0.00     0.012 C 
ENDBRANCH   3   8
ENDBRANCH   1   3
BRANCH   1  13
HETATM   13  C2  UNL     1      25.865   6.474  17.628  1.00  0.00     0.153 A 
HETATM   14  N3  UNL     1      26.707   5.585  17.162  1.00  0.00    -0.328 N 
HETATM   15  C3  UNL     1      26.557   4.312  17.531  1.00  0.00     0.111 A 
ATOM     16  H3  UNL     1      27.459   5.860  16.531  1.00  0.00     0.168 HD
HETATM   17  S1  UNL     1      27.277   2.733  17.297  1.00  0.00    -0.064 SA
HETATM   18  C5  UNL     1      25.551   3.991  18.366  1.00  0.00     0.112 A 
HETATM   19  C4  UNL     1      26.236   1.815  18.278  1.00  0.00     0.141 A 
HETATM   20  N4  UNL     1      25.412   2.719  18.728  1.00  0.00    -0.352 N 
ATOM     21  H4  UNL     1      24.657   2.449  19.359  1.00  0.00     0.166 HD
HETATM   22  S2  UNL     1      24.817   5.568  18.611  1.00  0.00    -0.033 SA
ENDBRANCH   1  13
TORSDOF 4
ENDMDL
MODEL 5
REMARK VINA RESULT: -6.996146319      1.003      1.392
REMARK  4 active torsions:
REMARK  status: ('A' for Active; 'I' for Inactive)
REMARK    1  A    between atoms: O1_1  and  N1_3 
REMARK    2  A    between atoms: C1_5  and  N2_6 
REMARK    3  A    between atoms: C1_5  and  C6_18 
REMARK    4  A    between atoms: N2_6  and  C2_8 
ROOT
HETATM    1  N2  UNL     1      24.948   7.275  18.191  1.00  0.00    -0.324 N 
ATOM      2  H2  UNL     1      25.716   7.851  18.535  1.00  0.00     0.169 HD
ENDROOT
BRANCH   1   3
HETATM    3  C1  UNL     1      24.205   7.695  17.064  1.00  0.00     0.107 C 
HETATM    4  N1  UNL     1      24.535   7.292  15.886  1.00  0.00    -0.257 N 
ATOM      5  H1  UNL     1      24.000   7.596  15.072  1.00  0.00     0.195 HD
BRANCH   4   6
HETATM    6  O1  UNL     1      25.608   6.454  15.728  1.00  0.00    -0.288 OA
ATOM      7  H1  UNL     1      26.218   6.328  16.445  1.00  0.00     0.244 HD
ENDBRANCH   4   6
BRANCH   3   8
HETATM    8  C6  UNL     1      23.030   8.604  17.171  1.00  0.00     0.055 C 
HETATM    9  C7  UNL     1      23.156   9.781  16.223  1.00  0.00     0.012 C 
HETATM   10  C8  UNL     1      22.601  10.981  16.944  1.00  0.00     0.001 C 
HETATM   11  C9  UNL     1      21.989  10.428  18.225  1.00  0.00     0.001 C 
HETATM   12  C10 UNL     1      22.957   9.274  18.513  1.00  0.00     0.012 C 
ENDBRANCH   3   8
ENDBRANCH   1   3
BRANCH   1  13
HETATM   13  C2  UNL     1      24.654   6.146  18.797  1.00  0.00     0.153 A 
HETATM   14  N3  UNL     1      24.905   4.924  18.397  1.00  0.00    -0.328 N 
HETATM   15  C3  UNL     1      24.517   3.910  19.171  1.00  0.00     0.111 A 
ATOM     16  H3  UNL     1      25.387   4.753  17.515  1.00  0.00     0.168 HD
HETATM   17  S1  UNL     1      24.535   2.160  19.232  1.00  0.00    -0.064 SA
HETATM   18  C5  UNL     1      23.885   4.179  20.329  1.00  0.00     0.112 A 
HETATM   19  C4  UNL     1      23.740   1.935  20.718  1.00  0.00     0.141 A 
HETATM   20  N4  UNL     1      23.502   3.160  21.092  1.00  0.00    -0.352 N 
ATOM     21  H4  UNL     1      23.021   3.337  21.974  1.00  0.00     0.166 HD
HETATM   22  S2  UNL     1      23.858   5.935  20.282  1.00  0.00    -0.033 SA
ENDBRANCH   1  13
TORSDOF 4
ENDMDL
