MODEL 1
REMARK VINA RESULT: -7.063009335      0.000      0.000
REMARK  2 active torsions:
REMARK  status: ('A' for Active; 'I' for Inactive)
REMARK    1  A    between atoms: C2_2  and  C3_3 
REMARK    2  A    between atoms: C4_5  and  O2_7 
ROOT
HETATM    1  C3  UNL     1      23.407   8.404  19.114  1.00  0.00     0.290 C 
HETATM    2  O1  UNL     1      23.472   7.745  17.911  1.00  0.00    -0.322 OA
HETATM    3  C4  UNL     1      24.618   7.823  17.195  1.00  0.00     0.161 C 
HETATM    4  C5  UNL     1      24.412   8.939  16.153  1.00  0.00     0.078 C 
HETATM    5  C6  UNL     1      24.830   6.541  16.403  1.00  0.00     0.068 C 
HETATM    6  C7  UNL     1      25.758   5.568  17.090  1.00  0.00     0.005 C 
HETATM    7  C8  UNL     1      25.047   4.319  17.554  1.00  0.00     0.003 C 
HETATM    8  C9  UNL     1      25.430   3.942  18.995  1.00  0.00     0.035 C 
HETATM    9  C10 UNL     1      24.808   4.977  19.840  1.00  0.00     0.160 C 
HETATM   10  C11 UNL     1      24.873   4.848  21.308  1.00  0.00     0.040 C 
HETATM   11  C12 UNL     1      24.534   6.262  21.821  1.00  0.00     0.074 C 
HETATM   12  C13 UNL     1      23.466   6.905  20.922  1.00  0.00     0.196 C 
HETATM   13  C14 UNL     1      22.472   7.543  21.906  1.00  0.00     0.082 C 
HETATM   14  O3  UNL     1      22.802   5.921  20.260  1.00  0.00    -0.201 OA
HETATM   15  O4  UNL     1      23.485   5.168  19.478  1.00  0.00    -0.233 OA
HETATM   16  O5  UNL     1      24.046   7.874  20.161  1.00  0.00    -0.319 OA
ENDROOT
BRANCH   3  17
HETATM   17  O2  UNL     1      25.745   8.205  17.895  1.00  0.00    -0.365 OA
ATOM     18  H2  UNL     1      26.378   8.725  17.415  1.00  0.00     0.213 HD
ENDBRANCH   3  17
BRANCH   1  19
HETATM   19  C2  UNL     1      21.972   8.752  19.319  1.00  0.00     0.023 C 
HETATM   20  C1  UNL     1      21.277   9.573  18.555  1.00  0.00     0.012 C 
ENDBRANCH   1  19
TORSDOF 2
ENDMDL
MODEL 2
REMARK VINA RESULT: -6.743609474      1.528      5.017
REMARK  2 active torsions:
REMARK  status: ('A' for Active; 'I' for Inactive)
REMARK    1  A    between atoms: C2_2  and  C3_3 
REMARK    2  A    between atoms: C4_5  and  O2_7 
ROOT
HETATM    1  C3  UNL     1      23.845   6.871  20.080  1.00  0.00     0.290 C 
HETATM    2  O1  UNL     1      22.577   7.398  20.104  1.00  0.00    -0.322 OA
HETATM    3  C4  UNL     1      22.362   8.523  20.825  1.00  0.00     0.161 C 
HETATM    4  C5  UNL     1      21.804   8.074  22.189  1.00  0.00     0.078 C 
HETATM    5  C6  UNL     1      21.268   9.359  20.177  1.00  0.00     0.068 C 
HETATM    6  C7  UNL     1      21.808  10.463  19.301  1.00  0.00     0.005 C 
HETATM    7  C8  UNL     1      21.513  10.239  17.837  1.00  0.00     0.003 C 
HETATM    8  C9  UNL     1      22.749  10.486  16.957  1.00  0.00     0.035 C 
HETATM    9  C10 UNL     1      23.663   9.368  17.258  1.00  0.00     0.160 C 
HETATM   10  C11 UNL     1      24.910   9.226  16.485  1.00  0.00     0.040 C 
HETATM   11  C12 UNL     1      25.771   8.272  17.337  1.00  0.00     0.074 C 
HETATM   12  C13 UNL     1      24.877   7.208  17.996  1.00  0.00     0.196 C 
HETATM   13  C14 UNL     1      25.641   5.890  17.795  1.00  0.00     0.082 C 
HETATM   14  O3  UNL     1      23.719   7.114  17.292  1.00  0.00    -0.201 OA
HETATM   15  O4  UNL     1      22.985   8.163  17.216  1.00  0.00    -0.233 OA
HETATM   16  O5  UNL     1      24.768   7.477  19.327  1.00  0.00    -0.319 OA
ENDROOT
BRANCH   3  17
HETATM   17  O2  UNL     1      23.482   9.268  21.136  1.00  0.00    -0.365 OA
ATOM     18  H2  UNL     1      24.008   8.948  21.859  1.00  0.00     0.213 HD
ENDBRANCH   3  17
BRANCH   1  19
HETATM   19  C2  UNL     1      23.681   5.404  19.874  1.00  0.00     0.023 C 
HETATM   20  C1  UNL     1      22.931   4.615  20.621  1.00  0.00     0.012 C 
ENDBRANCH   1  19
TORSDOF 2
ENDMDL
MODEL 3
REMARK VINA RESULT: -6.525525680      2.512      4.957
REMARK  2 active torsions:
REMARK  status: ('A' for Active; 'I' for Inactive)
REMARK    1  A    between atoms: C2_2  and  C3_3 
REMARK    2  A    between atoms: C4_5  and  O2_7 
ROOT
HETATM    1  C3  UNL     1      25.325   4.348  19.509  1.00  0.00     0.290 C 
HETATM    2  O1  UNL     1      24.918   3.037  19.465  1.00  0.00    -0.322 OA
HETATM    3  C4  UNL     1      25.612   2.123  20.182  1.00  0.00     0.161 C 
HETATM    4  C5  UNL     1      26.608   1.462  19.210  1.00  0.00     0.078 C 
HETATM    5  C6  UNL     1      24.686   1.013  20.655  1.00  0.00     0.068 C 
HETATM    6  C7  UNL     1      24.199   1.212  22.070  1.00  0.00     0.005 C 
HETATM    7  C8  UNL     1      22.718   1.502  22.139  1.00  0.00     0.003 C 
HETATM    8  C9  UNL     1      22.405   2.681  23.075  1.00  0.00     0.035 C 
HETATM    9  C10 UNL     1      22.917   3.873  22.373  1.00  0.00     0.160 C 
HETATM   10  C11 UNL     1      22.667   5.209  22.943  1.00  0.00     0.040 C 
HETATM   11  C12 UNL     1      23.681   6.119  22.220  1.00  0.00     0.074 C 
HETATM   12  C13 UNL     1      23.837   5.670  20.758  1.00  0.00     0.196 C 
HETATM   13  C14 UNL     1      23.809   6.978  19.952  1.00  0.00     0.082 C 
HETATM   14  O3  UNL     1      22.740   4.953  20.401  1.00  0.00    -0.201 OA
HETATM   15  O4  UNL     1      22.497   3.877  21.055  1.00  0.00    -0.233 OA
HETATM   16  O5  UNL     1      25.046   5.061  20.604  1.00  0.00    -0.319 OA
ENDROOT
BRANCH   3  17
HETATM   17  O2  UNL     1      26.401   2.623  21.199  1.00  0.00    -0.365 OA
ATOM     18  H2  UNL     1      27.223   2.172  21.351  1.00  0.00     0.213 HD
ENDBRANCH   3  17
BRANCH   1  19
HETATM   19  C2  UNL     1      24.923   4.950  18.206  1.00  0.00     0.023 C 
HETATM   20  C1  UNL     1      25.737   5.161  17.188  1.00  0.00     0.012 C 
ENDBRANCH   1  19
TORSDOF 2
ENDMDL
MODEL 4
REMARK VINA RESULT: -6.361857733      1.338      4.056
REMARK  2 active torsions:
REMARK  status: ('A' for Active; 'I' for Inactive)
REMARK    1  A    between atoms: C2_2  and  C3_3 
REMARK    2  A    between atoms: C4_5  and  O2_7 
ROOT
HETATM    1  C3  UNL     1      23.503   6.652  20.300  1.00  0.00     0.290 C 
HETATM    2  O1  UNL     1      24.677   6.634  19.588  1.00  0.00    -0.322 OA
HETATM    3  C4  UNL     1      24.777   5.793  18.532  1.00  0.00     0.161 C 
HETATM    4  C5  UNL     1      25.496   4.528  19.042  1.00  0.00     0.078 C 
HETATM    5  C6  UNL     1      25.684   6.392  17.468  1.00  0.00     0.068 C 
HETATM    6  C7  UNL     1      24.923   7.093  16.369  1.00  0.00     0.005 C 
HETATM    7  C8  UNL     1      25.138   8.588  16.376  1.00  0.00     0.003 C 
HETATM    8  C9  UNL     1      23.816   9.359  16.226  1.00  0.00     0.035 C 
HETATM    9  C10 UNL     1      23.102   9.148  17.499  1.00  0.00     0.160 C 
HETATM   10  C11 UNL     1      21.836   9.862  17.745  1.00  0.00     0.040 C 
HETATM   11  C12 UNL     1      21.192   9.087  18.913  1.00  0.00     0.074 C 
HETATM   12  C13 UNL     1      22.280   8.617  19.892  1.00  0.00     0.196 C 
HETATM   13  C14 UNL     1      21.706   8.937  21.282  1.00  0.00     0.082 C 
HETATM   14  O3  UNL     1      23.383   9.391  19.724  1.00  0.00    -0.201 OA
HETATM   15  O4  UNL     1      23.947   9.378  18.572  1.00  0.00    -0.233 OA
HETATM   16  O5  UNL     1      22.447   7.271  19.762  1.00  0.00    -0.319 OA
ENDROOT
BRANCH   3  17
HETATM   17  O2  UNL     1      23.586   5.329  18.012  1.00  0.00    -0.365 OA
ATOM     18  H2  UNL     1      22.799   5.771  18.310  1.00  0.00     0.213 HD
ENDBRANCH   3  17
BRANCH   1  19
HETATM   19  C2  UNL     1      23.867   7.048  21.690  1.00  0.00     0.023 C 
HETATM   20  C1  UNL     1      23.749   6.273  22.752  1.00  0.00     0.012 C 
ENDBRANCH   1  19
TORSDOF 2
ENDMDL
MODEL 5
REMARK VINA RESULT: -6.296268535      2.902      5.661
REMARK  2 active torsions:
REMARK  status: ('A' for Active; 'I' for Inactive)
REMARK    1  A    between atoms: C2_2  and  C3_3 
REMARK    2  A    between atoms: C4_5  and  O2_7 
ROOT
HETATM    1  C3  UNL     1      23.302   4.538  20.766  1.00  0.00     0.290 C 
HETATM    2  O1  UNL     1      23.564   3.807  21.899  1.00  0.00    -0.322 OA
HETATM    3  C4  UNL     1      22.695   2.830  22.249  1.00  0.00     0.161 C 
HETATM    4  C5  UNL     1      21.750   3.437  23.304  1.00  0.00     0.078 C 
HETATM    5  C6  UNL     1      23.433   1.698  22.947  1.00  0.00     0.068 C 
HETATM    6  C7  UNL     1      23.776   0.555  22.022  1.00  0.00     0.005 C 
HETATM    7  C8  UNL     1      25.262   0.424  21.788  1.00  0.00     0.003 C 
HETATM    8  C9  UNL     1      25.595   0.231  20.299  1.00  0.00     0.035 C 
HETATM    9  C10 UNL     1      25.302   1.532  19.670  1.00  0.00     0.160 C 
HETATM   10  C11 UNL     1      25.632   1.738  18.248  1.00  0.00     0.040 C 
HETATM   11  C12 UNL     1      24.814   2.984  17.852  1.00  0.00     0.074 C 
HETATM   12  C13 UNL     1      24.776   3.980  19.023  1.00  0.00     0.196 C 
HETATM   13  C14 UNL     1      25.040   5.346  18.370  1.00  0.00     0.082 C 
HETATM   14  O3  UNL     1      25.820   3.720  19.851  1.00  0.00    -0.201 OA
HETATM   15  O4  UNL     1      25.867   2.562  20.402  1.00  0.00    -0.233 OA
HETATM   16  O5  UNL     1      23.533   3.969  19.579  1.00  0.00    -0.319 OA
ENDROOT
BRANCH   3  17
HETATM   17  O2  UNL     1      21.857   2.377  21.250  1.00  0.00    -0.365 OA
ATOM     18  H2  UNL     1      20.942   2.623  21.329  1.00  0.00     0.213 HD
ENDBRANCH   3  17
BRANCH   1  19
HETATM   19  C2  UNL     1      23.914   5.879  20.987  1.00  0.00     0.023 C 
HETATM   20  C1  UNL     1      24.265   6.364  22.164  1.00  0.00     0.012 C 
ENDBRANCH   1  19
TORSDOF 2
ENDMDL
