MODEL 1
REMARK VINA RESULT: -10.061952042      0.000      0.000
REMARK  2 active torsions:
REMARK  status: ('A' for Active; 'I' for Inactive)
REMARK    1  A    between atoms: C3_7  and  C4_8 
REMARK       I    between atoms: C4_8  and  N3_10 
REMARK    2  A    between atoms: N3_10  and  C5_12 
ROOT
HETATM    1  N1  UNL     1      20.847  11.508  27.359  1.00  0.00    -0.188 NA
HETATM    2  C1  UNL     1      20.970  10.782  26.471  1.00  0.00     0.139 C 
HETATM    3  C2  UNL     1      21.126   9.881  25.360  1.00  0.00     0.210 A 
HETATM    4  N2  UNL     1      21.219   8.539  25.392  1.00  0.00    -0.234 N 
ATOM      5  H2  UNL     1      21.191   7.961  26.232  1.00  0.00     0.197 HD
HETATM    6  O1  UNL     1      21.348   8.111  24.195  1.00  0.00    -0.211 OA
HETATM    7  C3  UNL     1      21.350   9.084  23.324  1.00  0.00     0.240 A 
HETATM    8  N4  UNL     1      21.209  10.223  24.063  1.00  0.00    -0.306 N 
ATOM      9  H4  UNL     1      21.172  11.173  23.694  1.00  0.00     0.170 HD
ENDROOT
BRANCH   7  10
HETATM   10  C4  UNL     1      21.475   9.002  21.875  1.00  0.00     0.295 C 
HETATM   11  O2  UNL     1      20.482   9.325  21.181  1.00  0.00    -0.264 OA
HETATM   12  N3  UNL     1      22.658   8.578  21.247  1.00  0.00    -0.349 N 
ATOM     13  H3  UNL     1      23.444   8.322  21.846  1.00  0.00     0.163 HD
BRANCH  12  14
HETATM   14  C5  UNL     1      22.844   8.476  19.831  1.00  0.00     0.084 C 
HETATM   15  C6  UNL     1      23.962   7.441  19.553  1.00  0.00     0.025 C 
HETATM   16  C7  UNL     1      24.221   7.602  18.129  1.00  0.00     0.002 C 
HETATM   17  C8  UNL     1      25.023   6.749  17.254  1.00  0.00     0.000 C 
HETATM   18  C9  UNL     1      24.706   7.294  15.842  1.00  0.00     0.000 C 
HETATM   19  C10 UNL     1      24.548   8.762  15.726  1.00  0.00     0.000 C 
HETATM   20  C11 UNL     1      23.173   9.334  15.675  1.00  0.00     0.000 C 
HETATM   21  C12 UNL     1      22.884  10.474  16.653  1.00  0.00     0.000 C 
HETATM   22  C13 UNL     1      22.131   9.991  17.898  1.00  0.00     0.002 C 
HETATM   23  C14 UNL     1      22.969   9.764  19.108  1.00  0.00     0.025 C 
ENDBRANCH  12  14
ENDBRANCH   7  10
TORSDOF 2
ENDMDL
MODEL 2
REMARK VINA RESULT: -9.706666097      5.525      8.734
REMARK  2 active torsions:
REMARK  status: ('A' for Active; 'I' for Inactive)
REMARK    1  A    between atoms: C3_7  and  C4_8 
REMARK       I    between atoms: C4_8  and  N3_10 
REMARK    2  A    between atoms: N3_10  and  C5_12 
ROOT
HETATM    1  N1  UNL     1      28.622  -0.478  17.139  1.00  0.00    -0.188 NA
HETATM    2  C1  UNL     1      28.322   0.621  16.957  1.00  0.00     0.139 C 
HETATM    3  C2  UNL     1      27.945   1.990  16.734  1.00  0.00     0.210 A 
HETATM    4  N2  UNL     1      28.568   2.904  15.969  1.00  0.00    -0.234 N 
ATOM      5  H2  UNL     1      29.417   2.747  15.426  1.00  0.00     0.197 HD
HETATM    6  O1  UNL     1      27.919   4.004  16.035  1.00  0.00    -0.211 OA
HETATM    7  C3  UNL     1      26.871   3.907  16.809  1.00  0.00     0.240 A 
HETATM    8  N4  UNL     1      26.880   2.619  17.262  1.00  0.00    -0.306 N 
ATOM      9  H4  UNL     1      26.196   2.204  17.893  1.00  0.00     0.170 HD
ENDROOT
BRANCH   7  10
HETATM   10  C4  UNL     1      25.889   4.932  17.136  1.00  0.00     0.295 C 
HETATM   11  O2  UNL     1      24.711   4.565  17.364  1.00  0.00    -0.264 OA
HETATM   12  N3  UNL     1      26.221   6.295  17.200  1.00  0.00    -0.349 N 
ATOM     13  H3  UNL     1      27.189   6.553  17.008  1.00  0.00     0.163 HD
BRANCH  12  14
HETATM   14  C5  UNL     1      25.305   7.349  17.516  1.00  0.00     0.084 C 
HETATM   15  C6  UNL     1      24.586   6.998  18.841  1.00  0.00     0.025 C 
HETATM   16  C7  UNL     1      23.533   8.001  18.927  1.00  0.00     0.002 C 
HETATM   17  C8  UNL     1      22.666   8.307  20.064  1.00  0.00     0.000 C 
HETATM   18  C9  UNL     1      21.954   9.607  19.625  1.00  0.00     0.000 C 
HETATM   19  C10 UNL     1      21.584   9.701  18.194  1.00  0.00     0.000 C 
HETATM   20  C11 UNL     1      22.450  10.497  17.280  1.00  0.00     0.000 C 
HETATM   21  C12 UNL     1      22.895   9.794  15.996  1.00  0.00     0.000 C 
HETATM   22  C13 UNL     1      24.321   9.241  16.105  1.00  0.00     0.002 C 
HETATM   23  C14 UNL     1      24.425   7.787  16.406  1.00  0.00     0.025 C 
ENDBRANCH  12  14
ENDBRANCH   7  10
TORSDOF 2
ENDMDL
MODEL 3
REMARK VINA RESULT: -9.670261107      1.282      1.597
REMARK  2 active torsions:
REMARK  status: ('A' for Active; 'I' for Inactive)
REMARK    1  A    between atoms: C3_7  and  C4_8 
REMARK       I    between atoms: C4_8  and  N3_10 
REMARK    2  A    between atoms: N3_10  and  C5_12 
ROOT
HETATM    1  N1  UNL     1      21.992   6.909  27.845  1.00  0.00    -0.188 NA
HETATM    2  C1  UNL     1      21.634   7.434  26.883  1.00  0.00     0.139 C 
HETATM    3  C2  UNL     1      21.189   8.085  25.680  1.00  0.00     0.210 A 
HETATM    4  N2  UNL     1      20.238   9.029  25.555  1.00  0.00    -0.234 N 
ATOM      5  H2  UNL     1      19.688   9.423  26.317  1.00  0.00     0.197 HD
HETATM    6  O1  UNL     1      20.141   9.348  24.321  1.00  0.00    -0.211 OA
HETATM    7  C3  UNL     1      20.975   8.677  23.574  1.00  0.00     0.240 A 
HETATM    8  N4  UNL     1      21.651   7.864  24.438  1.00  0.00    -0.306 N 
ATOM      9  H4  UNL     1      22.383   7.201  24.183  1.00  0.00     0.170 HD
ENDROOT
BRANCH   7  10
HETATM   10  C4  UNL     1      21.165   8.757  22.132  1.00  0.00     0.295 C 
HETATM   11  O2  UNL     1      20.250   9.275  21.446  1.00  0.00    -0.264 OA
HETATM   12  N3  UNL     1      22.324   8.277  21.500  1.00  0.00    -0.349 N 
ATOM     13  H3  UNL     1      23.045   7.863  22.091  1.00  0.00     0.163 HD
BRANCH  12  14
HETATM   14  C5  UNL     1      22.572   8.327  20.090  1.00  0.00     0.084 C 
HETATM   15  C6  UNL     1      23.766   7.397  19.766  1.00  0.00     0.025 C 
HETATM   16  C7  UNL     1      24.068   7.712  18.376  1.00  0.00     0.002 C 
HETATM   17  C8  UNL     1      24.959   7.001  17.461  1.00  0.00     0.000 C 
HETATM   18  C9  UNL     1      24.660   7.660  16.094  1.00  0.00     0.000 C 
HETATM   19  C10 UNL     1      24.409   9.120  16.112  1.00  0.00     0.000 C 
HETATM   20  C11 UNL     1      23.002   9.606  16.054  1.00  0.00     0.000 C 
HETATM   21  C12 UNL     1      22.600  10.625  17.122  1.00  0.00     0.000 C 
HETATM   22  C13 UNL     1      21.834   9.976  18.280  1.00  0.00     0.002 C 
HETATM   23  C14 UNL     1      22.638   9.685  19.500  1.00  0.00     0.025 C 
ENDBRANCH  12  14
ENDBRANCH   7  10
TORSDOF 2
ENDMDL
MODEL 4
REMARK VINA RESULT: -9.612621169      5.442      8.607
REMARK  2 active torsions:
REMARK  status: ('A' for Active; 'I' for Inactive)
REMARK    1  A    between atoms: C3_7  and  C4_8 
REMARK       I    between atoms: C4_8  and  N3_10 
REMARK    2  A    between atoms: N3_10  and  C5_12 
ROOT
HETATM    1  N1  UNL     1      29.488  -0.061  16.313  1.00  0.00    -0.188 NA
HETATM    2  C1  UNL     1      28.795   0.747  16.758  1.00  0.00     0.139 C 
HETATM    3  C2  UNL     1      27.931   1.757  17.307  1.00  0.00     0.210 A 
HETATM    4  N2  UNL     1      27.240   1.713  18.461  1.00  0.00    -0.234 N 
ATOM      5  H2  UNL     1      27.234   0.937  19.122  1.00  0.00     0.197 HD
HETATM    6  O1  UNL     1      26.591   2.807  18.589  1.00  0.00    -0.211 OA
HETATM    7  C3  UNL     1      26.793   3.617  17.584  1.00  0.00     0.240 A 
HETATM    8  N4  UNL     1      27.651   2.950  16.757  1.00  0.00    -0.306 N 
ATOM      9  H4  UNL     1      28.017   3.299  15.872  1.00  0.00     0.170 HD
ENDROOT
BRANCH   7  10
HETATM   10  C4  UNL     1      26.238   4.946  17.367  1.00  0.00     0.295 C 
HETATM   11  O2  UNL     1      26.566   5.555  16.319  1.00  0.00    -0.264 OA
HETATM   12  N3  UNL     1      25.362   5.552  18.281  1.00  0.00    -0.349 N 
ATOM     13  H3  UNL     1      25.120   5.025  19.121  1.00  0.00     0.163 HD
BRANCH  12  14
HETATM   14  C5  UNL     1      24.782   6.852  18.126  1.00  0.00     0.084 C 
HETATM   15  C6  UNL     1      23.844   7.122  19.328  1.00  0.00     0.025 C 
HETATM   16  C7  UNL     1      23.146   8.340  18.941  1.00  0.00     0.002 C 
HETATM   17  C8  UNL     1      22.291   9.193  19.765  1.00  0.00     0.000 C 
HETATM   18  C9  UNL     1      22.065  10.435  18.872  1.00  0.00     0.000 C 
HETATM   19  C10 UNL     1      21.908  10.179  17.422  1.00  0.00     0.000 C 
HETATM   20  C11 UNL     1      23.074  10.405  16.522  1.00  0.00     0.000 C 
HETATM   21  C12 UNL     1      23.425   9.253  15.579  1.00  0.00     0.000 C 
HETATM   22  C13 UNL     1      24.591   8.410  16.106  1.00  0.00     0.002 C 
HETATM   23  C14 UNL     1      24.211   7.142  16.789  1.00  0.00     0.025 C 
ENDBRANCH  12  14
ENDBRANCH   7  10
TORSDOF 2
ENDMDL
MODEL 5
REMARK VINA RESULT: -9.404234327      5.615      8.985
REMARK  2 active torsions:
REMARK  status: ('A' for Active; 'I' for Inactive)
REMARK    1  A    between atoms: C3_7  and  C4_8 
REMARK       I    between atoms: C4_8  and  N3_10 
REMARK    2  A    between atoms: N3_10  and  C5_12 
ROOT
HETATM    1  N1  UNL     1      29.317  -0.384  16.768  1.00  0.00    -0.188 NA
HETATM    2  C1  UNL     1      28.849   0.667  16.683  1.00  0.00     0.139 C 
HETATM    3  C2  UNL     1      28.262   1.976  16.582  1.00  0.00     0.210 A 
HETATM    4  N2  UNL     1      28.720   3.034  15.889  1.00  0.00    -0.234 N 
ATOM      5  H2  UNL     1      29.569   3.054  15.324  1.00  0.00     0.197 HD
HETATM    6  O1  UNL     1      27.912   4.011  16.056  1.00  0.00    -0.211 OA
HETATM    7  C3  UNL     1      26.911   3.692  16.831  1.00  0.00     0.240 A 
HETATM    8  N4  UNL     1      27.128   2.388  17.173  1.00  0.00    -0.306 N 
ATOM      9  H4  UNL     1      26.530   1.822  17.775  1.00  0.00     0.170 HD
ENDROOT
BRANCH   7  10
HETATM   10  C4  UNL     1      25.793   4.524  17.255  1.00  0.00     0.295 C 
HETATM   11  O2  UNL     1      24.892   3.989  17.946  1.00  0.00    -0.264 OA
HETATM   12  N3  UNL     1      25.699   5.883  16.917  1.00  0.00    -0.349 N 
ATOM     13  H3  UNL     1      26.451   6.281  16.353  1.00  0.00     0.163 HD
BRANCH  12  14
HETATM   14  C5  UNL     1      24.629   6.753  17.302  1.00  0.00     0.084 C 
HETATM   15  C6  UNL     1      24.499   7.875  16.243  1.00  0.00     0.025 C 
HETATM   16  C7  UNL     1      23.563   8.808  16.857  1.00  0.00     0.002 C 
HETATM   17  C8  UNL     1      22.893   9.952  16.241  1.00  0.00     0.000 C 
HETATM   18  C9  UNL     1      21.861  10.374  17.312  1.00  0.00     0.000 C 
HETATM   19  C10 UNL     1      22.302  10.274  18.723  1.00  0.00     0.000 C 
HETATM   20  C11 UNL     1      21.864   9.100  19.529  1.00  0.00     0.000 C 
HETATM   21  C12 UNL     1      22.970   8.346  20.270  1.00  0.00     0.000 C 
HETATM   22  C13 UNL     1      23.404   7.080  19.524  1.00  0.00     0.002 C 
HETATM   23  C14 UNL     1      24.648   7.204  18.715  1.00  0.00     0.025 C 
ENDBRANCH  12  14
ENDBRANCH   7  10
TORSDOF 2
ENDMDL
