MODEL 1
REMARK VINA RESULT: -7.089603064      0.000      0.000
REMARK  4 active torsions:
REMARK  status: ('A' for Active; 'I' for Inactive)
REMARK    1  A    between atoms: C2_2  and  C4_4 
REMARK    2  A    between atoms: C4_4  and  N1_6 
REMARK    3  A    between atoms: C4_4  and  C6_10 
REMARK    4  A    between atoms: C7_11  and  C8_12 
ROOT
HETATM    1  C6  UNL     1      23.712   8.384  18.459  1.00  0.00    -0.060 C 
HETATM    2  C7  UNL     1      23.307   8.181  19.574  1.00  0.00    -0.038 C 
ENDROOT
BRANCH   1   3
HETATM    3  C4  UNL     1      24.216   8.610  17.104  1.00  0.00     0.185 C 
HETATM    4  C5  UNL     1      24.656   7.294  16.485  1.00  0.00     0.061 C 
BRANCH   3   5
HETATM    5  C2  UNL     1      23.073   9.224  16.289  1.00  0.00     0.025 C 
HETATM    6  C1  UNL     1      23.381   9.223  14.829  1.00  0.00     0.013 C 
HETATM    7  C3  UNL     1      22.814  10.609  16.825  1.00  0.00     0.013 C 
ENDBRANCH   3   5
BRANCH   3   8
HETATM    8  N1  UNL     1      25.308   9.538  17.186  1.00  0.00    -0.059 N 
ATOM      9  H13 UNL     1      25.832   9.591  16.312  1.00  0.00     0.276 HD
ATOM     10  H12 UNL     1      24.987  10.505  17.224  1.00  0.00     0.276 HD
ATOM     11  H11 UNL     1      25.905   9.299  17.977  1.00  0.00     0.276 HD
ENDBRANCH   3   8
ENDBRANCH   1   3
BRANCH   2  12
HETATM   12  C8  UNL     1      22.836   7.952  20.929  1.00  0.00     0.131 A 
HETATM   13  N2  UNL     1      22.217   8.811  21.718  1.00  0.00    -0.337 N 
HETATM   14  C9  UNL     1      21.858   8.431  22.927  1.00  0.00     0.096 A 
ATOM     15  H2  UNL     1      22.020   9.758  21.394  1.00  0.00     0.168 HD
HETATM   16  C10 UNL     1      22.137   7.178  23.310  1.00  0.00     0.078 A 
HETATM   17  S3  UNL     1      21.005   9.341  24.251  1.00  0.00    -0.100 SA
HETATM   18  S1  UNL     1      22.915   6.561  21.922  1.00  0.00    -0.053 SA
HETATM   19  S2  UNL     1      21.634   6.720  24.937  1.00  0.00    -0.109 SA
HETATM   20  C11 UNL     1      20.711   8.151  25.556  1.00  0.00     0.160 C 
ENDBRANCH   2  12
TORSDOF 4
ENDMDL
MODEL 2
REMARK VINA RESULT: -6.962196892      0.895      1.433
REMARK  4 active torsions:
REMARK  status: ('A' for Active; 'I' for Inactive)
REMARK    1  A    between atoms: C2_2  and  C4_4 
REMARK    2  A    between atoms: C4_4  and  N1_6 
REMARK    3  A    between atoms: C4_4  and  C6_10 
REMARK    4  A    between atoms: C7_11  and  C8_12 
ROOT
HETATM    1  C6  UNL     1      23.628   8.546  18.494  1.00  0.00    -0.060 C 
HETATM    2  C7  UNL     1      23.187   8.483  19.612  1.00  0.00    -0.038 C 
ENDROOT
BRANCH   1   3
HETATM    3  C4  UNL     1      24.168   8.646  17.138  1.00  0.00     0.185 C 
HETATM    4  C5  UNL     1      24.575   7.271  16.635  1.00  0.00     0.061 C 
BRANCH   3   5
HETATM    5  C2  UNL     1      23.066   9.231  16.249  1.00  0.00     0.025 C 
HETATM    6  C1  UNL     1      23.437   9.167  14.805  1.00  0.00     0.013 C 
HETATM    7  C3  UNL     1      22.793  10.638  16.715  1.00  0.00     0.013 C 
ENDBRANCH   3   5
BRANCH   3   8
HETATM    8  N1  UNL     1      25.290   9.540  17.173  1.00  0.00    -0.059 N 
ATOM      9  H13 UNL     1      25.201  10.294  16.492  1.00  0.00     0.276 HD
ATOM     10  H12 UNL     1      25.302  10.108  18.020  1.00  0.00     0.276 HD
ATOM     11  H11 UNL     1      26.156   9.014  17.051  1.00  0.00     0.276 HD
ENDBRANCH   3   8
ENDBRANCH   1   3
BRANCH   2  12
HETATM   12  C8  UNL     1      22.631   8.406  20.952  1.00  0.00     0.131 A 
HETATM   13  N2  UNL     1      22.582   7.348  21.739  1.00  0.00    -0.337 N 
HETATM   14  C9  UNL     1      22.037   7.458  22.933  1.00  0.00     0.096 A 
ATOM     15  H2  UNL     1      22.961   6.454  21.425  1.00  0.00     0.168 HD
HETATM   16  C10 UNL     1      21.552   8.651  23.304  1.00  0.00     0.078 A 
HETATM   17  S3  UNL     1      21.806   6.224  24.250  1.00  0.00    -0.100 SA
HETATM   18  S1  UNL     1      21.887   9.600  21.925  1.00  0.00    -0.053 SA
HETATM   19  S2  UNL     1      20.835   8.745  24.912  1.00  0.00    -0.109 SA
HETATM   20  C11 UNL     1      21.135   7.117  25.649  1.00  0.00     0.160 C 
ENDBRANCH   2  12
TORSDOF 4
ENDMDL
MODEL 3
REMARK VINA RESULT: -6.890914574      5.137      7.481
REMARK  4 active torsions:
REMARK  status: ('A' for Active; 'I' for Inactive)
REMARK    1  A    between atoms: C2_2  and  C4_4 
REMARK    2  A    between atoms: C4_4  and  N1_6 
REMARK    3  A    between atoms: C4_4  and  C6_10 
REMARK    4  A    between atoms: C7_11  and  C8_12 
ROOT
HETATM    1  C6  UNL     1      25.121   6.891  17.323  1.00  0.00    -0.060 C 
HETATM    2  C7  UNL     1      25.601   5.788  17.309  1.00  0.00    -0.038 C 
ENDROOT
BRANCH   1   3
HETATM    3  C4  UNL     1      24.542   8.234  17.364  1.00  0.00     0.185 C 
HETATM    4  C5  UNL     1      25.645   9.275  17.461  1.00  0.00     0.061 C 
BRANCH   3   5
HETATM    5  C2  UNL     1      23.743   8.427  16.072  1.00  0.00     0.025 C 
HETATM    6  C1  UNL     1      24.609   8.276  14.866  1.00  0.00     0.013 C 
HETATM    7  C3  UNL     1      23.074   9.776  16.139  1.00  0.00     0.013 C 
ENDBRANCH   3   5
BRANCH   3   8
HETATM    8  N1  UNL     1      23.661   8.303  18.496  1.00  0.00    -0.059 N 
ATOM      9  H13 UNL     1      23.802   7.525  19.139  1.00  0.00     0.276 HD
ATOM     10  H12 UNL     1      23.909   9.064  19.128  1.00  0.00     0.276 HD
ATOM     11  H11 UNL     1      22.695   8.368  18.177  1.00  0.00     0.276 HD
ENDBRANCH   3   8
ENDBRANCH   1   3
BRANCH   2  12
HETATM   12  C8  UNL     1      26.157   4.446  17.291  1.00  0.00     0.131 A 
HETATM   13  N2  UNL     1      27.241   4.036  16.660  1.00  0.00    -0.337 N 
HETATM   14  C9  UNL     1      27.603   2.773  16.754  1.00  0.00     0.096 A 
ATOM     15  H2  UNL     1      27.793   4.691  16.105  1.00  0.00     0.168 HD
HETATM   16  C10 UNL     1      26.849   1.948  17.493  1.00  0.00     0.078 A 
HETATM   17  S3  UNL     1      29.015   1.887  16.026  1.00  0.00    -0.100 SA
HETATM   18  S1  UNL     1      25.627   3.004  18.045  1.00  0.00    -0.053 SA
HETATM   19  S2  UNL     1      27.378   0.269  17.587  1.00  0.00    -0.109 SA
HETATM   20  C11 UNL     1      28.960   0.231  16.705  1.00  0.00     0.160 C 
ENDBRANCH   2  12
TORSDOF 4
ENDMDL
MODEL 4
REMARK VINA RESULT: -6.573723891      4.789      6.431
REMARK  4 active torsions:
REMARK  status: ('A' for Active; 'I' for Inactive)
REMARK    1  A    between atoms: C2_2  and  C4_4 
REMARK    2  A    between atoms: C4_4  and  N1_6 
REMARK    3  A    between atoms: C4_4  and  C6_10 
REMARK    4  A    between atoms: C7_11  and  C8_12 
ROOT
HETATM    1  C6  UNL     1      24.624   7.319  16.909  1.00  0.00    -0.060 C 
HETATM    2  C7  UNL     1      24.942   6.179  17.130  1.00  0.00    -0.038 C 
ENDROOT
BRANCH   1   3
HETATM    3  C4  UNL     1      24.236   8.699  16.617  1.00  0.00     0.185 C 
HETATM    4  C5  UNL     1      23.905   8.847  15.141  1.00  0.00     0.061 C 
BRANCH   3   5
HETATM    5  C2  UNL     1      23.005   9.018  17.470  1.00  0.00     0.025 C 
HETATM    6  C1  UNL     1      22.448  10.363  17.146  1.00  0.00     0.013 C 
HETATM    7  C3  UNL     1      23.401   8.889  18.919  1.00  0.00     0.013 C 
ENDBRANCH   3   5
BRANCH   3   8
HETATM    8  N1  UNL     1      25.325   9.555  16.993  1.00  0.00    -0.059 N 
ATOM      9  H13 UNL     1      25.225   9.904  17.946  1.00  0.00     0.276 HD
ATOM     10  H12 UNL     1      26.194   9.037  17.116  1.00  0.00     0.276 HD
ATOM     11  H11 UNL     1      25.420  10.311  16.316  1.00  0.00     0.276 HD
ENDBRANCH   3   8
ENDBRANCH   1   3
BRANCH   2  12
HETATM   12  C8  UNL     1      25.349   4.811  17.399  1.00  0.00     0.131 A 
HETATM   13  N2  UNL     1      24.606   3.835  17.885  1.00  0.00    -0.337 N 
HETATM   14  C9  UNL     1      25.143   2.646  18.067  1.00  0.00     0.096 A 
ATOM     15  H2  UNL     1      23.626   3.999  18.117  1.00  0.00     0.168 HD
HETATM   16  C10 UNL     1      26.433   2.474  17.748  1.00  0.00     0.078 A 
HETATM   17  S3  UNL     1      24.421   1.104  18.707  1.00  0.00    -0.100 SA
HETATM   18  S1  UNL     1      26.857   4.030  17.189  1.00  0.00    -0.053 SA
HETATM   19  S2  UNL     1      27.102   0.864  18.009  1.00  0.00    -0.109 SA
HETATM   20  C11 UNL     1      25.691  -0.145  18.530  1.00  0.00     0.160 C 
ENDBRANCH   2  12
TORSDOF 4
ENDMDL
MODEL 5
REMARK VINA RESULT: -6.565689256      5.216      6.520
REMARK  4 active torsions:
REMARK  status: ('A' for Active; 'I' for Inactive)
REMARK    1  A    between atoms: C2_2  and  C4_4 
REMARK    2  A    between atoms: C4_4  and  N1_6 
REMARK    3  A    between atoms: C4_4  and  C6_10 
REMARK    4  A    between atoms: C7_11  and  C8_12 
ROOT
HETATM    1  C6  UNL     1      24.722   7.215  17.559  1.00  0.00    -0.060 C 
HETATM    2  C7  UNL     1      25.052   6.058  17.605  1.00  0.00    -0.038 C 
ENDROOT
BRANCH   1   3
HETATM    3  C4  UNL     1      24.344   8.627  17.505  1.00  0.00     0.185 C 
HETATM    4  C5  UNL     1      25.583   9.494  17.357  1.00  0.00     0.061 C 
BRANCH   3   5
HETATM    5  C2  UNL     1      23.424   8.807  16.294  1.00  0.00     0.025 C 
HETATM    6  C1  UNL     1      24.149   8.561  15.013  1.00  0.00     0.013 C 
HETATM    7  C3  UNL     1      22.830  10.191  16.365  1.00  0.00     0.013 C 
ENDBRANCH   3   5
BRANCH   3   8
HETATM    8  N1  UNL     1      23.629   8.941  18.709  1.00  0.00    -0.059 N 
ATOM      9  H13 UNL     1      24.247   9.294  19.441  1.00  0.00     0.276 HD
ATOM     10  H12 UNL     1      23.042   9.767  18.602  1.00  0.00     0.276 HD
ATOM     11  H11 UNL     1      23.096   8.128  19.017  1.00  0.00     0.276 HD
ENDBRANCH   3   8
ENDBRANCH   1   3
BRANCH   2  12
HETATM   12  C8  UNL     1      25.443   4.661  17.685  1.00  0.00     0.131 A 
HETATM   13  N2  UNL     1      24.712   3.648  18.109  1.00  0.00    -0.337 N 
HETATM   14  C9  UNL     1      25.230   2.437  18.114  1.00  0.00     0.096 A 
ATOM     15  H2  UNL     1      23.755   3.801  18.430  1.00  0.00     0.168 HD
HETATM   16  C10 UNL     1      26.489   2.282  17.683  1.00  0.00     0.078 A 
HETATM   17  S3  UNL     1      24.516   0.844  18.625  1.00  0.00    -0.100 SA
HETATM   18  S1  UNL     1      26.912   3.885  17.276  1.00  0.00    -0.053 SA
HETATM   19  S2  UNL     1      27.134   0.641  17.709  1.00  0.00    -0.109 SA
HETATM   20  C11 UNL     1      25.738  -0.398  18.213  1.00  0.00     0.160 C 
ENDBRANCH   2  12
TORSDOF 4
ENDMDL
