MODEL 1
REMARK VINA RESULT: -5.028210538      0.000      0.000
REMARK  5 active torsions:
REMARK  status: ('A' for Active; 'I' for Inactive)
REMARK    1  A    between atoms: C2_2  and  C3_3 
REMARK    2  A    between atoms: C3_3  and  C4_4 
REMARK    3  A    between atoms: C4_4  and  C5_5 
REMARK    4  A    between atoms: C6_6  and  C7_7 
REMARK    5  A    between atoms: C10_13  and  N3_14 
ROOT
HETATM    1  C7  UNL     1      -0.526  25.441  47.363  1.00  0.00     0.079 A 
HETATM    2  C8  UNL     1      -1.644  25.589  46.565  1.00  0.00     0.131 A 
HETATM    3  N1  UNL     1      -1.321  25.202  45.304  1.00  0.00    -0.307 N 
ATOM      4  H1  UNL     1      -1.957  25.206  44.506  1.00  0.00     0.186 HD
HETATM    5  N2  UNL     1      -0.055  24.818  45.267  1.00  0.00    -0.281 N 
HETATM    6  C9  UNL     1       0.639  24.338  44.076  1.00  0.00     0.179 C 
HETATM    7  C10 UNL     1       0.453  24.953  46.511  1.00  0.00     0.136 A 
ENDROOT
BRANCH   1   8
HETATM    8  C6  UNL     1      -0.388  25.726  48.778  1.00  0.00    -0.062 C 
HETATM    9  C5  UNL     1      -0.254  25.964  49.954  1.00  0.00    -0.101 C 
BRANCH   9  10
HETATM   10  C4  UNL     1      -0.066  26.246  51.390  1.00  0.00     0.094 C 
BRANCH  10  11
HETATM   11  C3  UNL     1      -0.237  24.955  52.134  1.00  0.00     0.012 C 
BRANCH  11  12
HETATM   12  C2  UNL     1       0.728  23.935  51.532  1.00  0.00    -0.004 C 
HETATM   13  C1  UNL     1       0.077  22.592  51.363  1.00  0.00     0.005 C 
ENDBRANCH  11  12
ENDBRANCH  10  11
ENDBRANCH   9  10
ENDBRANCH   1   8
BRANCH   7  14
HETATM   14  N3  UNL     1       1.665  24.667  46.830  1.00  0.00    -0.383 N 
ATOM     15  H32 UNL     1       2.298  25.309  47.307  1.00  0.00     0.157 HD
ATOM     16  H31 UNL     1       2.143  23.782  46.655  1.00  0.00     0.157 HD
ENDBRANCH   7  14
TORSDOF 5
ENDMDL
MODEL 2
REMARK VINA RESULT: -4.927024417      1.182      1.690
REMARK  5 active torsions:
REMARK  status: ('A' for Active; 'I' for Inactive)
REMARK    1  A    between atoms: C2_2  and  C3_3 
REMARK    2  A    between atoms: C3_3  and  C4_4 
REMARK    3  A    between atoms: C4_4  and  C5_5 
REMARK    4  A    between atoms: C6_6  and  C7_7 
REMARK    5  A    between atoms: C10_13  and  N3_14 
ROOT
HETATM    1  C7  UNL     1       0.030  25.316  46.656  1.00  0.00     0.079 A 
HETATM    2  C8  UNL     1       1.044  25.751  45.825  1.00  0.00     0.131 A 
HETATM    3  N1  UNL     1       0.792  25.292  44.571  1.00  0.00    -0.307 N 
ATOM      4  H1  UNL     1       1.378  25.462  43.754  1.00  0.00     0.186 HD
HETATM    5  N2  UNL     1      -0.329  24.589  44.572  1.00  0.00    -0.281 N 
HETATM    6  C9  UNL     1      -0.911  23.942  43.400  1.00  0.00     0.179 C 
HETATM    7  C10 UNL     1      -0.815  24.590  45.832  1.00  0.00     0.136 A 
ENDROOT
BRANCH   1   8
HETATM    8  C6  UNL     1      -0.132  25.558  48.077  1.00  0.00    -0.062 C 
HETATM    9  C5  UNL     1      -0.248  25.756  49.262  1.00  0.00    -0.101 C 
BRANCH   9  10
HETATM   10  C4  UNL     1      -0.366  25.987  50.714  1.00  0.00     0.094 C 
BRANCH  10  11
HETATM   11  C3  UNL     1       0.719  25.203  51.389  1.00  0.00     0.012 C 
BRANCH  11  12
HETATM   12  C2  UNL     1       0.065  24.035  52.127  1.00  0.00    -0.004 C 
HETATM   13  C1  UNL     1       0.145  22.764  51.331  1.00  0.00     0.005 C 
ENDBRANCH  11  12
ENDBRANCH  10  11
ENDBRANCH   9  10
ENDBRANCH   1   8
BRANCH   7  14
HETATM   14  N3  UNL     1      -1.899  23.996  46.187  1.00  0.00    -0.383 N 
ATOM     15  H32 UNL     1      -2.330  23.233  45.666  1.00  0.00     0.157 HD
ATOM     16  H31 UNL     1      -2.457  24.203  47.016  1.00  0.00     0.157 HD
ENDBRANCH   7  14
TORSDOF 5
ENDMDL
MODEL 3
REMARK VINA RESULT: -4.894356391      1.080      1.193
REMARK  5 active torsions:
REMARK  status: ('A' for Active; 'I' for Inactive)
REMARK    1  A    between atoms: C2_2  and  C3_3 
REMARK    2  A    between atoms: C3_3  and  C4_4 
REMARK    3  A    between atoms: C4_4  and  C5_5 
REMARK    4  A    between atoms: C6_6  and  C7_7 
REMARK    5  A    between atoms: C10_13  and  N3_14 
ROOT
HETATM    1  C7  UNL     1      -1.014  24.726  47.163  1.00  0.00     0.079 A 
HETATM    2  C8  UNL     1      -1.955  23.752  46.890  1.00  0.00     0.131 A 
HETATM    3  N1  UNL     1      -1.981  23.550  45.547  1.00  0.00    -0.307 N 
ATOM      4  H1  UNL     1      -2.584  22.884  45.064  1.00  0.00     0.186 HD
HETATM    5  N2  UNL     1      -1.104  24.349  44.960  1.00  0.00    -0.281 N 
HETATM    6  C9  UNL     1      -0.858  24.408  43.523  1.00  0.00     0.179 C 
HETATM    7  C10 UNL     1      -0.500  25.077  45.925  1.00  0.00     0.136 A 
ENDROOT
BRANCH   1   8
HETATM    8  C6  UNL     1      -0.635  25.273  48.452  1.00  0.00    -0.062 C 
HETATM    9  C5  UNL     1      -0.310  25.711  49.529  1.00  0.00    -0.101 C 
BRANCH   9  10
HETATM   10  C4  UNL     1       0.091  26.222  50.853  1.00  0.00     0.094 C 
BRANCH  10  11
HETATM   11  C3  UNL     1      -0.253  25.173  51.869  1.00  0.00     0.012 C 
BRANCH  11  12
HETATM   12  C2  UNL     1       0.655  23.969  51.626  1.00  0.00    -0.004 C 
HETATM   13  C1  UNL     1      -0.127  22.688  51.574  1.00  0.00     0.005 C 
ENDBRANCH  11  12
ENDBRANCH  10  11
ENDBRANCH   9  10
ENDBRANCH   1   8
BRANCH   7  14
HETATM   14  N3  UNL     1       0.411  25.957  45.700  1.00  0.00    -0.383 N 
ATOM     15  H32 UNL     1       0.229  26.955  45.600  1.00  0.00     0.157 HD
ATOM     16  H31 UNL     1       1.410  25.778  45.596  1.00  0.00     0.157 HD
ENDBRANCH   7  14
TORSDOF 5
ENDMDL
MODEL 4
REMARK VINA RESULT: -4.836152526      4.088      5.926
REMARK  5 active torsions:
REMARK  status: ('A' for Active; 'I' for Inactive)
REMARK    1  A    between atoms: C2_2  and  C3_3 
REMARK    2  A    between atoms: C3_3  and  C4_4 
REMARK    3  A    between atoms: C4_4  and  C5_5 
REMARK    4  A    between atoms: C6_6  and  C7_7 
REMARK    5  A    between atoms: C10_13  and  N3_14 
ROOT
HETATM    1  C7  UNL     1       1.370  23.515  50.523  1.00  0.00     0.079 A 
HETATM    2  C8  UNL     1       2.216  24.605  50.461  1.00  0.00     0.131 A 
HETATM    3  N1  UNL     1       1.576  25.672  51.008  1.00  0.00    -0.307 N 
ATOM      4  H1  UNL     1       1.966  26.610  51.095  1.00  0.00     0.186 HD
HETATM    5  N2  UNL     1       0.369  25.308  51.410  1.00  0.00    -0.281 N 
HETATM    6  C9  UNL     1      -0.602  26.192  52.045  1.00  0.00     0.179 C 
HETATM    7  C10 UNL     1       0.219  23.996  51.127  1.00  0.00     0.136 A 
ENDROOT
BRANCH   1   8
HETATM    8  C6  UNL     1       1.615  22.161  50.065  1.00  0.00    -0.062 C 
HETATM    9  C5  UNL     1       1.817  21.028  49.701  1.00  0.00    -0.101 C 
BRANCH   9  10
HETATM   10  C4  UNL     1       2.071  19.636  49.282  1.00  0.00     0.094 C 
BRANCH  10  11
HETATM   11  C3  UNL     1       2.791  18.947  50.403  1.00  0.00     0.012 C 
BRANCH  11  12
HETATM   12  C2  UNL     1       1.763  18.607  51.481  1.00  0.00    -0.004 C 
HETATM   13  C1  UNL     1       2.238  17.488  52.363  1.00  0.00     0.005 C 
ENDBRANCH  11  12
ENDBRANCH  10  11
ENDBRANCH   9  10
ENDBRANCH   1   8
BRANCH   7  14
HETATM   14  N3  UNL     1      -0.844  23.319  51.387  1.00  0.00    -0.383 N 
ATOM     15  H32 UNL     1      -1.126  23.036  52.325  1.00  0.00     0.157 HD
ATOM     16  H31 UNL     1      -1.528  22.984  50.708  1.00  0.00     0.157 HD
ENDBRANCH   7  14
TORSDOF 5
ENDMDL
MODEL 5
REMARK VINA RESULT: -4.828828456      1.462      1.667
REMARK  5 active torsions:
REMARK  status: ('A' for Active; 'I' for Inactive)
REMARK    1  A    between atoms: C2_2  and  C3_3 
REMARK    2  A    between atoms: C3_3  and  C4_4 
REMARK    3  A    between atoms: C4_4  and  C5_5 
REMARK    4  A    between atoms: C6_6  and  C7_7 
REMARK    5  A    between atoms: C10_13  and  N3_14 
ROOT
HETATM    1  C7  UNL     1      -1.117  24.632  46.992  1.00  0.00     0.079 A 
HETATM    2  C8  UNL     1      -2.047  23.666  46.660  1.00  0.00     0.131 A 
HETATM    3  N1  UNL     1      -2.011  23.487  45.314  1.00  0.00    -0.307 N 
ATOM      4  H1  UNL     1      -2.593  22.831  44.792  1.00  0.00     0.186 HD
HETATM    5  N2  UNL     1      -1.106  24.292  44.781  1.00  0.00    -0.281 N 
HETATM    6  C9  UNL     1      -0.793  24.374  43.359  1.00  0.00     0.179 C 
HETATM    7  C10 UNL     1      -0.545  25.001  45.785  1.00  0.00     0.136 A 
ENDROOT
BRANCH   1   8
HETATM    8  C6  UNL     1      -0.796  25.155  48.306  1.00  0.00    -0.062 C 
HETATM    9  C5  UNL     1      -0.514  25.578  49.401  1.00  0.00    -0.101 C 
BRANCH   9  10
HETATM   10  C4  UNL     1      -0.156  26.073  50.744  1.00  0.00     0.094 C 
BRANCH  10  11
HETATM   11  C3  UNL     1       0.764  25.067  51.369  1.00  0.00     0.012 C 
BRANCH  11  12
HETATM   12  C2  UNL     1       2.141  25.227  50.727  1.00  0.00    -0.004 C 
HETATM   13  C1  UNL     1       2.693  23.909  50.265  1.00  0.00     0.005 C 
ENDBRANCH  11  12
ENDBRANCH  10  11
ENDBRANCH   9  10
ENDBRANCH   1   8
BRANCH   7  14
HETATM   14  N3  UNL     1       0.378  25.881  45.618  1.00  0.00    -0.383 N 
ATOM     15  H32 UNL     1       0.422  26.519  44.823  1.00  0.00     0.157 HD
ATOM     16  H31 UNL     1       1.167  26.054  46.241  1.00  0.00     0.157 HD
ENDBRANCH   7  14
TORSDOF 5
ENDMDL
