MODEL 1
REMARK VINA RESULT: -5.612057675      0.000      0.000
REMARK  2 active torsions:
REMARK  status: ('A' for Active; 'I' for Inactive)
REMARK    1  A    between atoms: C3_3  and  C4_4 
REMARK    2  A    between atoms: C4_4  and  N1_5 
ROOT
HETATM    1  N1  UNL     1       0.141  25.187  47.467  1.00  0.00    -0.222 N 
ATOM      2  H1  UNL     1      -0.051  26.133  47.798  1.00  0.00     0.178 HD
HETATM    3  C5  UNL     1       0.761  25.073  46.362  1.00  0.00     0.678 A 
HETATM    4  N2  UNL     1       1.178  26.097  45.604  1.00  0.00    -0.201 N 
ATOM      5  H2  UNL     1       1.057  27.089  45.807  1.00  0.00     0.183 HD
HETATM    6  C6  UNL     1       1.786  25.572  44.527  1.00  0.00     0.123 A 
HETATM    7  C7  UNL     1       1.755  24.199  44.602  1.00  0.00     0.123 A 
HETATM    8  N3  UNL     1       1.106  23.922  45.764  1.00  0.00    -0.201 N 
ATOM      9  H3  UNL     1       0.912  22.987  46.124  1.00  0.00     0.183 HD
ENDROOT
BRANCH   1  10
HETATM   10  C4  UNL     1      -0.310  24.106  48.286  1.00  0.00     0.176 C 
BRANCH  10  11
HETATM   11  C3  UNL     1      -0.275  24.496  49.735  1.00  0.00    -0.037 A 
HETATM   12  C2  UNL     1      -0.031  23.586  50.737  1.00  0.00     0.025 A 
HETATM   13  C1  UNL     1      -0.010  23.997  52.057  1.00  0.00     0.088 A 
HETATM   14  N4  UNL     1      -0.221  25.276  52.418  1.00  0.00    -0.375 N 
HETATM   15  C9  UNL     1      -0.461  26.179  51.451  1.00  0.00     0.088 A 
ATOM     16  H4  UNL     1      -0.199  25.554  53.398  1.00  0.00     0.164 HD
HETATM   17  C8  UNL     1      -0.490  25.805  50.122  1.00  0.00     0.025 A 
ENDBRANCH  10  11
ENDBRANCH   1  10
TORSDOF 2
ENDMDL
MODEL 2
REMARK VINA RESULT: -5.592941816      0.042      1.292
REMARK  2 active torsions:
REMARK  status: ('A' for Active; 'I' for Inactive)
REMARK    1  A    between atoms: C3_3  and  C4_4 
REMARK    2  A    between atoms: C4_4  and  N1_5 
ROOT
HETATM    1  N1  UNL     1       0.130  25.226  47.442  1.00  0.00    -0.222 N 
ATOM      2  H1  UNL     1      -0.050  26.177  47.765  1.00  0.00     0.178 HD
HETATM    3  C5  UNL     1       0.754  25.095  46.341  1.00  0.00     0.678 A 
HETATM    4  N2  UNL     1       1.190  26.108  45.579  1.00  0.00    -0.201 N 
ATOM      5  H2  UNL     1       1.082  27.103  45.774  1.00  0.00     0.183 HD
HETATM    6  C6  UNL     1       1.796  25.565  44.508  1.00  0.00     0.123 A 
HETATM    7  C7  UNL     1       1.745  24.194  44.594  1.00  0.00     0.123 A 
HETATM    8  N3  UNL     1       1.085  23.934  45.754  1.00  0.00    -0.201 N 
ATOM      9  H3  UNL     1       0.876  23.005  46.119  1.00  0.00     0.183 HD
ENDROOT
BRANCH   1  10
HETATM   10  C4  UNL     1      -0.341  24.157  48.266  1.00  0.00     0.176 C 
BRANCH  10  11
HETATM   11  C3  UNL     1      -0.301  24.554  49.714  1.00  0.00    -0.037 A 
HETATM   12  C2  UNL     1      -0.496  25.852  50.126  1.00  0.00     0.025 A 
HETATM   13  C1  UNL     1      -0.449  26.165  51.472  1.00  0.00     0.088 A 
HETATM   14  N4  UNL     1      -0.217  25.240  52.421  1.00  0.00    -0.375 N 
HETATM   15  C9  UNL     1      -0.024  23.967  52.035  1.00  0.00     0.088 A 
ATOM     16  H4  UNL     1      -0.188  25.498  53.407  1.00  0.00     0.164 HD
HETATM   17  C8  UNL     1      -0.063  23.616  50.700  1.00  0.00     0.025 A 
ENDBRANCH  10  11
ENDBRANCH   1  10
TORSDOF 2
ENDMDL
MODEL 3
REMARK VINA RESULT: -5.537246832      1.127      1.715
REMARK  2 active torsions:
REMARK  status: ('A' for Active; 'I' for Inactive)
REMARK    1  A    between atoms: C3_3  and  C4_4 
REMARK    2  A    between atoms: C4_4  and  N1_5 
ROOT
HETATM    1  N1  UNL     1       0.361  25.074  47.454  1.00  0.00    -0.222 N 
ATOM      2  H1  UNL     1      -0.228  25.863  47.720  1.00  0.00     0.178 HD
HETATM    3  C5  UNL     1       0.273  24.661  46.254  1.00  0.00     0.678 A 
HETATM    4  N2  UNL     1      -0.533  25.182  45.318  1.00  0.00    -0.201 N 
ATOM      5  H2  UNL     1      -1.174  25.967  45.439  1.00  0.00     0.183 HD
HETATM    6  C6  UNL     1      -0.339  24.477  44.191  1.00  0.00     0.123 A 
HETATM    7  C7  UNL     1       0.601  23.498  44.413  1.00  0.00     0.123 A 
HETATM    8  N3  UNL     1       0.962  23.642  45.716  1.00  0.00    -0.201 N 
ATOM      9  H3  UNL     1       1.648  23.068  46.205  1.00  0.00     0.183 HD
ENDROOT
BRANCH   1  10
HETATM   10  C4  UNL     1       1.215  24.529  48.463  1.00  0.00     0.176 C 
BRANCH  10  11
HETATM   11  C3  UNL     1       0.648  24.792  49.828  1.00  0.00    -0.037 A 
HETATM   12  C2  UNL     1       0.055  25.988  50.160  1.00  0.00     0.025 A 
HETATM   13  C1  UNL     1      -0.452  26.180  51.432  1.00  0.00     0.088 A 
HETATM   14  N4  UNL     1      -0.393  25.230  52.384  1.00  0.00    -0.375 N 
HETATM   15  C9  UNL     1       0.183  24.055  52.076  1.00  0.00     0.088 A 
ATOM     16  H4  UNL     1      -0.775  25.397  53.314  1.00  0.00     0.164 HD
HETATM   17  C8  UNL     1       0.701  23.827  50.816  1.00  0.00     0.025 A 
ENDBRANCH  10  11
ENDBRANCH   1  10
TORSDOF 2
ENDMDL
MODEL 4
REMARK VINA RESULT: -5.434469864      4.339      6.067
REMARK  2 active torsions:
REMARK  status: ('A' for Active; 'I' for Inactive)
REMARK    1  A    between atoms: C3_3  and  C4_4 
REMARK    2  A    between atoms: C4_4  and  N1_5 
ROOT
HETATM    1  N1  UNL     1       0.522  20.351  50.983  1.00  0.00    -0.222 N 
ATOM      2  H1  UNL     1      -0.255  20.455  51.636  1.00  0.00     0.178 HD
HETATM    3  C5  UNL     1       1.325  19.384  51.184  1.00  0.00     0.678 A 
HETATM    4  N2  UNL     1       1.225  18.497  52.185  1.00  0.00    -0.201 N 
ATOM      5  H2  UNL     1       0.506  18.477  52.907  1.00  0.00     0.183 HD
HETATM    6  C6  UNL     1       2.251  17.638  52.056  1.00  0.00     0.123 A 
HETATM    7  C7  UNL     1       3.009  17.984  50.962  1.00  0.00     0.123 A 
HETATM    8  N3  UNL     1       2.400  19.081  50.440  1.00  0.00    -0.201 N 
ATOM      9  H3  UNL     1       2.711  19.593  49.614  1.00  0.00     0.183 HD
ENDROOT
BRANCH   1  10
HETATM   10  C4  UNL     1       0.615  21.304  49.922  1.00  0.00     0.176 C 
BRANCH  10  11
HETATM   11  C3  UNL     1       0.751  22.693  50.476  1.00  0.00    -0.037 A 
HETATM   12  C2  UNL     1      -0.114  23.197  51.420  1.00  0.00     0.025 A 
HETATM   13  C1  UNL     1       0.055  24.483  51.898  1.00  0.00     0.088 A 
HETATM   14  N4  UNL     1       1.048  25.285  51.475  1.00  0.00    -0.375 N 
HETATM   15  C9  UNL     1       1.902  24.809  50.552  1.00  0.00     0.088 A 
ATOM     16  H4  UNL     1       1.151  26.230  51.844  1.00  0.00     0.164 HD
HETATM   17  C8  UNL     1       1.765  23.530  50.051  1.00  0.00     0.025 A 
ENDBRANCH  10  11
ENDBRANCH   1  10
TORSDOF 2
ENDMDL
MODEL 5
REMARK VINA RESULT: -5.429692122      0.706      1.235
REMARK  2 active torsions:
REMARK  status: ('A' for Active; 'I' for Inactive)
REMARK    1  A    between atoms: C3_3  and  C4_4 
REMARK    2  A    between atoms: C4_4  and  N1_5 
ROOT
HETATM    1  N1  UNL     1      -0.035  24.649  47.394  1.00  0.00    -0.222 N 
ATOM      2  H1  UNL     1      -0.332  23.699  47.619  1.00  0.00     0.178 HD
HETATM    3  C5  UNL     1       0.691  24.800  46.360  1.00  0.00     0.678 A 
HETATM    4  N2  UNL     1       1.093  23.810  45.550  1.00  0.00    -0.201 N 
ATOM      5  H2  UNL     1       0.875  22.819  45.651  1.00  0.00     0.183 HD
HETATM    6  C6  UNL     1       1.837  24.369  44.580  1.00  0.00     0.123 A 
HETATM    7  C7  UNL     1       1.907  25.728  44.776  1.00  0.00     0.123 A 
HETATM    8  N3  UNL     1       1.178  25.963  45.899  1.00  0.00    -0.201 N 
ATOM      9  H3  UNL     1       1.026  26.878  46.324  1.00  0.00     0.183 HD
ENDROOT
BRANCH   1  10
HETATM   10  C4  UNL     1      -0.472  25.694  48.266  1.00  0.00     0.176 C 
BRANCH  10  11
HETATM   11  C3  UNL     1      -0.374  25.254  49.699  1.00  0.00    -0.037 A 
HETATM   12  C2  UNL     1      -0.313  23.928  50.060  1.00  0.00     0.025 A 
HETATM   13  C1  UNL     1      -0.225  23.577  51.394  1.00  0.00     0.088 A 
HETATM   14  N4  UNL     1      -0.193  24.491  52.381  1.00  0.00    -0.375 N 
HETATM   15  C9  UNL     1      -0.252  25.792  52.046  1.00  0.00     0.088 A 
ATOM     16  H4  UNL     1      -0.127  24.205  53.357  1.00  0.00     0.164 HD
HETATM   17  C8  UNL     1      -0.341  26.181  50.724  1.00  0.00     0.025 A 
ENDBRANCH  10  11
ENDBRANCH   1  10
TORSDOF 2
ENDMDL
