MODEL 1
REMARK VINA RESULT: -5.239119531      0.000      0.000
REMARK  3 active torsions:
REMARK  status: ('A' for Active; 'I' for Inactive)
REMARK    1  A    between atoms: C2_2  and  C3_3 
REMARK    2  A    between atoms: C3_3  and  N1_4 
REMARK    3  A    between atoms: N1_4  and  C4_6 
ROOT
HETATM    1  C4  UNL     1       0.488  25.090  46.619  1.00  0.00     0.139 A 
HETATM    2  N2  UNL     1       1.607  24.657  47.201  1.00  0.00    -0.284 N 
ATOM      3  H2  UNL     1       2.515  24.611  46.738  1.00  0.00     0.188 HD
HETATM    4  N3  UNL     1       1.392  24.294  48.457  1.00  0.00    -0.302 N 
ATOM      5  H3  UNL     1       2.081  23.930  49.116  1.00  0.00     0.186 HD
HETATM    6  C5  UNL     1       0.088  24.500  48.691  1.00  0.00     0.046 A 
HETATM    7  C6  UNL     1      -0.617  24.240  49.957  1.00  0.00     0.071 C 
HETATM    8  C7  UNL     1      -0.528  25.007  47.548  1.00  0.00     0.113 A 
HETATM    9  C8  UNL     1      -1.921  25.361  47.391  1.00  0.00     0.105 C 
HETATM   10  N4  UNL     1      -3.033  25.648  47.281  1.00  0.00    -0.191 NA
ENDROOT
BRANCH   1  11
HETATM   11  N1  UNL     1       0.325  25.519  45.410  1.00  0.00    -0.374 N 
ATOM     12  H1  UNL     1       0.138  26.510  45.254  1.00  0.00     0.161 HD
BRANCH  11  13
HETATM   13  C3  UNL     1       0.401  24.627  44.271  1.00  0.00     0.121 C 
BRANCH  13  14
HETATM   14  C2  UNL     1      -0.967  24.284  43.718  1.00  0.00     0.015 C 
HETATM   15  C1  UNL     1      -0.787  23.007  42.901  1.00  0.00     0.006 C 
ENDBRANCH  13  14
ENDBRANCH  11  13
ENDBRANCH   1  11
TORSDOF 3
ENDMDL
MODEL 2
REMARK VINA RESULT: -5.216603236      1.345      4.651
REMARK  3 active torsions:
REMARK  status: ('A' for Active; 'I' for Inactive)
REMARK    1  A    between atoms: C2_2  and  C3_3 
REMARK    2  A    between atoms: C3_3  and  N1_4 
REMARK    3  A    between atoms: N1_4  and  C4_6 
ROOT
HETATM    1  C4  UNL     1       0.140  24.711  48.509  1.00  0.00     0.139 A 
HETATM    2  N2  UNL     1       1.381  24.469  48.083  1.00  0.00    -0.284 N 
ATOM      3  H2  UNL     1       2.173  24.284  48.698  1.00  0.00     0.188 HD
HETATM    4  N3  UNL     1       1.455  24.500  46.760  1.00  0.00    -0.302 N 
ATOM      5  H3  UNL     1       2.287  24.347  46.190  1.00  0.00     0.186 HD
HETATM    6  C5  UNL     1       0.218  24.772  46.320  1.00  0.00     0.046 A 
HETATM    7  C6  UNL     1      -0.190  24.906  44.912  1.00  0.00     0.071 C 
HETATM    8  C7  UNL     1      -0.653  24.914  47.399  1.00  0.00     0.113 A 
HETATM    9  C8  UNL     1      -2.067  25.208  47.346  1.00  0.00     0.105 C 
HETATM   10  N4  UNL     1      -3.197  25.434  47.290  1.00  0.00    -0.191 NA
ENDROOT
BRANCH   1  11
HETATM   11  N1  UNL     1      -0.298  24.759  49.725  1.00  0.00    -0.374 N 
ATOM     12  H1  UNL     1      -0.773  23.946  50.116  1.00  0.00     0.161 HD
BRANCH  11  13
HETATM   13  C3  UNL     1      -0.128  25.941  50.546  1.00  0.00     0.121 C 
BRANCH  13  14
HETATM   14  C2  UNL     1      -0.146  25.618  52.027  1.00  0.00     0.015 C 
HETATM   15  C1  UNL     1       0.169  24.128  52.140  1.00  0.00     0.006 C 
ENDBRANCH  13  14
ENDBRANCH  11  13
ENDBRANCH   1  11
TORSDOF 3
ENDMDL
MODEL 3
REMARK VINA RESULT: -5.181591289      1.643      4.367
REMARK  3 active torsions:
REMARK  status: ('A' for Active; 'I' for Inactive)
REMARK    1  A    between atoms: C2_2  and  C3_3 
REMARK    2  A    between atoms: C3_3  and  N1_4 
REMARK    3  A    between atoms: N1_4  and  C4_6 
ROOT
HETATM    1  C4  UNL     1       0.407  24.965  47.797  1.00  0.00     0.139 A 
HETATM    2  N2  UNL     1       1.505  24.617  47.123  1.00  0.00    -0.284 N 
ATOM      3  H2  UNL     1       2.435  24.549  47.537  1.00  0.00     0.188 HD
HETATM    4  N3  UNL     1       1.235  24.371  45.849  1.00  0.00    -0.302 N 
ATOM      5  H3  UNL     1       1.898  24.087  45.127  1.00  0.00     0.186 HD
HETATM    6  C5  UNL     1      -0.082  24.568  45.698  1.00  0.00     0.046 A 
HETATM    7  C6  UNL     1      -0.843  24.414  44.447  1.00  0.00     0.071 C 
HETATM    8  C7  UNL     1      -0.651  24.949  46.913  1.00  0.00     0.113 A 
HETATM    9  C8  UNL     1      -2.041  25.252  47.168  1.00  0.00     0.105 C 
HETATM   10  N4  UNL     1      -3.155  25.483  47.362  1.00  0.00    -0.191 NA
ENDROOT
BRANCH   1  11
HETATM   11  N1  UNL     1       0.296  25.274  49.048  1.00  0.00    -0.374 N 
ATOM     12  H1  UNL     1      -0.248  26.096  49.311  1.00  0.00     0.161 HD
BRANCH  11  13
HETATM   13  C3  UNL     1       0.923  24.479  50.085  1.00  0.00     0.121 C 
BRANCH  13  14
HETATM   14  C2  UNL     1       2.097  25.194  50.723  1.00  0.00     0.015 C 
HETATM   15  C1  UNL     1       3.344  24.415  50.310  1.00  0.00     0.006 C 
ENDBRANCH  13  14
ENDBRANCH  11  13
ENDBRANCH   1  11
TORSDOF 3
ENDMDL
MODEL 4
REMARK VINA RESULT: -5.150126068      4.763      6.354
REMARK  3 active torsions:
REMARK  status: ('A' for Active; 'I' for Inactive)
REMARK    1  A    between atoms: C2_2  and  C3_3 
REMARK    2  A    between atoms: C3_3  and  N1_4 
REMARK    3  A    between atoms: N1_4  and  C4_6 
ROOT
HETATM    1  C4  UNL     1      -1.672  22.653  50.543  1.00  0.00     0.139 A 
HETATM    2  N2  UNL     1      -2.225  23.510  49.684  1.00  0.00    -0.284 N 
ATOM      3  H2  UNL     1      -2.042  24.514  49.675  1.00  0.00     0.188 HD
HETATM    4  N3  UNL     1      -3.042  22.894  48.841  1.00  0.00    -0.302 N 
ATOM      5  H3  UNL     1      -3.584  23.323  48.091  1.00  0.00     0.186 HD
HETATM    6  C5  UNL     1      -3.014  21.595  49.171  1.00  0.00     0.046 A 
HETATM    7  C6  UNL     1      -3.769  20.518  48.510  1.00  0.00     0.071 C 
HETATM    8  C7  UNL     1      -2.155  21.394  50.250  1.00  0.00     0.113 A 
HETATM    9  C8  UNL     1      -1.850  20.140  50.901  1.00  0.00     0.105 C 
HETATM   10  N4  UNL     1      -1.608  19.132  51.407  1.00  0.00    -0.191 NA
ENDROOT
BRANCH   1  11
HETATM   11  N1  UNL     1      -0.833  22.898  51.496  1.00  0.00    -0.374 N 
ATOM     12  H1  UNL     1      -0.917  22.389  52.376  1.00  0.00     0.161 HD
BRANCH  11  13
HETATM   13  C3  UNL     1       0.223  23.878  51.344  1.00  0.00     0.121 C 
BRANCH  13  14
HETATM   14  C2  UNL     1      -0.049  25.142  52.135  1.00  0.00     0.015 C 
HETATM   15  C1  UNL     1      -0.295  26.243  51.105  1.00  0.00     0.006 C 
ENDBRANCH  13  14
ENDBRANCH  11  13
ENDBRANCH   1  11
TORSDOF 3
ENDMDL
MODEL 5
REMARK VINA RESULT: -5.057744009      3.863      5.657
REMARK  3 active torsions:
REMARK  status: ('A' for Active; 'I' for Inactive)
REMARK    1  A    between atoms: C2_2  and  C3_3 
REMARK    2  A    between atoms: C3_3  and  N1_4 
REMARK    3  A    between atoms: N1_4  and  C4_6 
ROOT
HETATM    1  C4  UNL     1      -2.084  22.795  49.885  1.00  0.00     0.139 A 
HETATM    2  N2  UNL     1      -2.120  21.539  50.335  1.00  0.00    -0.284 N 
ATOM      3  H2  UNL     1      -1.536  21.184  51.092  1.00  0.00     0.188 HD
HETATM    4  N3  UNL     1      -3.009  20.812  49.674  1.00  0.00    -0.302 N 
ATOM      5  H3  UNL     1      -3.228  19.827  49.825  1.00  0.00     0.186 HD
HETATM    6  C5  UNL     1      -3.564  21.628  48.767  1.00  0.00     0.046 A 
HETATM    7  C6  UNL     1      -4.610  21.262  47.798  1.00  0.00     0.071 C 
HETATM    8  C7  UNL     1      -3.006  22.902  48.864  1.00  0.00     0.113 A 
HETATM    9  C8  UNL     1      -3.334  24.061  48.066  1.00  0.00     0.105 C 
HETATM   10  N4  UNL     1      -3.610  24.982  47.429  1.00  0.00    -0.191 NA
ENDROOT
BRANCH   1  11
HETATM   11  N1  UNL     1      -1.343  23.774  50.291  1.00  0.00    -0.374 N 
ATOM     12  H1  UNL     1      -1.506  24.709  49.918  1.00  0.00     0.161 HD
BRANCH  11  13
HETATM   13  C3  UNL     1      -0.288  23.574  51.263  1.00  0.00     0.121 C 
BRANCH  13  14
HETATM   14  C2  UNL     1       0.035  24.842  52.028  1.00  0.00     0.015 C 
HETATM   15  C1  UNL     1      -0.300  26.000  51.091  1.00  0.00     0.006 C 
ENDBRANCH  13  14
ENDBRANCH  11  13
ENDBRANCH   1  11
TORSDOF 3
ENDMDL
