MODEL 1
REMARK VINA RESULT: -9.095556003      0.000      0.000
REMARK  12 active torsions:
REMARK  status: ('A' for Active; 'I' for Inactive)
REMARK       I    between atoms: N1_2  and  C2_4 
REMARK    1  A    between atoms: C2_4  and  C3_6 
REMARK    2  A    between atoms: C5_8  and  C6_9 
REMARK    3  A    between atoms: C6_9  and  C7_10 
REMARK       I    between atoms: C7_10  and  N2_12 
REMARK    4  A    between atoms: N2_12  and  C8_14 
REMARK    5  A    between atoms: C9_19  and  C10_20 
REMARK    6  A    between atoms: C10_20  and  C11_21 
REMARK    7  A    between atoms: C11_21  and  C12_22 
REMARK    8  A    between atoms: C12_22  and  C13_23 
REMARK    9  A    between atoms: C13_23  and  C14_24 
REMARK       I    between atoms: N7_30  and  C16_32 
REMARK   10  A    between atoms: C16_32  and  C17_34 
REMARK   11  A    between atoms: C17_34  and  C18_35 
REMARK   12  A    between atoms: C18_35  and  C19_36 
ROOT
HETATM    1  C8  UNL     1      11.968  18.039  16.258  1.00  0.00     0.167 A 
HETATM    2  N3  UNL     1      11.947  17.594  17.517  1.00  0.00    -0.279 N 
ATOM      3  H3  UNL     1      12.817  17.397  18.011  1.00  0.00     0.189 HD
HETATM    4  N4  UNL     1      10.831  17.422  18.086  1.00  0.00    -0.296 N 
ATOM      5  H4  UNL     1      10.808  17.083  19.048  1.00  0.00     0.187 HD
HETATM    6  C9  UNL     1       9.695  17.671  17.461  1.00  0.00     0.069 A 
HETATM    7  S2  UNL     1      10.301  18.200  15.920  1.00  0.00    -0.038 SA
ENDROOT
BRANCH   6   8
HETATM    8  C10 UNL     1       8.265  17.564  17.885  1.00  0.00     0.066 C 
BRANCH   8   9
HETATM    9  C11 UNL     1       8.130  17.202  19.330  1.00  0.00     0.007 C 
BRANCH   9  10
HETATM   10  C12 UNL     1       7.886  18.416  20.169  1.00  0.00     0.007 C 
BRANCH  10  11
HETATM   11  C13 UNL     1       8.962  18.699  21.187  1.00  0.00     0.066 C 
BRANCH  11  12
HETATM   12  C14 UNL     1      10.081  19.502  20.645  1.00  0.00     0.069 A 
HETATM   13  N5  UNL     1      11.365  19.292  20.785  1.00  0.00    -0.296 N 
HETATM   14  N6  UNL     1      12.228  20.070  20.270  1.00  0.00    -0.279 N 
ATOM     15  H5  UNL     1      11.681  18.484  21.322  1.00  0.00     0.187 HD
HETATM   16  C15 UNL     1      11.817  21.124  19.570  1.00  0.00     0.167 A 
ATOM     17  H6  UNL     1      13.224  19.889  20.391  1.00  0.00     0.189 HD
HETATM   18  N7  UNL     1      12.431  22.068  18.949  1.00  0.00    -0.306 N 
HETATM   19  S1  UNL     1      10.086  20.924  19.700  1.00  0.00    -0.038 SA
HETATM   20  C16 UNL     1      13.802  22.236  18.845  1.00  0.00     0.223 C 
ATOM     21  H7  UNL     1      11.849  22.765  18.485  1.00  0.00     0.171 HD
HETATM   22  O3  UNL     1      14.607  21.603  19.551  1.00  0.00    -0.273 OA
BRANCH  20  23
HETATM   23  C17 UNL     1      14.429  23.197  17.874  1.00  0.00     0.104 C 
BRANCH  23  24
HETATM   24  C18 UNL     1      15.736  23.726  18.373  1.00  0.00     0.017 C 
BRANCH  24  25
HETATM   25  C19 UNL     1      15.624  25.095  18.977  1.00  0.00    -0.051 C 
HETATM   26  C20 UNL     1      16.759  25.944  18.401  1.00  0.00     0.014 C 
HETATM   27  C21 UNL     1      14.336  25.792  18.675  1.00  0.00     0.014 C 
HETATM   28  C22 UNL     1      15.862  24.999  20.476  1.00  0.00     0.014 C 
ENDBRANCH  24  25
ENDBRANCH  23  24
ENDBRANCH  20  23
ENDBRANCH  11  12
ENDBRANCH  10  11
ENDBRANCH   9  10
ENDBRANCH   8   9
ENDBRANCH   6   8
BRANCH   1  29
HETATM   29  N2  UNL     1      13.019  18.273  15.516  1.00  0.00    -0.306 N 
HETATM   30  C7  UNL     1      13.814  19.403  15.831  1.00  0.00     0.229 C 
HETATM   31  O2  UNL     1      13.372  20.279  16.581  1.00  0.00    -0.273 OA
ATOM     32  H2  UNL     1      13.260  17.661  14.736  1.00  0.00     0.171 HD
BRANCH  30  33
HETATM   33  C6  UNL     1      15.159  19.481  15.236  1.00  0.00     0.160 C 
BRANCH  33  34
HETATM   34  C5  UNL     1      15.490  20.848  14.766  1.00  0.00     0.020 A 
HETATM   35  C4  UNL     1      16.516  21.659  15.199  1.00  0.00     0.044 A 
HETATM   36  C3  UNL     1      16.495  22.858  14.522  1.00  0.00     0.049 A 
HETATM   37  C24 UNL     1      15.409  22.755  13.649  1.00  0.00     0.107 A 
HETATM   38  N8  UNL     1      14.825  21.555  13.808  1.00  0.00    -0.363 N 
HETATM   39  C23 UNL     1      13.665  21.087  13.072  1.00  0.00     0.155 C 
BRANCH  36  40
HETATM   40  C2  UNL     1      17.391  24.013  14.654  1.00  0.00     0.252 C 
HETATM   41  N1  UNL     1      17.383  24.989  13.639  1.00  0.00    -0.361 N 
HETATM   42  C1  UNL     1      18.250  26.140  13.731  1.00  0.00     0.149 C 
ATOM     43  H1  UNL     1      16.762  24.883  12.837  1.00  0.00     0.162 HD
HETATM   44  O1  UNL     1      18.154  24.136  15.649  1.00  0.00    -0.268 OA
ENDBRANCH  36  40
ENDBRANCH  33  34
ENDBRANCH  30  33
ENDBRANCH   1  29
TORSDOF 12
ENDMDL
MODEL 2
REMARK VINA RESULT: -8.942413209      1.097      1.332
REMARK  12 active torsions:
REMARK  status: ('A' for Active; 'I' for Inactive)
REMARK       I    between atoms: N1_2  and  C2_4 
REMARK    1  A    between atoms: C2_4  and  C3_6 
REMARK    2  A    between atoms: C5_8  and  C6_9 
REMARK    3  A    between atoms: C6_9  and  C7_10 
REMARK       I    between atoms: C7_10  and  N2_12 
REMARK    4  A    between atoms: N2_12  and  C8_14 
REMARK    5  A    between atoms: C9_19  and  C10_20 
REMARK    6  A    between atoms: C10_20  and  C11_21 
REMARK    7  A    between atoms: C11_21  and  C12_22 
REMARK    8  A    between atoms: C12_22  and  C13_23 
REMARK    9  A    between atoms: C13_23  and  C14_24 
REMARK       I    between atoms: N7_30  and  C16_32 
REMARK   10  A    between atoms: C16_32  and  C17_34 
REMARK   11  A    between atoms: C17_34  and  C18_35 
REMARK   12  A    between atoms: C18_35  and  C19_36 
ROOT
HETATM    1  C8  UNL     1      12.010  18.796  16.164  1.00  0.00     0.167 A 
HETATM    2  N3  UNL     1      11.196  19.847  16.286  1.00  0.00    -0.279 N 
ATOM      3  H3  UNL     1      11.508  20.779  16.011  1.00  0.00     0.189 HD
HETATM    4  N4  UNL     1      10.032  19.670  16.748  1.00  0.00    -0.296 N 
ATOM      5  H4  UNL     1       9.405  20.469  16.843  1.00  0.00     0.187 HD
HETATM    6  C9  UNL     1       9.613  18.472  17.111  1.00  0.00     0.069 A 
HETATM    7  S2  UNL     1      11.026  17.527  16.748  1.00  0.00    -0.038 SA
ENDROOT
BRANCH   6   8
HETATM    8  C10 UNL     1       8.315  17.983  17.670  1.00  0.00     0.066 C 
BRANCH   8   9
HETATM    9  C11 UNL     1       8.501  17.222  18.944  1.00  0.00     0.007 C 
BRANCH   9  10
HETATM   10  C12 UNL     1       8.094  18.042  20.127  1.00  0.00     0.007 C 
BRANCH  10  11
HETATM   11  C13 UNL     1       9.201  18.300  21.119  1.00  0.00     0.066 C 
BRANCH  11  12
HETATM   12  C14 UNL     1      10.304  19.115  20.562  1.00  0.00     0.069 A 
HETATM   13  N5  UNL     1      11.493  18.715  20.191  1.00  0.00    -0.296 N 
HETATM   14  N6  UNL     1      12.357  19.527  19.732  1.00  0.00    -0.279 N 
ATOM     15  H5  UNL     1      11.733  17.727  20.272  1.00  0.00     0.187 HD
HETATM   16  C15 UNL     1      12.045  20.816  19.627  1.00  0.00     0.167 A 
ATOM     17  H6  UNL     1      13.278  19.195  19.448  1.00  0.00     0.189 HD
HETATM   18  N7  UNL     1      12.689  21.851  19.216  1.00  0.00    -0.306 N 
HETATM   19  S1  UNL     1      10.408  20.789  20.236  1.00  0.00    -0.038 SA
HETATM   20  C16 UNL     1      13.988  21.883  18.736  1.00  0.00     0.223 C 
ATOM     21  H7  UNL     1      12.191  22.741  19.247  1.00  0.00     0.171 HD
HETATM   22  O3  UNL     1      14.770  20.925  18.867  1.00  0.00    -0.273 OA
BRANCH  20  23
HETATM   23  C17 UNL     1      14.558  23.075  18.021  1.00  0.00     0.104 C 
BRANCH  23  24
HETATM   24  C18 UNL     1      15.838  23.541  18.639  1.00  0.00     0.017 C 
BRANCH  24  25
HETATM   25  C19 UNL     1      15.713  24.874  19.315  1.00  0.00    -0.051 C 
HETATM   26  C20 UNL     1      15.411  24.613  20.791  1.00  0.00     0.014 C 
HETATM   27  C21 UNL     1      16.949  25.713  19.245  1.00  0.00     0.014 C 
HETATM   28  C22 UNL     1      14.513  25.612  18.743  1.00  0.00     0.014 C 
ENDBRANCH  24  25
ENDBRANCH  23  24
ENDBRANCH  20  23
ENDBRANCH  11  12
ENDBRANCH  10  11
ENDBRANCH   9  10
ENDBRANCH   8   9
ENDBRANCH   6   8
BRANCH   1  29
HETATM   29  N2  UNL     1      13.236  18.790  15.710  1.00  0.00    -0.306 N 
HETATM   30  C7  UNL     1      13.882  20.039  15.530  1.00  0.00     0.229 C 
HETATM   31  O2  UNL     1      13.220  21.081  15.526  1.00  0.00    -0.273 OA
ATOM     32  H2  UNL     1      13.713  17.915  15.493  1.00  0.00     0.171 HD
BRANCH  30  33
HETATM   33  C6  UNL     1      15.345  20.033  15.353  1.00  0.00     0.160 C 
BRANCH  33  34
HETATM   34  C5  UNL     1      15.840  21.274  14.708  1.00  0.00     0.020 A 
HETATM   35  C4  UNL     1      16.669  22.229  15.252  1.00  0.00     0.044 A 
HETATM   36  C3  UNL     1      16.901  23.234  14.339  1.00  0.00     0.049 A 
HETATM   37  C24 UNL     1      16.178  22.859  13.204  1.00  0.00     0.107 A 
HETATM   38  N8  UNL     1      15.554  21.693  13.441  1.00  0.00    -0.363 N 
HETATM   39  C23 UNL     1      14.708  20.991  12.495  1.00  0.00     0.155 C 
BRANCH  36  40
HETATM   40  C2  UNL     1      17.718  24.446  14.483  1.00  0.00     0.252 C 
HETATM   41  N1  UNL     1      17.725  25.108  15.725  1.00  0.00    -0.361 N 
HETATM   42  C1  UNL     1      18.514  26.303  15.907  1.00  0.00     0.149 C 
ATOM     43  H1  UNL     1      17.171  24.743  16.499  1.00  0.00     0.162 HD
HETATM   44  O1  UNL     1      18.400  24.891  13.522  1.00  0.00    -0.268 OA
ENDBRANCH  36  40
ENDBRANCH  33  34
ENDBRANCH  30  33
ENDBRANCH   1  29
TORSDOF 12
ENDMDL
MODEL 3
REMARK VINA RESULT: -8.744371070      2.130      3.510
REMARK  12 active torsions:
REMARK  status: ('A' for Active; 'I' for Inactive)
REMARK       I    between atoms: N1_2  and  C2_4 
REMARK    1  A    between atoms: C2_4  and  C3_6 
REMARK    2  A    between atoms: C5_8  and  C6_9 
REMARK    3  A    between atoms: C6_9  and  C7_10 
REMARK       I    between atoms: C7_10  and  N2_12 
REMARK    4  A    between atoms: N2_12  and  C8_14 
REMARK    5  A    between atoms: C9_19  and  C10_20 
REMARK    6  A    between atoms: C10_20  and  C11_21 
REMARK    7  A    between atoms: C11_21  and  C12_22 
REMARK    8  A    between atoms: C12_22  and  C13_23 
REMARK    9  A    between atoms: C13_23  and  C14_24 
REMARK       I    between atoms: N7_30  and  C16_32 
REMARK   10  A    between atoms: C16_32  and  C17_34 
REMARK   11  A    between atoms: C17_34  and  C18_35 
REMARK   12  A    between atoms: C18_35  and  C19_36 
ROOT
HETATM    1  C8  UNL     1       8.329  16.515  17.028  1.00  0.00     0.167 A 
HETATM    2  N3  UNL     1       7.213  17.231  16.865  1.00  0.00    -0.279 N 
ATOM      3  H3  UNL     1       7.093  17.824  16.044  1.00  0.00     0.189 HD
HETATM    4  N4  UNL     1       6.308  17.162  17.745  1.00  0.00    -0.296 N 
ATOM      5  H4  UNL     1       5.453  17.706  17.626  1.00  0.00     0.187 HD
HETATM    6  C9  UNL     1       6.447  16.402  18.815  1.00  0.00     0.069 A 
HETATM    7  S2  UNL     1       8.023  15.732  18.515  1.00  0.00    -0.038 SA
ENDROOT
BRANCH   6   8
HETATM    8  C10 UNL     1       5.555  16.132  19.986  1.00  0.00     0.066 C 
BRANCH   8   9
HETATM    9  C11 UNL     1       6.206  16.489  21.284  1.00  0.00     0.007 C 
BRANCH   9  10
HETATM   10  C12 UNL     1       6.907  17.807  21.192  1.00  0.00     0.007 C 
BRANCH  10  11
HETATM   11  C13 UNL     1       8.378  17.758  21.525  1.00  0.00     0.066 C 
BRANCH  11  12
HETATM   12  C14 UNL     1       9.173  18.774  20.799  1.00  0.00     0.069 A 
HETATM   13  N5  UNL     1       8.866  19.394  19.688  1.00  0.00    -0.296 N 
HETATM   14  N6  UNL     1       9.649  20.246  19.162  1.00  0.00    -0.279 N 
ATOM     15  H5  UNL     1       7.976  19.189  19.234  1.00  0.00     0.187 HD
HETATM   16  C15 UNL     1      10.810  20.513  19.753  1.00  0.00     0.167 A 
ATOM     17  H6  UNL     1       9.390  20.719  18.297  1.00  0.00     0.189 HD
HETATM   18  N7  UNL     1      11.787  21.300  19.469  1.00  0.00    -0.306 N 
HETATM   19  S1  UNL     1      10.705  19.449  21.135  1.00  0.00    -0.038 SA
HETATM   20  C16 UNL     1      11.880  22.143  18.374  1.00  0.00     0.223 C 
ATOM     21  H7  UNL     1      12.575  21.303  20.117  1.00  0.00     0.171 HD
HETATM   22  O3  UNL     1      11.110  22.060  17.401  1.00  0.00    -0.273 OA
BRANCH  20  23
HETATM   23  C17 UNL     1      12.920  23.223  18.270  1.00  0.00     0.104 C 
BRANCH  23  24
HETATM   24  C18 UNL     1      14.094  22.959  19.159  1.00  0.00     0.017 C 
BRANCH  24  25
HETATM   25  C19 UNL     1      15.043  24.117  19.238  1.00  0.00    -0.051 C 
HETATM   26  C20 UNL     1      15.253  24.438  20.720  1.00  0.00     0.014 C 
HETATM   27  C21 UNL     1      16.386  23.850  18.637  1.00  0.00     0.014 C 
HETATM   28  C22 UNL     1      14.391  25.340  18.612  1.00  0.00     0.014 C 
ENDBRANCH  24  25
ENDBRANCH  23  24
ENDBRANCH  20  23
ENDBRANCH  11  12
ENDBRANCH  10  11
ENDBRANCH   9  10
ENDBRANCH   8   9
ENDBRANCH   6   8
BRANCH   1  29
HETATM   29  N2  UNL     1       9.362  16.463  16.228  1.00  0.00    -0.306 N 
HETATM   30  C7  UNL     1      10.231  17.583  16.194  1.00  0.00     0.229 C 
HETATM   31  O2  UNL     1       9.868  18.661  16.675  1.00  0.00    -0.273 OA
ATOM     32  H2  UNL     1       9.538  15.643  15.648  1.00  0.00     0.171 HD
BRANCH  30  33
HETATM   33  C6  UNL     1      11.555  17.403  15.573  1.00  0.00     0.160 C 
BRANCH  33  34
HETATM   34  C5  UNL     1      12.483  18.514  15.892  1.00  0.00     0.020 A 
HETATM   35  C4  UNL     1      12.927  19.505  15.045  1.00  0.00     0.044 A 
HETATM   36  C3  UNL     1      13.782  20.355  15.712  1.00  0.00     0.049 A 
HETATM   37  C24 UNL     1      13.848  19.846  17.011  1.00  0.00     0.107 A 
HETATM   38  N8  UNL     1      13.071  18.754  17.099  1.00  0.00    -0.363 N 
HETATM   39  C23 UNL     1      12.887  17.953  18.296  1.00  0.00     0.155 C 
BRANCH  36  40
HETATM   40  C2  UNL     1      14.487  21.541  15.211  1.00  0.00     0.252 C 
HETATM   41  N1  UNL     1      14.344  21.884  13.853  1.00  0.00    -0.361 N 
HETATM   42  C1  UNL     1      15.022  23.043  13.322  1.00  0.00     0.149 C 
ATOM     43  H1  UNL     1      13.761  21.313  13.243  1.00  0.00     0.162 HD
HETATM   44  O1  UNL     1      15.206  22.242  15.972  1.00  0.00    -0.268 OA
ENDBRANCH  36  40
ENDBRANCH  33  34
ENDBRANCH  30  33
ENDBRANCH   1  29
TORSDOF 12
ENDMDL
MODEL 4
REMARK VINA RESULT: -8.677509383      3.466     10.178
REMARK  12 active torsions:
REMARK  status: ('A' for Active; 'I' for Inactive)
REMARK       I    between atoms: N1_2  and  C2_4 
REMARK    1  A    between atoms: C2_4  and  C3_6 
REMARK    2  A    between atoms: C5_8  and  C6_9 
REMARK    3  A    between atoms: C6_9  and  C7_10 
REMARK       I    between atoms: C7_10  and  N2_12 
REMARK    4  A    between atoms: N2_12  and  C8_14 
REMARK    5  A    between atoms: C9_19  and  C10_20 
REMARK    6  A    between atoms: C10_20  and  C11_21 
REMARK    7  A    between atoms: C11_21  and  C12_22 
REMARK    8  A    between atoms: C12_22  and  C13_23 
REMARK    9  A    between atoms: C13_23  and  C14_24 
REMARK       I    between atoms: N7_30  and  C16_32 
REMARK   10  A    between atoms: C16_32  and  C17_34 
REMARK   11  A    between atoms: C17_34  and  C18_35 
REMARK   12  A    between atoms: C18_35  and  C19_36 
ROOT
HETATM    1  C8  UNL     1      11.302  20.453  18.910  1.00  0.00     0.167 A 
HETATM    2  N3  UNL     1      12.358  19.895  19.509  1.00  0.00    -0.279 N 
ATOM      3  H3  UNL     1      12.307  18.941  19.866  1.00  0.00     0.189 HD
HETATM    4  N4  UNL     1      13.421  20.569  19.627  1.00  0.00    -0.296 N 
ATOM      5  H4  UNL     1      14.231  20.149  20.082  1.00  0.00     0.187 HD
HETATM    6  C9  UNL     1      13.504  21.806  19.172  1.00  0.00     0.069 A 
HETATM    7  S2  UNL     1      11.905  22.003  18.520  1.00  0.00    -0.038 SA
ENDROOT
BRANCH   6   8
HETATM    8  C10 UNL     1      14.613  22.809  19.171  1.00  0.00     0.066 C 
BRANCH   8   9
HETATM    9  C11 UNL     1      14.889  23.344  17.801  1.00  0.00     0.007 C 
BRANCH   9  10
HETATM   10  C12 UNL     1      16.204  22.853  17.286  1.00  0.00     0.007 C 
BRANCH  10  11
HETATM   11  C13 UNL     1      16.121  22.086  15.989  1.00  0.00     0.066 C 
BRANCH  11  12
HETATM   12  C14 UNL     1      14.975  21.152  15.938  1.00  0.00     0.069 A 
HETATM   13  N5  UNL     1      14.866  19.978  16.505  1.00  0.00    -0.296 N 
HETATM   14  N6  UNL     1      13.821  19.267  16.374  1.00  0.00    -0.279 N 
ATOM     15  H5  UNL     1      15.641  19.624  17.067  1.00  0.00     0.187 HD
HETATM   16  C15 UNL     1      12.811  19.727  15.641  1.00  0.00     0.167 A 
ATOM     17  H6  UNL     1      13.756  18.355  16.825  1.00  0.00     0.189 HD
HETATM   18  N7  UNL     1      11.657  19.252  15.327  1.00  0.00    -0.306 N 
HETATM   19  S1  UNL     1      13.466  21.269  15.145  1.00  0.00    -0.038 SA
HETATM   20  C16 UNL     1      11.132  18.030  15.712  1.00  0.00     0.223 C 
ATOM     21  H7  UNL     1      11.068  19.837  14.733  1.00  0.00     0.171 HD
HETATM   22  O3  UNL     1      11.828  17.138  16.228  1.00  0.00    -0.273 OA
BRANCH  20  23
HETATM   23  C17 UNL     1       9.681  17.680  15.535  1.00  0.00     0.104 C 
BRANCH  23  24
HETATM   24  C18 UNL     1       9.439  16.209  15.660  1.00  0.00     0.017 C 
BRANCH  24  25
HETATM   25  C19 UNL     1       8.085  15.793  15.169  1.00  0.00    -0.051 C 
HETATM   26  C20 UNL     1       8.283  15.078  13.831  1.00  0.00     0.014 C 
HETATM   27  C21 UNL     1       7.365  14.854  16.084  1.00  0.00     0.014 C 
HETATM   28  C22 UNL     1       7.254  17.034  14.886  1.00  0.00     0.014 C 
ENDBRANCH  24  25
ENDBRANCH  23  24
ENDBRANCH  20  23
ENDBRANCH  11  12
ENDBRANCH  10  11
ENDBRANCH   9  10
ENDBRANCH   8   9
ENDBRANCH   6   8
BRANCH   1  29
HETATM   29  N2  UNL     1      10.130  19.911  18.702  1.00  0.00    -0.306 N 
HETATM   30  C7  UNL     1       9.338  19.591  19.833  1.00  0.00     0.229 C 
HETATM   31  O2  UNL     1       9.850  19.558  20.956  1.00  0.00    -0.273 OA
ATOM     32  H2  UNL     1       9.797  19.725  17.756  1.00  0.00     0.171 HD
BRANCH  30  33
HETATM   33  C6  UNL     1       7.909  19.308  19.609  1.00  0.00     0.160 C 
BRANCH  33  34
HETATM   34  C5  UNL     1       7.396  18.249  20.513  1.00  0.00     0.020 A 
HETATM   35  C4  UNL     1       6.722  18.416  21.702  1.00  0.00     0.044 A 
HETATM   36  C3  UNL     1       6.412  17.192  22.250  1.00  0.00     0.049 A 
HETATM   37  C24 UNL     1       6.924  16.257  21.347  1.00  0.00     0.107 A 
HETATM   38  N8  UNL     1       7.505  16.903  20.322  1.00  0.00    -0.363 N 
HETATM   39  C23 UNL     1       8.148  16.264  19.189  1.00  0.00     0.155 C 
BRANCH  36  40
HETATM   40  C2  UNL     1       5.703  16.888  23.499  1.00  0.00     0.252 C 
HETATM   41  N1  UNL     1       4.748  17.809  23.971  1.00  0.00    -0.361 N 
HETATM   42  C1  UNL     1       4.030  17.547  25.196  1.00  0.00     0.149 C 
ATOM     43  H1  UNL     1       4.562  18.663  23.445  1.00  0.00     0.162 HD
HETATM   44  O1  UNL     1       5.938  15.830  24.142  1.00  0.00    -0.268 OA
ENDBRANCH  36  40
ENDBRANCH  33  34
ENDBRANCH  30  33
ENDBRANCH   1  29
TORSDOF 12
ENDMDL
MODEL 5
REMARK VINA RESULT: -8.604426128      3.289      9.131
REMARK  12 active torsions:
REMARK  status: ('A' for Active; 'I' for Inactive)
REMARK       I    between atoms: N1_2  and  C2_4 
REMARK    1  A    between atoms: C2_4  and  C3_6 
REMARK    2  A    between atoms: C5_8  and  C6_9 
REMARK    3  A    between atoms: C6_9  and  C7_10 
REMARK       I    between atoms: C7_10  and  N2_12 
REMARK    4  A    between atoms: N2_12  and  C8_14 
REMARK    5  A    between atoms: C9_19  and  C10_20 
REMARK    6  A    between atoms: C10_20  and  C11_21 
REMARK    7  A    between atoms: C11_21  and  C12_22 
REMARK    8  A    between atoms: C12_22  and  C13_23 
REMARK    9  A    between atoms: C13_23  and  C14_24 
REMARK       I    between atoms: N7_30  and  C16_32 
REMARK   10  A    between atoms: C16_32  and  C17_34 
REMARK   11  A    between atoms: C17_34  and  C18_35 
REMARK   12  A    between atoms: C18_35  and  C19_36 
ROOT
HETATM    1  C8  UNL     1      12.149  18.626  16.397  1.00  0.00     0.167 A 
HETATM    2  N3  UNL     1      11.673  19.467  15.476  1.00  0.00    -0.279 N 
ATOM      3  H3  UNL     1      10.688  19.445  15.214  1.00  0.00     0.189 HD
HETATM    4  N4  UNL     1      12.464  20.292  14.934  1.00  0.00    -0.296 N 
ATOM      5  H4  UNL     1      12.107  20.938  14.230  1.00  0.00     0.187 HD
HETATM    6  C9  UNL     1      13.742  20.333  15.260  1.00  0.00     0.069 A 
HETATM    7  S2  UNL     1      13.798  19.071  16.453  1.00  0.00    -0.038 SA
ENDROOT
BRANCH   6   8
HETATM    8  C10 UNL     1      14.876  21.190  14.793  1.00  0.00     0.066 C 
BRANCH   8   9
HETATM    9  C11 UNL     1      14.942  22.489  15.533  1.00  0.00     0.007 C 
BRANCH   9  10
HETATM   10  C12 UNL     1      15.632  22.325  16.850  1.00  0.00     0.007 C 
BRANCH  10  11
HETATM   11  C13 UNL     1      14.920  22.970  18.013  1.00  0.00     0.066 C 
BRANCH  11  12
HETATM   12  C14 UNL     1      13.838  22.130  18.572  1.00  0.00     0.069 A 
HETATM   13  N5  UNL     1      13.946  21.134  19.415  1.00  0.00    -0.296 N 
HETATM   14  N6  UNL     1      12.929  20.484  19.813  1.00  0.00    -0.279 N 
ATOM     15  H5  UNL     1      14.870  20.873  19.760  1.00  0.00     0.187 HD
HETATM   16  C15 UNL     1      11.724  20.824  19.363  1.00  0.00     0.167 A 
ATOM     17  H6  UNL     1      13.034  19.712  20.470  1.00  0.00     0.189 HD
HETATM   18  N7  UNL     1      10.540  20.367  19.572  1.00  0.00    -0.306 N 
HETATM   19  S1  UNL     1      12.150  22.156  18.315  1.00  0.00    -0.038 SA
HETATM   20  C16 UNL     1      10.194  19.309  20.396  1.00  0.00     0.223 C 
ATOM     21  H7  UNL     1       9.777  20.832  19.080  1.00  0.00     0.171 HD
HETATM   22  O3  UNL     1      11.037  18.520  20.858  1.00  0.00    -0.273 OA
BRANCH  20  23
HETATM   23  C17 UNL     1       8.774  19.026  20.797  1.00  0.00     0.104 C 
BRANCH  23  24
HETATM   24  C18 UNL     1       8.575  17.594  21.185  1.00  0.00     0.017 C 
BRANCH  24  25
HETATM   25  C19 UNL     1       7.150  17.145  21.063  1.00  0.00    -0.051 C 
HETATM   26  C20 UNL     1       6.559  17.107  22.474  1.00  0.00     0.014 C 
HETATM   27  C21 UNL     1       6.292  18.048  20.236  1.00  0.00     0.014 C 
HETATM   28  C22 UNL     1       7.120  15.720  20.535  1.00  0.00     0.014 C 
ENDBRANCH  24  25
ENDBRANCH  23  24
ENDBRANCH  20  23
ENDBRANCH  11  12
ENDBRANCH  10  11
ENDBRANCH   9  10
ENDBRANCH   8   9
ENDBRANCH   6   8
BRANCH   1  29
HETATM   29  N2  UNL     1      11.485  17.713  17.057  1.00  0.00    -0.306 N 
HETATM   30  C7  UNL     1      10.079  17.859  17.157  1.00  0.00     0.229 C 
HETATM   31  O2  UNL     1       9.549  18.941  16.884  1.00  0.00    -0.273 OA
ATOM     32  H2  UNL     1      11.964  16.922  17.487  1.00  0.00     0.171 HD
BRANCH  30  33
HETATM   33  C6  UNL     1       9.298  16.686  17.589  1.00  0.00     0.160 C 
BRANCH  33  34
HETATM   34  C5  UNL     1       8.196  16.365  16.650  1.00  0.00     0.020 A 
HETATM   35  C4  UNL     1       6.843  16.397  16.903  1.00  0.00     0.044 A 
HETATM   36  C3  UNL     1       6.139  16.031  15.777  1.00  0.00     0.049 A 
HETATM   37  C24 UNL     1       7.117  15.769  14.815  1.00  0.00     0.107 A 
HETATM   38  N8  UNL     1       8.332  15.973  15.351  1.00  0.00    -0.363 N 
HETATM   39  C23 UNL     1       9.592  15.800  14.653  1.00  0.00     0.155 C 
BRANCH  36  40
HETATM   40  C2  UNL     1       4.687  15.925  15.585  1.00  0.00     0.252 C 
HETATM   41  N1  UNL     1       4.164  14.725  15.067  1.00  0.00    -0.361 N 
HETATM   42  C1  UNL     1       2.741  14.582  14.863  1.00  0.00     0.149 C 
ATOM     43  H1  UNL     1       4.790  13.955  14.835  1.00  0.00     0.162 HD
HETATM   44  O1  UNL     1       3.919  16.881  15.875  1.00  0.00    -0.268 OA
ENDBRANCH  36  40
ENDBRANCH  33  34
ENDBRANCH  30  33
ENDBRANCH   1  29
TORSDOF 12
ENDMDL
