MODEL 1
REMARK VINA RESULT: -8.939140632      0.000      0.000
REMARK  12 active torsions:
REMARK  status: ('A' for Active; 'I' for Inactive)
REMARK    1  A    between atoms: C3_5  and  C4_6 
REMARK    2  A    between atoms: C6_10  and  N3_11 
REMARK    3  A    between atoms: N3_11  and  C7_13 
REMARK    4  A    between atoms: C7_13  and  C8_14 
REMARK    5  A    between atoms: C15_25  and  C16_26 
REMARK    6  A    between atoms: C16_26  and  N6_27 
REMARK    7  A    between atoms: N6_27  and  C17_30 
REMARK    8  A    between atoms: C20_33  and  C21_34 
REMARK       I    between atoms: C21_34  and  N7_36 
REMARK    9  A    between atoms: N7_36  and  C22_38 
REMARK   10  A    between atoms: C22_38  and  C23_39 
REMARK   11  A    between atoms: C23_39  and  C24_40 
REMARK   12  A    between atoms: C24_40  and  N8_41 
ROOT
HETATM    1  C1  UNL     1      13.985  21.490  13.978  1.00  0.00     0.070 C 
HETATM    2  C2  UNL     1      14.304  21.644  15.434  1.00  0.00     0.030 A 
HETATM    3  N1  UNL     1      15.195  22.589  15.772  1.00  0.00    -0.355 N 
ATOM      4  H1  UNL     1      15.623  23.160  15.043  1.00  0.00     0.166 HD
HETATM    5  C3  UNL     1      15.537  22.798  17.081  1.00  0.00     0.076 A 
HETATM    6  C14 UNL     1      14.914  21.987  17.995  1.00  0.00     0.120 A 
HETATM    7  N5  UNL     1      14.013  21.030  17.648  1.00  0.00    -0.364 N 
ATOM      8  H5  UNL     1      13.578  20.452  18.368  1.00  0.00     0.165 HD
HETATM    9  C15 UNL     1      13.696  20.849  16.360  1.00  0.00     0.057 A 
ENDROOT
BRANCH   9  10
HETATM   10  C16 UNL     1      12.727  19.818  15.937  1.00  0.00     0.291 C 
BRANCH  10  11
HETATM   11  N6  UNL     1      13.149  18.470  16.314  1.00  0.00    -0.066 N 
ATOM     12  H62 UNL     1      13.757  18.029  15.624  1.00  0.00     0.278 HD
ATOM     13  H61 UNL     1      13.809  18.456  17.091  1.00  0.00     0.278 HD
BRANCH  11  14
HETATM   14  C17 UNL     1      11.921  17.708  16.579  1.00  0.00     0.186 C 
HETATM   15  C18 UNL     1      11.232  17.456  15.289  1.00  0.00     0.034 C 
HETATM   16  C19 UNL     1       9.762  17.265  15.358  1.00  0.00     0.016 C 
HETATM   17  C20 UNL     1       9.452  16.867  16.811  1.00  0.00     0.078 C 
HETATM   18  C29 UNL     1       9.654  18.108  17.609  1.00  0.00     0.016 C 
HETATM   19  C30 UNL     1      11.130  18.383  17.647  1.00  0.00     0.034 C 
BRANCH  17  20
HETATM   20  C21 UNL     1       8.164  16.203  16.933  1.00  0.00     0.221 C 
HETATM   21  O1  UNL     1       8.144  14.966  17.179  1.00  0.00    -0.273 OA
HETATM   22  N7  UNL     1       6.905  16.851  16.795  1.00  0.00    -0.361 N 
ATOM     23  H7  UNL     1       6.912  17.851  16.599  1.00  0.00     0.162 HD
BRANCH  22  24
HETATM   24  C22 UNL     1       5.635  16.213  16.909  1.00  0.00     0.124 C 
BRANCH  24  25
HETATM   25  C23 UNL     1       5.195  15.903  18.310  1.00  0.00     0.050 C 
BRANCH  25  26
HETATM   26  C24 UNL     1       5.062  17.087  19.206  1.00  0.00     0.274 C 
BRANCH  26  27
HETATM   27  N8  UNL     1       5.985  17.150  20.297  1.00  0.00     0.092 N 
HETATM   28  C25 UNL     1       6.969  18.203  20.137  1.00  0.00     0.298 C 
HETATM   29  C26 UNL     1       8.137  18.021  21.073  1.00  0.00     0.198 C 
HETATM   30  O2  UNL     1       7.923  16.971  21.964  1.00  0.00    -0.388 OA
HETATM   31  C27 UNL     1       7.869  15.815  21.169  1.00  0.00     0.198 C 
HETATM   32  C28 UNL     1       6.620  15.823  20.358  1.00  0.00     0.298 C 
ENDBRANCH  26  27
ENDBRANCH  25  26
ENDBRANCH  24  25
ENDBRANCH  22  24
ENDBRANCH  17  20
ENDBRANCH  11  14
ENDBRANCH  10  11
ENDBRANCH   9  10
BRANCH   5  33
HETATM   33  C4  UNL     1      16.498  23.834  17.395  1.00  0.00     0.076 A 
HETATM   34  C5  UNL     1      17.830  23.661  17.138  1.00  0.00     0.121 A 
HETATM   35  N2  UNL     1      18.734  24.627  17.431  1.00  0.00    -0.349 N 
HETATM   36  C6  UNL     1      18.328  25.796  17.992  1.00  0.00     0.116 A 
ATOM     37  H2  UNL     1      19.722  24.475  17.230  1.00  0.00     0.167 HD
HETATM   38  C13 UNL     1      17.016  25.985  18.253  1.00  0.00     0.136 A 
HETATM   39  N4  UNL     1      16.129  24.996  17.947  1.00  0.00    -0.359 N 
ATOM     40  H4  UNL     1      15.141  25.148  18.148  1.00  0.00     0.165 HD
BRANCH  36  41
HETATM   41  N3  UNL     1      19.221  26.673  18.252  1.00  0.00    -0.371 N 
ATOM     42  H3  UNL     1      20.004  26.399  18.847  1.00  0.00     0.161 HD
BRANCH  41  43
HETATM   43  C7  UNL     1      19.188  28.020  17.757  1.00  0.00     0.155 C 
BRANCH  43  44
HETATM   44  C8  UNL     1      19.482  27.995  16.283  1.00  0.00    -0.066 C 
HETATM   45  C9  UNL     1      18.660  28.418  15.325  1.00  0.00    -0.022 C 
HETATM   46  C10 UNL     1      19.277  28.243  14.004  1.00  0.00     0.028 C 
HETATM   47  C11 UNL     1      20.691  27.823  14.264  1.00  0.00     0.008 C 
HETATM   48  C12 UNL     1      20.749  27.484  15.719  1.00  0.00     0.036 C 
ENDBRANCH  43  44
ENDBRANCH  41  43
ENDBRANCH  36  41
ENDBRANCH   5  33
TORSDOF 12
ENDMDL
MODEL 2
REMARK VINA RESULT: -8.929795494      4.151     13.520
REMARK  12 active torsions:
REMARK  status: ('A' for Active; 'I' for Inactive)
REMARK    1  A    between atoms: C3_5  and  C4_6 
REMARK    2  A    between atoms: C6_10  and  N3_11 
REMARK    3  A    between atoms: N3_11  and  C7_13 
REMARK    4  A    between atoms: C7_13  and  C8_14 
REMARK    5  A    between atoms: C15_25  and  C16_26 
REMARK    6  A    between atoms: C16_26  and  N6_27 
REMARK    7  A    between atoms: N6_27  and  C17_30 
REMARK    8  A    between atoms: C20_33  and  C21_34 
REMARK       I    between atoms: C21_34  and  N7_36 
REMARK    9  A    between atoms: N7_36  and  C22_38 
REMARK   10  A    between atoms: C22_38  and  C23_39 
REMARK   11  A    between atoms: C23_39  and  C24_40 
REMARK   12  A    between atoms: C24_40  and  N8_41 
ROOT
HETATM    1  C1  UNL     1      11.345  21.711  16.861  1.00  0.00     0.070 C 
HETATM    2  C2  UNL     1      11.493  20.221  16.847  1.00  0.00     0.030 A 
HETATM    3  N1  UNL     1      10.405  19.497  16.539  1.00  0.00    -0.355 N 
ATOM      4  H1  UNL     1       9.528  19.973  16.331  1.00  0.00     0.166 HD
HETATM    5  C3  UNL     1      10.458  18.129  16.499  1.00  0.00     0.076 A 
HETATM    6  C14 UNL     1      11.677  17.572  16.792  1.00  0.00     0.120 A 
HETATM    7  N5  UNL     1      12.776  18.309  17.104  1.00  0.00    -0.364 N 
ATOM      8  H5  UNL     1      13.660  17.844  17.315  1.00  0.00     0.165 HD
HETATM    9  C15 UNL     1      12.696  19.645  17.135  1.00  0.00     0.057 A 
ENDROOT
BRANCH   9  10
HETATM   10  C16 UNL     1      13.862  20.485  17.474  1.00  0.00     0.291 C 
BRANCH  10  11
HETATM   11  N6  UNL     1      15.079  20.048  16.792  1.00  0.00    -0.066 N 
ATOM     12  H62 UNL     1      15.827  19.779  17.433  1.00  0.00     0.278 HD
ATOM     13  H61 UNL     1      14.980  19.145  16.329  1.00  0.00     0.278 HD
BRANCH  11  14
HETATM   14  C17 UNL     1      15.457  21.134  15.879  1.00  0.00     0.186 C 
HETATM   15  C18 UNL     1      16.307  20.572  14.801  1.00  0.00     0.034 C 
HETATM   16  C19 UNL     1      17.257  21.513  14.158  1.00  0.00     0.016 C 
HETATM   17  C20 UNL     1      16.717  22.925  14.443  1.00  0.00     0.078 C 
HETATM   18  C29 UNL     1      16.966  23.155  15.893  1.00  0.00     0.016 C 
HETATM   19  C30 UNL     1      16.018  22.275  16.656  1.00  0.00     0.034 C 
BRANCH  17  20
HETATM   20  C21 UNL     1      17.248  23.911  13.515  1.00  0.00     0.221 C 
HETATM   21  O1  UNL     1      18.478  23.876  13.237  1.00  0.00    -0.273 OA
HETATM   22  N7  UNL     1      16.476  24.927  12.886  1.00  0.00    -0.361 N 
ATOM     23  H7  UNL     1      15.480  24.960  13.103  1.00  0.00     0.162 HD
BRANCH  22  24
HETATM   24  C22 UNL     1      16.983  25.901  11.978  1.00  0.00     0.124 C 
BRANCH  24  25
HETATM   25  C23 UNL     1      17.136  27.285  12.538  1.00  0.00     0.050 C 
BRANCH  25  26
HETATM   26  C24 UNL     1      18.356  27.498  13.367  1.00  0.00     0.274 C 
BRANCH  26  27
HETATM   27  N8  UNL     1      18.129  27.825  14.741  1.00  0.00     0.092 N 
HETATM   28  C25 UNL     1      18.840  29.018  15.157  1.00  0.00     0.298 C 
HETATM   29  C26 UNL     1      18.902  29.134  16.659  1.00  0.00     0.198 C 
HETATM   30  O2  UNL     1      18.140  28.147  17.283  1.00  0.00    -0.388 OA
HETATM   31  C27 UNL     1      18.763  26.933  16.953  1.00  0.00     0.198 C 
HETATM   32  C28 UNL     1      18.562  26.644  15.506  1.00  0.00     0.298 C 
ENDBRANCH  26  27
ENDBRANCH  25  26
ENDBRANCH  24  25
ENDBRANCH  22  24
ENDBRANCH  17  20
ENDBRANCH  11  14
ENDBRANCH  10  11
ENDBRANCH   9  10
BRANCH   5  33
HETATM   33  C4  UNL     1       9.259  17.395  16.154  1.00  0.00     0.076 A 
HETATM   34  C5  UNL     1       8.292  17.955  15.366  1.00  0.00     0.121 A 
HETATM   35  N2  UNL     1       7.167  17.274  15.041  1.00  0.00    -0.349 N 
HETATM   36  C6  UNL     1       6.978  16.009  15.499  1.00  0.00     0.116 A 
ATOM     37  H2  UNL     1       6.460  17.713  14.452  1.00  0.00     0.167 HD
HETATM   38  C13 UNL     1       7.922  15.438  16.279  1.00  0.00     0.136 A 
HETATM   39  N4  UNL     1       9.044  16.148  16.589  1.00  0.00    -0.359 N 
ATOM     40  H4  UNL     1       9.751  15.709  17.179  1.00  0.00     0.165 HD
BRANCH  36  41
HETATM   41  N3  UNL     1       5.897  15.411  15.167  1.00  0.00    -0.371 N 
ATOM     42  H3  UNL     1       5.715  15.267  14.174  1.00  0.00     0.161 HD
BRANCH  41  43
HETATM   43  C7  UNL     1       4.926  14.931  16.109  1.00  0.00     0.155 C 
BRANCH  43  44
HETATM   44  C8  UNL     1       3.756  15.875  16.114  1.00  0.00    -0.066 C 
HETATM   45  C9  UNL     1       2.724  15.829  15.274  1.00  0.00    -0.022 C 
HETATM   46  C10 UNL     1       1.770  16.904  15.573  1.00  0.00     0.028 C 
HETATM   47  C11 UNL     1       2.245  17.532  16.848  1.00  0.00     0.008 C 
HETATM   48  C12 UNL     1       3.619  16.988  17.076  1.00  0.00     0.036 C 
ENDBRANCH  43  44
ENDBRANCH  41  43
ENDBRANCH  36  41
ENDBRANCH   5  33
TORSDOF 12
ENDMDL
MODEL 3
REMARK VINA RESULT: -8.883185194      1.785      3.300
REMARK  12 active torsions:
REMARK  status: ('A' for Active; 'I' for Inactive)
REMARK    1  A    between atoms: C3_5  and  C4_6 
REMARK    2  A    between atoms: C6_10  and  N3_11 
REMARK    3  A    between atoms: N3_11  and  C7_13 
REMARK    4  A    between atoms: C7_13  and  C8_14 
REMARK    5  A    between atoms: C15_25  and  C16_26 
REMARK    6  A    between atoms: C16_26  and  N6_27 
REMARK    7  A    between atoms: N6_27  and  C17_30 
REMARK    8  A    between atoms: C20_33  and  C21_34 
REMARK       I    between atoms: C21_34  and  N7_36 
REMARK    9  A    between atoms: N7_36  and  C22_38 
REMARK   10  A    between atoms: C22_38  and  C23_39 
REMARK   11  A    between atoms: C23_39  and  C24_40 
REMARK   12  A    between atoms: C24_40  and  N8_41 
ROOT
HETATM    1  C1  UNL     1      14.700  19.855  16.633  1.00  0.00     0.070 C 
HETATM    2  C2  UNL     1      14.598  20.990  17.605  1.00  0.00     0.030 A 
HETATM    3  N1  UNL     1      15.558  21.928  17.559  1.00  0.00    -0.355 N 
ATOM      4  H1  UNL     1      16.314  21.840  16.880  1.00  0.00     0.166 HD
HETATM    5  C3  UNL     1      15.536  23.000  18.410  1.00  0.00     0.076 A 
HETATM    6  C14 UNL     1      14.484  23.040  19.290  1.00  0.00     0.120 A 
HETATM    7  N5  UNL     1      13.515  22.088  19.334  1.00  0.00    -0.364 N 
ATOM      8  H5  UNL     1      12.753  22.164  20.009  1.00  0.00     0.165 HD
HETATM    9  C15 UNL     1      13.561  21.050  18.489  1.00  0.00     0.057 A 
ENDROOT
BRANCH   9  10
HETATM   10  C16 UNL     1      12.534  19.990  18.505  1.00  0.00     0.291 C 
BRANCH  10  11
HETATM   11  N6  UNL     1      12.096  19.661  19.861  1.00  0.00    -0.066 N 
ATOM     12  H62 UNL     1      12.845  19.299  20.451  1.00  0.00     0.278 HD
ATOM     13  H61 UNL     1      11.876  20.482  20.425  1.00  0.00     0.278 HD
BRANCH  11  14
HETATM   14  C17 UNL     1      10.966  18.732  19.719  1.00  0.00     0.186 C 
HETATM   15  C18 UNL     1      10.228  19.069  18.478  1.00  0.00     0.034 C 
HETATM   16  C19 UNL     1       8.791  18.700  18.449  1.00  0.00     0.016 C 
HETATM   17  C20 UNL     1       8.611  17.607  19.516  1.00  0.00     0.078 C 
HETATM   18  C29 UNL     1       8.738  18.309  20.823  1.00  0.00     0.016 C 
HETATM   19  C30 UNL     1      10.180  18.698  20.985  1.00  0.00     0.034 C 
BRANCH  17  20
HETATM   20  C21 UNL     1       7.403  16.826  19.299  1.00  0.00     0.221 C 
HETATM   21  O1  UNL     1       7.295  15.711  19.878  1.00  0.00    -0.273 OA
HETATM   22  N7  UNL     1       6.319  17.228  18.471  1.00  0.00    -0.361 N 
ATOM     23  H7  UNL     1       6.397  18.129  18.001  1.00  0.00     0.162 HD
BRANCH  22  24
HETATM   24  C22 UNL     1       5.131  16.472  18.247  1.00  0.00     0.124 C 
BRANCH  24  25
HETATM   25  C23 UNL     1       5.200  15.484  17.119  1.00  0.00     0.050 C 
BRANCH  25  26
HETATM   26  C24 UNL     1       5.333  16.086  15.762  1.00  0.00     0.274 C 
BRANCH  26  27
HETATM   27  N8  UNL     1       6.586  15.876  15.105  1.00  0.00     0.092 N 
HETATM   28  C25 UNL     1       7.414  14.896  15.781  1.00  0.00     0.298 C 
HETATM   29  C26 UNL     1       8.847  14.962  15.316  1.00  0.00     0.198 C 
HETATM   30  O2  UNL     1       9.001  15.846  14.249  1.00  0.00    -0.388 OA
HETATM   31  C27 UNL     1       8.696  17.114  14.771  1.00  0.00     0.198 C 
HETATM   32  C28 UNL     1       7.238  17.196  15.064  1.00  0.00     0.298 C 
ENDBRANCH  26  27
ENDBRANCH  25  26
ENDBRANCH  24  25
ENDBRANCH  22  24
ENDBRANCH  17  20
ENDBRANCH  11  14
ENDBRANCH  10  11
ENDBRANCH   9  10
BRANCH   5  33
HETATM   33  C4  UNL     1      16.590  23.988  18.315  1.00  0.00     0.076 A 
HETATM   34  C5  UNL     1      17.116  24.567  19.437  1.00  0.00     0.121 A 
HETATM   35  N2  UNL     1      18.101  25.493  19.354  1.00  0.00    -0.349 N 
HETATM   36  C6  UNL     1      18.587  25.868  18.142  1.00  0.00     0.116 A 
ATOM     37  H2  UNL     1      18.478  25.911  20.205  1.00  0.00     0.167 HD
HETATM   38  C13 UNL     1      18.080  25.307  17.022  1.00  0.00     0.136 A 
HETATM   39  N4  UNL     1      17.090  24.377  17.136  1.00  0.00    -0.359 N 
ATOM     40  H4  UNL     1      16.712  23.960  16.285  1.00  0.00     0.165 HD
BRANCH  36  41
HETATM   41  N3  UNL     1      19.514  26.749  18.119  1.00  0.00    -0.371 N 
ATOM     42  H3  UNL     1      20.480  26.430  18.180  1.00  0.00     0.161 HD
BRANCH  41  43
HETATM   43  C7  UNL     1      19.273  28.160  18.012  1.00  0.00     0.155 C 
BRANCH  43  44
HETATM   44  C8  UNL     1      19.628  28.603  16.620  1.00  0.00    -0.066 C 
HETATM   45  C9  UNL     1      20.660  28.156  15.907  1.00  0.00    -0.022 C 
HETATM   46  C10 UNL     1      20.698  28.809  14.593  1.00  0.00     0.028 C 
HETATM   47  C11 UNL     1      19.430  29.600  14.490  1.00  0.00     0.008 C 
HETATM   48  C12 UNL     1      18.850  29.610  15.869  1.00  0.00     0.036 C 
ENDBRANCH  43  44
ENDBRANCH  41  43
ENDBRANCH  36  41
ENDBRANCH   5  33
TORSDOF 12
ENDMDL
MODEL 4
REMARK VINA RESULT: -8.767677706      1.126      1.196
REMARK  12 active torsions:
REMARK  status: ('A' for Active; 'I' for Inactive)
REMARK    1  A    between atoms: C3_5  and  C4_6 
REMARK    2  A    between atoms: C6_10  and  N3_11 
REMARK    3  A    between atoms: N3_11  and  C7_13 
REMARK    4  A    between atoms: C7_13  and  C8_14 
REMARK    5  A    between atoms: C15_25  and  C16_26 
REMARK    6  A    between atoms: C16_26  and  N6_27 
REMARK    7  A    between atoms: N6_27  and  C17_30 
REMARK    8  A    between atoms: C20_33  and  C21_34 
REMARK       I    between atoms: C21_34  and  N7_36 
REMARK    9  A    between atoms: N7_36  and  C22_38 
REMARK   10  A    between atoms: C22_38  and  C23_39 
REMARK   11  A    between atoms: C23_39  and  C24_40 
REMARK   12  A    between atoms: C24_40  and  N8_41 
ROOT
HETATM    1  C1  UNL     1      14.028  21.607  14.503  1.00  0.00     0.070 C 
HETATM    2  C2  UNL     1      14.511  21.788  15.909  1.00  0.00     0.030 A 
HETATM    3  N1  UNL     1      15.411  22.760  16.130  1.00  0.00    -0.355 N 
ATOM      4  H1  UNL     1      15.734  23.332  15.350  1.00  0.00     0.166 HD
HETATM    5  C3  UNL     1      15.900  22.994  17.387  1.00  0.00     0.076 A 
HETATM    6  C14 UNL     1      15.411  22.179  18.376  1.00  0.00     0.120 A 
HETATM    7  N5  UNL     1      14.500  21.196  18.148  1.00  0.00    -0.364 N 
ATOM      8  H5  UNL     1      14.169  20.617  18.920  1.00  0.00     0.165 HD
HETATM    9  C15 UNL     1      14.039  20.990  16.908  1.00  0.00     0.057 A 
ENDROOT
BRANCH   9  10
HETATM   10  C16 UNL     1      13.055  19.930  16.613  1.00  0.00     0.291 C 
BRANCH  10  11
HETATM   11  N6  UNL     1      13.316  18.703  17.365  1.00  0.00    -0.066 N 
ATOM     12  H62 UNL     1      14.151  18.208  17.052  1.00  0.00     0.278 HD
ATOM     13  H61 UNL     1      13.621  18.874  18.323  1.00  0.00     0.278 HD
BRANCH  11  14
HETATM   14  C17 UNL     1      12.093  17.893  17.279  1.00  0.00     0.186 C 
HETATM   15  C18 UNL     1      11.783  17.654  15.848  1.00  0.00     0.034 C 
HETATM   16  C19 UNL     1      10.357  17.411  15.519  1.00  0.00     0.016 C 
HETATM   17  C20 UNL     1       9.688  16.963  16.829  1.00  0.00     0.078 C 
HETATM   18  C29 UNL     1       9.620  18.188  17.674  1.00  0.00     0.016 C 
HETATM   19  C30 UNL     1      11.020  18.511  18.108  1.00  0.00     0.034 C 
BRANCH  17  20
HETATM   20  C21 UNL     1       8.441  16.252  16.591  1.00  0.00     0.221 C 
HETATM   21  O1  UNL     1       8.481  15.002  16.432  1.00  0.00    -0.273 OA
HETATM   22  N7  UNL     1       7.161  16.868  16.522  1.00  0.00    -0.361 N 
ATOM     23  H7  UNL     1       7.119  17.879  16.651  1.00  0.00     0.162 HD
BRANCH  22  24
HETATM   24  C22 UNL     1       5.931  16.186  16.287  1.00  0.00     0.124 C 
BRANCH  24  25
HETATM   25  C23 UNL     1       5.190  15.754  17.518  1.00  0.00     0.050 C 
BRANCH  25  26
HETATM   26  C24 UNL     1       5.100  16.783  18.593  1.00  0.00     0.274 C 
BRANCH  26  27
HETATM   27  N8  UNL     1       5.448  16.342  19.909  1.00  0.00     0.092 N 
HETATM   28  C25 UNL     1       5.295  17.384  20.906  1.00  0.00     0.298 C 
HETATM   29  C26 UNL     1       6.010  17.038  22.188  1.00  0.00     0.198 C 
HETATM   30  O2  UNL     1       6.522  15.741  22.156  1.00  0.00    -0.388 OA
HETATM   31  C27 UNL     1       7.500  15.753  21.149  1.00  0.00     0.198 C 
HETATM   32  C28 UNL     1       6.844  15.885  19.818  1.00  0.00     0.298 C 
ENDBRANCH  26  27
ENDBRANCH  25  26
ENDBRANCH  24  25
ENDBRANCH  22  24
ENDBRANCH  17  20
ENDBRANCH  11  14
ENDBRANCH  10  11
ENDBRANCH   9  10
BRANCH   5  33
HETATM   33  C4  UNL     1      16.862  24.059  17.574  1.00  0.00     0.076 A 
HETATM   34  C5  UNL     1      17.223  24.470  18.828  1.00  0.00     0.121 A 
HETATM   35  N2  UNL     1      18.121  25.468  19.009  1.00  0.00    -0.349 N 
HETATM   36  C6  UNL     1      18.685  26.084  17.938  1.00  0.00     0.116 A 
ATOM     37  H2  UNL     1      18.375  25.757  19.954  1.00  0.00     0.167 HD
HETATM   38  C13 UNL     1      18.341  25.691  16.691  1.00  0.00     0.136 A 
HETATM   39  N4  UNL     1      17.435  24.685  16.539  1.00  0.00    -0.359 N 
ATOM     40  H4  UNL     1      17.181  24.396  15.594  1.00  0.00     0.165 HD
BRANCH  36  41
HETATM   41  N3  UNL     1      19.524  27.022  18.164  1.00  0.00    -0.371 N 
ATOM     42  H3  UNL     1      20.496  26.764  18.333  1.00  0.00     0.161 HD
BRANCH  41  43
HETATM   43  C7  UNL     1      19.179  28.415  18.193  1.00  0.00     0.155 C 
BRANCH  43  44
HETATM   44  C8  UNL     1      19.592  29.038  16.889  1.00  0.00    -0.066 C 
HETATM   45  C9  UNL     1      18.783  29.679  16.048  1.00  0.00    -0.022 C 
HETATM   46  C10 UNL     1      19.529  30.155  14.878  1.00  0.00     0.028 C 
HETATM   47  C11 UNL     1      20.974  29.894  15.178  1.00  0.00     0.008 C 
HETATM   48  C12 UNL     1      20.980  29.007  16.382  1.00  0.00     0.036 C 
ENDBRANCH  43  44
ENDBRANCH  41  43
ENDBRANCH  36  41
ENDBRANCH   5  33
TORSDOF 12
ENDMDL
MODEL 5
REMARK VINA RESULT: -8.755534969      3.538     13.385
REMARK  12 active torsions:
REMARK  status: ('A' for Active; 'I' for Inactive)
REMARK    1  A    between atoms: C3_5  and  C4_6 
REMARK    2  A    between atoms: C6_10  and  N3_11 
REMARK    3  A    between atoms: N3_11  and  C7_13 
REMARK    4  A    between atoms: C7_13  and  C8_14 
REMARK    5  A    between atoms: C15_25  and  C16_26 
REMARK    6  A    between atoms: C16_26  and  N6_27 
REMARK    7  A    between atoms: N6_27  and  C17_30 
REMARK    8  A    between atoms: C20_33  and  C21_34 
REMARK       I    between atoms: C21_34  and  N7_36 
REMARK    9  A    between atoms: N7_36  and  C22_38 
REMARK   10  A    between atoms: C22_38  and  C23_39 
REMARK   11  A    between atoms: C23_39  and  C24_40 
REMARK   12  A    between atoms: C24_40  and  N8_41 
ROOT
HETATM    1  C1  UNL     1      10.298  20.373  17.505  1.00  0.00     0.070 C 
HETATM    2  C2  UNL     1      10.180  19.109  16.709  1.00  0.00     0.030 A 
HETATM    3  N1  UNL     1       9.091  18.352  16.913  1.00  0.00    -0.355 N 
ATOM      4  H1  UNL     1       8.391  18.651  17.593  1.00  0.00     0.166 HD
HETATM    5  C3  UNL     1       8.905  17.185  16.222  1.00  0.00     0.076 A 
HETATM    6  C14 UNL     1       9.893  16.859  15.328  1.00  0.00     0.120 A 
HETATM    7  N5  UNL     1      10.995  17.628  15.125  1.00  0.00    -0.364 N 
ATOM      8  H5  UNL     1      11.702  17.340  14.448  1.00  0.00     0.165 HD
HETATM    9  C15 UNL     1      11.150  18.766  15.814  1.00  0.00     0.057 A 
ENDROOT
BRANCH   9  10
HETATM   10  C16 UNL     1      12.334  19.629  15.630  1.00  0.00     0.291 C 
BRANCH  10  11
HETATM   11  N6  UNL     1      13.577  18.955  16.001  1.00  0.00    -0.066 N 
ATOM     12  H62 UNL     1      13.516  18.452  16.887  1.00  0.00     0.278 HD
ATOM     13  H61 UNL     1      13.791  18.150  15.413  1.00  0.00     0.278 HD
BRANCH  11  14
HETATM   14  C17 UNL     1      14.628  19.982  15.987  1.00  0.00     0.186 C 
HETATM   15  C18 UNL     1      13.990  21.309  15.807  1.00  0.00     0.034 C 
HETATM   16  C19 UNL     1      14.830  22.359  15.179  1.00  0.00     0.016 C 
HETATM   17  C20 UNL     1      16.288  21.911  15.371  1.00  0.00     0.078 C 
HETATM   18  C29 UNL     1      16.469  20.757  14.447  1.00  0.00     0.016 C 
HETATM   19  C30 UNL     1      15.689  19.604  15.010  1.00  0.00     0.034 C 
BRANCH  17  20
HETATM   20  C21 UNL     1      17.223  23.018  15.240  1.00  0.00     0.221 C 
HETATM   21  O1  UNL     1      18.019  23.021  14.261  1.00  0.00    -0.273 OA
HETATM   22  N7  UNL     1      17.309  24.113  16.142  1.00  0.00    -0.361 N 
ATOM     23  H7  UNL     1      16.668  24.120  16.935  1.00  0.00     0.162 HD
BRANCH  22  24
HETATM   24  C22 UNL     1      18.221  25.203  16.028  1.00  0.00     0.124 C 
BRANCH  24  25
HETATM   25  C23 UNL     1      18.645  25.826  17.326  1.00  0.00     0.050 C 
BRANCH  25  26
HETATM   26  C24 UNL     1      17.626  26.706  17.965  1.00  0.00     0.274 C 
BRANCH  26  27
HETATM   27  N8  UNL     1      16.961  26.163  19.109  1.00  0.00     0.092 N 
HETATM   28  C25 UNL     1      17.661  25.026  19.675  1.00  0.00     0.298 C 
HETATM   29  C26 UNL     1      16.782  24.243  20.616  1.00  0.00     0.198 C 
HETATM   30  O2  UNL     1      15.559  24.879  20.826  1.00  0.00    -0.388 OA
HETATM   31  C27 UNL     1      14.915  24.865  19.579  1.00  0.00     0.198 C 
HETATM   32  C28 UNL     1      15.615  25.790  18.644  1.00  0.00     0.298 C 
ENDBRANCH  26  27
ENDBRANCH  25  26
ENDBRANCH  24  25
ENDBRANCH  22  24
ENDBRANCH  17  20
ENDBRANCH  11  14
ENDBRANCH  10  11
ENDBRANCH   9  10
BRANCH   5  33
HETATM   33  C4  UNL     1       7.710  16.408  16.474  1.00  0.00     0.076 A 
HETATM   34  C5  UNL     1       7.504  15.209  15.848  1.00  0.00     0.121 A 
HETATM   35  N2  UNL     1       6.387  14.479  16.078  1.00  0.00    -0.349 N 
HETATM   36  C6  UNL     1       5.440  14.930  16.941  1.00  0.00     0.116 A 
ATOM     37  H2  UNL     1       6.256  13.587  15.600  1.00  0.00     0.167 HD
HETATM   38  C13 UNL     1       5.625  16.113  17.569  1.00  0.00     0.136 A 
HETATM   39  N4  UNL     1       6.760  16.826  17.319  1.00  0.00    -0.359 N 
ATOM     40  H4  UNL     1       6.890  17.717  17.796  1.00  0.00     0.165 HD
BRANCH  36  41
HETATM   41  N3  UNL     1       4.402  14.204  17.120  1.00  0.00    -0.371 N 
ATOM     42  H3  UNL     1       4.265  13.781  18.037  1.00  0.00     0.161 HD
BRANCH  41  43
HETATM   43  C7  UNL     1       3.419  13.951  16.105  1.00  0.00     0.155 C 
BRANCH  43  44
HETATM   44  C8  UNL     1       2.402  15.058  16.136  1.00  0.00    -0.066 C 
HETATM   45  C9  UNL     1       2.200  15.949  15.168  1.00  0.00    -0.022 C 
HETATM   46  C10 UNL     1       1.129  16.880  15.541  1.00  0.00     0.028 C 
HETATM   47  C11 UNL     1       0.541  16.343  16.810  1.00  0.00     0.008 C 
HETATM   48  C12 UNL     1       1.491  15.286  17.277  1.00  0.00     0.036 C 
ENDBRANCH  43  44
ENDBRANCH  41  43
ENDBRANCH  36  41
ENDBRANCH   5  33
TORSDOF 12
ENDMDL
