MODEL 1
REMARK VINA RESULT: -9.013014834      0.000      0.000
REMARK  13 active torsions:
REMARK  status: ('A' for Active; 'I' for Inactive)
REMARK    1  A    between atoms: O1_2  and  C2_3 
REMARK    2  A    between atoms: C2_3  and  C3_4 
REMARK    3  A    between atoms: C3_4  and  C4_5 
REMARK    4  A    between atoms: C4_5  and  O2_6 
REMARK    5  A    between atoms: O2_6  and  C5_7 
REMARK    6  A    between atoms: C5_7  and  C6_9 
REMARK       I    between atoms: N1_15  and  C12_16 
REMARK    7  A    between atoms: C12_16  and  C13_18 
REMARK    8  A    between atoms: C13_18  and  C14_19 
REMARK    9  A    between atoms: C13_18  and  N2_26 
REMARK   10  A    between atoms: C14_19  and  C15_20 
REMARK       I    between atoms: N2_26  and  C21_28 
REMARK   11  A    between atoms: C21_28  and  O6_30 
REMARK   12  A    between atoms: O6_30  and  C22_31 
REMARK   13  A    between atoms: C22_31  and  C25_34 
REMARK       I    between atoms: C25_34  and  N3_36 
REMARK       I    between atoms: N3_36  and  C26_38 
ROOT
HETATM    1  C13 UNL     1      12.469  22.335  17.693  1.00  0.00     0.202 C 
ENDROOT
BRANCH   1   2
HETATM    2  C12 UNL     1      11.995  21.196  18.508  1.00  0.00     0.247 C 
HETATM    3  N1  UNL     1      11.094  20.195  18.117  1.00  0.00    -0.341 N 
HETATM    4  C9  UNL     1      10.628  19.131  18.966  1.00  0.00     0.028 C 
HETATM    5  C27 UNL     1      10.559  20.128  16.746  1.00  0.00     0.141 C 
HETATM    6  C8  UNL     1      10.886  17.767  18.346  1.00  0.00     0.031 C 
HETATM    7  C10 UNL     1       9.095  19.270  19.004  1.00  0.00     0.038 C 
HETATM    8  C11 UNL     1      11.080  19.159  20.382  1.00  0.00     0.038 C 
HETATM    9  C7  UNL     1      11.603  17.869  17.026  1.00  0.00     0.019 C 
HETATM   10  C6  UNL     1      10.947  18.825  16.077  1.00  0.00     0.104 C 
HETATM   11  O4  UNL     1      12.502  21.169  19.693  1.00  0.00    -0.271 OA
BRANCH  10  12
HETATM   12  C5  UNL     1       9.765  18.173  15.445  1.00  0.00     0.264 C 
HETATM   13  O3  UNL     1       8.663  18.777  15.444  1.00  0.00    -0.265 OA
BRANCH  12  14
HETATM   14  O2  UNL     1       9.812  16.927  14.856  1.00  0.00    -0.321 OA
BRANCH  14  15
HETATM   15  C4  UNL     1       8.716  16.242  14.297  1.00  0.00     0.180 C 
BRANCH  15  16
HETATM   16  C3  UNL     1       8.496  14.869  14.865  1.00  0.00     0.053 C 
BRANCH  16  17
HETATM   17  C2  UNL     1       7.556  15.030  16.061  1.00  0.00     0.169 C 
BRANCH  17  18
HETATM   18  O1  UNL     1       8.283  15.041  17.247  1.00  0.00    -0.396 OA
HETATM   19  C1  UNL     1       7.651  15.809  18.208  1.00  0.00     0.201 C 
ENDBRANCH  17  18
ENDBRANCH  16  17
ENDBRANCH  15  16
ENDBRANCH  14  15
ENDBRANCH  12  14
ENDBRANCH  10  12
ENDBRANCH   1   2
BRANCH   1  20
HETATM   20  C14 UNL     1      12.754  23.567  18.458  1.00  0.00     0.010 C 
BRANCH  20  21
HETATM   21  C15 UNL     1      14.111  24.049  18.716  1.00  0.00    -0.081 C 
HETATM   22  C16 UNL     1      14.372  25.501  18.452  1.00  0.00     0.034 C 
HETATM   23  C17 UNL     1      15.870  25.749  18.569  1.00  0.00     0.004 C 
HETATM   24  C18 UNL     1      16.234  25.390  20.007  1.00  0.00     0.001 C 
HETATM   25  C19 UNL     1      16.188  23.876  20.095  1.00  0.00     0.004 C 
HETATM   26  C20 UNL     1      14.712  23.500  19.964  1.00  0.00     0.034 C 
ENDBRANCH  20  21
ENDBRANCH   1  20
BRANCH   1  27
HETATM   27  N2  UNL     1      13.833  21.883  17.239  1.00  0.00    -0.320 N 
HETATM   28  C21 UNL     1      14.059  21.450  15.921  1.00  0.00     0.362 C 
HETATM   29  O5  UNL     1      13.115  21.437  15.091  1.00  0.00    -0.238 OA
ATOM     30  H2  UNL     1      14.609  21.892  17.902  1.00  0.00     0.166 HD
BRANCH  28  31
HETATM   31  O6  UNL     1      15.286  21.034  15.503  1.00  0.00    -0.284 OA
BRANCH  31  32
HETATM   32  C22 UNL     1      16.081  21.603  14.527  1.00  0.00     0.146 C 
HETATM   33  C23 UNL     1      15.347  22.185  13.354  1.00  0.00     0.057 C 
HETATM   34  C24 UNL     1      17.077  20.600  13.933  1.00  0.00     0.057 C 
BRANCH  32  35
HETATM   35  C25 UNL     1      16.916  22.671  15.126  1.00  0.00     0.260 C 
HETATM   36  O7  UNL     1      17.166  23.687  14.410  1.00  0.00    -0.270 OA
HETATM   37  N3  UNL     1      17.434  22.610  16.431  1.00  0.00    -0.279 N 
HETATM   38  C26 UNL     1      18.200  23.667  16.962  1.00  0.00     0.335 C 
ATOM     39  H3  UNL     1      17.252  21.786  17.003  1.00  0.00     0.173 HD
HETATM   40  N4  UNL     1      18.456  24.820  16.182  1.00  0.00    -0.040 NA
HETATM   41  O8  UNL     1      18.649  23.559  18.144  1.00  0.00    -0.251 OA
ENDBRANCH  32  35
ENDBRANCH  31  32
ENDBRANCH  28  31
ENDBRANCH   1  27
TORSDOF 13
ENDMDL
MODEL 2
REMARK VINA RESULT: -8.925605984      1.244      1.521
REMARK  13 active torsions:
REMARK  status: ('A' for Active; 'I' for Inactive)
REMARK    1  A    between atoms: O1_2  and  C2_3 
REMARK    2  A    between atoms: C2_3  and  C3_4 
REMARK    3  A    between atoms: C3_4  and  C4_5 
REMARK    4  A    between atoms: C4_5  and  O2_6 
REMARK    5  A    between atoms: O2_6  and  C5_7 
REMARK    6  A    between atoms: C5_7  and  C6_9 
REMARK       I    between atoms: N1_15  and  C12_16 
REMARK    7  A    between atoms: C12_16  and  C13_18 
REMARK    8  A    between atoms: C13_18  and  C14_19 
REMARK    9  A    between atoms: C13_18  and  N2_26 
REMARK   10  A    between atoms: C14_19  and  C15_20 
REMARK       I    between atoms: N2_26  and  C21_28 
REMARK   11  A    between atoms: C21_28  and  O6_30 
REMARK   12  A    between atoms: O6_30  and  C22_31 
REMARK   13  A    between atoms: C22_31  and  C25_34 
REMARK       I    between atoms: C25_34  and  N3_36 
REMARK       I    between atoms: N3_36  and  C26_38 
ROOT
HETATM    1  C13 UNL     1      12.635  22.476  17.818  1.00  0.00     0.202 C 
ENDROOT
BRANCH   1   2
HETATM    2  C12 UNL     1      12.160  21.334  18.629  1.00  0.00     0.247 C 
HETATM    3  N1  UNL     1      11.264  20.331  18.232  1.00  0.00    -0.341 N 
HETATM    4  C9  UNL     1      10.798  19.263  19.077  1.00  0.00     0.028 C 
HETATM    5  C27 UNL     1      10.734  20.266  16.859  1.00  0.00     0.141 C 
HETATM    6  C8  UNL     1      11.061  17.902  18.454  1.00  0.00     0.031 C 
HETATM    7  C10 UNL     1       9.264  19.399  19.110  1.00  0.00     0.038 C 
HETATM    8  C11 UNL     1      11.245  19.289  20.495  1.00  0.00     0.038 C 
HETATM    9  C7  UNL     1      11.783  18.010  17.137  1.00  0.00     0.019 C 
HETATM   10  C6  UNL     1      11.127  18.966  16.188  1.00  0.00     0.104 C 
HETATM   11  O4  UNL     1      12.663  21.305  19.816  1.00  0.00    -0.271 OA
BRANCH  10  12
HETATM   12  C5  UNL     1       9.950  18.312  15.550  1.00  0.00     0.264 C 
HETATM   13  O3  UNL     1       8.852  18.923  15.527  1.00  0.00    -0.265 OA
BRANCH  12  14
HETATM   14  O2  UNL     1       9.996  17.058  14.979  1.00  0.00    -0.321 OA
BRANCH  14  15
HETATM   15  C4  UNL     1       8.925  16.409  14.336  1.00  0.00     0.180 C 
BRANCH  15  16
HETATM   16  C3  UNL     1       8.753  14.970  14.732  1.00  0.00     0.053 C 
BRANCH  16  17
HETATM   17  C2  UNL     1       7.677  14.936  15.820  1.00  0.00     0.169 C 
BRANCH  17  18
HETATM   18  O1  UNL     1       8.262  15.007  17.079  1.00  0.00    -0.396 OA
HETATM   19  C1  UNL     1       7.743  16.063  17.807  1.00  0.00     0.201 C 
ENDBRANCH  17  18
ENDBRANCH  16  17
ENDBRANCH  15  16
ENDBRANCH  14  15
ENDBRANCH  12  14
ENDBRANCH  10  12
ENDBRANCH   1   2
BRANCH   1  20
HETATM   20  C14 UNL     1      13.002  23.677  18.598  1.00  0.00     0.010 C 
BRANCH  20  21
HETATM   21  C15 UNL     1      14.379  24.154  18.724  1.00  0.00    -0.081 C 
HETATM   22  C16 UNL     1      14.611  25.616  18.489  1.00  0.00     0.034 C 
HETATM   23  C17 UNL     1      16.113  25.864  18.452  1.00  0.00     0.004 C 
HETATM   24  C18 UNL     1      16.631  25.452  19.827  1.00  0.00     0.001 C 
HETATM   25  C19 UNL     1      16.594  23.935  19.861  1.00  0.00     0.004 C 
HETATM   26  C20 UNL     1      15.113  23.560  19.877  1.00  0.00     0.034 C 
ENDBRANCH  20  21
ENDBRANCH   1  20
BRANCH   1  27
HETATM   27  N2  UNL     1      13.956  21.989  17.285  1.00  0.00    -0.320 N 
HETATM   28  C21 UNL     1      14.122  21.665  15.926  1.00  0.00     0.362 C 
HETATM   29  O5  UNL     1      13.159  21.782  15.128  1.00  0.00    -0.238 OA
ATOM     30  H2  UNL     1      14.748  21.892  17.922  1.00  0.00     0.166 HD
BRANCH  28  31
HETATM   31  O6  UNL     1      15.311  21.218  15.436  1.00  0.00    -0.284 OA
BRANCH  31  32
HETATM   32  C22 UNL     1      15.716  21.178  14.116  1.00  0.00     0.146 C 
HETATM   33  C23 UNL     1      14.611  21.196  13.100  1.00  0.00     0.057 C 
HETATM   34  C24 UNL     1      16.545  19.927  13.801  1.00  0.00     0.057 C 
BRANCH  32  35
HETATM   35  C25 UNL     1      16.618  22.321  13.838  1.00  0.00     0.260 C 
HETATM   36  O7  UNL     1      17.833  22.202  14.178  1.00  0.00    -0.270 OA
HETATM   37  N3  UNL     1      16.194  23.511  13.223  1.00  0.00    -0.279 N 
HETATM   38  C26 UNL     1      17.099  24.558  12.956  1.00  0.00     0.335 C 
ATOM     39  H3  UNL     1      15.213  23.619  12.965  1.00  0.00     0.173 HD
HETATM   40  N4  UNL     1      18.465  24.421  13.302  1.00  0.00    -0.040 NA
HETATM   41  O8  UNL     1      16.663  25.614  12.405  1.00  0.00    -0.251 OA
ENDBRANCH  32  35
ENDBRANCH  31  32
ENDBRANCH  28  31
ENDBRANCH   1  27
TORSDOF 13
ENDMDL
MODEL 3
REMARK VINA RESULT: -8.882744753      1.593      2.169
REMARK  13 active torsions:
REMARK  status: ('A' for Active; 'I' for Inactive)
REMARK    1  A    between atoms: O1_2  and  C2_3 
REMARK    2  A    between atoms: C2_3  and  C3_4 
REMARK    3  A    between atoms: C3_4  and  C4_5 
REMARK    4  A    between atoms: C4_5  and  O2_6 
REMARK    5  A    between atoms: O2_6  and  C5_7 
REMARK    6  A    between atoms: C5_7  and  C6_9 
REMARK       I    between atoms: N1_15  and  C12_16 
REMARK    7  A    between atoms: C12_16  and  C13_18 
REMARK    8  A    between atoms: C13_18  and  C14_19 
REMARK    9  A    between atoms: C13_18  and  N2_26 
REMARK   10  A    between atoms: C14_19  and  C15_20 
REMARK       I    between atoms: N2_26  and  C21_28 
REMARK   11  A    between atoms: C21_28  and  O6_30 
REMARK   12  A    between atoms: O6_30  and  C22_31 
REMARK   13  A    between atoms: C22_31  and  C25_34 
REMARK       I    between atoms: C25_34  and  N3_36 
REMARK       I    between atoms: N3_36  and  C26_38 
ROOT
HETATM    1  C13 UNL     1      12.920  22.324  17.377  1.00  0.00     0.202 C 
ENDROOT
BRANCH   1   2
HETATM    2  C12 UNL     1      13.033  20.890  17.716  1.00  0.00     0.247 C 
HETATM    3  N1  UNL     1      12.021  19.922  17.642  1.00  0.00    -0.341 N 
HETATM    4  C9  UNL     1      12.171  18.544  18.029  1.00  0.00     0.028 C 
HETATM    5  C27 UNL     1      10.684  20.239  17.111  1.00  0.00     0.141 C 
HETATM    6  C8  UNL     1      11.796  17.601  16.897  1.00  0.00     0.031 C 
HETATM    7  C10 UNL     1      11.112  18.301  19.120  1.00  0.00     0.038 C 
HETATM    8  C11 UNL     1      13.476  18.156  18.626  1.00  0.00     0.038 C 
HETATM    9  C7  UNL     1      11.407  18.343  15.645  1.00  0.00     0.019 C 
HETATM   10  C6  UNL     1      10.374  19.400  15.889  1.00  0.00     0.104 C 
HETATM   11  O4  UNL     1      14.213  20.548  18.110  1.00  0.00    -0.271 OA
BRANCH  10  12
HETATM   12  C5  UNL     1       9.028  18.770  15.997  1.00  0.00     0.264 C 
HETATM   13  O3  UNL     1       8.561  18.520  17.136  1.00  0.00    -0.265 OA
BRANCH  12  14
HETATM   14  O2  UNL     1       8.255  18.440  14.903  1.00  0.00    -0.321 OA
BRANCH  14  15
HETATM   15  C4  UNL     1       7.597  17.211  14.705  1.00  0.00     0.180 C 
BRANCH  15  16
HETATM   16  C3  UNL     1       8.517  16.026  14.636  1.00  0.00     0.053 C 
BRANCH  16  17
HETATM   17  C2  UNL     1       7.934  14.958  15.564  1.00  0.00     0.169 C 
BRANCH  17  18
HETATM   18  O1  UNL     1       8.406  15.136  16.860  1.00  0.00    -0.396 OA
HETATM   19  C1  UNL     1       7.365  15.375  17.738  1.00  0.00     0.201 C 
ENDBRANCH  17  18
ENDBRANCH  16  17
ENDBRANCH  15  16
ENDBRANCH  14  15
ENDBRANCH  12  14
ENDBRANCH  10  12
ENDBRANCH   1   2
BRANCH   1  20
HETATM   20  C14 UNL     1      13.192  23.248  18.498  1.00  0.00     0.010 C 
BRANCH  20  21
HETATM   21  C15 UNL     1      14.466  23.948  18.663  1.00  0.00    -0.081 C 
HETATM   22  C16 UNL     1      14.426  25.445  18.606  1.00  0.00     0.034 C 
HETATM   23  C17 UNL     1      15.857  25.963  18.578  1.00  0.00     0.004 C 
HETATM   24  C18 UNL     1      16.490  25.492  19.885  1.00  0.00     0.001 C 
HETATM   25  C19 UNL     1      16.723  24.001  19.734  1.00  0.00     0.004 C 
HETATM   26  C20 UNL     1      15.334  23.364  19.724  1.00  0.00     0.034 C 
ENDBRANCH  20  21
ENDBRANCH   1  20
BRANCH   1  27
HETATM   27  N2  UNL     1      14.087  22.547  16.451  1.00  0.00    -0.320 N 
HETATM   28  C21 UNL     1      14.080  22.057  15.132  1.00  0.00     0.362 C 
HETATM   29  O5  UNL     1      13.085  21.421  14.702  1.00  0.00    -0.238 OA
ATOM     30  H2  UNL     1      14.900  23.065  16.786  1.00  0.00     0.166 HD
BRANCH  28  31
HETATM   31  O6  UNL     1      15.132  22.248  14.290  1.00  0.00    -0.284 OA
BRANCH  31  32
HETATM   32  C22 UNL     1      16.467  22.372  14.624  1.00  0.00     0.146 C 
HETATM   33  C23 UNL     1      17.296  21.135  14.438  1.00  0.00     0.057 C 
HETATM   34  C24 UNL     1      16.663  22.783  16.088  1.00  0.00     0.057 C 
BRANCH  32  35
HETATM   35  C25 UNL     1      17.079  23.463  13.829  1.00  0.00     0.260 C 
HETATM   36  O7  UNL     1      18.341  23.467  13.719  1.00  0.00    -0.270 OA
HETATM   37  N3  UNL     1      16.334  24.475  13.200  1.00  0.00    -0.279 N 
HETATM   38  C26 UNL     1      16.965  25.474  12.431  1.00  0.00     0.335 C 
ATOM     39  H3  UNL     1      15.320  24.486  13.301  1.00  0.00     0.173 HD
HETATM   40  N4  UNL     1      18.372  25.468  12.275  1.00  0.00    -0.040 NA
HETATM   41  O8  UNL     1      16.247  26.369  11.889  1.00  0.00    -0.251 OA
ENDBRANCH  32  35
ENDBRANCH  31  32
ENDBRANCH  28  31
ENDBRANCH   1  27
TORSDOF 13
ENDMDL
MODEL 4
REMARK VINA RESULT: -8.808928943      2.000      8.620
REMARK  13 active torsions:
REMARK  status: ('A' for Active; 'I' for Inactive)
REMARK    1  A    between atoms: O1_2  and  C2_3 
REMARK    2  A    between atoms: C2_3  and  C3_4 
REMARK    3  A    between atoms: C3_4  and  C4_5 
REMARK    4  A    between atoms: C4_5  and  O2_6 
REMARK    5  A    between atoms: O2_6  and  C5_7 
REMARK    6  A    between atoms: C5_7  and  C6_9 
REMARK       I    between atoms: N1_15  and  C12_16 
REMARK    7  A    between atoms: C12_16  and  C13_18 
REMARK    8  A    between atoms: C13_18  and  C14_19 
REMARK    9  A    between atoms: C13_18  and  N2_26 
REMARK   10  A    between atoms: C14_19  and  C15_20 
REMARK       I    between atoms: N2_26  and  C21_28 
REMARK   11  A    between atoms: C21_28  and  O6_30 
REMARK   12  A    between atoms: O6_30  and  C22_31 
REMARK   13  A    between atoms: C22_31  and  C25_34 
REMARK       I    between atoms: C25_34  and  N3_36 
REMARK       I    between atoms: N3_36  and  C26_38 
ROOT
HETATM    1  C13 UNL     1      12.884  21.566  17.570  1.00  0.00     0.202 C 
ENDROOT
BRANCH   1   2
HETATM    2  C12 UNL     1      13.132  21.254  16.147  1.00  0.00     0.247 C 
HETATM    3  N1  UNL     1      14.192  21.717  15.353  1.00  0.00    -0.341 N 
HETATM    4  C9  UNL     1      14.364  21.420  13.956  1.00  0.00     0.028 C 
HETATM    5  C27 UNL     1      15.273  22.547  15.913  1.00  0.00     0.141 C 
HETATM    6  C8  UNL     1      15.725  20.803  13.678  1.00  0.00     0.031 C 
HETATM    7  C10 UNL     1      14.389  22.784  13.241  1.00  0.00     0.038 C 
HETATM    8  C11 UNL     1      13.285  20.632  13.303  1.00  0.00     0.038 C 
HETATM    9  C7  UNL     1      16.531  20.615  14.937  1.00  0.00     0.019 C 
HETATM   10  C6  UNL     1      16.615  21.858  15.768  1.00  0.00     0.104 C 
HETATM   11  O4  UNL     1      12.253  20.463  15.635  1.00  0.00    -0.271 OA
BRANCH  10  12
HETATM   12  C5  UNL     1      17.633  22.780  15.191  1.00  0.00     0.264 C 
HETATM   13  O3  UNL     1      18.094  22.539  14.047  1.00  0.00    -0.265 OA
BRANCH  12  14
HETATM   14  O2  UNL     1      18.104  23.896  15.848  1.00  0.00    -0.321 OA
BRANCH  14  15
HETATM   15  C4  UNL     1      18.341  23.995  17.233  1.00  0.00     0.180 C 
BRANCH  15  16
HETATM   16  C3  UNL     1      18.517  25.402  17.727  1.00  0.00     0.053 C 
BRANCH  16  17
HETATM   17  C2  UNL     1      18.394  26.318  16.507  1.00  0.00     0.169 C 
BRANCH  17  18
HETATM   18  O1  UNL     1      17.864  27.549  16.880  1.00  0.00    -0.396 OA
HETATM   19  C1  UNL     1      18.647  28.153  17.846  1.00  0.00     0.201 C 
ENDBRANCH  17  18
ENDBRANCH  16  17
ENDBRANCH  15  16
ENDBRANCH  14  15
ENDBRANCH  12  14
ENDBRANCH  10  12
ENDBRANCH   1   2
BRANCH   1  20
HETATM   20  C14 UNL     1      12.860  23.008  17.893  1.00  0.00     0.010 C 
BRANCH  20  21
HETATM   21  C15 UNL     1      14.016  23.723  18.433  1.00  0.00    -0.081 C 
HETATM   22  C16 UNL     1      13.911  25.216  18.509  1.00  0.00     0.034 C 
HETATM   23  C17 UNL     1      15.277  25.776  18.885  1.00  0.00     0.004 C 
HETATM   24  C18 UNL     1      15.598  25.188  20.257  1.00  0.00     0.001 C 
HETATM   25  C19 UNL     1      15.941  23.728  20.027  1.00  0.00     0.004 C 
HETATM   26  C20 UNL     1      14.632  23.056  19.615  1.00  0.00     0.034 C 
ENDBRANCH  20  21
ENDBRANCH   1  20
BRANCH   1  27
HETATM   27  N2  UNL     1      11.452  21.140  17.767  1.00  0.00    -0.320 N 
HETATM   28  C21 UNL     1      10.917  20.945  19.053  1.00  0.00     0.362 C 
HETATM   29  O5  UNL     1      11.634  21.129  20.069  1.00  0.00    -0.238 OA
ATOM     30  H2  UNL     1      10.858  20.991  16.951  1.00  0.00     0.166 HD
BRANCH  28  31
HETATM   31  O6  UNL     1       9.626  20.555  19.240  1.00  0.00    -0.284 OA
BRANCH  31  32
HETATM   32  C22 UNL     1       9.138  19.264  19.308  1.00  0.00     0.146 C 
HETATM   33  C23 UNL     1       7.668  19.144  19.590  1.00  0.00     0.057 C 
HETATM   34  C24 UNL     1       9.834  18.437  20.395  1.00  0.00     0.057 C 
BRANCH  32  35
HETATM   35  C25 UNL     1       9.424  18.557  18.038  1.00  0.00     0.260 C 
HETATM   36  O7  UNL     1      10.541  17.966  17.937  1.00  0.00    -0.270 OA
HETATM   37  N3  UNL     1       8.526  18.511  16.958  1.00  0.00    -0.279 N 
HETATM   38  C26 UNL     1       8.837  17.800  15.780  1.00  0.00     0.335 C 
ATOM     39  H3  UNL     1       7.635  19.001  17.026  1.00  0.00     0.173 HD
HETATM   40  N4  UNL     1      10.067  17.110  15.672  1.00  0.00    -0.040 NA
HETATM   41  O8  UNL     1       7.994  17.796  14.832  1.00  0.00    -0.251 OA
ENDBRANCH  32  35
ENDBRANCH  31  32
ENDBRANCH  28  31
ENDBRANCH   1  27
TORSDOF 13
ENDMDL
MODEL 5
REMARK VINA RESULT: -8.747025026      3.407     10.321
REMARK  13 active torsions:
REMARK  status: ('A' for Active; 'I' for Inactive)
REMARK    1  A    between atoms: O1_2  and  C2_3 
REMARK    2  A    between atoms: C2_3  and  C3_4 
REMARK    3  A    between atoms: C3_4  and  C4_5 
REMARK    4  A    between atoms: C4_5  and  O2_6 
REMARK    5  A    between atoms: O2_6  and  C5_7 
REMARK    6  A    between atoms: C5_7  and  C6_9 
REMARK       I    between atoms: N1_15  and  C12_16 
REMARK    7  A    between atoms: C12_16  and  C13_18 
REMARK    8  A    between atoms: C13_18  and  C14_19 
REMARK    9  A    between atoms: C13_18  and  N2_26 
REMARK   10  A    between atoms: C14_19  and  C15_20 
REMARK       I    between atoms: N2_26  and  C21_28 
REMARK   11  A    between atoms: C21_28  and  O6_30 
REMARK   12  A    between atoms: O6_30  and  C22_31 
REMARK   13  A    between atoms: C22_31  and  C25_34 
REMARK       I    between atoms: C25_34  and  N3_36 
REMARK       I    between atoms: N3_36  and  C26_38 
ROOT
HETATM    1  C13 UNL     1       9.458  19.397  16.974  1.00  0.00     0.202 C 
ENDROOT
BRANCH   1   2
HETATM    2  C12 UNL     1      10.783  19.047  17.528  1.00  0.00     0.247 C 
HETATM    3  N1  UNL     1      11.927  19.858  17.558  1.00  0.00    -0.341 N 
HETATM    4  C9  UNL     1      13.209  19.453  18.069  1.00  0.00     0.028 C 
HETATM    5  C27 UNL     1      11.900  21.253  17.083  1.00  0.00     0.141 C 
HETATM    6  C8  UNL     1      13.710  20.405  19.143  1.00  0.00     0.031 C 
HETATM    7  C10 UNL     1      14.195  19.617  16.898  1.00  0.00     0.038 C 
HETATM    8  C11 UNL     1      13.334  18.041  18.518  1.00  0.00     0.038 C 
HETATM    9  C7  UNL     1      12.720  21.503  19.435  1.00  0.00     0.019 C 
HETATM   10  C6  UNL     1      12.254  22.212  18.200  1.00  0.00     0.104 C 
HETATM   11  O4  UNL     1      10.831  17.860  18.030  1.00  0.00    -0.271 OA
BRANCH  10  12
HETATM   12  C5  UNL     1      13.290  23.189  17.761  1.00  0.00     0.264 C 
HETATM   13  O3  UNL     1      13.993  22.921  16.755  1.00  0.00    -0.265 OA
BRANCH  12  14
HETATM   14  O2  UNL     1      13.526  24.385  18.405  1.00  0.00    -0.321 OA
BRANCH  14  15
HETATM   15  C4  UNL     1      14.782  24.851  18.837  1.00  0.00     0.180 C 
BRANCH  15  16
HETATM   16  C3  UNL     1      15.391  24.038  19.943  1.00  0.00     0.053 C 
BRANCH  16  17
HETATM   17  C2  UNL     1      16.420  24.933  20.637  1.00  0.00     0.169 C 
BRANCH  17  18
HETATM   18  O1  UNL     1      17.709  24.499  20.350  1.00  0.00    -0.396 OA
HETATM   19  C1  UNL     1      18.138  24.992  19.131  1.00  0.00     0.201 C 
ENDBRANCH  17  18
ENDBRANCH  16  17
ENDBRANCH  15  16
ENDBRANCH  14  15
ENDBRANCH  12  14
ENDBRANCH  10  12
ENDBRANCH   1   2
BRANCH   1  20
HETATM   20  C14 UNL     1       9.183  18.843  15.631  1.00  0.00     0.010 C 
BRANCH  20  21
HETATM   21  C15 UNL     1       8.716  17.473  15.415  1.00  0.00    -0.081 C 
HETATM   22  C16 UNL     1       7.343  17.312  14.837  1.00  0.00     0.034 C 
HETATM   23  C17 UNL     1       6.967  15.838  14.895  1.00  0.00     0.004 C 
HETATM   24  C18 UNL     1       8.001  15.116  14.034  1.00  0.00     0.001 C 
HETATM   25  C19 UNL     1       9.293  15.113  14.830  1.00  0.00     0.004 C 
HETATM   26  C20 UNL     1       9.762  16.567  14.861  1.00  0.00     0.034 C 
ENDBRANCH  20  21
ENDBRANCH   1  20
BRANCH   1  27
HETATM   27  N2  UNL     1       8.507  18.641  17.864  1.00  0.00    -0.320 N 
HETATM   28  C21 UNL     1       8.135  19.136  19.127  1.00  0.00     0.362 C 
HETATM   29  O5  UNL     1       8.595  20.233  19.534  1.00  0.00    -0.238 OA
ATOM     30  H2  UNL     1       8.123  17.750  17.545  1.00  0.00     0.166 HD
BRANCH  28  31
HETATM   31  O6  UNL     1       7.282  18.458  19.941  1.00  0.00    -0.284 OA
BRANCH  31  32
HETATM   32  C22 UNL     1       7.588  17.439  20.822  1.00  0.00     0.146 C 
HETATM   33  C23 UNL     1       8.990  17.450  21.360  1.00  0.00     0.057 C 
HETATM   34  C24 UNL     1       7.399  16.053  20.195  1.00  0.00     0.057 C 
BRANCH  32  35
HETATM   35  C25 UNL     1       6.653  17.476  21.971  1.00  0.00     0.260 C 
HETATM   36  O7  UNL     1       5.869  18.469  22.053  1.00  0.00    -0.270 OA
HETATM   37  N3  UNL     1       6.595  16.476  22.956  1.00  0.00    -0.279 N 
HETATM   38  C26 UNL     1       5.665  16.547  24.014  1.00  0.00     0.335 C 
ATOM     39  H3  UNL     1       7.236  15.685  22.905  1.00  0.00     0.173 HD
HETATM   40  N4  UNL     1       4.764  17.635  24.096  1.00  0.00    -0.040 NA
HETATM   41  O8  UNL     1       5.659  15.620  24.881  1.00  0.00    -0.251 OA
ENDBRANCH  32  35
ENDBRANCH  31  32
ENDBRANCH  28  31
ENDBRANCH   1  27
TORSDOF 13
ENDMDL
