MODEL 1
REMARK VINA RESULT: -9.515712944      0.000      0.000
REMARK  11 active torsions:
REMARK  status: ('A' for Active; 'I' for Inactive)
REMARK    1  A    between atoms: C2_2  and  C3_3 
REMARK    2  A    between atoms: C3_3  and  N1_4 
REMARK    3  A    between atoms: C6_10  and  C7_11 
REMARK    4  A    between atoms: C12_16  and  N3_17 
REMARK       I    between atoms: N3_17  and  C13_19 
REMARK    5  A    between atoms: C13_19  and  C14_21 
REMARK    6  A    between atoms: C14_21  and  C15_22 
REMARK    7  A    between atoms: C15_22  and  C16_23 
REMARK    8  A    between atoms: C16_23  and  C17_25 
REMARK    9  A    between atoms: C17_25  and  N4_26 
REMARK   10  A    between atoms: N7_38  and  C24_39 
REMARK   11  A    between atoms: C24_39  and  C25_40 
ROOT
HETATM    1  C7  UNL     1      11.881  21.025  18.806  1.00  0.00     0.010 A 
HETATM    2  C8  UNL     1      11.385  21.005  20.085  1.00  0.00     0.016 A 
HETATM    3  C9  UNL     1      10.193  20.393  20.363  1.00  0.00     0.010 A 
HETATM    4  C10 UNL     1       9.505  19.797  19.328  1.00  0.00    -0.035 A 
HETATM    5  C11 UNL     1       8.207  19.125  19.606  1.00  0.00     0.050 C 
HETATM    6  C12 UNL     1       9.956  19.785  18.008  1.00  0.00     0.041 A 
HETATM    7  C22 UNL     1      11.153  20.410  17.778  1.00  0.00     0.045 A 
ENDROOT
BRANCH   1   8
HETATM    8  C6  UNL     1      13.145  21.670  18.475  1.00  0.00     0.117 A 
HETATM    9  N2  UNL     1      13.847  22.514  19.240  1.00  0.00    -0.334 N 
HETATM   10  C5  UNL     1      14.960  22.894  18.583  1.00  0.00     0.147 A 
ATOM     11  H2  UNL     1      13.581  22.822  20.175  1.00  0.00     0.168 HD
HETATM   12  C4  UNL     1      16.019  23.741  18.904  1.00  0.00     0.282 A 
HETATM   13  C23 UNL     1      14.974  22.273  17.353  1.00  0.00     0.146 A 
HETATM   14  N1  UNL     1      17.021  23.950  18.051  1.00  0.00    -0.264 N 
HETATM   15  O1  UNL     1      16.012  24.303  20.010  1.00  0.00    -0.265 OA
HETATM   16  C27 UNL     1      16.998  23.321  16.853  1.00  0.00     0.333 A 
HETATM   17  N7  UNL     1      15.995  22.497  16.506  1.00  0.00    -0.283 N 
HETATM   18  O5  UNL     1      17.960  23.541  16.074  1.00  0.00    -0.246 OA
HETATM   19  N6  UNL     1      13.854  21.536  17.323  1.00  0.00    -0.326 N 
ATOM     20  H6  UNL     1      13.570  20.951  16.538  1.00  0.00     0.169 HD
BRANCH  14  21
HETATM   21  C3  UNL     1      18.095  24.838  18.435  1.00  0.00     0.137 C 
BRANCH  21  22
HETATM   22  C2  UNL     1      17.636  26.258  18.092  1.00  0.00     0.016 C 
HETATM   23  C1  UNL     1      18.787  26.898  17.336  1.00  0.00     0.006 C 
ENDBRANCH  21  22
ENDBRANCH  14  21
BRANCH  17  24
HETATM   24  C24 UNL     1      16.012  21.847  15.214  1.00  0.00     0.135 C 
BRANCH  24  25
HETATM   25  C25 UNL     1      15.111  22.586  14.252  1.00  0.00     0.016 C 
HETATM   26  C26 UNL     1      14.177  21.584  13.595  1.00  0.00     0.006 C 
ENDBRANCH  24  25
ENDBRANCH  17  24
ENDBRANCH   1   8
BRANCH   6  27
HETATM   27  N3  UNL     1       9.176  19.150  17.022  1.00  0.00    -0.327 N 
HETATM   28  C13 UNL     1       9.574  18.306  15.981  1.00  0.00     0.222 C 
HETATM   29  O2  UNL     1      10.753  17.991  15.785  1.00  0.00    -0.273 OA
ATOM     30  H3  UNL     1       8.175  19.333  17.074  1.00  0.00     0.169 HD
BRANCH  28  31
HETATM   31  C14 UNL     1       8.567  17.739  15.043  1.00  0.00     0.110 C 
BRANCH  31  32
HETATM   32  C15 UNL     1       8.957  16.352  14.612  1.00  0.00     0.089 C 
BRANCH  32  33
HETATM   33  C16 UNL     1       7.953  15.383  15.106  1.00  0.00     0.145 C 
HETATM   34  O3  UNL     1       8.289  14.270  15.437  1.00  0.00    -0.296 OA
BRANCH  33  35
HETATM   35  C17 UNL     1       6.520  15.756  15.202  1.00  0.00     0.206 C 
BRANCH  35  36
HETATM   36  N4  UNL     1       6.025  15.647  16.543  1.00  0.00    -0.321 N 
HETATM   37  C18 UNL     1       4.985  14.803  17.066  1.00  0.00     0.319 C 
HETATM   38  O4  UNL     1       4.532  13.805  16.440  1.00  0.00    -0.247 OA
HETATM   39  N5  UNL     1       4.612  15.301  18.343  1.00  0.00    -0.341 N 
HETATM   40  C19 UNL     1       5.200  16.643  18.436  1.00  0.00     0.149 C 
ATOM     41  H5  UNL     1       4.051  14.826  19.049  1.00  0.00     0.164 HD
HETATM   42  C20 UNL     1       6.506  16.407  17.670  1.00  0.00     0.103 C 
HETATM   43  C21 UNL     1       7.444  15.589  18.519  1.00  0.00     0.034 C 
ENDBRANCH  35  36
ENDBRANCH  33  35
ENDBRANCH  32  33
ENDBRANCH  31  32
ENDBRANCH  28  31
ENDBRANCH   6  27
TORSDOF 11
ENDMDL
MODEL 2
REMARK VINA RESULT: -9.375562625      2.159     11.916
REMARK  11 active torsions:
REMARK  status: ('A' for Active; 'I' for Inactive)
REMARK    1  A    between atoms: C2_2  and  C3_3 
REMARK    2  A    between atoms: C3_3  and  N1_4 
REMARK    3  A    between atoms: C6_10  and  C7_11 
REMARK    4  A    between atoms: C12_16  and  N3_17 
REMARK       I    between atoms: N3_17  and  C13_19 
REMARK    5  A    between atoms: C13_19  and  C14_21 
REMARK    6  A    between atoms: C14_21  and  C15_22 
REMARK    7  A    between atoms: C15_22  and  C16_23 
REMARK    8  A    between atoms: C16_23  and  C17_25 
REMARK    9  A    between atoms: C17_25  and  N4_26 
REMARK   10  A    between atoms: N7_38  and  C24_39 
REMARK   11  A    between atoms: C24_39  and  C25_40 
ROOT
HETATM    1  C7  UNL     1      13.783  20.310  16.204  1.00  0.00     0.010 A 
HETATM    2  C8  UNL     1      14.828  20.017  15.365  1.00  0.00     0.016 A 
HETATM    3  C9  UNL     1      15.878  20.884  15.227  1.00  0.00     0.010 A 
HETATM    4  C10 UNL     1      15.859  22.057  15.951  1.00  0.00    -0.035 A 
HETATM    5  C11 UNL     1      16.989  23.016  15.818  1.00  0.00     0.050 C 
HETATM    6  C12 UNL     1      14.825  22.411  16.819  1.00  0.00     0.041 A 
HETATM    7  C22 UNL     1      13.796  21.513  16.924  1.00  0.00     0.045 A 
ENDROOT
BRANCH   1   8
HETATM    8  C6  UNL     1      12.649  19.410  16.373  1.00  0.00     0.117 A 
HETATM    9  N2  UNL     1      12.171  18.535  15.481  1.00  0.00    -0.334 N 
HETATM   10  C5  UNL     1      11.115  17.888  16.009  1.00  0.00     0.147 A 
ATOM     11  H2  UNL     1      12.548  18.383  14.545  1.00  0.00     0.168 HD
HETATM   12  C4  UNL     1      10.260  16.897  15.528  1.00  0.00     0.282 A 
HETATM   13  C23 UNL     1      10.906  18.363  17.286  1.00  0.00     0.146 A 
HETATM   14  N1  UNL     1       9.267  16.418  16.276  1.00  0.00    -0.264 N 
HETATM   15  O1  UNL     1      10.442  16.466  14.380  1.00  0.00    -0.265 OA
HETATM   16  C27 UNL     1       9.095  16.910  17.524  1.00  0.00     0.333 A 
HETATM   17  N7  UNL     1       9.898  17.865  18.025  1.00  0.00    -0.283 N 
HETATM   18  O5  UNL     1       8.149  16.434  18.201  1.00  0.00    -0.246 OA
HETATM   19  N6  UNL     1      11.860  19.288  17.472  1.00  0.00    -0.326 N 
ATOM     20  H6  UNL     1      11.977  19.829  18.328  1.00  0.00     0.169 HD
BRANCH  14  21
HETATM   21  C3  UNL     1       8.410  15.391  15.728  1.00  0.00     0.137 C 
BRANCH  21  22
HETATM   22  C2  UNL     1       7.359  16.104  14.873  1.00  0.00     0.016 C 
HETATM   23  C1  UNL     1       6.014  15.763  15.492  1.00  0.00     0.006 C 
ENDBRANCH  21  22
ENDBRANCH  14  21
BRANCH  17  24
HETATM   24  C24 UNL     1       9.677  18.362  19.365  1.00  0.00     0.135 C 
BRANCH  24  25
HETATM   25  C25 UNL     1       8.955  19.689  19.311  1.00  0.00     0.016 C 
HETATM   26  C26 UNL     1       9.752  20.707  20.110  1.00  0.00     0.006 C 
ENDBRANCH  24  25
ENDBRANCH  17  24
ENDBRANCH   1   8
BRANCH   6  27
HETATM   27  N3  UNL     1      14.900  23.635  17.513  1.00  0.00    -0.327 N 
HETATM   28  C13 UNL     1      15.047  23.873  18.882  1.00  0.00     0.222 C 
HETATM   29  O2  UNL     1      15.136  22.965  19.716  1.00  0.00    -0.273 OA
ATOM     30  H3  UNL     1      14.837  24.469  16.930  1.00  0.00     0.169 HD
BRANCH  28  31
HETATM   31  C14 UNL     1      15.103  25.266  19.404  1.00  0.00     0.110 C 
BRANCH  31  32
HETATM   32  C15 UNL     1      16.452  25.561  20.001  1.00  0.00     0.089 C 
BRANCH  32  33
HETATM   33  C16 UNL     1      17.460  25.645  18.920  1.00  0.00     0.145 C 
HETATM   34  O3  UNL     1      18.469  24.981  18.974  1.00  0.00    -0.296 OA
BRANCH  33  35
HETATM   35  C17 UNL     1      17.255  26.541  17.757  1.00  0.00     0.206 C 
BRANCH  35  36
HETATM   36  N4  UNL     1      18.480  27.144  17.319  1.00  0.00    -0.321 N 
HETATM   37  C18 UNL     1      19.367  26.743  16.261  1.00  0.00     0.319 C 
HETATM   38  O4  UNL     1      19.034  25.925  15.360  1.00  0.00    -0.247 OA
HETATM   39  N5  UNL     1      20.603  27.419  16.441  1.00  0.00    -0.341 N 
HETATM   40  C19 UNL     1      20.562  27.972  17.801  1.00  0.00     0.149 C 
ATOM     41  H5  UNL     1      21.363  27.504  15.766  1.00  0.00     0.164 HD
HETATM   42  C20 UNL     1      19.074  28.326  17.892  1.00  0.00     0.103 C 
HETATM   43  C21 UNL     1      18.796  29.542  17.047  1.00  0.00     0.034 C 
ENDBRANCH  35  36
ENDBRANCH  33  35
ENDBRANCH  32  33
ENDBRANCH  31  32
ENDBRANCH  28  31
ENDBRANCH   6  27
TORSDOF 11
ENDMDL
MODEL 3
REMARK VINA RESULT: -9.367566259      2.367      4.536
REMARK  11 active torsions:
REMARK  status: ('A' for Active; 'I' for Inactive)
REMARK    1  A    between atoms: C2_2  and  C3_3 
REMARK    2  A    between atoms: C3_3  and  N1_4 
REMARK    3  A    between atoms: C6_10  and  C7_11 
REMARK    4  A    between atoms: C12_16  and  N3_17 
REMARK       I    between atoms: N3_17  and  C13_19 
REMARK    5  A    between atoms: C13_19  and  C14_21 
REMARK    6  A    between atoms: C14_21  and  C15_22 
REMARK    7  A    between atoms: C15_22  and  C16_23 
REMARK    8  A    between atoms: C16_23  and  C17_25 
REMARK    9  A    between atoms: C17_25  and  N4_26 
REMARK   10  A    between atoms: N7_38  and  C24_39 
REMARK   11  A    between atoms: C24_39  and  C25_40 
ROOT
HETATM    1  C7  UNL     1      11.111  17.929  15.614  1.00  0.00     0.010 A 
HETATM    2  C8  UNL     1      11.436  17.097  14.574  1.00  0.00     0.016 A 
HETATM    3  C9  UNL     1      10.575  16.113  14.170  1.00  0.00     0.010 A 
HETATM    4  C10 UNL     1       9.374  15.980  14.833  1.00  0.00    -0.035 A 
HETATM    5  C11 UNL     1       8.420  14.918  14.413  1.00  0.00     0.050 C 
HETATM    6  C12 UNL     1       8.986  16.795  15.898  1.00  0.00     0.041 A 
HETATM    7  C22 UNL     1       9.881  17.765  16.267  1.00  0.00     0.045 A 
ENDROOT
BRANCH   1   8
HETATM    8  C6  UNL     1      12.005  18.985  16.070  1.00  0.00     0.117 A 
HETATM    9  N2  UNL     1      11.911  19.692  17.203  1.00  0.00    -0.334 N 
HETATM   10  C5  UNL     1      12.926  20.576  17.266  1.00  0.00     0.147 A 
ATOM     11  H2  UNL     1      11.184  19.578  17.909  1.00  0.00     0.168 HD
HETATM   12  C4  UNL     1      13.302  21.537  18.203  1.00  0.00     0.282 A 
HETATM   13  C23 UNL     1      13.699  20.433  16.134  1.00  0.00     0.146 A 
HETATM   14  N1  UNL     1      14.378  22.300  18.016  1.00  0.00    -0.264 N 
HETATM   15  O1  UNL     1      12.610  21.669  19.224  1.00  0.00    -0.265 OA
HETATM   16  C27 UNL     1      15.111  22.130  16.892  1.00  0.00     0.333 A 
HETATM   17  N7  UNL     1      14.781  21.214  15.965  1.00  0.00    -0.283 N 
HETATM   18  O5  UNL     1      16.119  22.867  16.751  1.00  0.00    -0.246 OA
HETATM   19  N6  UNL     1      13.107  19.456  15.430  1.00  0.00    -0.326 N 
ATOM     20  H6  UNL     1      13.442  19.111  14.531  1.00  0.00     0.169 HD
BRANCH  14  21
HETATM   21  C3  UNL     1      14.723  23.281  19.021  1.00  0.00     0.137 C 
BRANCH  21  22
HETATM   22  C2  UNL     1      14.142  24.617  18.550  1.00  0.00     0.016 C 
HETATM   23  C1  UNL     1      15.220  25.656  18.807  1.00  0.00     0.006 C 
ENDBRANCH  21  22
ENDBRANCH  14  21
BRANCH  17  24
HETATM   24  C24 UNL     1      15.594  21.067  14.778  1.00  0.00     0.135 C 
BRANCH  24  25
HETATM   25  C25 UNL     1      15.061  21.952  13.675  1.00  0.00     0.016 C 
HETATM   26  C26 UNL     1      14.666  21.075  12.498  1.00  0.00     0.006 C 
ENDBRANCH  24  25
ENDBRANCH  17  24
ENDBRANCH   1   8
BRANCH   6  27
HETATM   27  N3  UNL     1       7.737  16.576  16.511  1.00  0.00    -0.327 N 
HETATM   28  C13 UNL     1       7.421  15.809  17.635  1.00  0.00     0.222 C 
HETATM   29  O2  UNL     1       8.267  15.178  18.278  1.00  0.00    -0.273 OA
ATOM     30  H3  UNL     1       6.948  17.047  16.069  1.00  0.00     0.169 HD
BRANCH  28  31
HETATM   31  C14 UNL     1       6.014  15.718  18.115  1.00  0.00     0.110 C 
BRANCH  31  32
HETATM   32  C15 UNL     1       5.535  17.049  18.626  1.00  0.00     0.089 C 
BRANCH  32  33
HETATM   33  C16 UNL     1       5.490  17.020  20.106  1.00  0.00     0.145 C 
HETATM   34  O3  UNL     1       4.993  16.081  20.683  1.00  0.00    -0.296 OA
BRANCH  33  35
HETATM   35  C17 UNL     1       6.051  18.136  20.905  1.00  0.00     0.206 C 
BRANCH  35  36
HETATM   36  N4  UNL     1       7.475  18.230  20.774  1.00  0.00    -0.321 N 
HETATM   37  C18 UNL     1       8.489  17.270  21.119  1.00  0.00     0.319 C 
HETATM   38  O4  UNL     1       8.234  16.055  21.344  1.00  0.00    -0.247 OA
HETATM   39  N5  UNL     1       9.741  17.941  21.148  1.00  0.00    -0.341 N 
HETATM   40  C19 UNL     1       9.426  19.375  21.144  1.00  0.00     0.149 C 
ATOM     41  H5  UNL     1      10.667  17.515  21.167  1.00  0.00     0.164 HD
HETATM   42  C20 UNL     1       8.186  19.367  20.243  1.00  0.00     0.103 C 
HETATM   43  C21 UNL     1       8.607  19.130  18.816  1.00  0.00     0.034 C 
ENDBRANCH  35  36
ENDBRANCH  33  35
ENDBRANCH  32  33
ENDBRANCH  31  32
ENDBRANCH  28  31
ENDBRANCH   6  27
TORSDOF 11
ENDMDL
MODEL 4
REMARK VINA RESULT: -9.344309201      2.366      4.447
REMARK  11 active torsions:
REMARK  status: ('A' for Active; 'I' for Inactive)
REMARK    1  A    between atoms: C2_2  and  C3_3 
REMARK    2  A    between atoms: C3_3  and  N1_4 
REMARK    3  A    between atoms: C6_10  and  C7_11 
REMARK    4  A    between atoms: C12_16  and  N3_17 
REMARK       I    between atoms: N3_17  and  C13_19 
REMARK    5  A    between atoms: C13_19  and  C14_21 
REMARK    6  A    between atoms: C14_21  and  C15_22 
REMARK    7  A    between atoms: C15_22  and  C16_23 
REMARK    8  A    between atoms: C16_23  and  C17_25 
REMARK    9  A    between atoms: C17_25  and  N4_26 
REMARK   10  A    between atoms: N7_38  and  C24_39 
REMARK   11  A    between atoms: C24_39  and  C25_40 
ROOT
HETATM    1  C7  UNL     1      10.785  18.097  15.592  1.00  0.00     0.010 A 
HETATM    2  C8  UNL     1      11.179  17.107  14.729  1.00  0.00     0.016 A 
HETATM    3  C9  UNL     1      10.292  16.155  14.304  1.00  0.00     0.010 A 
HETATM    4  C10 UNL     1       8.995  16.217  14.764  1.00  0.00    -0.035 A 
HETATM    5  C11 UNL     1       8.012  15.194  14.316  1.00  0.00     0.050 C 
HETATM    6  C12 UNL     1       8.533  17.198  15.642  1.00  0.00     0.041 A 
HETATM    7  C22 UNL     1       9.456  18.128  16.040  1.00  0.00     0.045 A 
ENDROOT
BRANCH   1   8
HETATM    8  C6  UNL     1      11.703  19.125  16.065  1.00  0.00     0.117 A 
HETATM    9  N2  UNL     1      11.611  19.833  17.197  1.00  0.00    -0.334 N 
HETATM   10  C5  UNL     1      12.651  20.685  17.279  1.00  0.00     0.147 A 
ATOM     11  H2  UNL     1      10.868  19.742  17.890  1.00  0.00     0.168 HD
HETATM   12  C4  UNL     1      13.041  21.633  18.223  1.00  0.00     0.282 A 
HETATM   13  C23 UNL     1      13.439  20.519  16.160  1.00  0.00     0.146 A 
HETATM   14  N1  UNL     1      14.143  22.362  18.057  1.00  0.00    -0.264 N 
HETATM   15  O1  UNL     1      12.335  21.787  19.232  1.00  0.00    -0.265 OA
HETATM   16  C27 UNL     1      14.890  22.170  16.946  1.00  0.00     0.333 A 
HETATM   17  N7  UNL     1      14.549  21.265  16.012  1.00  0.00    -0.283 N 
HETATM   18  O5  UNL     1      15.923  22.875  16.823  1.00  0.00    -0.246 OA
HETATM   19  N6  UNL     1      12.831  19.561  15.445  1.00  0.00    -0.326 N 
ATOM     20  H6  UNL     1      13.171  19.206  14.552  1.00  0.00     0.169 HD
BRANCH  14  21
HETATM   21  C3  UNL     1      14.501  23.332  19.068  1.00  0.00     0.137 C 
BRANCH  21  22
HETATM   22  C2  UNL     1      14.046  24.698  18.549  1.00  0.00     0.016 C 
HETATM   23  C1  UNL     1      15.190  25.656  18.834  1.00  0.00     0.006 C 
ENDBRANCH  21  22
ENDBRANCH  14  21
BRANCH  17  24
HETATM   24  C24 UNL     1      15.378  21.094  14.839  1.00  0.00     0.135 C 
BRANCH  24  25
HETATM   25  C25 UNL     1      14.880  21.980  13.721  1.00  0.00     0.016 C 
HETATM   26  C26 UNL     1      14.637  21.121  12.492  1.00  0.00     0.006 C 
ENDBRANCH  24  25
ENDBRANCH  17  24
ENDBRANCH   1   8
BRANCH   6  27
HETATM   27  N3  UNL     1       7.186  17.172  16.054  1.00  0.00    -0.327 N 
HETATM   28  C13 UNL     1       6.568  16.374  17.020  1.00  0.00     0.222 C 
HETATM   29  O2  UNL     1       7.176  15.526  17.681  1.00  0.00    -0.273 OA
ATOM     30  H3  UNL     1       6.573  17.833  15.578  1.00  0.00     0.169 HD
BRANCH  28  31
HETATM   31  C14 UNL     1       5.112  16.517  17.297  1.00  0.00     0.110 C 
BRANCH  31  32
HETATM   32  C15 UNL     1       4.684  15.593  18.405  1.00  0.00     0.089 C 
BRANCH  32  33
HETATM   33  C16 UNL     1       4.279  16.394  19.583  1.00  0.00     0.145 C 
HETATM   34  O3  UNL     1       3.309  16.076  20.231  1.00  0.00    -0.296 OA
BRANCH  33  35
HETATM   35  C17 UNL     1       5.048  17.595  19.987  1.00  0.00     0.206 C 
BRANCH  35  36
HETATM   36  N4  UNL     1       6.320  17.254  20.555  1.00  0.00    -0.321 N 
HETATM   37  C18 UNL     1       7.610  17.847  20.328  1.00  0.00     0.319 C 
HETATM   38  O4  UNL     1       7.759  18.973  19.778  1.00  0.00    -0.247 OA
HETATM   39  N5  UNL     1       8.599  16.955  20.823  1.00  0.00    -0.341 N 
HETATM   40  C19 UNL     1       7.910  15.678  21.045  1.00  0.00     0.149 C 
ATOM     41  H5  UNL     1       9.584  17.160  20.990  1.00  0.00     0.164 HD
HETATM   42  C20 UNL     1       6.545  16.196  21.509  1.00  0.00     0.103 C 
HETATM   43  C21 UNL     1       6.665  16.740  22.909  1.00  0.00     0.034 C 
ENDBRANCH  35  36
ENDBRANCH  33  35
ENDBRANCH  32  33
ENDBRANCH  31  32
ENDBRANCH  28  31
ENDBRANCH   6  27
TORSDOF 11
ENDMDL
MODEL 5
REMARK VINA RESULT: -9.326001597      1.188      1.528
REMARK  11 active torsions:
REMARK  status: ('A' for Active; 'I' for Inactive)
REMARK    1  A    between atoms: C2_2  and  C3_3 
REMARK    2  A    between atoms: C3_3  and  N1_4 
REMARK    3  A    between atoms: C6_10  and  C7_11 
REMARK    4  A    between atoms: C12_16  and  N3_17 
REMARK       I    between atoms: N3_17  and  C13_19 
REMARK    5  A    between atoms: C13_19  and  C14_21 
REMARK    6  A    between atoms: C14_21  and  C15_22 
REMARK    7  A    between atoms: C15_22  and  C16_23 
REMARK    8  A    between atoms: C16_23  and  C17_25 
REMARK    9  A    between atoms: C17_25  and  N4_26 
REMARK   10  A    between atoms: N7_38  and  C24_39 
REMARK   11  A    between atoms: C24_39  and  C25_40 
ROOT
HETATM    1  C7  UNL     1      12.477  20.677  19.212  1.00  0.00     0.010 A 
HETATM    2  C8  UNL     1      11.769  21.010  20.339  1.00  0.00     0.016 A 
HETATM    3  C9  UNL     1      10.677  20.280  20.720  1.00  0.00     0.010 A 
HETATM    4  C10 UNL     1      10.306  19.202  19.946  1.00  0.00    -0.035 A 
HETATM    5  C11 UNL     1       9.121  18.392  20.340  1.00  0.00     0.050 C 
HETATM    6  C12 UNL     1      10.984  18.813  18.790  1.00  0.00     0.041 A 
HETATM    7  C22 UNL     1      12.070  19.574  18.448  1.00  0.00     0.045 A 
ENDROOT
BRANCH   1   8
HETATM    8  C6  UNL     1      13.644  21.433  18.778  1.00  0.00     0.117 A 
HETATM    9  N2  UNL     1      14.346  22.320  19.493  1.00  0.00    -0.334 N 
HETATM   10  C5  UNL     1      15.352  22.806  18.742  1.00  0.00     0.147 A 
ATOM     11  H2  UNL     1      14.149  22.585  20.458  1.00  0.00     0.168 HD
HETATM   12  C4  UNL     1      16.363  23.735  18.981  1.00  0.00     0.282 A 
HETATM   13  C23 UNL     1      15.295  22.213  17.499  1.00  0.00     0.146 A 
HETATM   14  N1  UNL     1      17.254  24.046  18.040  1.00  0.00    -0.264 N 
HETATM   15  O1  UNL     1      16.420  24.273  20.098  1.00  0.00    -0.265 OA
HETATM   16  C27 UNL     1      17.165  23.441  16.833  1.00  0.00     0.333 A 
HETATM   17  N7  UNL     1      16.204  22.540  16.563  1.00  0.00    -0.283 N 
HETATM   18  O5  UNL     1      18.022  23.758  15.970  1.00  0.00    -0.246 OA
HETATM   19  N6  UNL     1      14.243  21.384  17.559  1.00  0.00    -0.326 N 
ATOM     20  H6  UNL     1      13.932  20.791  16.788  1.00  0.00     0.169 HD
BRANCH  14  21
HETATM   21  C3  UNL     1      18.283  25.016  18.342  1.00  0.00     0.137 C 
BRANCH  21  22
HETATM   22  C2  UNL     1      17.691  26.394  18.039  1.00  0.00     0.016 C 
HETATM   23  C1  UNL     1      18.701  27.095  17.145  1.00  0.00     0.006 C 
ENDBRANCH  21  22
ENDBRANCH  14  21
BRANCH  17  24
HETATM   24  C24 UNL     1      16.147  21.920  15.258  1.00  0.00     0.135 C 
BRANCH  24  25
HETATM   25  C25 UNL     1      15.091  22.593  14.412  1.00  0.00     0.016 C 
HETATM   26  C26 UNL     1      14.137  21.532  13.891  1.00  0.00     0.006 C 
ENDBRANCH  24  25
ENDBRANCH  17  24
ENDBRANCH   1   8
BRANCH   6  27
HETATM   27  N3  UNL     1      10.523  17.696  18.066  1.00  0.00    -0.327 N 
HETATM   28  C13 UNL     1       9.948  17.636  16.794  1.00  0.00     0.222 C 
HETATM   29  O2  UNL     1       9.759  18.637  16.094  1.00  0.00    -0.273 OA
ATOM     30  H3  UNL     1      10.624  16.799  18.540  1.00  0.00     0.169 HD
BRANCH  28  31
HETATM   31  C14 UNL     1       9.529  16.330  16.216  1.00  0.00     0.110 C 
BRANCH  31  32
HETATM   32  C15 UNL     1       9.166  16.478  14.763  1.00  0.00     0.089 C 
BRANCH  32  33
HETATM   33  C16 UNL     1       7.760  16.062  14.563  1.00  0.00     0.145 C 
HETATM   34  O3  UNL     1       7.506  15.023  14.000  1.00  0.00    -0.296 OA
BRANCH  33  35
HETATM   35  C17 UNL     1       6.640  16.907  15.045  1.00  0.00     0.206 C 
BRANCH  35  36
HETATM   36  N4  UNL     1       5.768  16.193  15.931  1.00  0.00    -0.321 N 
HETATM   37  C18 UNL     1       5.889  15.968  17.345  1.00  0.00     0.319 C 
HETATM   38  O4  UNL     1       6.676  16.628  18.079  1.00  0.00    -0.247 OA
HETATM   39  N5  UNL     1       4.998  14.922  17.704  1.00  0.00    -0.341 N 
HETATM   40  C19 UNL     1       4.587  14.296  16.441  1.00  0.00     0.149 C 
ATOM     41  H5  UNL     1       4.703  14.659  18.644  1.00  0.00     0.164 HD
HETATM   42  C20 UNL     1       4.547  15.534  15.539  1.00  0.00     0.103 C 
HETATM   43  C21 UNL     1       3.342  16.369  15.888  1.00  0.00     0.034 C 
ENDBRANCH  35  36
ENDBRANCH  33  35
ENDBRANCH  32  33
ENDBRANCH  31  32
ENDBRANCH  28  31
ENDBRANCH   6  27
TORSDOF 11
ENDMDL
