MODEL 1
REMARK VINA RESULT: -8.409135433      0.000      0.000
REMARK  16 active torsions:
REMARK  status: ('A' for Active; 'I' for Inactive)
REMARK    1  A    between atoms: N1_2  and  C2_5 
REMARK    2  A    between atoms: C2_5  and  C3_6 
REMARK    3  A    between atoms: C3_6  and  C4_7 
REMARK    4  A    between atoms: C4_7  and  C5_8 
REMARK    5  A    between atoms: C5_8  and  C6_9 
REMARK    6  A    between atoms: C6_9  and  N2_10 
REMARK       I    between atoms: N2_10  and  C7_12 
REMARK       I    between atoms: C7_12  and  N3_14 
REMARK    7  A    between atoms: C8_15  and  O2_16 
REMARK    8  A    between atoms: C13_27  and  C14_28 
REMARK    9  A    between atoms: C14_28  and  C15_29 
REMARK   10  A    between atoms: C18_32  and  O4_33 
REMARK   11  A    between atoms: C19_37  and  C20_38 
REMARK   12  A    between atoms: C20_38  and  C21_39 
REMARK   13  A    between atoms: C24_42  and  O5_43 
REMARK   14  A    between atoms: C25_47  and  C26_48 
REMARK   15  A    between atoms: C26_48  and  C27_49 
REMARK   16  A    between atoms: C30_52  and  O6_53 
ROOT
HETATM    1  N2  UNL     1      -6.980   1.832   2.899  1.00  0.00    -0.343 N 
ATOM      2  H2  UNL     1      -6.077   1.889   3.370  1.00  0.00     0.164 HD
HETATM    3  C7  UNL     1      -8.140   1.791   3.690  1.00  0.00     0.327 C 
HETATM    4  O1  UNL     1      -9.279   1.731   3.111  1.00  0.00    -0.247 OA
HETATM    5  N3  UNL     1      -8.173   1.810   5.120  1.00  0.00    -0.238 N 
HETATM    6  C8  UNL     1      -6.927   1.807   5.805  1.00  0.00     0.226 C 
HETATM    7  N4  UNL     1      -6.342   2.697   6.713  1.00  0.00    -0.339 N 
ATOM      8  H4  UNL     1      -6.509   2.450   7.689  1.00  0.00     0.164 HD
HETATM    9  C9  UNL     1      -5.547   3.895   6.550  1.00  0.00     0.107 C 
HETATM   10  C10 UNL     1      -5.971   4.923   7.546  1.00  0.00     0.048 C 
HETATM   11  C11 UNL     1      -5.811   4.570   5.209  1.00  0.00     0.048 C 
HETATM   12  C12 UNL     1      -4.079   3.556   6.667  1.00  0.00     0.249 C 
HETATM   13  O3  UNL     1      -3.451   3.769   5.585  1.00  0.00    -0.270 OA
HETATM   14  N5  UNL     1      -3.369   3.063   7.751  1.00  0.00    -0.325 N 
ATOM     15  H5  UNL     1      -3.008   2.124   7.577  1.00  0.00     0.169 HD
HETATM   16  C13 UNL     1      -3.019   3.535   9.038  1.00  0.00     0.063 C 
HETATM   17  C18 UNL     1      -3.868   3.235  10.193  1.00  0.00     0.163 C 
HETATM   18  N6  UNL     1      -5.002   2.537  10.487  1.00  0.00    -0.335 N 
ATOM     19  H6  UNL     1      -5.698   3.178  10.867  1.00  0.00     0.168 HD
HETATM   20  C19 UNL     1      -5.548   1.235  10.447  1.00  0.00     0.062 C 
HETATM   21  C24 UNL     1      -7.021   1.227  10.586  1.00  0.00     0.160 C 
HETATM   22  N7  UNL     1      -8.019   0.395  10.111  1.00  0.00    -0.354 N 
ATOM     23  H7  UNL     1      -8.575  -0.065  10.833  1.00  0.00     0.162 HD
HETATM   24  C25 UNL     1      -8.407   0.066   8.720  1.00  0.00     0.181 C 
HETATM   25  C30 UNL     1      -9.325   1.121   8.288  1.00  0.00     0.142 C 
HETATM   26  N8  UNL     1      -9.413   2.009   7.210  1.00  0.00    -0.341 N 
HETATM   27  C31 UNL     1      -9.497   3.461   7.530  1.00  0.00     0.154 C 
HETATM   28  C32 UNL     1      -9.479   1.769   5.780  1.00  0.00     0.114 C 
HETATM   29  C33 UNL     1     -10.337   2.843   5.107  1.00  0.00     0.064 C 
HETATM   30  C34 UNL     1     -10.202   0.470   5.439  1.00  0.00     0.064 C 
ENDROOT
BRANCH   6  31
HETATM   31  O2  UNL     1      -6.219   0.719   5.490  1.00  0.00    -0.332 OA
ATOM     32  H2  UNL     1      -5.358   0.961   5.172  1.00  0.00     0.220 HD
ENDBRANCH   6  31
BRANCH   1  33
HETATM   33  C6  UNL     1      -6.995   1.799   1.479  1.00  0.00     0.124 C 
BRANCH  33  34
HETATM   34  C5  UNL     1      -7.698   2.966   0.897  1.00  0.00     0.020 C 
BRANCH  34  35
HETATM   35  C4  UNL     1      -8.478   2.624  -0.357  1.00  0.00     0.003 C 
BRANCH  35  36
HETATM   36  C3  UNL     1      -9.887   2.232  -0.073  1.00  0.00     0.027 C 
BRANCH  36  37
HETATM   37  C2  UNL     1     -10.085   0.760  -0.359  1.00  0.00     0.231 C 
BRANCH  37  38
HETATM   38  N1  UNL     1     -10.259  -0.001   0.866  1.00  0.00    -0.079 N 
HETATM   39  C1  UNL     1     -11.653  -0.264   1.143  1.00  0.00     0.266 C 
ATOM     40  H12 UNL     1      -9.805   0.459   1.655  1.00  0.00     0.276 HD
ATOM     41  H11 UNL     1      -9.716  -0.863   0.848  1.00  0.00     0.276 HD
ENDBRANCH  37  38
ENDBRANCH  36  37
ENDBRANCH  35  36
ENDBRANCH  34  35
ENDBRANCH  33  34
ENDBRANCH   1  33
BRANCH  25  42
HETATM   42  O6  UNL     1     -10.311   1.257   9.152  1.00  0.00    -0.348 OA
ATOM     43  H6  UNL     1     -10.853   0.477   9.163  1.00  0.00     0.219 HD
ENDBRANCH  25  42
BRANCH  24  44
HETATM   44  C26 UNL     1      -8.734  -1.337   8.511  1.00  0.00     0.008 C 
BRANCH  44  45
HETATM   45  C27 UNL     1      -8.069  -2.262   7.610  1.00  0.00    -0.089 C 
HETATM   46  C28 UNL     1      -6.608  -2.106   7.333  1.00  0.00     0.042 C 
HETATM   47  C29 UNL     1      -8.810  -2.637   6.338  1.00  0.00     0.042 C 
ENDBRANCH  44  45
ENDBRANCH  24  44
BRANCH  16  48
HETATM   48  C14 UNL     1      -2.520   4.974   9.077  1.00  0.00     0.065 C 
BRANCH  48  49
HETATM   49  C15 UNL     1      -1.025   5.031   9.012  1.00  0.00    -0.017 C 
HETATM   50  C16 UNL     1      -0.377   4.079   9.999  1.00  0.00     0.010 C 
HETATM   51  C17 UNL     1      -0.540   6.427   9.426  1.00  0.00     0.010 C 
ENDBRANCH  48  49
ENDBRANCH  16  48
BRANCH  21  52
HETATM   52  O5  UNL     1      -7.432   2.225  11.321  1.00  0.00    -0.345 OA
ATOM     53  H5  UNL     1      -6.907   2.311  12.109  1.00  0.00     0.219 HD
ENDBRANCH  21  52
BRANCH  17  54
HETATM   54  O4  UNL     1      -3.347   3.841  11.249  1.00  0.00    -0.345 OA
ATOM     55  H4  UNL     1      -4.062   4.123  11.807  1.00  0.00     0.219 HD
ENDBRANCH  17  54
BRANCH  20  56
HETATM   56  C20 UNL     1      -5.031   0.205   9.545  1.00  0.00     0.065 C 
BRANCH  56  57
HETATM   57  C21 UNL     1      -4.190  -0.880  10.088  1.00  0.00    -0.017 C 
HETATM   58  C22 UNL     1      -2.952  -0.458  10.805  1.00  0.00     0.010 C 
HETATM   59  C23 UNL     1      -5.055  -1.598  11.148  1.00  0.00     0.010 C 
ENDBRANCH  56  57
ENDBRANCH  20  56
TORSDOF 16
ENDMDL
MODEL 2
REMARK VINA RESULT: -7.960286479      2.790      7.161
REMARK  16 active torsions:
REMARK  status: ('A' for Active; 'I' for Inactive)
REMARK    1  A    between atoms: N1_2  and  C2_5 
REMARK    2  A    between atoms: C2_5  and  C3_6 
REMARK    3  A    between atoms: C3_6  and  C4_7 
REMARK    4  A    between atoms: C4_7  and  C5_8 
REMARK    5  A    between atoms: C5_8  and  C6_9 
REMARK    6  A    between atoms: C6_9  and  N2_10 
REMARK       I    between atoms: N2_10  and  C7_12 
REMARK       I    between atoms: C7_12  and  N3_14 
REMARK    7  A    between atoms: C8_15  and  O2_16 
REMARK    8  A    between atoms: C13_27  and  C14_28 
REMARK    9  A    between atoms: C14_28  and  C15_29 
REMARK   10  A    between atoms: C18_32  and  O4_33 
REMARK   11  A    between atoms: C19_37  and  C20_38 
REMARK   12  A    between atoms: C20_38  and  C21_39 
REMARK   13  A    between atoms: C24_42  and  O5_43 
REMARK   14  A    between atoms: C25_47  and  C26_48 
REMARK   15  A    between atoms: C26_48  and  C27_49 
REMARK   16  A    between atoms: C30_52  and  O6_53 
ROOT
HETATM    1  N2  UNL     1     -10.828   5.523   6.507  1.00  0.00    -0.343 N 
ATOM      2  H2  UNL     1     -10.489   5.045   7.342  1.00  0.00     0.164 HD
HETATM    3  C7  UNL     1      -9.977   5.592   5.391  1.00  0.00     0.327 C 
HETATM    4  O1  UNL     1     -10.395   6.180   4.334  1.00  0.00    -0.247 OA
HETATM    5  N3  UNL     1      -8.653   5.057   5.319  1.00  0.00    -0.238 N 
HETATM    6  C8  UNL     1      -8.123   4.456   6.494  1.00  0.00     0.226 C 
HETATM    7  N4  UNL     1      -7.651   3.168   6.771  1.00  0.00    -0.339 N 
ATOM      8  H4  UNL     1      -6.641   3.073   6.659  1.00  0.00     0.164 HD
HETATM    9  C9  UNL     1      -8.303   1.944   7.184  1.00  0.00     0.107 C 
HETATM   10  C10 UNL     1      -7.712   0.784   6.453  1.00  0.00     0.048 C 
HETATM   11  C11 UNL     1      -9.768   1.915   6.766  1.00  0.00     0.048 C 
HETATM   12  C12 UNL     1      -8.199   1.788   8.684  1.00  0.00     0.249 C 
HETATM   13  O3  UNL     1      -9.335   1.823   9.248  1.00  0.00    -0.270 OA
HETATM   14  N5  UNL     1      -7.076   1.625   9.480  1.00  0.00    -0.325 N 
ATOM     15  H5  UNL     1      -6.931   2.420  10.104  1.00  0.00     0.169 HD
HETATM   16  C13 UNL     1      -6.081   0.633   9.645  1.00  0.00     0.063 C 
HETATM   17  C18 UNL     1      -4.826   0.710   8.893  1.00  0.00     0.163 C 
HETATM   18  N6  UNL     1      -4.204   1.539   8.006  1.00  0.00    -0.335 N 
ATOM     19  H6  UNL     1      -4.022   1.026   7.144  1.00  0.00     0.168 HD
HETATM   20  C19 UNL     1      -3.725   2.860   7.866  1.00  0.00     0.062 C 
HETATM   21  C24 UNL     1      -3.465   3.230   6.458  1.00  0.00     0.160 C 
HETATM   22  N7  UNL     1      -3.520   4.422   5.759  1.00  0.00    -0.354 N 
ATOM     23  H7  UNL     1      -2.636   4.719   5.345  1.00  0.00     0.162 HD
HETATM   24  C25 UNL     1      -4.661   5.337   5.518  1.00  0.00     0.181 C 
HETATM   25  C30 UNL     1      -5.362   4.820   4.342  1.00  0.00     0.142 C 
HETATM   26  N8  UNL     1      -6.676   4.456   4.025  1.00  0.00    -0.341 N 
HETATM   27  C31 UNL     1      -6.894   3.076   3.511  1.00  0.00     0.154 C 
HETATM   28  C32 UNL     1      -7.912   5.215   4.067  1.00  0.00     0.114 C 
HETATM   29  C33 UNL     1      -8.850   4.754   2.949  1.00  0.00     0.064 C 
HETATM   30  C34 UNL     1      -7.698   6.695   3.765  1.00  0.00     0.064 C 
ENDROOT
BRANCH   6  31
HETATM   31  O2  UNL     1      -8.086   5.337   7.498  1.00  0.00    -0.332 OA
ATOM     32  H2  UNL     1      -8.160   6.224   7.167  1.00  0.00     0.220 HD
ENDBRANCH   6  31
BRANCH   1  33
HETATM   33  C6  UNL     1     -12.133   6.081   6.537  1.00  0.00     0.124 C 
BRANCH  33  34
HETATM   34  C5  UNL     1     -12.392   6.837   7.784  1.00  0.00     0.020 C 
BRANCH  34  35
HETATM   35  C4  UNL     1     -11.202   6.858   8.723  1.00  0.00     0.003 C 
BRANCH  35  36
HETATM   36  C3  UNL     1     -11.496   6.234  10.044  1.00  0.00     0.027 C 
BRANCH  36  37
HETATM   37  C2  UNL     1     -11.153   4.761  10.011  1.00  0.00     0.231 C 
BRANCH  37  38
HETATM   38  N1  UNL     1     -10.035   4.455  10.885  1.00  0.00    -0.079 N 
HETATM   39  C1  UNL     1     -10.103   5.192  12.126  1.00  0.00     0.266 C 
ATOM     40  H12 UNL     1      -9.144   4.607  10.413  1.00  0.00     0.276 HD
ATOM     41  H11 UNL     1      -9.959   3.452  11.053  1.00  0.00     0.276 HD
ENDBRANCH  37  38
ENDBRANCH  36  37
ENDBRANCH  35  36
ENDBRANCH  34  35
ENDBRANCH  33  34
ENDBRANCH   1  33
BRANCH  25  42
HETATM   42  O6  UNL     1      -4.524   4.656   3.339  1.00  0.00    -0.348 OA
ATOM     43  H6  UNL     1      -3.629   4.796   3.627  1.00  0.00     0.219 HD
ENDBRANCH  25  42
BRANCH  24  44
HETATM   44  C26 UNL     1      -4.321   6.748   5.622  1.00  0.00     0.008 C 
BRANCH  44  45
HETATM   45  C27 UNL     1      -3.125   7.315   6.220  1.00  0.00    -0.089 C 
HETATM   46  C28 UNL     1      -2.995   7.371   7.708  1.00  0.00     0.042 C 
HETATM   47  C29 UNL     1      -2.579   8.588   5.595  1.00  0.00     0.042 C 
ENDBRANCH  44  45
ENDBRANCH  24  44
BRANCH  16  48
HETATM   48  C14 UNL     1      -6.606  -0.796   9.699  1.00  0.00     0.065 C 
BRANCH  48  49
HETATM   49  C15 UNL     1      -6.982  -1.182  11.097  1.00  0.00    -0.017 C 
HETATM   50  C16 UNL     1      -6.901  -0.006  12.052  1.00  0.00     0.010 C 
HETATM   51  C17 UNL     1      -5.977  -2.208  11.639  1.00  0.00     0.010 C 
ENDBRANCH  48  49
ENDBRANCH  16  48
BRANCH  21  52
HETATM   52  O5  UNL     1      -3.106   2.189   5.755  1.00  0.00    -0.345 OA
ATOM     53  H5  UNL     1      -2.902   1.449   6.315  1.00  0.00     0.219 HD
ENDBRANCH  21  52
BRANCH  17  54
HETATM   54  O4  UNL     1      -4.109  -0.363   9.188  1.00  0.00    -0.345 OA
ATOM     55  H4  UNL     1      -4.285  -0.594  10.093  1.00  0.00     0.219 HD
ENDBRANCH  17  54
BRANCH  20  56
HETATM   56  C20 UNL     1      -4.237   3.960   8.684  1.00  0.00     0.065 C 
BRANCH  56  57
HETATM   57  C21 UNL     1      -3.555   4.304   9.948  1.00  0.00    -0.017 C 
HETATM   58  C22 UNL     1      -3.764   3.364  11.086  1.00  0.00     0.010 C 
HETATM   59  C23 UNL     1      -2.041   4.249   9.642  1.00  0.00     0.010 C 
ENDBRANCH  56  57
ENDBRANCH  20  56
TORSDOF 16
ENDMDL
MODEL 3
REMARK VINA RESULT: -7.860421607      1.455      1.771
REMARK  16 active torsions:
REMARK  status: ('A' for Active; 'I' for Inactive)
REMARK    1  A    between atoms: N1_2  and  C2_5 
REMARK    2  A    between atoms: C2_5  and  C3_6 
REMARK    3  A    between atoms: C3_6  and  C4_7 
REMARK    4  A    between atoms: C4_7  and  C5_8 
REMARK    5  A    between atoms: C5_8  and  C6_9 
REMARK    6  A    between atoms: C6_9  and  N2_10 
REMARK       I    between atoms: N2_10  and  C7_12 
REMARK       I    between atoms: C7_12  and  N3_14 
REMARK    7  A    between atoms: C8_15  and  O2_16 
REMARK    8  A    between atoms: C13_27  and  C14_28 
REMARK    9  A    between atoms: C14_28  and  C15_29 
REMARK   10  A    between atoms: C18_32  and  O4_33 
REMARK   11  A    between atoms: C19_37  and  C20_38 
REMARK   12  A    between atoms: C20_38  and  C21_39 
REMARK   13  A    between atoms: C24_42  and  O5_43 
REMARK   14  A    between atoms: C25_47  and  C26_48 
REMARK   15  A    between atoms: C26_48  and  C27_49 
REMARK   16  A    between atoms: C30_52  and  O6_53 
ROOT
HETATM    1  N2  UNL     1      -7.008   1.779   2.902  1.00  0.00    -0.343 N 
ATOM      2  H2  UNL     1      -6.132   2.199   3.212  1.00  0.00     0.164 HD
HETATM    3  C7  UNL     1      -7.943   1.395   3.878  1.00  0.00     0.327 C 
HETATM    4  O1  UNL     1      -9.050   0.877   3.500  1.00  0.00    -0.247 OA
HETATM    5  N3  UNL     1      -7.772   1.528   5.291  1.00  0.00    -0.238 N 
HETATM    6  C8  UNL     1      -6.528   2.035   5.757  1.00  0.00     0.226 C 
HETATM    7  N4  UNL     1      -6.188   3.154   6.527  1.00  0.00    -0.339 N 
ATOM      8  H4  UNL     1      -6.109   2.952   7.524  1.00  0.00     0.164 HD
HETATM    9  C9  UNL     1      -5.926   4.538   6.196  1.00  0.00     0.107 C 
HETATM   10  C10 UNL     1      -6.550   5.430   7.218  1.00  0.00     0.048 C 
HETATM   11  C11 UNL     1      -6.612   4.950   4.900  1.00  0.00     0.048 C 
HETATM   12  C12 UNL     1      -4.435   4.762   6.075  1.00  0.00     0.249 C 
HETATM   13  O3  UNL     1      -4.095   5.089   4.898  1.00  0.00    -0.270 OA
HETATM   14  N5  UNL     1      -3.444   4.657   7.039  1.00  0.00    -0.325 N 
ATOM     15  H5  UNL     1      -2.792   3.900   6.835  1.00  0.00     0.169 HD
HETATM   16  C13 UNL     1      -3.110   5.337   8.234  1.00  0.00     0.063 C 
HETATM   17  C18 UNL     1      -3.611   4.856   9.524  1.00  0.00     0.163 C 
HETATM   18  N6  UNL     1      -4.351   3.826  10.025  1.00  0.00    -0.335 N 
ATOM     19  H6  UNL     1      -5.173   4.205  10.497  1.00  0.00     0.168 HD
HETATM   20  C19 UNL     1      -4.377   2.417  10.117  1.00  0.00     0.062 C 
HETATM   21  C24 UNL     1      -5.706   1.892  10.501  1.00  0.00     0.160 C 
HETATM   22  N7  UNL     1      -6.383   0.717  10.226  1.00  0.00    -0.354 N 
ATOM     23  H7  UNL     1      -6.619   0.155  11.044  1.00  0.00     0.162 HD
HETATM   24  C25 UNL     1      -6.820   0.148   8.930  1.00  0.00     0.181 C 
HETATM   25  C30 UNL     1      -8.115   0.758   8.627  1.00  0.00     0.142 C 
HETATM   26  N8  UNL     1      -8.680   1.454   7.553  1.00  0.00    -0.341 N 
HETATM   27  C31 UNL     1      -9.248   2.801   7.838  1.00  0.00     0.154 C 
HETATM   28  C32 UNL     1      -8.860   1.080   6.163  1.00  0.00     0.114 C 
HETATM   29  C33 UNL     1     -10.142   1.708   5.611  1.00  0.00     0.064 C 
HETATM   30  C34 UNL     1      -9.092  -0.418   5.987  1.00  0.00     0.064 C 
ENDROOT
BRANCH   6  31
HETATM   31  O2  UNL     1      -5.522   1.252   5.360  1.00  0.00    -0.332 OA
ATOM     32  H2  UNL     1      -5.854   0.457   4.961  1.00  0.00     0.220 HD
ENDBRANCH   6  31
BRANCH   1  33
HETATM   33  C6  UNL     1      -7.216   1.616   1.506  1.00  0.00     0.124 C 
BRANCH  33  34
HETATM   34  C5  UNL     1      -7.775   2.833   0.875  1.00  0.00     0.020 C 
BRANCH  34  35
HETATM   35  C4  UNL     1      -8.664   2.530  -0.315  1.00  0.00     0.003 C 
BRANCH  35  36
HETATM   36  C3  UNL     1     -10.058   2.180   0.078  1.00  0.00     0.027 C 
BRANCH  36  37
HETATM   37  C2  UNL     1     -10.337   0.726  -0.236  1.00  0.00     0.231 C 
BRANCH  37  38
HETATM   38  N1  UNL     1     -10.354  -0.084   0.968  1.00  0.00    -0.079 N 
HETATM   39  C1  UNL     1     -11.696  -0.467   1.343  1.00  0.00     0.266 C 
ATOM     40  H12 UNL     1      -9.875   0.384   1.737  1.00  0.00     0.276 HD
ATOM     41  H11 UNL     1      -9.749  -0.900   0.875  1.00  0.00     0.276 HD
ENDBRANCH  37  38
ENDBRANCH  36  37
ENDBRANCH  35  36
ENDBRANCH  34  35
ENDBRANCH  33  34
ENDBRANCH   1  33
BRANCH  25  42
HETATM   42  O6  UNL     1      -8.944   0.608   9.640  1.00  0.00    -0.348 OA
ATOM     43  H6  UNL     1      -9.613   1.282   9.626  1.00  0.00     0.219 HD
ENDBRANCH  25  42
BRANCH  24  44
HETATM   44  C26 UNL     1      -6.631  -1.292   8.822  1.00  0.00     0.008 C 
BRANCH  44  45
HETATM   45  C27 UNL     1      -5.839  -1.995   7.828  1.00  0.00    -0.089 C 
HETATM   46  C28 UNL     1      -4.522  -1.434   7.398  1.00  0.00     0.042 C 
HETATM   47  C29 UNL     1      -6.583  -2.566   6.633  1.00  0.00     0.042 C 
ENDBRANCH  44  45
ENDBRANCH  24  44
BRANCH  16  48
HETATM   48  C14 UNL     1      -3.180   6.857   8.145  1.00  0.00     0.065 C 
BRANCH  48  49
HETATM   49  C15 UNL     1      -2.186   7.386   7.157  1.00  0.00    -0.017 C 
HETATM   50  C16 UNL     1      -1.214   8.360   7.795  1.00  0.00     0.010 C 
HETATM   51  C17 UNL     1      -2.914   8.197   6.075  1.00  0.00     0.010 C 
ENDBRANCH  48  49
ENDBRANCH  16  48
BRANCH  21  52
HETATM   52  O5  UNL     1      -6.345   2.737  11.265  1.00  0.00    -0.345 OA
ATOM     53  H5  UNL     1      -7.016   3.201  10.777  1.00  0.00     0.219 HD
ENDBRANCH  21  52
BRANCH  17  54
HETATM   54  O4  UNL     1      -3.204   5.702  10.459  1.00  0.00    -0.345 OA
ATOM     55  H4  UNL     1      -2.359   6.047  10.193  1.00  0.00     0.219 HD
ENDBRANCH  17  54
BRANCH  20  56
HETATM   56  C20 UNL     1      -3.653   1.566   9.172  1.00  0.00     0.065 C 
BRANCH  56  57
HETATM   57  C21 UNL     1      -2.448   0.842   9.623  1.00  0.00    -0.017 C 
HETATM   58  C22 UNL     1      -1.508   1.604  10.494  1.00  0.00     0.010 C 
HETATM   59  C23 UNL     1      -2.958  -0.329  10.494  1.00  0.00     0.010 C 
ENDBRANCH  56  57
ENDBRANCH  20  56
TORSDOF 16
ENDMDL
MODEL 4
REMARK VINA RESULT: -7.769856171      2.982      7.051
REMARK  16 active torsions:
REMARK  status: ('A' for Active; 'I' for Inactive)
REMARK    1  A    between atoms: N1_2  and  C2_5 
REMARK    2  A    between atoms: C2_5  and  C3_6 
REMARK    3  A    between atoms: C3_6  and  C4_7 
REMARK    4  A    between atoms: C4_7  and  C5_8 
REMARK    5  A    between atoms: C5_8  and  C6_9 
REMARK    6  A    between atoms: C6_9  and  N2_10 
REMARK       I    between atoms: N2_10  and  C7_12 
REMARK       I    between atoms: C7_12  and  N3_14 
REMARK    7  A    between atoms: C8_15  and  O2_16 
REMARK    8  A    between atoms: C13_27  and  C14_28 
REMARK    9  A    between atoms: C14_28  and  C15_29 
REMARK   10  A    between atoms: C18_32  and  O4_33 
REMARK   11  A    between atoms: C19_37  and  C20_38 
REMARK   12  A    between atoms: C20_38  and  C21_39 
REMARK   13  A    between atoms: C24_42  and  O5_43 
REMARK   14  A    between atoms: C25_47  and  C26_48 
REMARK   15  A    between atoms: C26_48  and  C27_49 
REMARK   16  A    between atoms: C30_52  and  O6_53 
ROOT
HETATM    1  N2  UNL     1     -10.837   5.469   6.445  1.00  0.00    -0.343 N 
ATOM      2  H2  UNL     1     -10.496   4.999   7.284  1.00  0.00     0.164 HD
HETATM    3  C7  UNL     1      -9.982   5.543   5.332  1.00  0.00     0.327 C 
HETATM    4  O1  UNL     1     -10.401   6.121   4.271  1.00  0.00    -0.247 OA
HETATM    5  N3  UNL     1      -8.652   5.022   5.269  1.00  0.00    -0.238 N 
HETATM    6  C8  UNL     1      -8.121   4.432   6.450  1.00  0.00     0.226 C 
HETATM    7  N4  UNL     1      -7.635   3.151   6.735  1.00  0.00    -0.339 N 
ATOM      8  H4  UNL     1      -6.625   3.066   6.628  1.00  0.00     0.164 HD
HETATM    9  C9  UNL     1      -8.277   1.921   7.150  1.00  0.00     0.107 C 
HETATM   10  C10 UNL     1      -7.669   0.765   6.428  1.00  0.00     0.048 C 
HETATM   11  C11 UNL     1      -9.739   1.875   6.726  1.00  0.00     0.048 C 
HETATM   12  C12 UNL     1      -8.178   1.774   8.652  1.00  0.00     0.249 C 
HETATM   13  O3  UNL     1      -9.316   1.799   9.210  1.00  0.00    -0.270 OA
HETATM   14  N5  UNL     1      -7.057   1.627   9.454  1.00  0.00    -0.325 N 
ATOM     15  H5  UNL     1      -6.923   2.426  10.074  1.00  0.00     0.169 HD
HETATM   16  C13 UNL     1      -6.051   0.647   9.628  1.00  0.00     0.063 C 
HETATM   17  C18 UNL     1      -4.794   0.734   8.882  1.00  0.00     0.163 C 
HETATM   18  N6  UNL     1      -4.177   1.565   7.994  1.00  0.00    -0.335 N 
ATOM     19  H6  UNL     1      -3.985   1.050   7.134  1.00  0.00     0.168 HD
HETATM   20  C19 UNL     1      -3.712   2.891   7.849  1.00  0.00     0.062 C 
HETATM   21  C24 UNL     1      -3.450   3.257   6.440  1.00  0.00     0.160 C 
HETATM   22  N7  UNL     1      -3.514   4.445   5.735  1.00  0.00    -0.354 N 
ATOM     23  H7  UNL     1      -2.632   4.749   5.324  1.00  0.00     0.162 HD
HETATM   24  C25 UNL     1      -4.664   5.346   5.485  1.00  0.00     0.181 C 
HETATM   25  C30 UNL     1      -5.354   4.816   4.309  1.00  0.00     0.142 C 
HETATM   26  N8  UNL     1      -6.662   4.437   3.987  1.00  0.00    -0.341 N 
HETATM   27  C31 UNL     1      -6.863   3.051   3.479  1.00  0.00     0.154 C 
HETATM   28  C32 UNL     1      -7.906   5.182   4.020  1.00  0.00     0.114 C 
HETATM   29  C33 UNL     1      -8.834   4.706   2.900  1.00  0.00     0.064 C 
HETATM   30  C34 UNL     1      -7.708   6.663   3.712  1.00  0.00     0.064 C 
ENDROOT
BRANCH   6  31
HETATM   31  O2  UNL     1      -8.098   5.319   7.449  1.00  0.00    -0.332 OA
ATOM     32  H2  UNL     1      -7.829   4.902   8.259  1.00  0.00     0.220 HD
ENDBRANCH   6  31
BRANCH   1  33
HETATM   33  C6  UNL     1     -12.148   6.013   6.467  1.00  0.00     0.124 C 
BRANCH  33  34
HETATM   34  C5  UNL     1     -12.333   6.989   7.566  1.00  0.00     0.020 C 
BRANCH  34  35
HETATM   35  C4  UNL     1     -11.103   7.839   7.818  1.00  0.00     0.003 C 
BRANCH  35  36
HETATM   36  C3  UNL     1     -11.016   9.014   6.907  1.00  0.00     0.027 C 
BRANCH  36  37
HETATM   37  C2  UNL     1      -9.630   9.103   6.305  1.00  0.00     0.231 C 
BRANCH  37  38
HETATM   38  N1  UNL     1      -8.665   8.341   7.076  1.00  0.00    -0.079 N 
HETATM   39  C1  UNL     1      -7.307   8.745   6.793  1.00  0.00     0.266 C 
ATOM     40  H12 UNL     1      -8.790   7.338   6.938  1.00  0.00     0.276 HD
ATOM     41  H11 UNL     1      -8.866   8.391   8.075  1.00  0.00     0.276 HD
ENDBRANCH  37  38
ENDBRANCH  36  37
ENDBRANCH  35  36
ENDBRANCH  34  35
ENDBRANCH  33  34
ENDBRANCH   1  33
BRANCH  25  42
HETATM   42  O6  UNL     1      -4.509   4.657   3.310  1.00  0.00    -0.348 OA
ATOM     43  H6  UNL     1      -4.769   3.921   2.768  1.00  0.00     0.219 HD
ENDBRANCH  25  42
BRANCH  24  44
HETATM   44  C26 UNL     1      -4.340   6.762   5.584  1.00  0.00     0.008 C 
BRANCH  44  45
HETATM   45  C27 UNL     1      -3.155   7.344   6.190  1.00  0.00    -0.089 C 
HETATM   46  C28 UNL     1      -3.041   7.412   7.679  1.00  0.00     0.042 C 
HETATM   47  C29 UNL     1      -2.617   8.618   5.562  1.00  0.00     0.042 C 
ENDBRANCH  44  45
ENDBRANCH  24  44
BRANCH  16  48
HETATM   48  C14 UNL     1      -6.561  -0.788   9.687  1.00  0.00     0.065 C 
BRANCH  48  49
HETATM   49  C15 UNL     1      -6.992  -1.153  11.074  1.00  0.00    -0.017 C 
HETATM   50  C16 UNL     1      -6.892   0.023  12.027  1.00  0.00     0.010 C 
HETATM   51  C17 UNL     1      -6.044  -2.215  11.648  1.00  0.00     0.010 C 
ENDBRANCH  48  49
ENDBRANCH  16  48
BRANCH  21  52
HETATM   52  O5  UNL     1      -3.076   2.217   5.744  1.00  0.00    -0.345 OA
ATOM     53  H5  UNL     1      -3.817   1.660   5.532  1.00  0.00     0.219 HD
ENDBRANCH  21  52
BRANCH  17  54
HETATM   54  O4  UNL     1      -4.066  -0.330   9.185  1.00  0.00    -0.345 OA
ATOM     55  H4  UNL     1      -4.654  -1.073   9.264  1.00  0.00     0.219 HD
ENDBRANCH  17  54
BRANCH  20  56
HETATM   56  C20 UNL     1      -4.239   3.989   8.659  1.00  0.00     0.065 C 
BRANCH  56  57
HETATM   57  C21 UNL     1      -3.556   4.359   9.915  1.00  0.00    -0.017 C 
HETATM   58  C22 UNL     1      -3.744   3.430  11.066  1.00  0.00     0.010 C 
HETATM   59  C23 UNL     1      -2.043   4.324   9.601  1.00  0.00     0.010 C 
ENDBRANCH  56  57
ENDBRANCH  20  56
TORSDOF 16
ENDMDL
MODEL 5
REMARK VINA RESULT: -7.687733622      2.783      6.489
REMARK  16 active torsions:
REMARK  status: ('A' for Active; 'I' for Inactive)
REMARK    1  A    between atoms: N1_2  and  C2_5 
REMARK    2  A    between atoms: C2_5  and  C3_6 
REMARK    3  A    between atoms: C3_6  and  C4_7 
REMARK    4  A    between atoms: C4_7  and  C5_8 
REMARK    5  A    between atoms: C5_8  and  C6_9 
REMARK    6  A    between atoms: C6_9  and  N2_10 
REMARK       I    between atoms: N2_10  and  C7_12 
REMARK       I    between atoms: C7_12  and  N3_14 
REMARK    7  A    between atoms: C8_15  and  O2_16 
REMARK    8  A    between atoms: C13_27  and  C14_28 
REMARK    9  A    between atoms: C14_28  and  C15_29 
REMARK   10  A    between atoms: C18_32  and  O4_33 
REMARK   11  A    between atoms: C19_37  and  C20_38 
REMARK   12  A    between atoms: C20_38  and  C21_39 
REMARK   13  A    between atoms: C24_42  and  O5_43 
REMARK   14  A    between atoms: C25_47  and  C26_48 
REMARK   15  A    between atoms: C26_48  and  C27_49 
REMARK   16  A    between atoms: C30_52  and  O6_53 
ROOT
HETATM    1  N2  UNL     1     -10.845   5.461   6.468  1.00  0.00    -0.343 N 
ATOM      2  H2  UNL     1     -10.503   4.989   7.305  1.00  0.00     0.164 HD
HETATM    3  C7  UNL     1      -9.991   5.542   5.355  1.00  0.00     0.327 C 
HETATM    4  O1  UNL     1     -10.413   6.123   4.296  1.00  0.00    -0.247 OA
HETATM    5  N3  UNL     1      -8.660   5.024   5.289  1.00  0.00    -0.238 N 
HETATM    6  C8  UNL     1      -8.127   4.431   6.467  1.00  0.00     0.226 C 
HETATM    7  N4  UNL     1      -7.638   3.150   6.746  1.00  0.00    -0.339 N 
ATOM      8  H4  UNL     1      -6.627   3.068   6.639  1.00  0.00     0.164 HD
HETATM    9  C9  UNL     1      -8.276   1.917   7.158  1.00  0.00     0.107 C 
HETATM   10  C10 UNL     1      -7.666   0.765   6.431  1.00  0.00     0.048 C 
HETATM   11  C11 UNL     1      -9.739   1.869   6.734  1.00  0.00     0.048 C 
HETATM   12  C12 UNL     1      -8.176   1.764   8.658  1.00  0.00     0.249 C 
HETATM   13  O3  UNL     1      -9.314   1.784   9.218  1.00  0.00    -0.270 OA
HETATM   14  N5  UNL     1      -7.054   1.617   9.459  1.00  0.00    -0.325 N 
ATOM     15  H5  UNL     1      -6.922   2.414  10.083  1.00  0.00     0.169 HD
HETATM   16  C13 UNL     1      -6.046   0.638   9.629  1.00  0.00     0.063 C 
HETATM   17  C18 UNL     1      -4.789   0.732   8.882  1.00  0.00     0.163 C 
HETATM   18  N6  UNL     1      -4.175   1.568   7.997  1.00  0.00    -0.335 N 
ATOM     19  H6  UNL     1      -3.982   1.057   7.135  1.00  0.00     0.168 HD
HETATM   20  C19 UNL     1      -3.713   2.895   7.858  1.00  0.00     0.062 C 
HETATM   21  C24 UNL     1      -3.453   3.268   6.450  1.00  0.00     0.160 C 
HETATM   22  N7  UNL     1      -3.521   4.459   5.750  1.00  0.00    -0.354 N 
ATOM     23  H7  UNL     1      -2.640   4.767   5.339  1.00  0.00     0.162 HD
HETATM   24  C25 UNL     1      -4.673   5.358   5.504  1.00  0.00     0.181 C 
HETATM   25  C30 UNL     1      -5.363   4.830   4.326  1.00  0.00     0.142 C 
HETATM   26  N8  UNL     1      -6.670   4.449   4.003  1.00  0.00    -0.341 N 
HETATM   27  C31 UNL     1      -6.868   3.065   3.490  1.00  0.00     0.154 C 
HETATM   28  C32 UNL     1      -7.916   5.192   4.040  1.00  0.00     0.114 C 
HETATM   29  C33 UNL     1      -8.843   4.717   2.919  1.00  0.00     0.064 C 
HETATM   30  C34 UNL     1      -7.721   6.674   3.738  1.00  0.00     0.064 C 
ENDROOT
BRANCH   6  31
HETATM   31  O2  UNL     1      -8.105   5.314   7.470  1.00  0.00    -0.332 OA
ATOM     32  H2  UNL     1      -7.812   6.163   7.163  1.00  0.00     0.220 HD
ENDBRANCH   6  31
BRANCH   1  33
HETATM   33  C6  UNL     1     -12.158   6.002   6.493  1.00  0.00     0.124 C 
BRANCH  33  34
HETATM   34  C5  UNL     1     -13.188   4.965   6.731  1.00  0.00     0.020 C 
BRANCH  34  35
HETATM   35  C4  UNL     1     -13.377   4.033   5.551  1.00  0.00     0.003 C 
BRANCH  35  36
HETATM   36  C3  UNL     1     -13.898   4.731   4.342  1.00  0.00     0.027 C 
BRANCH  36  37
HETATM   37  C2  UNL     1     -13.159   4.257   3.109  1.00  0.00     0.231 C 
BRANCH  37  38
HETATM   38  N1  UNL     1     -12.618   5.372   2.352  1.00  0.00    -0.079 N 
HETATM   39  C1  UNL     1     -12.069   4.949   1.085  1.00  0.00     0.266 C 
ATOM     40  H12 UNL     1     -11.932   5.892   2.898  1.00  0.00     0.276 HD
ATOM     41  H11 UNL     1     -13.314   6.108   2.228  1.00  0.00     0.276 HD
ENDBRANCH  37  38
ENDBRANCH  36  37
ENDBRANCH  35  36
ENDBRANCH  34  35
ENDBRANCH  33  34
ENDBRANCH   1  33
BRANCH  25  42
HETATM   42  O6  UNL     1      -4.518   4.678   3.326  1.00  0.00    -0.348 OA
ATOM     43  H6  UNL     1      -3.878   5.380   3.321  1.00  0.00     0.219 HD
ENDBRANCH  25  42
BRANCH  24  44
HETATM   44  C26 UNL     1      -4.352   6.774   5.608  1.00  0.00     0.008 C 
BRANCH  44  45
HETATM   45  C27 UNL     1      -3.149   7.356   6.177  1.00  0.00    -0.089 C 
HETATM   46  C28 UNL     1      -2.983   7.411   7.662  1.00  0.00     0.042 C 
HETATM   47  C29 UNL     1      -2.637   8.637   5.542  1.00  0.00     0.042 C 
ENDBRANCH  44  45
ENDBRANCH  24  44
BRANCH  16  48
HETATM   48  C14 UNL     1      -6.552  -0.798   9.682  1.00  0.00     0.065 C 
BRANCH  48  49
HETATM   49  C15 UNL     1      -6.999  -1.163  11.064  1.00  0.00    -0.017 C 
HETATM   50  C16 UNL     1      -6.902   0.010  12.021  1.00  0.00     0.010 C 
HETATM   51  C17 UNL     1      -6.064  -2.233  11.645  1.00  0.00     0.010 C 
ENDBRANCH  48  49
ENDBRANCH  16  48
BRANCH  21  52
HETATM   52  O5  UNL     1      -3.077   2.231   5.749  1.00  0.00    -0.345 OA
ATOM     53  H5  UNL     1      -2.333   2.442   5.196  1.00  0.00     0.219 HD
ENDBRANCH  21  52
BRANCH  17  54
HETATM   54  O4  UNL     1      -4.059  -0.332   9.180  1.00  0.00    -0.345 OA
ATOM     55  H4  UNL     1      -3.251  -0.280   8.683  1.00  0.00     0.219 HD
ENDBRANCH  17  54
BRANCH  20  56
HETATM   56  C20 UNL     1      -4.243   3.989   8.673  1.00  0.00     0.065 C 
BRANCH  56  57
HETATM   57  C21 UNL     1      -3.554   4.362   9.924  1.00  0.00    -0.017 C 
HETATM   58  C22 UNL     1      -3.733   3.432  11.077  1.00  0.00     0.010 C 
HETATM   59  C23 UNL     1      -2.043   4.332   9.603  1.00  0.00     0.010 C 
ENDBRANCH  56  57
ENDBRANCH  20  56
TORSDOF 16
ENDMDL
