MODEL 1
REMARK VINA RESULT: -8.229313292      0.000      0.000
REMARK  14 active torsions:
REMARK  status: ('A' for Active; 'I' for Inactive)
REMARK    1  A    between atoms: C2_2  and  C4_4 
REMARK    2  A    between atoms: C4_4  and  C5_5 
REMARK    3  A    between atoms: C7_10  and  C8_11 
REMARK    4  A    between atoms: C12_18  and  C13_19 
REMARK    5  A    between atoms: C13_19  and  C14_20 
REMARK    6  A    between atoms: C17_25  and  O3_26 
REMARK    7  A    between atoms: C21_31  and  C22_32 
REMARK    8  A    between atoms: C22_32  and  C24_34 
REMARK    9  A    between atoms: C24_34  and  N4_35 
REMARK       I    between atoms: N4_35  and  C25_37 
REMARK   10  A    between atoms: C25_37  and  C26_39 
REMARK   11  A    between atoms: C26_39  and  C27_40 
REMARK   12  A    between atoms: C27_40  and  N5_41 
REMARK   13  A    between atoms: C30_49  and  C31_50 
REMARK   14  A    between atoms: C31_50  and  C32_51 
ROOT
HETATM    1  C5  UNL     1      -8.751   0.445   6.463  1.00  0.00     0.177 C 
HETATM    2  N1  UNL     1      -9.050  -0.164   7.724  1.00  0.00    -0.346 N 
ATOM      3  H1  UNL     1     -10.043  -0.263   7.939  1.00  0.00     0.163 HD
HETATM    4  C6  UNL     1      -8.171  -0.642   8.707  1.00  0.00     0.241 C 
HETATM    5  O1  UNL     1      -8.228  -1.855   9.131  1.00  0.00    -0.271 OA
HETATM    6  C7  UNL     1      -7.072   0.147   9.394  1.00  0.00     0.180 C 
HETATM    7  N2  UNL     1      -5.865  -0.157   8.673  1.00  0.00    -0.346 N 
ATOM      8  H2  UNL     1      -5.993  -0.745   7.850  1.00  0.00     0.163 HD
HETATM    9  C11 UNL     1      -4.545   0.228   8.924  1.00  0.00     0.241 C 
HETATM   10  O2  UNL     1      -3.658  -0.693   9.094  1.00  0.00    -0.271 OA
HETATM   11  C12 UNL     1      -4.008   1.636   9.019  1.00  0.00     0.175 C 
HETATM   12  N3  UNL     1      -3.835   2.165   7.665  1.00  0.00    -0.360 N 
ATOM     13  H3  UNL     1      -2.905   2.026   7.269  1.00  0.00     0.162 HD
HETATM   14  C17 UNL     1      -4.722   2.820   6.837  1.00  0.00     0.126 C 
HETATM   15  C18 UNL     1      -5.388   4.140   6.933  1.00  0.00     0.056 C 
HETATM   16  C19 UNL     1      -4.627   5.046   7.814  1.00  0.00     0.030 C 
HETATM   17  C20 UNL     1      -6.684   3.884   7.748  1.00  0.00     0.030 C 
HETATM   18  C21 UNL     1      -5.859   4.689   5.628  1.00  0.00     0.013 C 
HETATM   19  N6  UNL     1      -7.253   5.149   5.643  1.00  0.00    -0.326 N 
HETATM   20  C28 UNL     1      -7.500   6.577   5.905  1.00  0.00     0.159 C 
HETATM   21  C29 UNL     1      -8.388   4.366   5.423  1.00  0.00     0.246 C 
HETATM   22  O5  UNL     1      -9.462   4.739   6.013  1.00  0.00    -0.271 OA
HETATM   23  C30 UNL     1      -8.506   3.140   4.580  1.00  0.00     0.177 C 
HETATM   24  N7  UNL     1      -9.657   2.399   5.070  1.00  0.00    -0.346 N 
ATOM     25  H7  UNL     1     -10.520   2.505   4.535  1.00  0.00     0.163 HD
HETATM   26  C35 UNL     1      -9.722   1.567   6.175  1.00  0.00     0.241 C 
HETATM   27  O6  UNL     1     -10.644   1.717   7.035  1.00  0.00    -0.271 OA
ENDROOT
BRANCH  18  28
HETATM   28  C22 UNL     1      -4.975   5.459   4.752  1.00  0.00     0.046 C 
HETATM   29  C23 UNL     1      -4.698   4.661   3.458  1.00  0.00     0.018 C 
BRANCH  28  30
HETATM   30  C24 UNL     1      -3.686   6.000   5.173  1.00  0.00     0.132 C 
BRANCH  30  31
HETATM   31  N4  UNL     1      -3.705   7.453   5.210  1.00  0.00    -0.360 N 
HETATM   32  C25 UNL     1      -2.790   8.291   5.825  1.00  0.00     0.219 C 
HETATM   33  O4  UNL     1      -1.801   7.853   6.438  1.00  0.00    -0.274 OA
ATOM     34  H4  UNL     1      -4.481   7.907   4.727  1.00  0.00     0.162 HD
BRANCH  32  35
HETATM   35  C26 UNL     1      -2.967   9.756   5.766  1.00  0.00     0.130 C 
BRANCH  35  36
HETATM   36  C27 UNL     1      -3.089  10.371   7.139  1.00  0.00     0.238 C 
BRANCH  36  37
HETATM   37  N5  UNL     1      -1.813  10.670   7.731  1.00  0.00    -0.079 N 
ATOM     38  H53 UNL     1      -1.075  10.101   7.316  1.00  0.00     0.274 HD
ATOM     39  H52 UNL     1      -1.487  11.595   7.451  1.00  0.00     0.274 HD
ATOM     40  H51 UNL     1      -1.817  10.577   8.748  1.00  0.00     0.274 HD
ENDBRANCH  36  37
ENDBRANCH  35  36
ENDBRANCH  32  35
ENDBRANCH  30  31
ENDBRANCH  28  30
ENDBRANCH  18  28
BRANCH  14  41
HETATM   41  O3  UNL     1      -5.044   2.156   5.755  1.00  0.00    -0.349 OA
ATOM     42  H3  UNL     1      -5.978   2.095   5.596  1.00  0.00     0.219 HD
ENDBRANCH  14  41
BRANCH  23  43
HETATM   43  C31 UNL     1      -8.635   3.619   3.183  1.00  0.00     0.038 C 
BRANCH  43  44
HETATM   44  C32 UNL     1      -7.784   3.013   2.142  1.00  0.00    -0.020 C 
HETATM   45  C33 UNL     1      -7.119   1.720   2.562  1.00  0.00     0.009 C 
HETATM   46  C34 UNL     1      -8.386   2.940   0.760  1.00  0.00     0.009 C 
ENDBRANCH  43  44
ENDBRANCH  23  43
BRANCH  11  47
HETATM   47  C13 UNL     1      -2.652   1.508   9.707  1.00  0.00     0.038 C 
BRANCH  47  48
HETATM   48  C14 UNL     1      -2.447   2.407  10.875  1.00  0.00    -0.020 C 
HETATM   49  C15 UNL     1      -2.356   1.504  12.109  1.00  0.00     0.009 C 
HETATM   50  C16 UNL     1      -3.611   3.368  11.074  1.00  0.00     0.009 C 
ENDBRANCH  47  48
ENDBRANCH  11  47
BRANCH   1  51
HETATM   51  C4  UNL     1      -8.780  -0.569   5.364  1.00  0.00     0.038 C 
BRANCH  51  52
HETATM   52  C2  UNL     1      -9.756  -1.662   5.427  1.00  0.00    -0.020 C 
HETATM   53  C1  UNL     1      -9.273  -3.067   5.332  1.00  0.00     0.009 C 
HETATM   54  C3  UNL     1     -10.723  -1.462   4.238  1.00  0.00     0.009 C 
ENDBRANCH  51  52
ENDBRANCH   1  51
BRANCH   6  55
HETATM   55  C8  UNL     1      -7.013  -0.302  10.843  1.00  0.00     0.009 C 
HETATM   56  C9  UNL     1      -6.185  -1.501  11.115  1.00  0.00     0.012 C 
HETATM   57  C10 UNL     1      -6.600   0.799  11.771  1.00  0.00     0.012 C 
ENDBRANCH   6  55
TORSDOF 14
ENDMDL
MODEL 2
REMARK VINA RESULT: -8.090250766      2.386      9.108
REMARK  14 active torsions:
REMARK  status: ('A' for Active; 'I' for Inactive)
REMARK    1  A    between atoms: C2_2  and  C4_4 
REMARK    2  A    between atoms: C4_4  and  C5_5 
REMARK    3  A    between atoms: C7_10  and  C8_11 
REMARK    4  A    between atoms: C12_18  and  C13_19 
REMARK    5  A    between atoms: C13_19  and  C14_20 
REMARK    6  A    between atoms: C17_25  and  O3_26 
REMARK    7  A    between atoms: C21_31  and  C22_32 
REMARK    8  A    between atoms: C22_32  and  C24_34 
REMARK    9  A    between atoms: C24_34  and  N4_35 
REMARK       I    between atoms: N4_35  and  C25_37 
REMARK   10  A    between atoms: C25_37  and  C26_39 
REMARK   11  A    between atoms: C26_39  and  C27_40 
REMARK   12  A    between atoms: C27_40  and  N5_41 
REMARK   13  A    between atoms: C30_49  and  C31_50 
REMARK   14  A    between atoms: C31_50  and  C32_51 
ROOT
HETATM    1  C5  UNL     1      -3.476   2.811   9.194  1.00  0.00     0.177 C 
HETATM    2  N1  UNL     1      -3.200   4.217   9.223  1.00  0.00    -0.346 N 
ATOM      3  H1  UNL     1      -3.040   4.613  10.149  1.00  0.00     0.163 HD
HETATM    4  C6  UNL     1      -3.119   5.125   8.157  1.00  0.00     0.241 C 
HETATM    5  O1  UNL     1      -2.068   5.840   7.959  1.00  0.00    -0.271 OA
HETATM    6  C7  UNL     1      -4.194   5.399   7.123  1.00  0.00     0.180 C 
HETATM    7  N2  UNL     1      -3.859   4.583   5.986  1.00  0.00    -0.346 N 
ATOM      8  H2  UNL     1      -3.059   3.965   6.122  1.00  0.00     0.163 HD
HETATM    9  C11 UNL     1      -4.458   4.504   4.726  1.00  0.00     0.241 C 
HETATM   10  O2  UNL     1      -3.736   4.746   3.685  1.00  0.00    -0.271 OA
HETATM   11  C12 UNL     1      -5.895   4.154   4.420  1.00  0.00     0.175 C 
HETATM   12  N3  UNL     1      -6.055   2.702   4.513  1.00  0.00    -0.360 N 
ATOM     13  H3  UNL     1      -5.930   2.202   3.633  1.00  0.00     0.162 HD
HETATM   14  C17 UNL     1      -6.346   1.899   5.596  1.00  0.00     0.126 C 
HETATM   15  C18 UNL     1      -7.549   1.774   6.452  1.00  0.00     0.056 C 
HETATM   16  C19 UNL     1      -8.747   2.261   5.741  1.00  0.00     0.030 C 
HETATM   17  C20 UNL     1      -7.364   2.834   7.571  1.00  0.00     0.030 C 
HETATM   18  C21 UNL     1      -7.662   0.473   7.172  1.00  0.00     0.013 C 
HETATM   19  N6  UNL     1      -7.931   0.607   8.608  1.00  0.00    -0.326 N 
HETATM   20  C28 UNL     1      -9.335   0.545   9.050  1.00  0.00     0.159 C 
HETATM   21  C29 UNL     1      -6.983   0.784   9.618  1.00  0.00     0.246 C 
HETATM   22  O5  UNL     1      -7.365   1.435  10.653  1.00  0.00    -0.271 OA
HETATM   23  C30 UNL     1      -5.570   0.304   9.642  1.00  0.00     0.177 C 
HETATM   24  N7  UNL     1      -4.852   1.150  10.582  1.00  0.00    -0.346 N 
ATOM     25  H7  UNL     1      -4.701   0.759  11.513  1.00  0.00     0.163 HD
HETATM   26  C35 UNL     1      -4.349   2.421  10.365  1.00  0.00     0.241 C 
HETATM   27  O6  UNL     1      -4.611   3.360  11.180  1.00  0.00    -0.271 OA
ENDROOT
BRANCH  18  28
HETATM   28  C22 UNL     1      -8.269  -0.703   6.548  1.00  0.00     0.046 C 
HETATM   29  C23 UNL     1      -7.482  -1.971   6.948  1.00  0.00     0.018 C 
BRANCH  28  30
HETATM   30  C24 UNL     1      -8.519  -0.822   5.114  1.00  0.00     0.132 C 
BRANCH  30  31
HETATM   31  N4  UNL     1      -9.908  -1.155   4.842  1.00  0.00    -0.360 N 
HETATM   32  C25 UNL     1     -10.477  -2.417   4.794  1.00  0.00     0.219 C 
HETATM   33  O4  UNL     1      -9.813  -3.449   4.997  1.00  0.00    -0.274 OA
ATOM     34  H4  UNL     1     -10.535  -0.369   4.666  1.00  0.00     0.162 HD
BRANCH  32  35
HETATM   35  C26 UNL     1     -11.915  -2.573   4.496  1.00  0.00     0.130 C 
BRANCH  35  36
HETATM   36  C27 UNL     1     -12.202  -3.837   3.723  1.00  0.00     0.238 C 
BRANCH  36  37
HETATM   37  N5  UNL     1     -11.485  -3.905   2.478  1.00  0.00    -0.079 N 
ATOM     38  H53 UNL     1     -11.904  -3.289   1.781  1.00  0.00     0.274 HD
ATOM     39  H52 UNL     1     -10.568  -3.464   2.560  1.00  0.00     0.274 HD
ATOM     40  H51 UNL     1     -11.401  -4.857   2.121  1.00  0.00     0.274 HD
ENDBRANCH  36  37
ENDBRANCH  35  36
ENDBRANCH  32  35
ENDBRANCH  30  31
ENDBRANCH  28  30
ENDBRANCH  18  28
BRANCH  14  41
HETATM   41  O3  UNL     1      -5.379   1.087   5.942  1.00  0.00    -0.349 OA
ATOM     42  H3  UNL     1      -4.666   1.503   6.412  1.00  0.00     0.219 HD
ENDBRANCH  14  41
BRANCH  23  43
HETATM   43  C31 UNL     1      -5.632  -1.126  10.028  1.00  0.00     0.038 C 
BRANCH  43  44
HETATM   44  C32 UNL     1      -5.203  -1.515  11.383  1.00  0.00    -0.020 C 
HETATM   45  C33 UNL     1      -6.064  -2.584  12.023  1.00  0.00     0.009 C 
HETATM   46  C34 UNL     1      -3.726  -1.773  11.557  1.00  0.00     0.009 C 
ENDBRANCH  43  44
ENDBRANCH  23  43
BRANCH  11  47
HETATM   47  C13 UNL     1      -6.128   4.614   2.983  1.00  0.00     0.038 C 
BRANCH  47  48
HETATM   48  C14 UNL     1      -7.472   5.192   2.713  1.00  0.00    -0.020 C 
HETATM   49  C15 UNL     1      -8.026   5.656   4.065  1.00  0.00     0.009 C 
HETATM   50  C16 UNL     1      -8.435   4.166   2.132  1.00  0.00     0.009 C 
ENDBRANCH  47  48
ENDBRANCH  11  47
BRANCH   1  51
HETATM   51  C4  UNL     1      -2.208   2.020   9.199  1.00  0.00     0.038 C 
BRANCH  51  52
HETATM   52  C2  UNL     1      -1.485   1.838  10.463  1.00  0.00    -0.020 C 
HETATM   53  C1  UNL     1      -0.346   2.743  10.780  1.00  0.00     0.009 C 
HETATM   54  C3  UNL     1      -0.899   0.408  10.435  1.00  0.00     0.009 C 
ENDBRANCH  51  52
ENDBRANCH   1  51
BRANCH   6  55
HETATM   55  C8  UNL     1      -4.165   6.882   6.803  1.00  0.00     0.009 C 
HETATM   56  C9  UNL     1      -3.331   7.277   5.643  1.00  0.00     0.012 C 
HETATM   57  C10 UNL     1      -5.536   7.464   6.642  1.00  0.00     0.012 C 
ENDBRANCH   6  55
TORSDOF 14
ENDMDL
MODEL 3
REMARK VINA RESULT: -7.993220953      2.356      6.939
REMARK  14 active torsions:
REMARK  status: ('A' for Active; 'I' for Inactive)
REMARK    1  A    between atoms: C2_2  and  C4_4 
REMARK    2  A    between atoms: C4_4  and  C5_5 
REMARK    3  A    between atoms: C7_10  and  C8_11 
REMARK    4  A    between atoms: C12_18  and  C13_19 
REMARK    5  A    between atoms: C13_19  and  C14_20 
REMARK    6  A    between atoms: C17_25  and  O3_26 
REMARK    7  A    between atoms: C21_31  and  C22_32 
REMARK    8  A    between atoms: C22_32  and  C24_34 
REMARK    9  A    between atoms: C24_34  and  N4_35 
REMARK       I    between atoms: N4_35  and  C25_37 
REMARK   10  A    between atoms: C25_37  and  C26_39 
REMARK   11  A    between atoms: C26_39  and  C27_40 
REMARK   12  A    between atoms: C27_40  and  N5_41 
REMARK   13  A    between atoms: C30_49  and  C31_50 
REMARK   14  A    between atoms: C31_50  and  C32_51 
ROOT
HETATM    1  C5  UNL     1      -4.395   5.267   7.290  1.00  0.00     0.177 C 
HETATM    2  N1  UNL     1      -3.135   4.865   7.841  1.00  0.00    -0.346 N 
ATOM      3  H1  UNL     1      -2.312   5.177   7.327  1.00  0.00     0.163 HD
HETATM    4  C6  UNL     1      -2.875   4.103   8.990  1.00  0.00     0.241 C 
HETATM    5  O1  UNL     1      -2.124   4.544   9.937  1.00  0.00    -0.271 OA
HETATM    6  C7  UNL     1      -3.403   2.712   9.288  1.00  0.00     0.180 C 
HETATM    7  N2  UNL     1      -4.566   2.905  10.112  1.00  0.00    -0.346 N 
ATOM      8  H2  UNL     1      -4.831   3.878  10.261  1.00  0.00     0.163 HD
HETATM    9  C11 UNL     1      -5.390   1.967  10.742  1.00  0.00     0.241 C 
HETATM   10  O2  UNL     1      -5.526   2.030  12.023  1.00  0.00    -0.271 OA
HETATM   11  C12 UNL     1      -6.170   0.854  10.085  1.00  0.00     0.175 C 
HETATM   12  N3  UNL     1      -7.382   1.418   9.489  1.00  0.00    -0.360 N 
ATOM     13  H3  UNL     1      -8.204   1.400  10.094  1.00  0.00     0.162 HD
HETATM   14  C17 UNL     1      -7.595   1.972   8.243  1.00  0.00     0.126 C 
HETATM   15  C18 UNL     1      -7.564   1.398   6.878  1.00  0.00     0.056 C 
HETATM   16  C19 UNL     1      -7.784  -0.060   6.919  1.00  0.00     0.030 C 
HETATM   17  C20 UNL     1      -6.083   1.505   6.425  1.00  0.00     0.030 C 
HETATM   18  C21 UNL     1      -8.331   2.178   5.864  1.00  0.00     0.013 C 
HETATM   19  N6  UNL     1      -7.579   2.463   4.636  1.00  0.00    -0.326 N 
HETATM   20  C28 UNL     1      -7.745   1.539   3.501  1.00  0.00     0.159 C 
HETATM   21  C29 UNL     1      -6.713   3.538   4.423  1.00  0.00     0.246 C 
HETATM   22  O5  UNL     1      -5.750   3.343   3.602  1.00  0.00    -0.271 OA
HETATM   23  C30 UNL     1      -6.774   4.897   5.037  1.00  0.00     0.177 C 
HETATM   24  N7  UNL     1      -5.435   5.458   4.953  1.00  0.00    -0.346 N 
ATOM     25  H7  UNL     1      -5.272   6.120   4.193  1.00  0.00     0.163 HD
HETATM   26  C35 UNL     1      -4.354   5.202   5.781  1.00  0.00     0.241 C 
HETATM   27  O6  UNL     1      -3.229   4.887   5.284  1.00  0.00    -0.271 OA
ENDROOT
BRANCH  18  28
HETATM   28  C22 UNL     1      -9.767   1.979   5.663  1.00  0.00     0.046 C 
HETATM   29  C23 UNL     1     -10.482   3.347   5.615  1.00  0.00     0.018 C 
BRANCH  28  30
HETATM   30  C24 UNL     1     -10.593   1.124   6.511  1.00  0.00     0.132 C 
BRANCH  30  31
HETATM   31  N4  UNL     1     -11.299   1.897   7.519  1.00  0.00    -0.360 N 
HETATM   32  C25 UNL     1     -11.228   1.750   8.895  1.00  0.00     0.219 C 
HETATM   33  O4  UNL     1     -10.503   0.893   9.431  1.00  0.00    -0.274 OA
ATOM     34  H4  UNL     1     -11.919   2.631   7.174  1.00  0.00     0.162 HD
BRANCH  32  35
HETATM   35  C26 UNL     1     -12.025   2.626   9.778  1.00  0.00     0.130 C 
BRANCH  35  36
HETATM   36  C27 UNL     1     -11.391   3.983   9.958  1.00  0.00     0.238 C 
BRANCH  36  37
HETATM   37  N5  UNL     1      -9.980   3.907  10.232  1.00  0.00    -0.079 N 
ATOM     38  H53 UNL     1      -9.660   2.939  10.231  1.00  0.00     0.274 HD
ATOM     39  H52 UNL     1      -9.436   4.263   9.446  1.00  0.00     0.274 HD
ATOM     40  H51 UNL     1      -9.719   4.378  11.099  1.00  0.00     0.274 HD
ENDBRANCH  36  37
ENDBRANCH  35  36
ENDBRANCH  32  35
ENDBRANCH  30  31
ENDBRANCH  28  30
ENDBRANCH  18  28
BRANCH  14  41
HETATM   41  O3  UNL     1      -7.881   3.249   8.261  1.00  0.00    -0.349 OA
ATOM     42  H3  UNL     1      -8.457   3.532   7.560  1.00  0.00     0.219 HD
ENDBRANCH  14  41
BRANCH  23  43
HETATM   43  C31 UNL     1      -7.800   5.645   4.273  1.00  0.00     0.038 C 
BRANCH  43  44
HETATM   44  C32 UNL     1      -8.474   6.787   4.915  1.00  0.00    -0.020 C 
HETATM   45  C33 UNL     1      -8.548   6.693   6.424  1.00  0.00     0.009 C 
HETATM   46  C34 UNL     1      -8.055   8.155   4.434  1.00  0.00     0.009 C 
ENDBRANCH  43  44
ENDBRANCH  23  43
BRANCH  11  47
HETATM   47  C13 UNL     1      -6.542  -0.103  11.216  1.00  0.00     0.038 C 
BRANCH  47  48
HETATM   48  C14 UNL     1      -5.992  -1.479  11.087  1.00  0.00    -0.020 C 
HETATM   49  C15 UNL     1      -6.661  -2.319  12.180  1.00  0.00     0.009 C 
HETATM   50  C16 UNL     1      -4.486  -1.522  11.309  1.00  0.00     0.009 C 
ENDBRANCH  47  48
ENDBRANCH  11  47
BRANCH   1  51
HETATM   51  C4  UNL     1      -4.759   6.644   7.746  1.00  0.00     0.038 C 
BRANCH  51  52
HETATM   52  C2  UNL     1      -4.412   7.791   6.900  1.00  0.00    -0.020 C 
HETATM   53  C1  UNL     1      -3.120   8.493   7.131  1.00  0.00     0.009 C 
HETATM   54  C3  UNL     1      -5.517   8.850   7.115  1.00  0.00     0.009 C 
ENDBRANCH  51  52
ENDBRANCH   1  51
BRANCH   6  55
HETATM   55  C8  UNL     1      -2.307   1.940   9.998  1.00  0.00     0.009 C 
HETATM   56  C9  UNL     1      -2.334   1.994  11.479  1.00  0.00     0.012 C 
HETATM   57  C10 UNL     1      -2.234   0.508   9.561  1.00  0.00     0.012 C 
ENDBRANCH   6  55
TORSDOF 14
ENDMDL
MODEL 4
REMARK VINA RESULT: -7.888885648      3.416      5.710
REMARK  14 active torsions:
REMARK  status: ('A' for Active; 'I' for Inactive)
REMARK    1  A    between atoms: C2_2  and  C4_4 
REMARK    2  A    between atoms: C4_4  and  C5_5 
REMARK    3  A    between atoms: C7_10  and  C8_11 
REMARK    4  A    between atoms: C12_18  and  C13_19 
REMARK    5  A    between atoms: C13_19  and  C14_20 
REMARK    6  A    between atoms: C17_25  and  O3_26 
REMARK    7  A    between atoms: C21_31  and  C22_32 
REMARK    8  A    between atoms: C22_32  and  C24_34 
REMARK    9  A    between atoms: C24_34  and  N4_35 
REMARK       I    between atoms: N4_35  and  C25_37 
REMARK   10  A    between atoms: C25_37  and  C26_39 
REMARK   11  A    between atoms: C26_39  and  C27_40 
REMARK   12  A    between atoms: C27_40  and  N5_41 
REMARK   13  A    between atoms: C30_49  and  C31_50 
REMARK   14  A    between atoms: C31_50  and  C32_51 
ROOT
HETATM    1  C5  UNL     1      -9.342   1.975   3.689  1.00  0.00     0.177 C 
HETATM    2  N1  UNL     1      -8.471   1.112   4.428  1.00  0.00    -0.346 N 
ATOM      3  H1  UNL     1      -8.897   0.253   4.777  1.00  0.00     0.163 HD
HETATM    4  C6  UNL     1      -7.114   1.280   4.739  1.00  0.00     0.241 C 
HETATM    5  O1  UNL     1      -6.233   0.400   4.417  1.00  0.00    -0.271 OA
HETATM    6  C7  UNL     1      -6.495   2.460   5.466  1.00  0.00     0.180 C 
HETATM    7  N2  UNL     1      -6.002   3.337   4.438  1.00  0.00    -0.346 N 
ATOM      8  H2  UNL     1      -6.219   3.046   3.485  1.00  0.00     0.163 HD
HETATM    9  C11 UNL     1      -5.271   4.524   4.540  1.00  0.00     0.241 C 
HETATM   10  O2  UNL     1      -4.124   4.593   3.957  1.00  0.00    -0.271 OA
HETATM   11  C12 UNL     1      -5.676   5.782   5.272  1.00  0.00     0.175 C 
HETATM   12  N3  UNL     1      -6.631   6.520   4.445  1.00  0.00    -0.360 N 
ATOM     13  H3  UNL     1      -6.214   7.221   3.832  1.00  0.00     0.162 HD
HETATM   14  C17 UNL     1      -8.005   6.422   4.358  1.00  0.00     0.126 C 
HETATM   15  C18 UNL     1      -9.090   6.713   5.323  1.00  0.00     0.056 C 
HETATM   16  C19 UNL     1      -8.632   7.670   6.350  1.00  0.00     0.030 C 
HETATM   17  C20 UNL     1      -9.272   5.404   6.137  1.00  0.00     0.030 C 
HETATM   18  C21 UNL     1     -10.420   6.965   4.698  1.00  0.00     0.013 C 
HETATM   19  N6  UNL     1     -11.515   6.189   5.294  1.00  0.00    -0.326 N 
HETATM   20  C28 UNL     1     -12.311   6.830   6.354  1.00  0.00     0.159 C 
HETATM   21  C29 UNL     1     -11.893   4.888   4.951  1.00  0.00     0.246 C 
HETATM   22  O5  UNL     1     -12.419   4.183   5.882  1.00  0.00    -0.271 OA
HETATM   23  C30 UNL     1     -11.761   4.216   3.626  1.00  0.00     0.177 C 
HETATM   24  N7  UNL     1     -11.770   2.783   3.876  1.00  0.00    -0.346 N 
ATOM     25  H7  UNL     1     -12.656   2.304   3.712  1.00  0.00     0.163 HD
HETATM   26  C35 UNL     1     -10.720   1.992   4.311  1.00  0.00     0.241 C 
HETATM   27  O6  UNL     1     -10.876   1.208   5.298  1.00  0.00    -0.271 OA
ENDROOT
BRANCH  18  28
HETATM   28  C22 UNL     1     -10.808   8.291   4.219  1.00  0.00     0.046 C 
HETATM   29  C23 UNL     1     -11.316   8.192   2.763  1.00  0.00     0.018 C 
BRANCH  28  30
HETATM   30  C24 UNL     1      -9.930   9.457   4.259  1.00  0.00     0.132 C 
BRANCH  30  31
HETATM   31  N4  UNL     1      -9.396   9.767   2.943  1.00  0.00    -0.360 N 
HETATM   32  C25 UNL     1      -8.068   9.771   2.553  1.00  0.00     0.219 C 
HETATM   33  O4  UNL     1      -7.147   9.487   3.340  1.00  0.00    -0.274 OA
ATOM     34  H4  UNL     1     -10.079  10.011   2.224  1.00  0.00     0.162 HD
BRANCH  32  35
HETATM   35  C26 UNL     1      -7.700  10.119   1.165  1.00  0.00     0.130 C 
BRANCH  35  36
HETATM   36  C27 UNL     1      -7.566  11.609   0.967  1.00  0.00     0.238 C 
BRANCH  36  37
HETATM   37  N5  UNL     1      -6.916  12.261   2.072  1.00  0.00    -0.079 N 
ATOM     38  H53 UNL     1      -6.298  13.004   1.745  1.00  0.00     0.274 HD
ATOM     39  H52 UNL     1      -7.580  12.821   2.608  1.00  0.00     0.274 HD
ATOM     40  H51 UNL     1      -6.416  11.610   2.678  1.00  0.00     0.274 HD
ENDBRANCH  36  37
ENDBRANCH  35  36
ENDBRANCH  32  35
ENDBRANCH  30  31
ENDBRANCH  28  30
ENDBRANCH  18  28
BRANCH  14  41
HETATM   41  O3  UNL     1      -8.443   5.991   3.201  1.00  0.00    -0.349 OA
ATOM     42  H3  UNL     1      -8.176   5.105   2.987  1.00  0.00     0.219 HD
ENDBRANCH  14  41
BRANCH  23  43
HETATM   43  C31 UNL     1     -12.897   4.701   2.807  1.00  0.00     0.038 C 
BRANCH  43  44
HETATM   44  C32 UNL     1     -12.655   5.065   1.399  1.00  0.00    -0.020 C 
HETATM   45  C33 UNL     1     -12.363   3.885   0.497  1.00  0.00     0.009 C 
HETATM   46  C34 UNL     1     -13.638   6.037   0.792  1.00  0.00     0.009 C 
ENDBRANCH  43  44
ENDBRANCH  23  43
BRANCH  11  47
HETATM   47  C13 UNL     1      -4.390   6.590   5.430  1.00  0.00     0.038 C 
BRANCH  47  48
HETATM   48  C14 UNL     1      -4.581   8.016   5.809  1.00  0.00    -0.020 C 
HETATM   49  C15 UNL     1      -3.231   8.709   5.592  1.00  0.00     0.009 C 
HETATM   50  C16 UNL     1      -4.967   8.177   7.274  1.00  0.00     0.009 C 
ENDBRANCH  47  48
ENDBRANCH  11  47
BRANCH   1  51
HETATM   51  C4  UNL     1      -9.419   1.554   2.256  1.00  0.00     0.038 C 
BRANCH  51  52
HETATM   52  C2  UNL     1      -8.933   2.468   1.216  1.00  0.00    -0.020 C 
HETATM   53  C1  UNL     1      -9.300   2.208  -0.203  1.00  0.00     0.009 C 
HETATM   54  C3  UNL     1      -7.389   2.423   1.274  1.00  0.00     0.009 C 
ENDBRANCH  51  52
ENDBRANCH   1  51
BRANCH   6  55
HETATM   55  C8  UNL     1      -5.389   1.928   6.358  1.00  0.00     0.009 C 
HETATM   56  C9  UNL     1      -4.583   2.950   7.068  1.00  0.00     0.012 C 
HETATM   57  C10 UNL     1      -5.882   0.919   7.350  1.00  0.00     0.012 C 
ENDBRANCH   6  55
TORSDOF 14
ENDMDL
MODEL 5
REMARK VINA RESULT: -7.826191821      2.642      6.783
REMARK  14 active torsions:
REMARK  status: ('A' for Active; 'I' for Inactive)
REMARK    1  A    between atoms: C2_2  and  C4_4 
REMARK    2  A    between atoms: C4_4  and  C5_5 
REMARK    3  A    between atoms: C7_10  and  C8_11 
REMARK    4  A    between atoms: C12_18  and  C13_19 
REMARK    5  A    between atoms: C13_19  and  C14_20 
REMARK    6  A    between atoms: C17_25  and  O3_26 
REMARK    7  A    between atoms: C21_31  and  C22_32 
REMARK    8  A    between atoms: C22_32  and  C24_34 
REMARK    9  A    between atoms: C24_34  and  N4_35 
REMARK       I    between atoms: N4_35  and  C25_37 
REMARK   10  A    between atoms: C25_37  and  C26_39 
REMARK   11  A    between atoms: C26_39  and  C27_40 
REMARK   12  A    between atoms: C27_40  and  N5_41 
REMARK   13  A    between atoms: C30_49  and  C31_50 
REMARK   14  A    between atoms: C31_50  and  C32_51 
ROOT
HETATM    1  C5  UNL     1      -9.338  -0.785   7.252  1.00  0.00     0.177 C 
HETATM    2  N1  UNL     1     -10.082  -0.845   6.029  1.00  0.00    -0.346 N 
ATOM      3  H1  UNL     1     -10.283  -1.784   5.684  1.00  0.00     0.163 HD
HETATM    4  C6  UNL     1     -10.574   0.205   5.240  1.00  0.00     0.241 C 
HETATM    5  O1  UNL     1     -11.821   0.297   4.939  1.00  0.00    -0.271 OA
HETATM    6  C7  UNL     1      -9.763   1.340   4.642  1.00  0.00     0.180 C 
HETATM    7  N2  UNL     1      -9.898   2.440   5.559  1.00  0.00    -0.346 N 
ATOM      8  H2  UNL     1     -10.416   2.228   6.411  1.00  0.00     0.163 HD
HETATM    9  C11 UNL     1      -9.429   3.754   5.465  1.00  0.00     0.241 C 
HETATM   10  O2  UNL     1     -10.285   4.717   5.521  1.00  0.00    -0.271 OA
HETATM   11  C12 UNL     1      -7.996   4.201   5.305  1.00  0.00     0.175 C 
HETATM   12  N3  UNL     1      -7.333   4.129   6.608  1.00  0.00    -0.360 N 
ATOM     13  H3  UNL     1      -7.358   4.994   7.147  1.00  0.00     0.162 HD
HETATM   14  C17 UNL     1      -6.681   3.082   7.225  1.00  0.00     0.126 C 
HETATM   15  C18 UNL     1      -5.435   2.350   6.899  1.00  0.00     0.056 C 
HETATM   16  C19 UNL     1      -4.553   3.173   6.050  1.00  0.00     0.030 C 
HETATM   17  C20 UNL     1      -5.871   1.214   5.934  1.00  0.00     0.030 C 
HETATM   18  C21 UNL     1      -4.810   1.648   8.057  1.00  0.00     0.013 C 
HETATM   19  N6  UNL     1      -4.471   0.245   7.793  1.00  0.00    -0.326 N 
HETATM   20  C28 UNL     1      -3.098  -0.056   7.351  1.00  0.00     0.159 C 
HETATM   21  C29 UNL     1      -5.322  -0.854   7.924  1.00  0.00     0.246 C 
HETATM   22  O5  UNL     1      -5.095  -1.849   7.149  1.00  0.00    -0.271 OA
HETATM   23  C30 UNL     1      -6.471  -1.015   8.863  1.00  0.00     0.177 C 
HETATM   24  N7  UNL     1      -7.347  -2.025   8.289  1.00  0.00    -0.346 N 
ATOM     25  H7  UNL     1      -7.265  -2.964   8.678  1.00  0.00     0.163 HD
HETATM   26  C35 UNL     1      -8.279  -1.862   7.278  1.00  0.00     0.241 C 
HETATM   27  O6  UNL     1      -8.285  -2.650   6.282  1.00  0.00    -0.271 OA
ENDROOT
BRANCH  18  28
HETATM   28  C22 UNL     1      -3.893   2.333   8.969  1.00  0.00     0.046 C 
HETATM   29  C23 UNL     1      -4.053   1.763  10.397  1.00  0.00     0.018 C 
BRANCH  28  30
HETATM   30  C24 UNL     1      -3.833   3.783   9.121  1.00  0.00     0.132 C 
BRANCH  30  31
HETATM   31  N4  UNL     1      -2.607   4.200   9.782  1.00  0.00    -0.360 N 
HETATM   32  C25 UNL     1      -1.537   4.877   9.222  1.00  0.00     0.219 C 
HETATM   33  O4  UNL     1      -1.524   5.219   8.026  1.00  0.00    -0.274 OA
ATOM     34  H4  UNL     1      -2.525   3.965  10.772  1.00  0.00     0.162 HD
BRANCH  32  35
HETATM   35  C26 UNL     1      -0.359   5.218  10.045  1.00  0.00     0.130 C 
BRANCH  35  36
HETATM   36  C27 UNL     1       0.828   4.339   9.735  1.00  0.00     0.238 C 
BRANCH  36  37
HETATM   37  N5  UNL     1       2.077   5.051   9.784  1.00  0.00    -0.079 N 
ATOM     38  H53 UNL     1       1.931   6.053   9.662  1.00  0.00     0.274 HD
ATOM     39  H52 UNL     1       2.460   5.053  10.730  1.00  0.00     0.274 HD
ATOM     40  H51 UNL     1       2.761   4.697   9.114  1.00  0.00     0.274 HD
ENDBRANCH  36  37
ENDBRANCH  35  36
ENDBRANCH  32  35
ENDBRANCH  30  31
ENDBRANCH  28  30
ENDBRANCH  18  28
BRANCH  14  41
HETATM   41  O3  UNL     1      -7.268   2.645   8.312  1.00  0.00    -0.349 OA
ATOM     42  H3  UNL     1      -7.843   3.276   8.727  1.00  0.00     0.219 HD
ENDBRANCH  14  41
BRANCH  23  43
HETATM   43  C31 UNL     1      -5.879  -1.389  10.169  1.00  0.00     0.038 C 
BRANCH  43  44
HETATM   44  C32 UNL     1      -6.751  -1.438  11.357  1.00  0.00    -0.020 C 
HETATM   45  C33 UNL     1      -6.401  -2.537  12.338  1.00  0.00     0.009 C 
HETATM   46  C34 UNL     1      -7.019  -0.115  12.032  1.00  0.00     0.009 C 
ENDBRANCH  43  44
ENDBRANCH  23  43
BRANCH  11  47
HETATM   47  C13 UNL     1      -8.073   5.652   4.838  1.00  0.00     0.038 C 
BRANCH  47  48
HETATM   48  C14 UNL     1      -7.587   5.899   3.454  1.00  0.00    -0.020 C 
HETATM   49  C15 UNL     1      -8.832   6.010   2.568  1.00  0.00     0.009 C 
HETATM   50  C16 UNL     1      -6.732   4.753   2.930  1.00  0.00     0.009 C 
ENDBRANCH  47  48
ENDBRANCH  11  47
BRANCH   1  51
HETATM   51  C4  UNL     1     -10.246  -0.912   8.433  1.00  0.00     0.038 C 
BRANCH  51  52
HETATM   52  C2  UNL     1     -11.526  -1.612   8.277  1.00  0.00    -0.020 C 
HETATM   53  C1  UNL     1     -12.792  -0.842   8.419  1.00  0.00     0.009 C 
HETATM   54  C3  UNL     1     -11.567  -2.706   9.369  1.00  0.00     0.009 C 
ENDBRANCH  51  52
ENDBRANCH   1  51
BRANCH   6  55
HETATM   55  C8  UNL     1     -10.336   1.650   3.272  1.00  0.00     0.009 C 
HETATM   56  C9  UNL     1     -11.307   2.768   3.216  1.00  0.00     0.012 C 
HETATM   57  C10 UNL     1      -9.273   1.872   2.239  1.00  0.00     0.012 C 
ENDBRANCH   6  55
TORSDOF 14
ENDMDL
