MODEL 1
REMARK VINA RESULT: -7.690452353      0.000      0.000
REMARK  12 active torsions:
REMARK  status: ('A' for Active; 'I' for Inactive)
REMARK    1  A    between atoms: C2_2  and  C3_3 
REMARK    2  A    between atoms: C3_3  and  C5_5 
REMARK    3  A    between atoms: C7_10  and  C8_11 
REMARK    4  A    between atoms: C8_11  and  C9_12 
REMARK    5  A    between atoms: C9_12  and  C10_13 
REMARK    6  A    between atoms: C12_18  and  C13_19 
REMARK    7  A    between atoms: C13_19  and  C14_20 
REMARK    8  A    between atoms: C14_20  and  C15_21 
REMARK    9  A    between atoms: C20_29  and  C21_30 
REMARK   10  A    between atoms: C21_30  and  C22_31 
REMARK   11  A    between atoms: C26_38  and  C27_39 
REMARK   12  A    between atoms: C31_46  and  C32_47 
ROOT
HETATM    1  C5  UNL     1      -7.701   3.589   5.402  1.00  0.00     0.180 C 
HETATM    2  N1  UNL     1      -7.018   2.406   4.871  1.00  0.00    -0.346 N 
ATOM      3  H1  UNL     1      -6.662   2.533   3.923  1.00  0.00     0.163 HD
HETATM    4  C6  UNL     1      -6.760   1.161   5.391  1.00  0.00     0.241 C 
HETATM    5  O1  UNL     1      -5.519   0.801   5.480  1.00  0.00    -0.271 OA
HETATM    6  C7  UNL     1      -7.682   0.096   5.890  1.00  0.00     0.173 C 
HETATM    7  N3  UNL     1      -7.051  -0.793   6.756  1.00  0.00    -0.384 N 
HETATM    8  C11 UNL     1      -6.259  -1.857   6.249  1.00  0.00     0.146 C 
HETATM    9  C12 UNL     1      -7.750  -1.293   7.896  1.00  0.00     0.182 C 
HETATM   10  N4  UNL     1      -6.772  -1.801   8.831  1.00  0.00    -0.338 N 
ATOM     11  H4  UNL     1      -6.726  -2.819   8.890  1.00  0.00     0.164 HD
HETATM   12  C19 UNL     1      -5.888  -1.136   9.658  1.00  0.00     0.242 C 
HETATM   13  O3  UNL     1      -5.799  -1.506  10.890  1.00  0.00    -0.271 OA
HETATM   14  C20 UNL     1      -4.971  -0.005   9.369  1.00  0.00     0.177 C 
HETATM   15  N5  UNL     1      -5.472   1.186  10.066  1.00  0.00    -0.346 N 
ATOM     16  H5  UNL     1      -6.428   1.112  10.411  1.00  0.00     0.163 HD
HETATM   17  C25 UNL     1      -4.848   2.399  10.329  1.00  0.00     0.241 C 
HETATM   18  O4  UNL     1      -4.707   2.726  11.577  1.00  0.00    -0.271 OA
HETATM   19  C26 UNL     1      -4.296   3.428   9.429  1.00  0.00     0.180 C 
HETATM   20  N6  UNL     1      -4.016   3.038   8.094  1.00  0.00    -0.346 N 
ATOM     21  H6  UNL     1      -3.661   2.094   7.943  1.00  0.00     0.163 HD
HETATM   22  C30 UNL     1      -4.195   3.870   6.946  1.00  0.00     0.241 C 
HETATM   23  O5  UNL     1      -3.604   3.570   5.865  1.00  0.00    -0.271 OA
HETATM   24  C31 UNL     1      -5.043   5.075   6.962  1.00  0.00     0.180 C 
HETATM   25  N7  UNL     1      -6.427   4.854   7.282  1.00  0.00    -0.346 N 
ATOM     26  H7  UNL     1      -6.828   5.494   7.967  1.00  0.00     0.163 HD
HETATM   27  C35 UNL     1      -7.305   3.876   6.779  1.00  0.00     0.241 C 
HETATM   28  O6  UNL     1      -7.836   3.122   7.675  1.00  0.00    -0.271 OA
ENDROOT
BRANCH   9  29
HETATM   29  C13 UNL     1      -8.724  -0.414   8.557  1.00  0.00     0.047 C 
BRANCH  29  30
HETATM   30  C14 UNL     1     -10.027  -1.199   8.758  1.00  0.00     0.012 C 
BRANCH  30  31
HETATM   31  C15 UNL     1     -11.220  -0.232   8.678  1.00  0.00    -0.051 C 
HETATM   32  C16 UNL     1     -10.751   1.105   8.152  1.00  0.00     0.014 C 
HETATM   33  C17 UNL     1     -12.334  -0.804   7.854  1.00  0.00     0.014 C 
HETATM   34  C18 UNL     1     -11.704  -0.040  10.097  1.00  0.00     0.014 C 
ENDBRANCH  30  31
ENDBRANCH  29  30
ENDBRANCH   9  29
BRANCH   6  35
HETATM   35  C8  UNL     1      -8.502  -0.504   4.780  1.00  0.00     0.043 C 
BRANCH  35  36
HETATM   36  C9  UNL     1      -9.952  -0.647   4.975  1.00  0.00     0.102 C 
BRANCH  36  37
HETATM   37  C10 UNL     1     -10.234  -2.137   4.931  1.00  0.00     0.231 C 
HETATM   38  N2  UNL     1     -11.540  -2.622   4.645  1.00  0.00    -0.062 NA
HETATM   39  O2  UNL     1      -9.338  -2.989   5.143  1.00  0.00    -0.277 OA
ENDBRANCH  36  37
ENDBRANCH  35  36
ENDBRANCH   6  35
BRANCH  14  40
HETATM   40  C21 UNL     1      -3.605  -0.380   9.806  1.00  0.00     0.038 C 
BRANCH  40  41
HETATM   41  C22 UNL     1      -3.178  -0.312  11.190  1.00  0.00    -0.020 C 
HETATM   42  C23 UNL     1      -2.165   0.645  11.658  1.00  0.00     0.009 C 
HETATM   43  C24 UNL     1      -2.646  -1.719  11.562  1.00  0.00     0.009 C 
ENDBRANCH  40  41
ENDBRANCH  14  40
BRANCH   1  44
HETATM   44  C3  UNL     1      -9.171   3.498   5.219  1.00  0.00     0.013 C 
HETATM   45  C4  UNL     1      -9.462   3.035   3.758  1.00  0.00     0.012 C 
BRANCH  44  46
HETATM   46  C2  UNL     1     -10.023   4.694   5.377  1.00  0.00     0.002 C 
HETATM   47  C1  UNL     1      -9.677   5.976   4.744  1.00  0.00     0.005 C 
ENDBRANCH  44  46
ENDBRANCH   1  44
BRANCH  19  48
HETATM   48  C27 UNL     1      -3.121   4.186  10.017  1.00  0.00     0.009 C 
HETATM   49  C28 UNL     1      -1.790   3.590   9.682  1.00  0.00     0.012 C 
HETATM   50  C29 UNL     1      -3.107   5.643   9.723  1.00  0.00     0.012 C 
ENDBRANCH  19  48
BRANCH  24  51
HETATM   51  C32 UNL     1      -4.932   5.899   5.724  1.00  0.00     0.009 C 
HETATM   52  C33 UNL     1      -3.669   6.733   5.680  1.00  0.00     0.012 C 
HETATM   53  C34 UNL     1      -6.111   6.840   5.622  1.00  0.00     0.012 C 
ENDBRANCH  24  51
TORSDOF 12
ENDMDL
MODEL 2
REMARK VINA RESULT: -7.664295161      2.492      6.714
REMARK  12 active torsions:
REMARK  status: ('A' for Active; 'I' for Inactive)
REMARK    1  A    between atoms: C2_2  and  C3_3 
REMARK    2  A    between atoms: C3_3  and  C5_5 
REMARK    3  A    between atoms: C7_10  and  C8_11 
REMARK    4  A    between atoms: C8_11  and  C9_12 
REMARK    5  A    between atoms: C9_12  and  C10_13 
REMARK    6  A    between atoms: C12_18  and  C13_19 
REMARK    7  A    between atoms: C13_19  and  C14_20 
REMARK    8  A    between atoms: C14_20  and  C15_21 
REMARK    9  A    between atoms: C20_29  and  C21_30 
REMARK   10  A    between atoms: C21_30  and  C22_31 
REMARK   11  A    between atoms: C26_38  and  C27_39 
REMARK   12  A    between atoms: C31_46  and  C32_47 
ROOT
HETATM    1  C5  UNL     1      -9.788   0.695   6.313  1.00  0.00     0.180 C 
HETATM    2  N1  UNL     1      -9.987   2.078   6.755  1.00  0.00    -0.346 N 
ATOM      3  H1  UNL     1     -10.672   2.172   7.505  1.00  0.00     0.163 HD
HETATM    4  C6  UNL     1      -9.437   3.275   6.363  1.00  0.00     0.241 C 
HETATM    5  O1  UNL     1      -8.811   3.964   7.264  1.00  0.00    -0.271 OA
HETATM    6  C7  UNL     1      -9.428   3.963   5.037  1.00  0.00     0.173 C 
HETATM    7  N3  UNL     1      -8.393   4.887   4.922  1.00  0.00    -0.384 N 
HETATM    8  C11 UNL     1      -8.519   6.186   5.482  1.00  0.00     0.146 C 
HETATM    9  C12 UNL     1      -7.699   5.028   3.682  1.00  0.00     0.182 C 
HETATM   10  N4  UNL     1      -6.438   5.682   3.949  1.00  0.00    -0.338 N 
ATOM     11  H4  UNL     1      -6.390   6.655   3.647  1.00  0.00     0.164 HD
HETATM   12  C19 UNL     1      -5.287   5.206   4.546  1.00  0.00     0.242 C 
HETATM   13  O3  UNL     1      -4.155   5.439   3.976  1.00  0.00    -0.271 OA
HETATM   14  C20 UNL     1      -5.108   4.428   5.799  1.00  0.00     0.177 C 
HETATM   15  N5  UNL     1      -4.680   3.070   5.442  1.00  0.00    -0.346 N 
ATOM     16  H5  UNL     1      -4.801   2.825   4.459  1.00  0.00     0.163 HD
HETATM   17  C25 UNL     1      -4.136   2.066   6.233  1.00  0.00     0.241 C 
HETATM   18  O4  UNL     1      -2.949   1.649   5.914  1.00  0.00    -0.271 OA
HETATM   19  C26 UNL     1      -4.669   1.353   7.407  1.00  0.00     0.180 C 
HETATM   20  N6  UNL     1      -5.746   1.961   8.100  1.00  0.00    -0.346 N 
ATOM     21  H6  UNL     1      -5.746   2.978   8.174  1.00  0.00     0.163 HD
HETATM   22  C30 UNL     1      -6.833   1.253   8.703  1.00  0.00     0.241 C 
HETATM   23  O5  UNL     1      -7.542   1.836   9.577  1.00  0.00    -0.271 OA
HETATM   24  C31 UNL     1      -7.168  -0.137   8.351  1.00  0.00     0.180 C 
HETATM   25  N7  UNL     1      -7.507  -0.363   6.972  1.00  0.00    -0.346 N 
ATOM     26  H7  UNL     1      -7.058  -1.167   6.535  1.00  0.00     0.163 HD
HETATM   27  C35 UNL     1      -8.373   0.373   6.142  1.00  0.00     0.241 C 
HETATM   28  O6  UNL     1      -7.828   0.833   5.072  1.00  0.00    -0.271 OA
ENDROOT
BRANCH   9  29
HETATM   29  C13 UNL     1      -7.523   3.834   2.844  1.00  0.00     0.047 C 
BRANCH  29  30
HETATM   30  C14 UNL     1      -8.339   4.020   1.557  1.00  0.00     0.012 C 
BRANCH  30  31
HETATM   31  C15 UNL     1      -8.561   2.650   0.895  1.00  0.00    -0.051 C 
HETATM   32  C16 UNL     1      -9.196   1.706   1.890  1.00  0.00     0.014 C 
HETATM   33  C17 UNL     1      -9.370   2.775  -0.361  1.00  0.00     0.014 C 
HETATM   34  C18 UNL     1      -7.188   2.122   0.548  1.00  0.00     0.014 C 
ENDBRANCH  30  31
ENDBRANCH  29  30
ENDBRANCH   9  29
BRANCH   6  35
HETATM   35  C8  UNL     1     -10.803   4.429   4.636  1.00  0.00     0.043 C 
BRANCH  35  36
HETATM   36  C9  UNL     1     -11.398   3.885   3.408  1.00  0.00     0.102 C 
BRANCH  36  37
HETATM   37  C10 UNL     1     -11.459   5.041   2.426  1.00  0.00     0.231 C 
HETATM   38  N2  UNL     1     -11.958   4.850   1.107  1.00  0.00    -0.062 NA
HETATM   39  O2  UNL     1     -11.076   6.194   2.735  1.00  0.00    -0.277 OA
ENDBRANCH  36  37
ENDBRANCH  35  36
ENDBRANCH   6  35
BRANCH  14  40
HETATM   40  C21 UNL     1      -4.116   5.126   6.651  1.00  0.00     0.038 C 
BRANCH  40  41
HETATM   41  C22 UNL     1      -4.498   6.045   7.706  1.00  0.00    -0.020 C 
HETATM   42  C23 UNL     1      -4.461   7.504   7.535  1.00  0.00     0.009 C 
HETATM   43  C24 UNL     1      -3.587   5.731   8.921  1.00  0.00     0.009 C 
ENDBRANCH  40  41
ENDBRANCH  14  40
BRANCH   1  44
HETATM   44  C3  UNL     1     -10.611   0.380   5.119  1.00  0.00     0.013 C 
HETATM   45  C4  UNL     1     -12.088   0.786   5.414  1.00  0.00     0.012 C 
BRANCH  44  46
HETATM   46  C2  UNL     1     -10.725  -1.009   4.630  1.00  0.00     0.002 C 
HETATM   47  C1  UNL     1     -11.142  -2.105   5.516  1.00  0.00     0.005 C 
ENDBRANCH  44  46
ENDBRANCH   1  44
BRANCH  19  48
HETATM   48  C27 UNL     1      -3.599   0.901   8.384  1.00  0.00     0.009 C 
HETATM   49  C28 UNL     1      -3.436   1.807   9.563  1.00  0.00     0.012 C 
HETATM   50  C29 UNL     1      -3.728  -0.506   8.845  1.00  0.00     0.012 C 
ENDBRANCH  19  48
BRANCH  24  51
HETATM   51  C32 UNL     1      -8.205  -0.742   9.235  1.00  0.00     0.009 C 
HETATM   52  C33 UNL     1      -7.640  -1.259  10.540  1.00  0.00     0.012 C 
HETATM   53  C34 UNL     1      -8.873  -1.901   8.529  1.00  0.00     0.012 C 
ENDBRANCH  24  51
TORSDOF 12
ENDMDL
MODEL 3
REMARK VINA RESULT: -7.235193422      2.390      5.818
REMARK  12 active torsions:
REMARK  status: ('A' for Active; 'I' for Inactive)
REMARK    1  A    between atoms: C2_2  and  C3_3 
REMARK    2  A    between atoms: C3_3  and  C5_5 
REMARK    3  A    between atoms: C7_10  and  C8_11 
REMARK    4  A    between atoms: C8_11  and  C9_12 
REMARK    5  A    between atoms: C9_12  and  C10_13 
REMARK    6  A    between atoms: C12_18  and  C13_19 
REMARK    7  A    between atoms: C13_19  and  C14_20 
REMARK    8  A    between atoms: C14_20  and  C15_21 
REMARK    9  A    between atoms: C20_29  and  C21_30 
REMARK   10  A    between atoms: C21_30  and  C22_31 
REMARK   11  A    between atoms: C26_38  and  C27_39 
REMARK   12  A    between atoms: C31_46  and  C32_47 
ROOT
HETATM    1  C5  UNL     1      -4.967   3.714   6.225  1.00  0.00     0.180 C 
HETATM    2  N1  UNL     1      -5.205   2.629   5.270  1.00  0.00    -0.346 N 
ATOM      3  H1  UNL     1      -4.349   2.240   4.873  1.00  0.00     0.163 HD
HETATM    4  C6  UNL     1      -6.349   2.028   4.800  1.00  0.00     0.241 C 
HETATM    5  O1  UNL     1      -6.473   0.754   4.996  1.00  0.00    -0.271 OA
HETATM    6  C7  UNL     1      -7.524   2.592   4.071  1.00  0.00     0.173 C 
HETATM    7  N3  UNL     1      -8.659   1.795   4.190  1.00  0.00    -0.384 N 
HETATM    8  C11 UNL     1      -8.827   0.649   3.368  1.00  0.00     0.146 C 
HETATM    9  C12 UNL     1      -9.943   2.401   4.335  1.00  0.00     0.182 C 
HETATM   10  N4  UNL     1     -10.846   1.411   4.877  1.00  0.00    -0.338 N 
ATOM     11  H4  UNL     1     -11.521   1.039   4.210  1.00  0.00     0.164 HD
HETATM   12  C19 UNL     1     -10.944   0.886   6.151  1.00  0.00     0.242 C 
HETATM   13  O3  UNL     1     -12.109   0.805   6.695  1.00  0.00    -0.271 OA
HETATM   14  C20 UNL     1      -9.889   0.369   7.059  1.00  0.00     0.177 C 
HETATM   15  N5  UNL     1      -9.748   1.303   8.182  1.00  0.00    -0.346 N 
ATOM     16  H5  UNL     1     -10.190   2.212   8.044  1.00  0.00     0.163 HD
HETATM   17  C25 UNL     1      -9.106   1.145   9.404  1.00  0.00     0.241 C 
HETATM   18  O4  UNL     1      -9.841   1.248  10.468  1.00  0.00    -0.271 OA
HETATM   19  C26 UNL     1      -7.696   0.876   9.737  1.00  0.00     0.180 C 
HETATM   20  N6  UNL     1      -6.876   0.348   8.707  1.00  0.00    -0.346 N 
ATOM     21  H6  UNL     1      -7.301  -0.312   8.056  1.00  0.00     0.163 HD
HETATM   22  C30 UNL     1      -5.498   0.674   8.513  1.00  0.00     0.241 C 
HETATM   23  O5  UNL     1      -4.775  -0.090   7.805  1.00  0.00    -0.271 OA
HETATM   24  C31 UNL     1      -4.873   1.869   9.105  1.00  0.00     0.180 C 
HETATM   25  N7  UNL     1      -5.446   3.128   8.712  1.00  0.00    -0.346 N 
ATOM     26  H7  UNL     1      -5.626   3.785   9.470  1.00  0.00     0.163 HD
HETATM   27  C35 UNL     1      -5.791   3.578   7.424  1.00  0.00     0.241 C 
HETATM   28  O6  UNL     1      -7.024   3.918   7.288  1.00  0.00    -0.271 OA
ENDROOT
BRANCH   9  29
HETATM   29  C13 UNL     1     -10.034   3.674   5.065  1.00  0.00     0.047 C 
BRANCH  29  30
HETATM   30  C14 UNL     1     -10.943   4.623   4.273  1.00  0.00     0.012 C 
BRANCH  30  31
HETATM   31  C15 UNL     1     -10.391   6.055   4.373  1.00  0.00    -0.051 C 
HETATM   32  C16 UNL     1      -9.031   6.027   5.032  1.00  0.00     0.014 C 
HETATM   33  C17 UNL     1     -10.354   6.722   3.031  1.00  0.00     0.014 C 
HETATM   34  C18 UNL     1     -11.340   6.811   5.274  1.00  0.00     0.014 C 
ENDBRANCH  30  31
ENDBRANCH  29  30
ENDBRANCH   9  29
BRANCH   6  35
HETATM   35  C8  UNL     1      -7.159   3.051   2.684  1.00  0.00     0.043 C 
BRANCH  35  36
HETATM   36  C9  UNL     1      -7.915   4.162   2.089  1.00  0.00     0.102 C 
BRANCH  36  37
HETATM   37  C10 UNL     1      -8.772   3.546   0.998  1.00  0.00     0.231 C 
HETATM   38  N2  UNL     1      -8.183   2.769  -0.038  1.00  0.00    -0.062 NA
HETATM   39  O2  UNL     1     -10.016   3.697   0.967  1.00  0.00    -0.277 OA
ENDBRANCH  36  37
ENDBRANCH  35  36
ENDBRANCH   6  35
BRANCH  14  40
HETATM   40  C21 UNL     1     -10.272  -0.992   7.503  1.00  0.00     0.038 C 
BRANCH  40  41
HETATM   41  C22 UNL     1      -9.315  -2.074   7.627  1.00  0.00    -0.020 C 
HETATM   42  C23 UNL     1      -8.203  -2.257   6.683  1.00  0.00     0.009 C 
HETATM   43  C24 UNL     1     -10.127  -3.394   7.595  1.00  0.00     0.009 C 
ENDBRANCH  40  41
ENDBRANCH  14  40
BRANCH   1  44
HETATM   44  C3  UNL     1      -5.084   5.045   5.579  1.00  0.00     0.013 C 
HETATM   45  C4  UNL     1      -4.348   4.996   4.205  1.00  0.00     0.012 C 
BRANCH  44  46
HETATM   46  C2  UNL     1      -4.524   6.247   6.228  1.00  0.00     0.002 C 
HETATM   47  C1  UNL     1      -3.146   6.275   6.740  1.00  0.00     0.005 C 
ENDBRANCH  44  46
ENDBRANCH   1  44
BRANCH  19  48
HETATM   48  C27 UNL     1      -7.512   0.083  11.018  1.00  0.00     0.009 C 
HETATM   49  C28 UNL     1      -7.177  -1.358  10.793  1.00  0.00     0.012 C 
HETATM   50  C29 UNL     1      -6.556   0.676  11.988  1.00  0.00     0.012 C 
ENDBRANCH  19  48
BRANCH  24  51
HETATM   51  C32 UNL     1      -3.391   1.911   8.940  1.00  0.00     0.009 C 
HETATM   52  C33 UNL     1      -2.668   0.941   9.850  1.00  0.00     0.012 C 
HETATM   53  C34 UNL     1      -2.876   3.301   9.244  1.00  0.00     0.012 C 
ENDBRANCH  24  51
TORSDOF 12
ENDMDL
MODEL 4
REMARK VINA RESULT: -7.083189050      2.528      7.651
REMARK  12 active torsions:
REMARK  status: ('A' for Active; 'I' for Inactive)
REMARK    1  A    between atoms: C2_2  and  C3_3 
REMARK    2  A    between atoms: C3_3  and  C5_5 
REMARK    3  A    between atoms: C7_10  and  C8_11 
REMARK    4  A    between atoms: C8_11  and  C9_12 
REMARK    5  A    between atoms: C9_12  and  C10_13 
REMARK    6  A    between atoms: C12_18  and  C13_19 
REMARK    7  A    between atoms: C13_19  and  C14_20 
REMARK    8  A    between atoms: C14_20  and  C15_21 
REMARK    9  A    between atoms: C20_29  and  C21_30 
REMARK   10  A    between atoms: C21_30  and  C22_31 
REMARK   11  A    between atoms: C26_38  and  C27_39 
REMARK   12  A    between atoms: C31_46  and  C32_47 
ROOT
HETATM    1  C5  UNL     1      -9.400   2.478   2.927  1.00  0.00     0.180 C 
HETATM    2  N1  UNL     1      -9.992   3.082   4.124  1.00  0.00    -0.346 N 
ATOM      3  H1  UNL     1     -10.733   3.753   3.917  1.00  0.00     0.163 HD
HETATM    4  C6  UNL     1      -9.751   2.929   5.468  1.00  0.00     0.241 C 
HETATM    5  O1  UNL     1     -10.738   2.530   6.205  1.00  0.00    -0.271 OA
HETATM    6  C7  UNL     1      -8.513   3.149   6.273  1.00  0.00     0.173 C 
HETATM    7  N3  UNL     1      -8.526   2.447   7.476  1.00  0.00    -0.384 N 
HETATM    8  C11 UNL     1      -9.228   2.955   8.601  1.00  0.00     0.146 C 
HETATM    9  C12 UNL     1      -7.326   1.846   7.963  1.00  0.00     0.182 C 
HETATM   10  N4  UNL     1      -7.694   0.840   8.934  1.00  0.00    -0.338 N 
ATOM     11  H4  UNL     1      -7.505   1.095   9.904  1.00  0.00     0.164 HD
HETATM   12  C19 UNL     1      -8.258  -0.409   8.766  1.00  0.00     0.242 C 
HETATM   13  O3  UNL     1      -7.742  -1.408   9.396  1.00  0.00    -0.271 OA
HETATM   14  C20 UNL     1      -9.417  -0.834   7.941  1.00  0.00     0.177 C 
HETATM   15  N5  UNL     1      -8.918  -1.651   6.828  1.00  0.00    -0.346 N 
ATOM     16  H5  UNL     1      -7.911  -1.597   6.673  1.00  0.00     0.163 HD
HETATM   17  C25 UNL     1      -9.600  -2.486   5.952  1.00  0.00     0.241 C 
HETATM   18  O4  UNL     1      -9.262  -3.738   5.956  1.00  0.00    -0.271 OA
HETATM   19  C26 UNL     1     -10.674  -2.212   4.981  1.00  0.00     0.180 C 
HETATM   20  N6  UNL     1     -11.408  -1.010   5.148  1.00  0.00    -0.346 N 
ATOM     21  H6  UNL     1     -11.597  -0.701   6.101  1.00  0.00     0.163 HD
HETATM   22  C30 UNL     1     -11.902  -0.200   4.079  1.00  0.00     0.241 C 
HETATM   23  O5  UNL     1     -12.821   0.641   4.314  1.00  0.00    -0.271 OA
HETATM   24  C31 UNL     1     -11.386  -0.299   2.703  1.00  0.00     0.180 C 
HETATM   25  N7  UNL     1      -9.984  -0.026   2.545  1.00  0.00    -0.346 N 
ATOM     26  H7  UNL     1      -9.468  -0.693   1.971  1.00  0.00     0.163 HD
HETATM   27  C35 UNL     1      -9.225   1.034   3.073  1.00  0.00     0.241 C 
HETATM   28  O6  UNL     1      -8.226   0.670   3.797  1.00  0.00    -0.271 OA
ENDROOT
BRANCH   9  29
HETATM   29  C13 UNL     1      -6.361   1.325   6.984  1.00  0.00     0.047 C 
BRANCH  29  30
HETATM   30  C14 UNL     1      -4.972   1.307   7.636  1.00  0.00     0.012 C 
BRANCH  30  31
HETATM   31  C15 UNL     1      -4.412  -0.125   7.595  1.00  0.00    -0.051 C 
HETATM   32  C16 UNL     1      -4.244  -0.641   9.006  1.00  0.00     0.014 C 
HETATM   33  C17 UNL     1      -5.274  -1.026   6.763  1.00  0.00     0.014 C 
HETATM   34  C18 UNL     1      -3.044  -0.025   6.960  1.00  0.00     0.014 C 
ENDBRANCH  30  31
ENDBRANCH  29  30
ENDBRANCH   9  29
BRANCH   6  35
HETATM   35  C8  UNL     1      -8.137   4.605   6.342  1.00  0.00     0.043 C 
BRANCH  35  36
HETATM   36  C9  UNL     1      -6.727   4.958   6.562  1.00  0.00     0.102 C 
BRANCH  36  37
HETATM   37  C10 UNL     1      -6.083   4.979   5.188  1.00  0.00     0.231 C 
HETATM   38  N2  UNL     1      -5.350   3.857   4.710  1.00  0.00    -0.062 NA
HETATM   39  O2  UNL     1      -6.170   5.974   4.430  1.00  0.00    -0.277 OA
ENDBRANCH  36  37
ENDBRANCH  35  36
ENDBRANCH   6  35
BRANCH  14  40
HETATM   40  C21 UNL     1     -10.365  -1.578   8.804  1.00  0.00     0.038 C 
BRANCH  40  41
HETATM   41  C22 UNL     1     -11.715  -1.118   9.064  1.00  0.00    -0.020 C 
HETATM   42  C23 UNL     1     -12.032  -0.162  10.135  1.00  0.00     0.009 C 
HETATM   43  C24 UNL     1     -12.570  -2.380   9.346  1.00  0.00     0.009 C 
ENDBRANCH  40  41
ENDBRANCH  14  40
BRANCH   1  44
HETATM   44  C3  UNL     1      -8.160   3.182   2.516  1.00  0.00     0.013 C 
HETATM   45  C4  UNL     1      -8.508   4.677   2.238  1.00  0.00     0.012 C 
BRANCH  44  46
HETATM   46  C2  UNL     1      -7.427   2.767   1.303  1.00  0.00     0.002 C 
HETATM   47  C1  UNL     1      -8.108   2.599   0.011  1.00  0.00     0.005 C 
ENDBRANCH  44  46
ENDBRANCH   1  44
BRANCH  19  48
HETATM   48  C27 UNL     1     -11.616  -3.382   4.766  1.00  0.00     0.009 C 
HETATM   49  C28 UNL     1     -12.921  -3.246   5.486  1.00  0.00     0.012 C 
HETATM   50  C29 UNL     1     -11.861  -3.735   3.343  1.00  0.00     0.012 C 
ENDBRANCH  19  48
BRANCH  24  51
HETATM   51  C32 UNL     1     -12.173   0.492   1.713  1.00  0.00     0.009 C 
HETATM   52  C33 UNL     1     -13.481  -0.169   1.333  1.00  0.00     0.012 C 
HETATM   53  C34 UNL     1     -11.368   0.683   0.447  1.00  0.00     0.012 C 
ENDBRANCH  24  51
TORSDOF 12
ENDMDL
MODEL 5
REMARK VINA RESULT: -6.947107994      2.373      6.020
REMARK  12 active torsions:
REMARK  status: ('A' for Active; 'I' for Inactive)
REMARK    1  A    between atoms: C2_2  and  C3_3 
REMARK    2  A    between atoms: C3_3  and  C5_5 
REMARK    3  A    between atoms: C7_10  and  C8_11 
REMARK    4  A    between atoms: C8_11  and  C9_12 
REMARK    5  A    between atoms: C9_12  and  C10_13 
REMARK    6  A    between atoms: C12_18  and  C13_19 
REMARK    7  A    between atoms: C13_19  and  C14_20 
REMARK    8  A    between atoms: C14_20  and  C15_21 
REMARK    9  A    between atoms: C20_29  and  C21_30 
REMARK   10  A    between atoms: C21_30  and  C22_31 
REMARK   11  A    between atoms: C26_38  and  C27_39 
REMARK   12  A    between atoms: C31_46  and  C32_47 
ROOT
HETATM    1  C5  UNL     1      -5.005   3.844   6.577  1.00  0.00     0.180 C 
HETATM    2  N1  UNL     1      -5.189   2.902   5.470  1.00  0.00    -0.346 N 
ATOM      3  H1  UNL     1      -4.314   2.612   5.032  1.00  0.00     0.163 HD
HETATM    4  C6  UNL     1      -6.302   2.329   4.902  1.00  0.00     0.241 C 
HETATM    5  O1  UNL     1      -6.372   1.035   4.908  1.00  0.00    -0.271 OA
HETATM    6  C7  UNL     1      -7.496   2.944   4.249  1.00  0.00     0.173 C 
HETATM    7  N3  UNL     1      -8.596   2.090   4.235  1.00  0.00    -0.384 N 
HETATM    8  C11 UNL     1      -8.708   1.071   3.252  1.00  0.00     0.146 C 
HETATM    9  C12 UNL     1      -9.906   2.614   4.450  1.00  0.00     0.182 C 
HETATM   10  N4  UNL     1     -10.768   1.517   4.830  1.00  0.00    -0.338 N 
ATOM     11  H4  UNL     1     -11.422   1.219   4.106  1.00  0.00     0.164 HD
HETATM   12  C19 UNL     1     -10.852   0.807   6.012  1.00  0.00     0.242 C 
HETATM   13  O3  UNL     1     -12.016   0.598   6.524  1.00  0.00    -0.271 OA
HETATM   14  C20 UNL     1      -9.781   0.208   6.848  1.00  0.00     0.177 C 
HETATM   15  N5  UNL     1      -9.688   0.972   8.098  1.00  0.00    -0.346 N 
ATOM     16  H5  UNL     1     -10.170   1.872   8.088  1.00  0.00     0.163 HD
HETATM   17  C25 UNL     1      -9.048   0.664   9.292  1.00  0.00     0.241 C 
HETATM   18  O4  UNL     1      -9.794   0.578  10.349  1.00  0.00    -0.271 OA
HETATM   19  C26 UNL     1      -7.630   0.408   9.600  1.00  0.00     0.180 C 
HETATM   20  N6  UNL     1      -6.781   0.073   8.514  1.00  0.00    -0.346 N 
ATOM     21  H6  UNL     1      -7.173  -0.502   7.769  1.00  0.00     0.163 HD
HETATM   22  C30 UNL     1      -5.417   0.482   8.388  1.00  0.00     0.241 C 
HETATM   23  O5  UNL     1      -4.657  -0.139   7.585  1.00  0.00    -0.271 OA
HETATM   24  C31 UNL     1      -4.849   1.602   9.157  1.00  0.00     0.180 C 
HETATM   25  N7  UNL     1      -5.474   2.880   8.945  1.00  0.00    -0.346 N 
ATOM     26  H7  UNL     1      -5.688   3.410   9.789  1.00  0.00     0.163 HD
HETATM   27  C35 UNL     1      -5.831   3.499   7.733  1.00  0.00     0.241 C 
HETATM   28  O6  UNL     1      -7.076   3.802   7.632  1.00  0.00    -0.271 OA
ENDROOT
BRANCH   9  29
HETATM   29  C13 UNL     1     -10.057   3.760   5.357  1.00  0.00     0.047 C 
BRANCH  29  30
HETATM   30  C14 UNL     1     -10.931   4.815   4.664  1.00  0.00     0.012 C 
BRANCH  30  31
HETATM   31  C15 UNL     1     -10.620   6.199   5.257  1.00  0.00    -0.051 C 
HETATM   32  C16 UNL     1      -9.179   6.242   5.711  1.00  0.00     0.014 C 
HETATM   33  C17 UNL     1     -10.939   7.294   4.284  1.00  0.00     0.014 C 
HETATM   34  C18 UNL     1     -11.506   6.346   6.473  1.00  0.00     0.014 C 
ENDBRANCH  30  31
ENDBRANCH  29  30
ENDBRANCH   9  29
BRANCH   6  35
HETATM   35  C8  UNL     1      -7.142   3.616   2.948  1.00  0.00     0.043 C 
BRANCH  35  36
HETATM   36  C9  UNL     1      -6.877   5.061   2.954  1.00  0.00     0.102 C 
BRANCH  36  37
HETATM   37  C10 UNL     1      -8.065   5.706   2.265  1.00  0.00     0.231 C 
HETATM   38  N2  UNL     1      -8.116   7.114   2.068  1.00  0.00    -0.062 NA
HETATM   39  O2  UNL     1      -9.035   5.032   1.846  1.00  0.00    -0.277 OA
ENDBRANCH  36  37
ENDBRANCH  35  36
ENDBRANCH   6  35
BRANCH  14  40
HETATM   40  C21 UNL     1     -10.107  -1.218   7.083  1.00  0.00     0.038 C 
BRANCH  40  41
HETATM   41  C22 UNL     1      -9.095  -2.256   7.134  1.00  0.00    -0.020 C 
HETATM   42  C23 UNL     1      -7.997  -2.336   6.161  1.00  0.00     0.009 C 
HETATM   43  C24 UNL     1      -9.842  -3.612   7.054  1.00  0.00     0.009 C 
ENDBRANCH  40  41
ENDBRANCH  14  40
BRANCH   1  44
HETATM   44  C3  UNL     1      -5.176   5.250   6.131  1.00  0.00     0.013 C 
HETATM   45  C4  UNL     1      -4.037   5.592   5.121  1.00  0.00     0.012 C 
BRANCH  44  46
HETATM   46  C2  UNL     1      -5.119   6.358   7.104  1.00  0.00     0.002 C 
HETATM   47  C1  UNL     1      -3.925   6.602   7.927  1.00  0.00     0.005 C 
ENDBRANCH  44  46
ENDBRANCH   1  44
BRANCH  19  48
HETATM   48  C27 UNL     1      -7.421  -0.555  10.753  1.00  0.00     0.009 C 
HETATM   49  C28 UNL     1      -6.617  -1.764  10.391  1.00  0.00     0.012 C 
HETATM   50  C29 UNL     1      -6.873   0.060  11.990  1.00  0.00     0.012 C 
ENDBRANCH  19  48
BRANCH  24  51
HETATM   51  C32 UNL     1      -3.370   1.730   9.019  1.00  0.00     0.009 C 
HETATM   52  C33 UNL     1      -2.610   0.688   9.811  1.00  0.00     0.012 C 
HETATM   53  C34 UNL     1      -2.922   3.093   9.500  1.00  0.00     0.012 C 
ENDBRANCH  24  51
TORSDOF 12
ENDMDL
