MODEL 1
REMARK VINA RESULT: -5.057685440      0.000      0.000
REMARK  5 active torsions:
REMARK  status: ('A' for Active; 'I' for Inactive)
REMARK    1  A    between atoms: C2_2  and  C4_5 
REMARK    2  A    between atoms: C4_5  and  O1_6 
REMARK    3  A    between atoms: C4_5  and  C5_8 
REMARK    4  A    between atoms: C4_5  and  C11_14 
REMARK    5  A    between atoms: C15_21  and  N2_22 
ROOT
HETATM    1  C11 UNL     1       9.401  11.280 -34.386  1.00  0.00     0.006 C 
HETATM    2  C12 UNL     1       9.159  12.293 -33.321  1.00  0.00     0.271 C 
HETATM    3  N1  UNL     1      10.402  12.624 -32.585  1.00  0.00    -0.071 N 
ATOM      4  H11 UNL     1      10.880  11.815 -32.187  1.00  0.00     0.277 HD
ATOM      5  H12 UNL     1      10.248  13.109 -31.701  1.00  0.00     0.277 HD
HETATM    6  C13 UNL     1      11.204  13.382 -33.560  1.00  0.00     0.238 C 
HETATM    7  C14 UNL     1      11.615  12.503 -34.711  1.00  0.00     0.085 C 
HETATM    8  C15 UNL     1      10.895  11.196 -34.584  1.00  0.00     0.019 C 
ENDROOT
BRANCH   1   9
HETATM    9  C4  UNL     1       8.500  11.232 -35.532  1.00  0.00     0.123 C 
BRANCH   9  10
HETATM   10  C2  UNL     1       7.577  12.286 -35.932  1.00  0.00     0.131 C 
HETATM   11  C1  UNL     1       6.277  12.498 -35.283  1.00  0.00     0.055 C 
HETATM   12  C3  UNL     1       8.227  13.619 -36.311  1.00  0.00     0.055 C 
HETATM   13  F1  UNL     1       7.186  11.887 -37.263  1.00  0.00    -0.240 F 
ENDBRANCH   9  10
BRANCH   9  14
HETATM   14  O1  UNL     1       9.346  11.085 -36.694  1.00  0.00    -0.381 OA
ATOM     15  H1  UNL     1      10.026  11.731 -36.544  1.00  0.00     0.211 HD
ENDBRANCH   9  14
BRANCH   9  16
HETATM   16  C5  UNL     1       7.762   9.877 -35.614  1.00  0.00     0.028 C 
HETATM   17  C6  UNL     1       7.585   9.122 -34.382  1.00  0.00     0.008 C 
HETATM   18  C7  UNL     1       7.295   7.655 -34.760  1.00  0.00     0.000 C 
HETATM   19  C8  UNL     1       6.443   7.672 -35.982  1.00  0.00     0.000 C 
HETATM   20  C9  UNL     1       7.193   8.084 -37.224  1.00  0.00     0.000 C 
HETATM   21  C10 UNL     1       8.315   9.030 -36.771  1.00  0.00     0.008 C 
ENDBRANCH   9  16
ENDBRANCH   1   9
BRANCH   8  22
HETATM   22  N2  UNL     1      11.415  10.126 -35.318  1.00  0.00    -0.359 N 
HETATM   23  C16 UNL     1      11.253   8.799 -34.790  1.00  0.00     0.154 C 
HETATM   24  C17 UNL     1      12.606   8.249 -34.380  1.00  0.00     0.188 C 
HETATM   25  O2  UNL     1      13.298   8.080 -35.601  1.00  0.00    -0.385 OA
HETATM   26  C18 UNL     1      13.649   9.346 -36.017  1.00  0.00     0.212 C 
HETATM   27  C19 UNL     1      12.496  10.280 -36.190  1.00  0.00     0.090 C 
ENDBRANCH   8  22
TORSDOF 5
ENDMDL
MODEL 2
REMARK VINA RESULT: -4.890675291      2.214      4.740
REMARK  5 active torsions:
REMARK  status: ('A' for Active; 'I' for Inactive)
REMARK    1  A    between atoms: C2_2  and  C4_5 
REMARK    2  A    between atoms: C4_5  and  O1_6 
REMARK    3  A    between atoms: C4_5  and  C5_8 
REMARK    4  A    between atoms: C4_5  and  C11_14 
REMARK    5  A    between atoms: C15_21  and  N2_22 
ROOT
HETATM    1  C11 UNL     1      10.726  10.513 -36.446  1.00  0.00     0.006 C 
HETATM    2  C12 UNL     1      11.769  10.443 -37.508  1.00  0.00     0.271 C 
HETATM    3  N1  UNL     1      12.209  11.791 -37.934  1.00  0.00    -0.071 N 
ATOM      4  H11 UNL     1      11.451  12.403 -38.237  1.00  0.00     0.277 HD
ATOM      5  H12 UNL     1      12.723  11.805 -38.815  1.00  0.00     0.277 HD
HETATM    6  C13 UNL     1      12.972  12.301 -36.782  1.00  0.00     0.238 C 
HETATM    7  C14 UNL     1      12.071  12.506 -35.594  1.00  0.00     0.085 C 
HETATM    8  C15 UNL     1      10.727  11.927 -35.918  1.00  0.00     0.019 C 
ENDROOT
BRANCH   1   9
HETATM    9  C4  UNL     1      10.571   9.384 -35.534  1.00  0.00     0.123 C 
BRANCH   9  10
HETATM   10  C2  UNL     1      11.621   8.450 -35.152  1.00  0.00     0.131 C 
HETATM   11  C1  UNL     1      11.839   7.170 -35.838  1.00  0.00     0.055 C 
HETATM   12  C3  UNL     1      12.950   9.088 -34.741  1.00  0.00     0.055 C 
HETATM   13  F1  UNL     1      11.209   8.019 -33.838  1.00  0.00    -0.240 F 
ENDBRANCH   9  10
BRANCH   9  14
HETATM   14  O1  UNL     1      10.167   9.952 -34.268  1.00  0.00    -0.381 OA
ATOM     15  H1  UNL     1       9.240  10.117 -34.396  1.00  0.00     0.211 HD
ENDBRANCH   9  14
BRANCH   9  16
HETATM   16  C5  UNL     1       9.288   8.581 -35.844  1.00  0.00     0.028 C 
HETATM   17  C6  UNL     1       8.705   8.714 -37.172  1.00  0.00     0.008 C 
HETATM   18  C7  UNL     1       7.236   8.251 -37.094  1.00  0.00     0.000 C 
HETATM   19  C8  UNL     1       7.183   7.094 -36.157  1.00  0.00     0.000 C 
HETATM   20  C9  UNL     1       7.375   7.489 -34.714  1.00  0.00     0.000 C 
HETATM   21  C10 UNL     1       8.262   8.742 -34.711  1.00  0.00     0.008 C 
ENDBRANCH   9  16
ENDBRANCH   1   9
BRANCH   8  22
HETATM   22  N2  UNL     1       9.660  12.345 -35.118  1.00  0.00    -0.359 N 
HETATM   23  C16 UNL     1       8.360  12.446 -35.721  1.00  0.00     0.154 C 
HETATM   24  C17 UNL     1       7.948  13.905 -35.793  1.00  0.00     0.188 C 
HETATM   25  O2  UNL     1       7.761  14.282 -34.444  1.00  0.00    -0.385 OA
HETATM   26  C18 UNL     1       9.024  14.396 -33.903  1.00  0.00     0.212 C 
HETATM   27  C19 UNL     1       9.849  13.153 -33.994  1.00  0.00     0.090 C 
ENDBRANCH   8  22
TORSDOF 5
ENDMDL
MODEL 3
REMARK VINA RESULT: -4.659379466      1.939      4.653
REMARK  5 active torsions:
REMARK  status: ('A' for Active; 'I' for Inactive)
REMARK    1  A    between atoms: C2_2  and  C4_5 
REMARK    2  A    between atoms: C4_5  and  O1_6 
REMARK    3  A    between atoms: C4_5  and  C5_8 
REMARK    4  A    between atoms: C4_5  and  C11_14 
REMARK    5  A    between atoms: C15_21  and  N2_22 
ROOT
HETATM    1  C11 UNL     1       9.836  10.302 -35.896  1.00  0.00     0.006 C 
HETATM    2  C12 UNL     1       8.686  10.095 -36.820  1.00  0.00     0.271 C 
HETATM    3  N1  UNL     1       8.654   8.714 -37.356  1.00  0.00    -0.071 N 
ATOM      4  H11 UNL     1       9.518   8.423 -37.814  1.00  0.00     0.277 HD
ATOM      5  H12 UNL     1       8.051   8.596 -38.171  1.00  0.00     0.277 HD
HETATM    6  C13 UNL     1       8.275   7.888 -36.198  1.00  0.00     0.238 C 
HETATM    7  C14 UNL     1       9.356   7.910 -35.150  1.00  0.00     0.085 C 
HETATM    8  C15 UNL     1      10.374   8.935 -35.548  1.00  0.00     0.019 C 
ENDROOT
BRANCH   1   9
HETATM    9  C4  UNL     1       9.744  11.341 -34.876  1.00  0.00     0.123 C 
BRANCH   9  10
HETATM   10  C2  UNL     1       8.517  11.806 -34.246  1.00  0.00     0.131 C 
HETATM   11  C1  UNL     1       7.779  12.989 -34.709  1.00  0.00     0.055 C 
HETATM   12  C3  UNL     1       7.558  10.706 -33.784  1.00  0.00     0.055 C 
HETATM   13  F1  UNL     1       8.961  12.224 -32.938  1.00  0.00    -0.240 F 
ENDBRANCH   9  10
BRANCH   9  14
HETATM   14  O1  UNL     1      10.523  10.865 -33.755  1.00  0.00    -0.381 OA
ATOM     15  H1  UNL     1      11.416  11.027 -34.034  1.00  0.00     0.211 HD
ENDBRANCH   9  14
BRANCH   9  16
HETATM   16  C5  UNL     1      10.603  12.571 -35.245  1.00  0.00     0.028 C 
HETATM   17  C6  UNL     1      11.088  12.677 -36.614  1.00  0.00     0.008 C 
HETATM   18  C7  UNL     1      12.278  13.659 -36.621  1.00  0.00     0.000 C 
HETATM   19  C8  UNL     1      11.965  14.744 -35.649  1.00  0.00     0.000 C 
HETATM   20  C9  UNL     1      12.049  14.295 -34.212  1.00  0.00     0.000 C 
HETATM   21  C10 UNL     1      11.699  12.800 -34.193  1.00  0.00     0.008 C 
ENDBRANCH   9  16
ENDBRANCH   1   9
BRANCH   8  22
HETATM   22  N2  UNL     1      11.623   8.843 -34.927  1.00  0.00    -0.359 N 
HETATM   23  C16 UNL     1      12.729   9.540 -35.523  1.00  0.00     0.154 C 
HETATM   24  C17 UNL     1      13.723   8.535 -36.073  1.00  0.00     0.188 C 
HETATM   25  O2  UNL     1      14.257   7.907 -34.925  1.00  0.00    -0.385 OA
HETATM   26  C18 UNL     1      13.269   7.066 -34.459  1.00  0.00     0.212 C 
HETATM   27  C19 UNL     1      11.979   7.748 -34.135  1.00  0.00     0.090 C 
ENDBRANCH   8  22
TORSDOF 5
ENDMDL
MODEL 4
REMARK VINA RESULT: -4.570650648      2.407      4.745
REMARK  5 active torsions:
REMARK  status: ('A' for Active; 'I' for Inactive)
REMARK    1  A    between atoms: C2_2  and  C4_5 
REMARK    2  A    between atoms: C4_5  and  O1_6 
REMARK    3  A    between atoms: C4_5  and  C5_8 
REMARK    4  A    between atoms: C4_5  and  C11_14 
REMARK    5  A    between atoms: C15_21  and  N2_22 
ROOT
HETATM    1  C11 UNL     1      10.505  11.332 -36.232  1.00  0.00     0.006 C 
HETATM    2  C12 UNL     1      11.099  11.125 -37.583  1.00  0.00     0.271 C 
HETATM    3  N1  UNL     1      11.547  12.401 -38.186  1.00  0.00    -0.071 N 
ATOM      4  H11 UNL     1      10.822  13.117 -38.237  1.00  0.00     0.277 HD
ATOM      5  H12 UNL     1      11.723  12.350 -39.190  1.00  0.00     0.277 HD
HETATM    6  C13 UNL     1      12.721  12.785 -37.385  1.00  0.00     0.238 C 
HETATM    7  C14 UNL     1      12.320  13.105 -35.970  1.00  0.00     0.085 C 
HETATM    8  C15 UNL     1      10.881  12.726 -35.793  1.00  0.00     0.019 C 
ENDROOT
BRANCH   1   9
HETATM    9  C4  UNL     1      10.519  10.228 -35.278  1.00  0.00     0.123 C 
BRANCH   9  10
HETATM   10  C2  UNL     1      11.697   9.481 -34.860  1.00  0.00     0.131 C 
HETATM   11  C1  UNL     1      12.605   8.824 -35.809  1.00  0.00     0.055 C 
HETATM   12  C3  UNL     1      12.471  10.081 -33.684  1.00  0.00     0.055 C 
HETATM   13  F1  UNL     1      11.134   8.355 -34.155  1.00  0.00    -0.240 F 
ENDBRANCH   9  10
BRANCH   9  14
HETATM   14  O1  UNL     1      10.024  10.774 -34.035  1.00  0.00    -0.381 OA
ATOM     15  H1  UNL     1      10.301  11.681 -34.077  1.00  0.00     0.211 HD
ENDBRANCH   9  14
BRANCH   9  16
HETATM   16  C5  UNL     1       9.376   9.226 -35.558  1.00  0.00     0.028 C 
HETATM   17  C6  UNL     1       9.096   8.882 -36.945  1.00  0.00     0.008 C 
HETATM   18  C7  UNL     1       7.670   8.298 -37.011  1.00  0.00     0.000 C 
HETATM   19  C8  UNL     1       7.468   7.481 -35.781  1.00  0.00     0.000 C 
HETATM   20  C9  UNL     1       7.315   8.314 -34.534  1.00  0.00     0.000 C 
HETATM   21  C10 UNL     1       8.119   9.602 -34.760  1.00  0.00     0.008 C 
ENDBRANCH   9  16
ENDBRANCH   1   9
BRANCH   8  22
HETATM   22  N2  UNL     1      10.222  13.284 -34.694  1.00  0.00    -0.359 N 
HETATM   23  C16 UNL     1       8.848  13.675 -34.854  1.00  0.00     0.154 C 
HETATM   24  C17 UNL     1       8.741  15.187 -34.783  1.00  0.00     0.188 C 
HETATM   25  O2  UNL     1       9.061  15.497 -33.441  1.00  0.00    -0.385 OA
HETATM   26  C18 UNL     1      10.425  15.328 -33.327  1.00  0.00     0.212 C 
HETATM   27  C19 UNL     1      10.909  13.960 -33.682  1.00  0.00     0.090 C 
ENDBRANCH   8  22
TORSDOF 5
ENDMDL
MODEL 5
REMARK VINA RESULT: -4.564975027      2.450      5.570
REMARK  5 active torsions:
REMARK  status: ('A' for Active; 'I' for Inactive)
REMARK    1  A    between atoms: C2_2  and  C4_5 
REMARK    2  A    between atoms: C4_5  and  O1_6 
REMARK    3  A    between atoms: C4_5  and  C5_8 
REMARK    4  A    between atoms: C4_5  and  C11_14 
REMARK    5  A    between atoms: C15_21  and  N2_22 
ROOT
HETATM    1  C11 UNL     1      10.319   9.499 -35.662  1.00  0.00     0.006 C 
HETATM    2  C12 UNL     1       9.883   8.274 -36.389  1.00  0.00     0.271 C 
HETATM    3  N1  UNL     1       8.422   8.272 -36.634  1.00  0.00    -0.071 N 
ATOM      4  H11 UNL     1       7.856   8.392 -35.794  1.00  0.00     0.277 HD
ATOM      5  H12 UNL     1       8.042   7.362 -36.895  1.00  0.00     0.277 HD
HETATM    6  C13 UNL     1       8.227   9.322 -37.649  1.00  0.00     0.238 C 
HETATM    7  C14 UNL     1       8.560  10.678 -37.084  1.00  0.00     0.085 C 
HETATM    8  C15 UNL     1       9.179  10.485 -35.733  1.00  0.00     0.019 C 
ENDROOT
BRANCH   1   9
HETATM    9  C4  UNL     1      11.698   9.952 -35.809  1.00  0.00     0.123 C 
BRANCH   9  10
HETATM   10  C2  UNL     1      12.204  10.801 -36.879  1.00  0.00     0.131 C 
HETATM   11  C1  UNL     1      11.674  10.762 -38.248  1.00  0.00     0.055 C 
HETATM   12  C3  UNL     1      12.562  12.232 -36.468  1.00  0.00     0.055 C 
HETATM   13  F1  UNL     1      13.552  10.320 -37.065  1.00  0.00    -0.240 F 
ENDBRANCH   9  10
BRANCH   9  14
HETATM   14  O1  UNL     1      11.989  10.722 -34.621  1.00  0.00    -0.381 OA
ATOM     15  H1  UNL     1      12.344  10.070 -34.028  1.00  0.00     0.211 HD
ENDBRANCH   9  14
BRANCH   9  16
HETATM   16  C5  UNL     1      12.699   8.798 -35.583  1.00  0.00     0.028 C 
HETATM   17  C6  UNL     1      12.199   7.434 -35.682  1.00  0.00     0.008 C 
HETATM   18  C7  UNL     1      13.199   6.508 -34.958  1.00  0.00     0.000 C 
HETATM   19  C8  UNL     1      14.567   7.029 -35.235  1.00  0.00     0.000 C 
HETATM   20  C9  UNL     1      14.873   8.311 -34.503  1.00  0.00     0.000 C 
HETATM   21  C10 UNL     1      13.538   9.048 -34.321  1.00  0.00     0.008 C 
ENDBRANCH   9  16
ENDBRANCH   1   9
BRANCH   8  22
HETATM   22  N2  UNL     1       9.206  11.604 -34.896  1.00  0.00    -0.359 N 
HETATM   23  C16 UNL     1       8.625  11.486 -33.587  1.00  0.00     0.154 C 
HETATM   24  C17 UNL     1       7.376  12.344 -33.509  1.00  0.00     0.188 C 
HETATM   25  O2  UNL     1       7.860  13.671 -33.581  1.00  0.00    -0.385 OA
HETATM   26  C18 UNL     1       8.228  13.869 -34.895  1.00  0.00     0.212 C 
HETATM   27  C19 UNL     1       9.253  12.906 -35.401  1.00  0.00     0.090 C 
ENDBRANCH   8  22
TORSDOF 5
ENDMDL
