MODEL 1
REMARK VINA RESULT: -5.177226308      0.000      0.000
REMARK  7 active torsions:
REMARK  status: ('A' for Active; 'I' for Inactive)
REMARK    1  A    between atoms: C3_3  and  C4_4 
REMARK    2  A    between atoms: C5_5  and  C6_6 
REMARK    3  A    between atoms: C7_8  and  C8_9 
REMARK    4  A    between atoms: C8_9  and  O2_11 
REMARK    5  A    between atoms: O2_11  and  C9_12 
REMARK    6  A    between atoms: C11_14  and  O3_16 
REMARK    7  A    between atoms: C16_21  and  O4_23 
ROOT
HETATM    1  C1  UNL     1      13.633  15.071 -35.518  1.00  0.00     0.112 C 
HETATM    2  C2  UNL     1      12.768  13.937 -35.192  1.00  0.00    -0.106 C 
HETATM    3  C3  UNL     1      12.023  12.994 -34.913  1.00  0.00    -0.068 C 
ENDROOT
BRANCH   3   4
HETATM    4  C4  UNL     1      11.149  11.916 -34.552  1.00  0.00     0.037 C 
HETATM    5  C5  UNL     1      11.500  10.704 -34.918  1.00  0.00    -0.031 C 
HETATM    6  C7  UNL     1      10.731   9.468 -34.640  1.00  0.00     0.155 C 
HETATM    7  C11 UNL     1       9.362   9.639 -35.270  1.00  0.00     0.093 C 
HETATM    8  C12 UNL     1       9.393  10.287 -36.613  1.00  0.00     0.052 C 
HETATM    9  C13 UNL     1       8.539  10.405 -34.316  1.00  0.00    -0.050 C 
HETATM   10  C14 UNL     1       7.208   9.791 -33.987  1.00  0.00     0.046 C 
HETATM   11  C15 UNL     1       8.824  11.534 -33.732  1.00  0.00     0.021 C 
HETATM   12  C16 UNL     1       9.974  12.400 -33.798  1.00  0.00     0.107 C 
HETATM   13  C17 UNL     1       9.544  13.709 -34.476  1.00  0.00     0.056 C 
BRANCH   5  14
HETATM   14  C6  UNL     1      12.763  10.590 -35.664  1.00  0.00     0.151 C 
HETATM   15 CL1  UNL     1      12.409  10.813 -37.418  1.00  0.00    -0.126 Cl
ENDBRANCH   5  14
BRANCH   6  16
HETATM   16  C8  UNL     1      11.378   8.233 -35.109  1.00  0.00     0.270 C 
HETATM   17  O1  UNL     1      11.221   7.798 -36.305  1.00  0.00    -0.264 OA
BRANCH  16  18
HETATM   18  O2  UNL     1      12.199   7.446 -34.321  1.00  0.00    -0.321 OA
BRANCH  18  19
HETATM   19  C9  UNL     1      13.247   6.644 -34.834  1.00  0.00     0.174 C 
HETATM   20  C10 UNL     1      14.508   7.475 -34.823  1.00  0.00     0.034 C 
ENDBRANCH  18  19
ENDBRANCH  16  18
ENDBRANCH   6  16
BRANCH   7  21
HETATM   21  O3  UNL     1       8.844   8.328 -35.384  1.00  0.00    -0.384 OA
ATOM     22  H3  UNL     1       9.085   7.895 -34.573  1.00  0.00     0.211 HD
ENDBRANCH   7  21
BRANCH  12  23
HETATM   23  O4  UNL     1      10.350  12.759 -32.503  1.00  0.00    -0.381 OA
ATOM     24  H4  UNL     1      10.411  13.704 -32.431  1.00  0.00     0.211 HD
ENDBRANCH  12  23
ENDBRANCH   3   4
TORSDOF 7
ENDMDL
MODEL 2
REMARK VINA RESULT: -5.101411871      2.239      5.239
REMARK  7 active torsions:
REMARK  status: ('A' for Active; 'I' for Inactive)
REMARK    1  A    between atoms: C3_3  and  C4_4 
REMARK    2  A    between atoms: C5_5  and  C6_6 
REMARK    3  A    between atoms: C7_8  and  C8_9 
REMARK    4  A    between atoms: C8_9  and  O2_11 
REMARK    5  A    between atoms: O2_11  and  C9_12 
REMARK    6  A    between atoms: C11_14  and  O3_16 
REMARK    7  A    between atoms: C16_21  and  O4_23 
ROOT
HETATM    1  C1  UNL     1       4.571  11.456 -36.086  1.00  0.00     0.112 C 
HETATM    2  C2  UNL     1       5.901  10.921 -35.794  1.00  0.00    -0.106 C 
HETATM    3  C3  UNL     1       7.014  10.451 -35.542  1.00  0.00    -0.068 C 
ENDROOT
BRANCH   3   4
HETATM    4  C4  UNL     1       8.294   9.897 -35.210  1.00  0.00     0.037 C 
HETATM    5  C5  UNL     1       9.261  10.738 -34.920  1.00  0.00    -0.031 C 
HETATM    6  C7  UNL     1      10.646  10.359 -34.555  1.00  0.00     0.155 C 
HETATM    7  C11 UNL     1      11.214   9.562 -35.713  1.00  0.00     0.093 C 
HETATM    8  C12 UNL     1      10.851  10.104 -37.054  1.00  0.00     0.052 C 
HETATM    9  C13 UNL     1      10.754   8.170 -35.548  1.00  0.00    -0.050 C 
HETATM   10  C14 UNL     1      11.838   7.131 -35.605  1.00  0.00     0.046 C 
HETATM   11  C15 UNL     1       9.540   7.740 -35.360  1.00  0.00     0.021 C 
HETATM   12  C16 UNL     1       8.273   8.420 -35.253  1.00  0.00     0.107 C 
HETATM   13  C17 UNL     1       7.428   8.044 -36.479  1.00  0.00     0.056 C 
BRANCH   5  14
HETATM   14  C6  UNL     1       8.916  12.167 -34.969  1.00  0.00     0.151 C 
HETATM   15 CL1  UNL     1       8.391  12.684 -33.324  1.00  0.00    -0.126 Cl
ENDBRANCH   5  14
BRANCH   6  16
HETATM   16  C8  UNL     1      11.517  11.496 -34.219  1.00  0.00     0.270 C 
HETATM   17  O1  UNL     1      11.720  11.858 -33.006  1.00  0.00    -0.264 OA
BRANCH  16  18
HETATM   18  O2  UNL     1      12.183  12.260 -35.160  1.00  0.00    -0.321 OA
BRANCH  18  19
HETATM   19  C9  UNL     1      12.389  13.657 -35.035  1.00  0.00     0.174 C 
HETATM   20  C10 UNL     1      11.679  14.329 -36.186  1.00  0.00     0.034 C 
ENDBRANCH  18  19
ENDBRANCH  16  18
ENDBRANCH   6  16
BRANCH   7  21
HETATM   21  O3  UNL     1      12.617   9.612 -35.542  1.00  0.00    -0.384 OA
ATOM     22  H3  UNL     1      12.830  10.538 -35.517  1.00  0.00     0.211 HD
ENDBRANCH   7  21
BRANCH  12  23
HETATM   23  O4  UNL     1       7.577   7.918 -34.154  1.00  0.00    -0.381 OA
ATOM     24  H4  UNL     1       7.169   7.089 -34.377  1.00  0.00     0.211 HD
ENDBRANCH  12  23
ENDBRANCH   3   4
TORSDOF 7
ENDMDL
MODEL 3
REMARK VINA RESULT: -4.952129021      2.140      3.696
REMARK  7 active torsions:
REMARK  status: ('A' for Active; 'I' for Inactive)
REMARK    1  A    between atoms: C3_3  and  C4_4 
REMARK    2  A    between atoms: C5_5  and  C6_6 
REMARK    3  A    between atoms: C7_8  and  C8_9 
REMARK    4  A    between atoms: C8_9  and  O2_11 
REMARK    5  A    between atoms: O2_11  and  C9_12 
REMARK    6  A    between atoms: C11_14  and  O3_16 
REMARK    7  A    between atoms: C16_21  and  O4_23 
ROOT
HETATM    1  C1  UNL     1      14.787  10.380 -37.402  1.00  0.00     0.112 C 
HETATM    2  C2  UNL     1      13.557  10.426 -36.613  1.00  0.00    -0.106 C 
HETATM    3  C3  UNL     1      12.508  10.455 -35.963  1.00  0.00    -0.068 C 
ENDROOT
BRANCH   3   4
HETATM    4  C4  UNL     1      11.271  10.506 -35.239  1.00  0.00     0.037 C 
HETATM    5  C5  UNL     1      10.398   9.550 -35.466  1.00  0.00    -0.031 C 
HETATM    6  C7  UNL     1       9.070   9.431 -34.820  1.00  0.00     0.155 C 
HETATM    7  C11 UNL     1       8.296  10.694 -35.147  1.00  0.00     0.093 C 
HETATM    8  C12 UNL     1       8.472  11.162 -36.552  1.00  0.00     0.052 C 
HETATM    9  C13 UNL     1       8.714  11.722 -34.176  1.00  0.00    -0.050 C 
HETATM   10  C14 UNL     1       7.589  12.415 -33.459  1.00  0.00     0.046 C 
HETATM   11  C15 UNL     1       9.922  12.095 -33.868  1.00  0.00     0.021 C 
HETATM   12  C16 UNL     1      11.219  11.671 -34.334  1.00  0.00     0.107 C 
HETATM   13  C17 UNL     1      11.849  12.838 -35.108  1.00  0.00     0.056 C 
BRANCH   5  14
HETATM   14  C6  UNL     1      10.794   8.526 -36.446  1.00  0.00     0.151 C 
HETATM   15 CL1  UNL     1      11.696   7.228 -35.579  1.00  0.00    -0.126 Cl
ENDBRANCH   5  14
BRANCH   6  16
HETATM   16  C8  UNL     1       8.312   8.232 -35.208  1.00  0.00     0.270 C 
HETATM   17  O1  UNL     1       8.278   7.184 -34.470  1.00  0.00    -0.264 OA
BRANCH  16  18
HETATM   18  O2  UNL     1       7.581   8.127 -36.378  1.00  0.00    -0.321 OA
BRANCH  18  19
HETATM   19  C9  UNL     1       6.724   7.039 -36.675  1.00  0.00     0.174 C 
HETATM   20  C10 UNL     1       5.313   7.463 -36.342  1.00  0.00     0.034 C 
ENDBRANCH  18  19
ENDBRANCH  16  18
ENDBRANCH   6  16
BRANCH   7  21
HETATM   21  O3  UNL     1       6.940  10.363 -34.921  1.00  0.00    -0.384 OA
ATOM     22  H3  UNL     1       6.443  11.048 -35.353  1.00  0.00     0.211 HD
ENDBRANCH   7  21
BRANCH  12  23
HETATM   23  O4  UNL     1      12.053  11.463 -33.235  1.00  0.00    -0.381 OA
ATOM     24  H4  UNL     1      12.767  12.090 -33.243  1.00  0.00     0.211 HD
ENDBRANCH  12  23
ENDBRANCH   3   4
TORSDOF 7
ENDMDL
MODEL 4
REMARK VINA RESULT: -4.948047071      2.669      3.856
REMARK  7 active torsions:
REMARK  status: ('A' for Active; 'I' for Inactive)
REMARK    1  A    between atoms: C3_3  and  C4_4 
REMARK    2  A    between atoms: C5_5  and  C6_6 
REMARK    3  A    between atoms: C7_8  and  C8_9 
REMARK    4  A    between atoms: C8_9  and  O2_11 
REMARK    5  A    between atoms: O2_11  and  C9_12 
REMARK    6  A    between atoms: C11_14  and  O3_16 
REMARK    7  A    between atoms: C16_21  and  O4_23 
ROOT
HETATM    1  C1  UNL     1      12.833  11.403 -36.661  1.00  0.00     0.112 C 
HETATM    2  C2  UNL     1      11.559  11.092 -36.013  1.00  0.00    -0.106 C 
HETATM    3  C3  UNL     1      10.490  10.809 -35.466  1.00  0.00    -0.068 C 
ENDROOT
BRANCH   3   4
HETATM    4  C4  UNL     1       9.241  10.451 -34.857  1.00  0.00     0.037 C 
HETATM    5  C5  UNL     1       8.849   9.202 -34.970  1.00  0.00    -0.031 C 
HETATM    6  C7  UNL     1       7.595   8.643 -34.415  1.00  0.00     0.155 C 
HETATM    7  C11 UNL     1       6.447   9.425 -35.022  1.00  0.00     0.093 C 
HETATM    8  C12 UNL     1       6.623   9.728 -36.471  1.00  0.00     0.052 C 
HETATM    9  C13 UNL     1       6.291  10.656 -34.225  1.00  0.00    -0.050 C 
HETATM   10  C14 UNL     1       4.897  10.923 -33.731  1.00  0.00     0.046 C 
HETATM   11  C15 UNL     1       7.204  11.526 -33.901  1.00  0.00     0.021 C 
HETATM   12  C16 UNL     1       8.615  11.607 -34.185  1.00  0.00     0.107 C 
HETATM   13  C17 UNL     1       8.844  12.811 -35.109  1.00  0.00     0.056 C 
BRANCH   5  14
HETATM   14  C6  UNL     1       9.745   8.304 -35.716  1.00  0.00     0.151 C 
HETATM   15 CL1  UNL     1      11.016   7.702 -34.588  1.00  0.00    -0.126 Cl
ENDBRANCH   5  14
BRANCH   6  16
HETATM   16  C8  UNL     1       7.425   7.199 -34.633  1.00  0.00     0.270 C 
HETATM   17  O1  UNL     1       7.299   6.376 -33.659  1.00  0.00    -0.264 OA
BRANCH  16  18
HETATM   18  O2  UNL     1       7.385   6.609 -35.884  1.00  0.00    -0.321 OA
BRANCH  18  19
HETATM   19  C9  UNL     1       6.432   5.631 -36.261  1.00  0.00     0.174 C 
HETATM   20  C10 UNL     1       7.114   4.284 -36.216  1.00  0.00     0.034 C 
ENDBRANCH  18  19
ENDBRANCH  16  18
ENDBRANCH   6  16
BRANCH   7  21
HETATM   21  O3  UNL     1       5.308   8.606 -34.841  1.00  0.00    -0.384 OA
ATOM     22  H3  UNL     1       5.077   8.702 -33.923  1.00  0.00     0.211 HD
ENDBRANCH   7  21
BRANCH  12  23
HETATM   23  O4  UNL     1       9.300  11.907 -33.008  1.00  0.00    -0.381 OA
ATOM     24  H4  UNL     1      10.041  11.321 -32.902  1.00  0.00     0.211 HD
ENDBRANCH  12  23
ENDBRANCH   3   4
TORSDOF 7
ENDMDL
MODEL 5
REMARK VINA RESULT: -4.823230926      2.722      3.811
REMARK  7 active torsions:
REMARK  status: ('A' for Active; 'I' for Inactive)
REMARK    1  A    between atoms: C3_3  and  C4_4 
REMARK    2  A    between atoms: C5_5  and  C6_6 
REMARK    3  A    between atoms: C7_8  and  C8_9 
REMARK    4  A    between atoms: C8_9  and  O2_11 
REMARK    5  A    between atoms: O2_11  and  C9_12 
REMARK    6  A    between atoms: C11_14  and  O3_16 
REMARK    7  A    between atoms: C16_21  and  O4_23 
ROOT
HETATM    1  C1  UNL     1      12.984  11.644 -36.683  1.00  0.00     0.112 C 
HETATM    2  C2  UNL     1      11.706  11.496 -35.985  1.00  0.00    -0.106 C 
HETATM    3  C3  UNL     1      10.632  11.351 -35.396  1.00  0.00    -0.068 C 
ENDROOT
BRANCH   3   4
HETATM    4  C4  UNL     1       9.372  11.154 -34.740  1.00  0.00     0.037 C 
HETATM    5  C5  UNL     1       8.737  10.028 -34.974  1.00  0.00    -0.031 C 
HETATM    6  C7  UNL     1       7.430   9.644 -34.393  1.00  0.00     0.155 C 
HETATM    7  C11 UNL     1       6.426  10.702 -34.807  1.00  0.00     0.093 C 
HETATM    8  C12 UNL     1       6.580  11.160 -36.218  1.00  0.00     0.052 C 
HETATM    9  C13 UNL     1       6.558  11.821 -33.855  1.00  0.00    -0.050 C 
HETATM   10  C14 UNL     1       5.272  12.275 -33.224  1.00  0.00     0.046 C 
HETATM   11  C15 UNL     1       7.640  12.453 -33.501  1.00  0.00     0.021 C 
HETATM   12  C16 UNL     1       9.022  12.305 -33.883  1.00  0.00     0.107 C 
HETATM   13  C17 UNL     1       9.433  13.559 -34.668  1.00  0.00     0.056 C 
BRANCH   5  14
HETATM   14  C6  UNL     1       9.398   9.087 -35.892  1.00  0.00     0.151 C 
HETATM   15 CL1  UNL     1      10.383   7.935 -34.916  1.00  0.00    -0.126 Cl
ENDBRANCH   5  14
BRANCH   6  16
HETATM   16  C8  UNL     1       6.968   8.300 -34.773  1.00  0.00     0.270 C 
HETATM   17  O1  UNL     1       6.420   8.068 -35.908  1.00  0.00    -0.264 OA
BRANCH  16  18
HETATM   18  O2  UNL     1       7.082   7.188 -33.959  1.00  0.00    -0.321 OA
BRANCH  18  19
HETATM   19  C9  UNL     1       7.339   5.882 -34.444  1.00  0.00     0.174 C 
HETATM   20  C10 UNL     1       6.110   5.044 -34.180  1.00  0.00     0.034 C 
ENDBRANCH  18  19
ENDBRANCH  16  18
ENDBRANCH   6  16
BRANCH   7  21
HETATM   21  O3  UNL     1       5.160  10.095 -34.638  1.00  0.00    -0.384 OA
ATOM     22  H3  UNL     1       4.887  10.332 -33.759  1.00  0.00     0.211 HD
ENDBRANCH   7  21
BRANCH  12  23
HETATM   23  O4  UNL     1       9.815  12.309 -32.736  1.00  0.00    -0.381 OA
ATOM     24  H4  UNL     1      10.718  12.116 -32.962  1.00  0.00     0.211 HD
ENDBRANCH  12  23
ENDBRANCH   3   4
TORSDOF 7
ENDMDL
