MODEL 1
REMARK VINA RESULT: -6.256410052      0.000      0.000
REMARK  5 active torsions:
REMARK  status: ('A' for Active; 'I' for Inactive)
REMARK    1  A    between atoms: C2_2  and  C3_3 
REMARK    2  A    between atoms: C3_3  and  C4_4 
REMARK    3  A    between atoms: C4_4  and  N1_5 
REMARK    4  A    between atoms: C5_6  and  O1_7 
REMARK    5  A    between atoms: C8_11  and  O2_12 
ROOT
HETATM    1  N1  UNL     1      13.902   6.884 -35.286  1.00  0.00    -0.308 N 
HETATM    2  C5  UNL     1      12.594   6.809 -35.513  1.00  0.00     0.151 A 
HETATM    3  C6  UNL     1      12.104   8.102 -35.375  1.00  0.00     0.010 A 
HETATM    4  C7  UNL     1      13.146   8.947 -35.060  1.00  0.00     0.010 A 
HETATM    5  C8  UNL     1      14.263   8.171 -35.010  1.00  0.00     0.151 A 
HETATM    6  C9  UNL     1      12.771  10.373 -34.866  1.00  0.00     0.048 C 
HETATM    7  C10 UNL     1      11.694  10.353 -33.757  1.00  0.00     0.019 C 
HETATM    8  C11 UNL     1      10.726  10.047 -34.867  1.00  0.00     0.020 C 
HETATM    9  C12 UNL     1      10.760   8.709 -35.508  1.00  0.00     0.044 C 
HETATM   10  C13 UNL     1      10.686   9.116 -37.005  1.00  0.00     0.113 C 
HETATM   11  N2  UNL     1      11.591  10.254 -37.083  1.00  0.00    -0.239 NA
HETATM   12 BR1  UNL     1      10.797  11.501 -38.282  1.00  0.00     0.013 Br
HETATM   13  C14 UNL     1      11.684  10.834 -35.779  1.00  0.00     0.032 C 
HETATM   14  C15 UNL     1      11.500  12.324 -35.692  1.00  0.00     0.034 C 
ENDROOT
BRANCH   1  15
HETATM   15  C4  UNL     1      14.829   5.786 -35.321  1.00  0.00     0.133 C 
BRANCH  15  16
HETATM   16  C3  UNL     1      15.397   5.468 -33.952  1.00  0.00     0.020 C 
BRANCH  16  17
HETATM   17  C2  UNL     1      16.907   5.619 -34.015  1.00  0.00    -0.003 C 
HETATM   18  C1  UNL     1      17.472   5.989 -32.649  1.00  0.00     0.005 C 
ENDBRANCH  16  17
ENDBRANCH  15  16
ENDBRANCH   1  15
BRANCH   2  19
HETATM   19  O1  UNL     1      11.796   5.718 -35.829  1.00  0.00    -0.345 OA
ATOM     20  H1  UNL     1      10.886   5.677 -36.099  1.00  0.00     0.219 HD
ENDBRANCH   2  19
BRANCH   5  21
HETATM   21  O2  UNL     1      15.529   8.661 -34.719  1.00  0.00    -0.345 OA
ATOM     22  H2  UNL     1      15.841   9.557 -34.787  1.00  0.00     0.219 HD
ENDBRANCH   5  21
TORSDOF 5
ENDMDL
MODEL 2
REMARK VINA RESULT: -6.039256031      3.075      5.803
REMARK  5 active torsions:
REMARK  status: ('A' for Active; 'I' for Inactive)
REMARK    1  A    between atoms: C2_2  and  C3_3 
REMARK    2  A    between atoms: C3_3  and  C4_4 
REMARK    3  A    between atoms: C4_4  and  N1_5 
REMARK    4  A    between atoms: C5_6  and  O1_7 
REMARK    5  A    between atoms: C8_11  and  O2_12 
ROOT
HETATM    1  N1  UNL     1      11.460   7.643 -35.015  1.00  0.00    -0.308 N 
HETATM    2  C5  UNL     1      12.157   6.656 -35.569  1.00  0.00     0.151 A 
HETATM    3  C6  UNL     1      13.494   6.936 -35.309  1.00  0.00     0.010 A 
HETATM    4  C7  UNL     1      13.577   8.108 -34.591  1.00  0.00     0.010 A 
HETATM    5  C8  UNL     1      12.297   8.537 -34.415  1.00  0.00     0.151 A 
HETATM    6  C9  UNL     1      14.956   8.547 -34.248  1.00  0.00     0.048 C 
HETATM    7  C10 UNL     1      15.688   8.654 -35.605  1.00  0.00     0.019 C 
HETATM    8  C11 UNL     1      15.915   7.173 -35.464  1.00  0.00     0.020 C 
HETATM    9  C12 UNL     1      14.766   6.247 -35.626  1.00  0.00     0.044 C 
HETATM   10  C13 UNL     1      14.991   5.311 -34.407  1.00  0.00     0.113 C 
HETATM   11  N2  UNL     1      15.352   6.235 -33.341  1.00  0.00    -0.239 NA
HETATM   12 BR1  UNL     1      16.703   5.380 -32.310  1.00  0.00     0.013 Br
HETATM   13  C14 UNL     1      15.883   7.418 -33.945  1.00  0.00     0.032 C 
HETATM   14  C15 UNL     1      17.190   7.922 -33.396  1.00  0.00     0.034 C 
ENDROOT
BRANCH   1  15
HETATM   15  C4  UNL     1      10.029   7.776 -35.029  1.00  0.00     0.133 C 
BRANCH  15  16
HETATM   16  C3  UNL     1       9.548   8.708 -36.124  1.00  0.00     0.020 C 
BRANCH  16  17
HETATM   17  C2  UNL     1       8.822   9.873 -35.473  1.00  0.00    -0.003 C 
HETATM   18  C1  UNL     1       7.705   9.374 -34.563  1.00  0.00     0.005 C 
ENDBRANCH  16  17
ENDBRANCH  15  16
ENDBRANCH   1  15
BRANCH   2  19
HETATM   19  O1  UNL     1      11.733   5.539 -36.277  1.00  0.00    -0.345 OA
ATOM     20  H1  UNL     1      11.789   4.615 -36.063  1.00  0.00     0.219 HD
ENDBRANCH   2  19
BRANCH   5  21
HETATM   21  O2  UNL     1      11.962   9.698 -33.730  1.00  0.00    -0.345 OA
ATOM     22  H2  UNL     1      11.539   9.778 -32.883  1.00  0.00     0.219 HD
ENDBRANCH   5  21
TORSDOF 5
ENDMDL
MODEL 3
REMARK VINA RESULT: -5.928029506      2.098      3.135
REMARK  5 active torsions:
REMARK  status: ('A' for Active; 'I' for Inactive)
REMARK    1  A    between atoms: C2_2  and  C3_3 
REMARK    2  A    between atoms: C3_3  and  C4_4 
REMARK    3  A    between atoms: C4_4  and  N1_5 
REMARK    4  A    between atoms: C5_6  and  O1_7 
REMARK    5  A    between atoms: C8_11  and  O2_12 
ROOT
HETATM    1  N1  UNL     1      13.579   8.548 -35.572  1.00  0.00    -0.308 N 
HETATM    2  C5  UNL     1      13.230   9.667 -36.200  1.00  0.00     0.151 A 
HETATM    3  C6  UNL     1      11.853   9.781 -36.048  1.00  0.00     0.010 A 
HETATM    4  C7  UNL     1      11.390   8.707 -35.320  1.00  0.00     0.010 A 
HETATM    5  C8  UNL     1      12.481   7.947 -35.029  1.00  0.00     0.151 A 
HETATM    6  C9  UNL     1       9.922   8.683 -35.086  1.00  0.00     0.048 C 
HETATM    7  C10 UNL     1       9.294   8.730 -36.498  1.00  0.00     0.019 C 
HETATM    8  C11 UNL     1       9.481  10.220 -36.402  1.00  0.00     0.020 C 
HETATM    9  C12 UNL     1      10.853  10.783 -36.482  1.00  0.00     0.044 C 
HETATM   10  C13 UNL     1      10.807  11.792 -35.303  1.00  0.00     0.113 C 
HETATM   11  N2  UNL     1      10.122  11.048 -34.255  1.00  0.00    -0.239 NA
HETATM   12 BR1  UNL     1       8.991  12.285 -33.356  1.00  0.00     0.013 Br
HETATM   13  C14 UNL     1       9.328  10.036 -34.882  1.00  0.00     0.032 C 
HETATM   14  C15 UNL     1       7.895   9.937 -34.436  1.00  0.00     0.034 C 
ENDROOT
BRANCH   1  15
HETATM   15  C4  UNL     1      14.912   8.023 -35.464  1.00  0.00     0.133 C 
BRANCH  15  16
HETATM   16  C3  UNL     1      15.525   8.284 -34.102  1.00  0.00     0.020 C 
BRANCH  16  17
HETATM   17  C2  UNL     1      16.994   7.902 -34.159  1.00  0.00    -0.003 C 
HETATM   18  C1  UNL     1      17.303   6.789 -33.165  1.00  0.00     0.005 C 
ENDBRANCH  16  17
ENDBRANCH  15  16
ENDBRANCH   1  15
BRANCH   2  19
HETATM   19  O1  UNL     1      14.002  10.593 -36.889  1.00  0.00    -0.345 OA
ATOM     20  H1  UNL     1      14.326  11.446 -36.623  1.00  0.00     0.219 HD
ENDBRANCH   2  19
BRANCH   5  21
HETATM   21  O2  UNL     1      12.425   6.766 -34.300  1.00  0.00    -0.345 OA
ATOM     22  H2  UNL     1      11.752   6.096 -34.320  1.00  0.00     0.219 HD
ENDBRANCH   5  21
TORSDOF 5
ENDMDL
MODEL 4
REMARK VINA RESULT: -5.924964604      1.603      2.849
REMARK  5 active torsions:
REMARK  status: ('A' for Active; 'I' for Inactive)
REMARK    1  A    between atoms: C2_2  and  C3_3 
REMARK    2  A    between atoms: C3_3  and  C4_4 
REMARK    3  A    between atoms: C4_4  and  N1_5 
REMARK    4  A    between atoms: C5_6  and  O1_7 
REMARK    5  A    between atoms: C8_11  and  O2_12 
ROOT
HETATM    1  N1  UNL     1      13.276   7.196 -34.910  1.00  0.00    -0.308 N 
HETATM    2  C5  UNL     1      13.722   8.434 -34.717  1.00  0.00     0.151 A 
HETATM    3  C6  UNL     1      12.759   9.279 -35.258  1.00  0.00     0.010 A 
HETATM    4  C7  UNL     1      11.733   8.519 -35.776  1.00  0.00     0.010 A 
HETATM    5  C8  UNL     1      12.071   7.220 -35.550  1.00  0.00     0.151 A 
HETATM    6  C9  UNL     1      10.627   9.289 -36.406  1.00  0.00     0.048 C 
HETATM    7  C10 UNL     1      11.311  10.148 -37.494  1.00  0.00     0.019 C 
HETATM    8  C11 UNL     1      11.608  11.112 -36.378  1.00  0.00     0.020 C 
HETATM    9  C12 UNL     1      12.628  10.750 -35.362  1.00  0.00     0.044 C 
HETATM   10  C13 UNL     1      11.876  11.146 -34.062  1.00  0.00     0.113 C 
HETATM   11  N2  UNL     1      10.524  10.659 -34.300  1.00  0.00    -0.239 NA
HETATM   12 BR1  UNL     1       9.340  11.953 -33.563  1.00  0.00     0.013 Br
HETATM   13  C14 UNL     1      10.328  10.577 -35.714  1.00  0.00     0.032 C 
HETATM   14  C15 UNL     1       9.071  11.202 -36.254  1.00  0.00     0.034 C 
ENDROOT
BRANCH   1  15
HETATM   15  C4  UNL     1      13.944   5.988 -34.511  1.00  0.00     0.133 C 
BRANCH  15  16
HETATM   16  C3  UNL     1      15.205   5.736 -35.314  1.00  0.00     0.020 C 
BRANCH  16  17
HETATM   17  C2  UNL     1      16.363   5.573 -34.344  1.00  0.00    -0.003 C 
HETATM   18  C1  UNL     1      15.856   5.437 -32.914  1.00  0.00     0.005 C 
ENDBRANCH  16  17
ENDBRANCH  15  16
ENDBRANCH   1  15
BRANCH   2  19
HETATM   19  O1  UNL     1      14.887   8.889 -34.114  1.00  0.00    -0.345 OA
ATOM     20  H1  UNL     1      15.422   8.498 -33.434  1.00  0.00     0.219 HD
ENDBRANCH   2  19
BRANCH   5  21
HETATM   21  O2  UNL     1      11.283   6.142 -35.930  1.00  0.00    -0.345 OA
ATOM     22  H2  UNL     1      10.999   5.407 -35.399  1.00  0.00     0.219 HD
ENDBRANCH   5  21
TORSDOF 5
ENDMDL
MODEL 5
REMARK VINA RESULT: -5.916801811      1.825      2.745
REMARK  5 active torsions:
REMARK  status: ('A' for Active; 'I' for Inactive)
REMARK    1  A    between atoms: C2_2  and  C3_3 
REMARK    2  A    between atoms: C3_3  and  C4_4 
REMARK    3  A    between atoms: C4_4  and  N1_5 
REMARK    4  A    between atoms: C5_6  and  O1_7 
REMARK    5  A    between atoms: C8_11  and  O2_12 
ROOT
HETATM    1  N1  UNL     1      14.220   7.939 -35.338  1.00  0.00    -0.308 N 
HETATM    2  C5  UNL     1      14.134   9.035 -36.086  1.00  0.00     0.151 A 
HETATM    3  C6  UNL     1      12.817   9.470 -35.982  1.00  0.00     0.010 A 
HETATM    4  C7  UNL     1      12.123   8.611 -35.159  1.00  0.00     0.010 A 
HETATM    5  C8  UNL     1      13.014   7.660 -34.764  1.00  0.00     0.151 A 
HETATM    6  C9  UNL     1      10.687   8.942 -34.961  1.00  0.00     0.048 C 
HETATM    7  C10 UNL     1      10.088   8.979 -36.386  1.00  0.00     0.019 C 
HETATM    8  C11 UNL     1      10.607  10.390 -36.439  1.00  0.00     0.020 C 
HETATM    9  C12 UNL     1      12.070  10.620 -36.542  1.00  0.00     0.044 C 
HETATM   10  C13 UNL     1      12.252  11.732 -35.474  1.00  0.00     0.113 C 
HETATM   11  N2  UNL     1      11.415  11.276 -34.373  1.00  0.00    -0.239 NA
HETATM   12 BR1  UNL     1      10.591  12.823 -33.635  1.00  0.00     0.013 Br
HETATM   13  C14 UNL     1      10.414  10.408 -34.912  1.00  0.00     0.032 C 
HETATM   14  C15 UNL     1       8.995  10.680 -34.495  1.00  0.00     0.034 C 
ENDROOT
BRANCH   1  15
HETATM   15  C4  UNL     1      15.400   7.143 -35.143  1.00  0.00     0.133 C 
BRANCH  15  16
HETATM   16  C3  UNL     1      16.317   7.722 -34.083  1.00  0.00     0.020 C 
BRANCH  16  17
HETATM   17  C2  UNL     1      16.966   6.571 -33.333  1.00  0.00    -0.003 C 
HETATM   18  C1  UNL     1      15.932   5.515 -32.963  1.00  0.00     0.005 C 
ENDBRANCH  16  17
ENDBRANCH  15  16
ENDBRANCH   1  15
BRANCH   2  19
HETATM   19  O1  UNL     1      15.096   9.686 -36.847  1.00  0.00    -0.345 OA
ATOM     20  H1  UNL     1      15.074   9.981 -37.749  1.00  0.00     0.219 HD
ENDBRANCH   2  19
BRANCH   5  21
HETATM   21  O2  UNL     1      12.692   6.606 -33.919  1.00  0.00    -0.345 OA
ATOM     22  H2  UNL     1      11.944   6.023 -33.969  1.00  0.00     0.219 HD
ENDBRANCH   5  21
TORSDOF 5
ENDMDL
