MODEL 1
REMARK VINA RESULT: -9.355014979      0.000      0.000
REMARK  13 active torsions:
REMARK  status: ('A' for Active; 'I' for Inactive)
REMARK    1  A    between atoms: O1_2  and  C2_3 
REMARK    2  A    between atoms: C2_3  and  C3_5 
REMARK    3  A    between atoms: C3_5  and  N1_6 
REMARK    4  A    between atoms: C3_5  and  C16_25 
REMARK       I    between atoms: N1_6  and  C4_8 
REMARK    5  A    between atoms: C4_8  and  C5_10 
REMARK    6  A    between atoms: C5_10  and  O4_11 
REMARK    7  A    between atoms: O4_11  and  C6_12 
REMARK    8  A    between atoms: C6_12  and  C7_14 
REMARK    9  A    between atoms: C7_14  and  C8_15 
REMARK   10  A    between atoms: C8_15  and  C9_16 
REMARK   11  A    between atoms: C9_16  and  O6_17 
REMARK   12  A    between atoms: O6_17  and  C10_18 
REMARK   13  A    between atoms: C19_28  and  N2_29 
ROOT
HETATM    1  N1  UNL     1       8.289 -13.736   9.775  1.00  0.00    -0.341 N 
ATOM      2  H1  UNL     1       7.951 -13.025  10.422  1.00  0.00     0.163 HD
HETATM    3  C4  UNL     1       8.451 -15.070  10.231  1.00  0.00     0.242 C 
HETATM    4  O3  UNL     1       8.874 -15.982   9.439  1.00  0.00    -0.271 OA
ENDROOT
BRANCH   3   5
HETATM    5  C5  UNL     1       8.124 -15.374  11.627  1.00  0.00     0.281 C 
BRANCH   5   6
HETATM    6  O4  UNL     1       9.208 -15.613  12.464  1.00  0.00    -0.312 OA
BRANCH   6   7
HETATM    7  C6  UNL     1      10.050 -14.676  13.025  1.00  0.00     0.259 C 
HETATM    8  O5  UNL     1      11.013 -14.273  12.302  1.00  0.00    -0.265 OA
BRANCH   7   9
HETATM    9  C7  UNL     1       9.863 -14.141  14.415  1.00  0.00     0.113 C 
BRANCH   9  10
HETATM   10  C8  UNL     1      11.091 -14.553  15.230  1.00  0.00     0.036 C 
BRANCH  10  11
HETATM   11  C9  UNL     1      10.694 -15.752  16.044  1.00  0.00     0.176 C 
BRANCH  11  12
HETATM   12  O6  UNL     1       9.731 -15.529  16.980  1.00  0.00    -0.351 OA
BRANCH  12  13
HETATM   13  C10 UNL     1       9.808 -15.254  18.291  1.00  0.00     0.068 A 
HETATM   14  C11 UNL     1       9.603 -16.139  19.302  1.00  0.00     0.038 A 
HETATM   15  C12 UNL     1       9.703 -15.784  20.644  1.00  0.00     0.022 A 
HETATM   16  C13 UNL     1      10.016 -14.504  21.003  1.00  0.00     0.011 A 
HETATM   17 BR1  UNL     1      10.149 -14.035  22.850  1.00  0.00    -0.051 Br
HETATM   18  C14 UNL     1      10.227 -13.589  20.006  1.00  0.00     0.022 A 
HETATM   19  C15 UNL     1      10.130 -13.936  18.684  1.00  0.00     0.038 A 
ENDBRANCH  12  13
ENDBRANCH  11  12
ENDBRANCH  10  11
ENDBRANCH   9  10
ENDBRANCH   7   9
ENDBRANCH   6   7
ENDBRANCH   5   6
ENDBRANCH   3   5
BRANCH   1  20
HETATM   20  C3  UNL     1       8.600 -13.356   8.379  1.00  0.00     0.217 C 
BRANCH  20  21
HETATM   21  C2  UNL     1       9.959 -12.822   8.266  1.00  0.00     0.286 C 
HETATM   22  O2  UNL     1      10.348 -11.824   8.973  1.00  0.00    -0.263 OA
BRANCH  21  23
HETATM   23  O1  UNL     1      10.863 -13.383   7.394  1.00  0.00    -0.325 OA
HETATM   24  C1  UNL     1      10.494 -14.411   6.524  1.00  0.00     0.213 C 
ENDBRANCH  21  23
ENDBRANCH  20  21
BRANCH  20  25
HETATM   25  C16 UNL     1       7.548 -12.418   7.948  1.00  0.00    -0.026 A 
HETATM   26  C17 UNL     1       7.707 -11.803   6.703  1.00  0.00     0.012 A 
HETATM   27  C18 UNL     1       6.792 -10.919   6.189  1.00  0.00     0.037 A 
HETATM   28  C19 UNL     1       5.671 -10.627   6.936  1.00  0.00     0.102 A 
HETATM   29  C20 UNL     1       5.468 -11.208   8.170  1.00  0.00     0.037 A 
HETATM   30  C21 UNL     1       6.425 -12.105   8.657  1.00  0.00     0.012 A 
BRANCH  28  31
HETATM   31  N2  UNL     1       4.704  -9.720   6.446  1.00  0.00    -0.116 N 
HETATM   32  O7  UNL     1       5.062  -8.591   6.065  1.00  0.00    -0.532 OA
HETATM   33  O8  UNL     1       3.387 -10.113   6.401  1.00  0.00    -0.532 OA
ENDBRANCH  28  31
ENDBRANCH  20  25
ENDBRANCH   1  20
TORSDOF 13
ENDMDL
MODEL 2
REMARK VINA RESULT: -9.258214077      0.708      1.435
REMARK  13 active torsions:
REMARK  status: ('A' for Active; 'I' for Inactive)
REMARK    1  A    between atoms: O1_2  and  C2_3 
REMARK    2  A    between atoms: C2_3  and  C3_5 
REMARK    3  A    between atoms: C3_5  and  N1_6 
REMARK    4  A    between atoms: C3_5  and  C16_25 
REMARK       I    between atoms: N1_6  and  C4_8 
REMARK    5  A    between atoms: C4_8  and  C5_10 
REMARK    6  A    between atoms: C5_10  and  O4_11 
REMARK    7  A    between atoms: O4_11  and  C6_12 
REMARK    8  A    between atoms: C6_12  and  C7_14 
REMARK    9  A    between atoms: C7_14  and  C8_15 
REMARK   10  A    between atoms: C8_15  and  C9_16 
REMARK   11  A    between atoms: C9_16  and  O6_17 
REMARK   12  A    between atoms: O6_17  and  C10_18 
REMARK   13  A    between atoms: C19_28  and  N2_29 
ROOT
HETATM    1  N1  UNL     1       8.346 -13.722   9.955  1.00  0.00    -0.341 N 
ATOM      2  H1  UNL     1       8.023 -12.996  10.593  1.00  0.00     0.163 HD
HETATM    3  C4  UNL     1       8.518 -15.046  10.438  1.00  0.00     0.242 C 
HETATM    4  O3  UNL     1       8.923 -15.976   9.657  1.00  0.00    -0.271 OA
ENDROOT
BRANCH   3   5
HETATM    5  C5  UNL     1       8.221 -15.318  11.847  1.00  0.00     0.281 C 
BRANCH   5   6
HETATM    6  O4  UNL     1       9.303 -15.707  12.629  1.00  0.00    -0.312 OA
BRANCH   6   7
HETATM    7  C6  UNL     1       9.271 -16.481  13.770  1.00  0.00     0.259 C 
HETATM    8  O5  UNL     1       8.300 -17.293  13.878  1.00  0.00    -0.265 OA
BRANCH   7   9
HETATM    9  C7  UNL     1      10.315 -16.392  14.845  1.00  0.00     0.113 C 
BRANCH   9  10
HETATM   10  C8  UNL     1      11.024 -15.046  14.679  1.00  0.00     0.036 C 
BRANCH  10  11
HETATM   11  C9  UNL     1      10.727 -14.239  15.911  1.00  0.00     0.176 C 
BRANCH  11  12
HETATM   12  O6  UNL     1      10.027 -14.890  16.881  1.00  0.00    -0.351 OA
BRANCH  12  13
HETATM   13  C10 UNL     1      10.029 -14.769  18.216  1.00  0.00     0.068 A 
HETATM   14  C11 UNL     1      10.271 -13.627  18.911  1.00  0.00     0.038 A 
HETATM   15  C12 UNL     1      10.253 -13.575  20.302  1.00  0.00     0.022 A 
HETATM   16  C13 UNL     1       9.984 -14.694  21.037  1.00  0.00     0.011 A 
HETATM   17 BR1  UNL     1       9.962 -14.602  22.945  1.00  0.00    -0.051 Br
HETATM   18  C14 UNL     1       9.736 -15.861  20.364  1.00  0.00     0.022 A 
HETATM   19  C15 UNL     1       9.754 -15.916  18.995  1.00  0.00     0.038 A 
ENDBRANCH  12  13
ENDBRANCH  11  12
ENDBRANCH  10  11
ENDBRANCH   9  10
ENDBRANCH   7   9
ENDBRANCH   6   7
ENDBRANCH   5   6
ENDBRANCH   3   5
BRANCH   1  20
HETATM   20  C3  UNL     1       8.627 -13.374   8.545  1.00  0.00     0.217 C 
BRANCH  20  21
HETATM   21  C2  UNL     1       9.980 -12.835   8.392  1.00  0.00     0.286 C 
HETATM   22  O2  UNL     1      10.362 -11.792   9.034  1.00  0.00    -0.263 OA
BRANCH  21  23
HETATM   23  O1  UNL     1      10.885 -13.440   7.551  1.00  0.00    -0.325 OA
HETATM   24  C1  UNL     1      10.488 -14.415   6.633  1.00  0.00     0.213 C 
ENDBRANCH  21  23
ENDBRANCH  20  21
BRANCH  20  25
HETATM   25  C16 UNL     1       7.560 -12.453   8.112  1.00  0.00    -0.026 A 
HETATM   26  C17 UNL     1       7.656 -11.920   6.824  1.00  0.00     0.012 A 
HETATM   27  C18 UNL     1       6.721 -11.060   6.306  1.00  0.00     0.037 A 
HETATM   28  C19 UNL     1       5.645 -10.709   7.092  1.00  0.00     0.102 A 
HETATM   29  C20 UNL     1       5.505 -11.208   8.369  1.00  0.00     0.037 A 
HETATM   30  C21 UNL     1       6.481 -12.084   8.860  1.00  0.00     0.012 A 
BRANCH  28  31
HETATM   31  N2  UNL     1       4.660  -9.823   6.598  1.00  0.00    -0.116 N 
HETATM   32  O7  UNL     1       3.467 -10.174   6.595  1.00  0.00    -0.532 OA
HETATM   33  O8  UNL     1       5.050  -8.589   6.132  1.00  0.00    -0.532 OA
ENDBRANCH  28  31
ENDBRANCH  20  25
ENDBRANCH   1  20
TORSDOF 13
ENDMDL
MODEL 3
REMARK VINA RESULT: -9.181941328      0.816      1.292
REMARK  13 active torsions:
REMARK  status: ('A' for Active; 'I' for Inactive)
REMARK    1  A    between atoms: O1_2  and  C2_3 
REMARK    2  A    between atoms: C2_3  and  C3_5 
REMARK    3  A    between atoms: C3_5  and  N1_6 
REMARK    4  A    between atoms: C3_5  and  C16_25 
REMARK       I    between atoms: N1_6  and  C4_8 
REMARK    5  A    between atoms: C4_8  and  C5_10 
REMARK    6  A    between atoms: C5_10  and  O4_11 
REMARK    7  A    between atoms: O4_11  and  C6_12 
REMARK    8  A    between atoms: C6_12  and  C7_14 
REMARK    9  A    between atoms: C7_14  and  C8_15 
REMARK   10  A    between atoms: C8_15  and  C9_16 
REMARK   11  A    between atoms: C9_16  and  O6_17 
REMARK   12  A    between atoms: O6_17  and  C10_18 
REMARK   13  A    between atoms: C19_28  and  N2_29 
ROOT
HETATM    1  N1  UNL     1       8.321 -13.397  10.158  1.00  0.00    -0.341 N 
ATOM      2  H1  UNL     1       7.794 -12.597  10.507  1.00  0.00     0.163 HD
HETATM    3  C4  UNL     1       8.591 -14.484  11.030  1.00  0.00     0.242 C 
HETATM    4  O3  UNL     1       9.250 -15.501  10.618  1.00  0.00    -0.271 OA
ENDROOT
BRANCH   3   5
HETATM    5  C5  UNL     1       8.098 -14.411  12.409  1.00  0.00     0.281 C 
BRANCH   5   6
HETATM    6  O4  UNL     1       8.906 -13.719  13.304  1.00  0.00    -0.312 OA
BRANCH   6   7
HETATM    7  C6  UNL     1      10.230 -13.970  13.596  1.00  0.00     0.259 C 
HETATM    8  O5  UNL     1      11.058 -13.050  13.313  1.00  0.00    -0.265 OA
BRANCH   7   9
HETATM    9  C7  UNL     1      10.698 -15.255  14.216  1.00  0.00     0.113 C 
BRANCH   9  10
HETATM   10  C8  UNL     1      11.127 -14.937  15.650  1.00  0.00     0.036 C 
BRANCH  10  11
HETATM   11  C9  UNL     1      10.556 -16.015  16.527  1.00  0.00     0.176 C 
BRANCH  11  12
HETATM   12  O6  UNL     1       9.640 -15.597  17.444  1.00  0.00    -0.351 OA
BRANCH  12  13
HETATM   13  C10 UNL     1       9.752 -15.306  18.749  1.00  0.00     0.068 A 
HETATM   14  C11 UNL     1       9.571 -16.176  19.776  1.00  0.00     0.038 A 
HETATM   15  C12 UNL     1       9.707 -15.804  21.110  1.00  0.00     0.022 A 
HETATM   16  C13 UNL     1      10.035 -14.521  21.445  1.00  0.00     0.011 A 
HETATM   17 BR1  UNL     1      10.218 -14.029  23.281  1.00  0.00    -0.051 Br
HETATM   18  C14 UNL     1      10.223 -13.621  20.430  1.00  0.00     0.022 A 
HETATM   19  C15 UNL     1      10.090 -13.984  19.116  1.00  0.00     0.038 A 
ENDBRANCH  12  13
ENDBRANCH  11  12
ENDBRANCH  10  11
ENDBRANCH   9  10
ENDBRANCH   7   9
ENDBRANCH   6   7
ENDBRANCH   5   6
ENDBRANCH   3   5
BRANCH   1  20
HETATM   20  C3  UNL     1       8.787 -13.402   8.754  1.00  0.00     0.217 C 
BRANCH  20  21
HETATM   21  C2  UNL     1      10.200 -13.027   8.665  1.00  0.00     0.286 C 
HETATM   22  O2  UNL     1      10.629 -11.914   9.135  1.00  0.00    -0.263 OA
BRANCH  21  23
HETATM   23  O1  UNL     1      11.112 -13.870   8.072  1.00  0.00    -0.325 OA
HETATM   24  C1  UNL     1      11.259 -13.925   6.684  1.00  0.00     0.213 C 
ENDBRANCH  21  23
ENDBRANCH  20  21
BRANCH  20  25
HETATM   25  C16 UNL     1       7.882 -12.515   8.001  1.00  0.00    -0.026 A 
HETATM   26  C17 UNL     1       6.719 -12.088   8.646  1.00  0.00     0.012 A 
HETATM   27  C18 UNL     1       5.803 -11.256   8.053  1.00  0.00     0.037 A 
HETATM   28  C19 UNL     1       6.045 -10.825   6.766  1.00  0.00     0.102 A 
HETATM   29  C20 UNL     1       7.179 -11.218   6.087  1.00  0.00     0.037 A 
HETATM   30  C21 UNL     1       8.088 -12.068   6.728  1.00  0.00     0.012 A 
BRANCH  28  31
HETATM   31  N2  UNL     1       5.127  -9.969   6.117  1.00  0.00    -0.116 N 
HETATM   32  O7  UNL     1       4.134 -10.455   5.547  1.00  0.00    -0.532 OA
HETATM   33  O8  UNL     1       5.358  -8.613   6.133  1.00  0.00    -0.532 OA
ENDBRANCH  28  31
ENDBRANCH  20  25
ENDBRANCH   1  20
TORSDOF 13
ENDMDL
MODEL 4
REMARK VINA RESULT: -8.879896568      2.219      2.989
REMARK  13 active torsions:
REMARK  status: ('A' for Active; 'I' for Inactive)
REMARK    1  A    between atoms: O1_2  and  C2_3 
REMARK    2  A    between atoms: C2_3  and  C3_5 
REMARK    3  A    between atoms: C3_5  and  N1_6 
REMARK    4  A    between atoms: C3_5  and  C16_25 
REMARK       I    between atoms: N1_6  and  C4_8 
REMARK    5  A    between atoms: C4_8  and  C5_10 
REMARK    6  A    between atoms: C5_10  and  O4_11 
REMARK    7  A    between atoms: O4_11  and  C6_12 
REMARK    8  A    between atoms: C6_12  and  C7_14 
REMARK    9  A    between atoms: C7_14  and  C8_15 
REMARK   10  A    between atoms: C8_15  and  C9_16 
REMARK   11  A    between atoms: C9_16  and  O6_17 
REMARK   12  A    between atoms: O6_17  and  C10_18 
REMARK   13  A    between atoms: C19_28  and  N2_29 
ROOT
HETATM    1  N1  UNL     1      10.310 -13.577  11.153  1.00  0.00    -0.341 N 
ATOM      2  H1  UNL     1      10.863 -12.738  11.328  1.00  0.00     0.163 HD
HETATM    3  C4  UNL     1      10.291 -14.612  12.124  1.00  0.00     0.242 C 
HETATM    4  O3  UNL     1       9.605 -15.675  11.929  1.00  0.00    -0.271 OA
ENDROOT
BRANCH   3   5
HETATM    5  C5  UNL     1      11.074 -14.432  13.350  1.00  0.00     0.281 C 
BRANCH   5   6
HETATM    6  O4  UNL     1      10.449 -14.818  14.530  1.00  0.00    -0.312 OA
BRANCH   6   7
HETATM    7  C6  UNL     1      10.993 -14.824  15.797  1.00  0.00     0.259 C 
HETATM    8  O5  UNL     1      11.327 -13.698  16.277  1.00  0.00    -0.265 OA
BRANCH   7   9
HETATM    9  C7  UNL     1      11.192 -16.083  16.591  1.00  0.00     0.113 C 
BRANCH   9  10
HETATM   10  C8  UNL     1       9.911 -16.910  16.461  1.00  0.00     0.036 C 
BRANCH  10  11
HETATM   11  C9  UNL     1       8.930 -16.358  17.456  1.00  0.00     0.176 C 
BRANCH  11  12
HETATM   12  O6  UNL     1       9.255 -16.551  18.764  1.00  0.00    -0.351 OA
BRANCH  12  13
HETATM   13  C10 UNL     1       9.599 -15.691  19.734  1.00  0.00     0.068 A 
HETATM   14  C11 UNL     1       9.955 -14.392  19.557  1.00  0.00     0.038 A 
HETATM   15  C12 UNL     1      10.298 -13.555  20.614  1.00  0.00     0.022 A 
HETATM   16  C13 UNL     1      10.291 -14.018  21.899  1.00  0.00     0.011 A 
HETATM   17 BR1  UNL     1      10.764 -12.854  23.337  1.00  0.00    -0.051 Br
HETATM   18  C14 UNL     1       9.937 -15.324  22.109  1.00  0.00     0.022 A 
HETATM   19  C15 UNL     1       9.599 -16.151  21.070  1.00  0.00     0.038 A 
ENDBRANCH  12  13
ENDBRANCH  11  12
ENDBRANCH  10  11
ENDBRANCH   9  10
ENDBRANCH   7   9
ENDBRANCH   6   7
ENDBRANCH   5   6
ENDBRANCH   3   5
BRANCH   1  20
HETATM   20  C3  UNL     1       9.544 -13.689   9.892  1.00  0.00     0.217 C 
BRANCH  20  21
HETATM   21  C2  UNL     1      10.191 -12.942   8.811  1.00  0.00     0.286 C 
HETATM   22  O2  UNL     1      10.232 -11.660   8.814  1.00  0.00    -0.263 OA
BRANCH  21  23
HETATM   23  O1  UNL     1      10.781 -13.602   7.758  1.00  0.00    -0.325 OA
HETATM   24  C1  UNL     1      10.022 -14.117   6.705  1.00  0.00     0.213 C 
ENDBRANCH  21  23
ENDBRANCH  20  21
BRANCH  20  25
HETATM   25  C16 UNL     1       8.168 -13.249  10.187  1.00  0.00    -0.026 A 
HETATM   26  C17 UNL     1       7.198 -13.474   9.208  1.00  0.00     0.012 A 
HETATM   27  C18 UNL     1       5.883 -13.117   9.369  1.00  0.00     0.037 A 
HETATM   28  C19 UNL     1       5.508 -12.511  10.548  1.00  0.00     0.102 A 
HETATM   29  C20 UNL     1       6.428 -12.266  11.546  1.00  0.00     0.037 A 
HETATM   30  C21 UNL     1       7.759 -12.647  11.341  1.00  0.00     0.012 A 
BRANCH  28  31
HETATM   31  N2  UNL     1       4.164 -12.125  10.755  1.00  0.00    -0.116 N 
HETATM   32  O7  UNL     1       3.533 -11.584   9.829  1.00  0.00    -0.532 OA
HETATM   33  O8  UNL     1       3.587 -12.359  11.981  1.00  0.00    -0.532 OA
ENDBRANCH  28  31
ENDBRANCH  20  25
ENDBRANCH   1  20
TORSDOF 13
ENDMDL
MODEL 5
REMARK VINA RESULT: -8.799418169      2.746      4.315
REMARK  13 active torsions:
REMARK  status: ('A' for Active; 'I' for Inactive)
REMARK    1  A    between atoms: O1_2  and  C2_3 
REMARK    2  A    between atoms: C2_3  and  C3_5 
REMARK    3  A    between atoms: C3_5  and  N1_6 
REMARK    4  A    between atoms: C3_5  and  C16_25 
REMARK       I    between atoms: N1_6  and  C4_8 
REMARK    5  A    between atoms: C4_8  and  C5_10 
REMARK    6  A    between atoms: C5_10  and  O4_11 
REMARK    7  A    between atoms: O4_11  and  C6_12 
REMARK    8  A    between atoms: C6_12  and  C7_14 
REMARK    9  A    between atoms: C7_14  and  C8_15 
REMARK   10  A    between atoms: C8_15  and  C9_16 
REMARK   11  A    between atoms: C9_16  and  O6_17 
REMARK   12  A    between atoms: O6_17  and  C10_18 
REMARK   13  A    between atoms: C19_28  and  N2_29 
ROOT
HETATM    1  N1  UNL     1       9.380 -14.019  12.016  1.00  0.00    -0.341 N 
ATOM      2  H1  UNL     1       8.835 -14.879  12.069  1.00  0.00     0.163 HD
HETATM    3  C4  UNL     1      10.489 -13.845  12.885  1.00  0.00     0.242 C 
HETATM    4  O3  UNL     1      11.191 -12.776  12.839  1.00  0.00    -0.271 OA
ENDROOT
BRANCH   3   5
HETATM    5  C5  UNL     1      10.808 -14.918  13.832  1.00  0.00     0.281 C 
BRANCH   5   6
HETATM    6  O4  UNL     1      10.046 -16.075  13.715  1.00  0.00    -0.312 OA
BRANCH   6   7
HETATM    7  C6  UNL     1       9.662 -16.926  14.730  1.00  0.00     0.259 C 
HETATM    8  O5  UNL     1       8.690 -17.704  14.482  1.00  0.00    -0.265 OA
BRANCH   7   9
HETATM    9  C7  UNL     1      10.339 -16.952  16.070  1.00  0.00     0.113 C 
BRANCH   9  10
HETATM   10  C8  UNL     1       9.724 -18.105  16.867  1.00  0.00     0.036 C 
BRANCH  10  11
HETATM   11  C9  UNL     1       8.890 -17.490  17.955  1.00  0.00     0.176 C 
BRANCH  11  12
HETATM   12  O6  UNL     1       9.171 -16.189  18.241  1.00  0.00    -0.351 OA
BRANCH  12  13
HETATM   13  C10 UNL     1       9.496 -15.577  19.389  1.00  0.00     0.068 A 
HETATM   14  C11 UNL     1       9.420 -16.124  20.631  1.00  0.00     0.038 A 
HETATM   15  C12 UNL     1       9.778 -15.428  21.782  1.00  0.00     0.022 A 
HETATM   16  C13 UNL     1      10.228 -14.141  21.706  1.00  0.00     0.011 A 
HETATM   17 BR1  UNL     1      10.714 -13.203  23.297  1.00  0.00    -0.051 Br
HETATM   18  C14 UNL     1      10.314 -13.562  20.468  1.00  0.00     0.022 A 
HETATM   19  C15 UNL     1       9.962 -14.244  19.332  1.00  0.00     0.038 A 
ENDBRANCH  12  13
ENDBRANCH  11  12
ENDBRANCH  10  11
ENDBRANCH   9  10
ENDBRANCH   7   9
ENDBRANCH   6   7
ENDBRANCH   5   6
ENDBRANCH   3   5
BRANCH   1  20
HETATM   20  C3  UNL     1       8.999 -12.980  11.035  1.00  0.00     0.217 C 
BRANCH  20  21
HETATM   21  C2  UNL     1       7.578 -12.645  11.144  1.00  0.00     0.286 C 
HETATM   22  O2  UNL     1       6.822 -13.207  12.014  1.00  0.00    -0.263 OA
BRANCH  21  23
HETATM   23  O1  UNL     1       7.013 -11.707  10.310  1.00  0.00    -0.325 OA
HETATM   24  C1  UNL     1       5.912 -12.014   9.509  1.00  0.00     0.213 C 
ENDBRANCH  21  23
ENDBRANCH  20  21
BRANCH  20  25
HETATM   25  C16 UNL     1       9.400 -13.479   9.707  1.00  0.00    -0.026 A 
HETATM   26  C17 UNL     1       8.664 -14.539   9.171  1.00  0.00     0.012 A 
HETATM   27  C18 UNL     1       8.935 -15.085   7.942  1.00  0.00     0.037 A 
HETATM   28  C19 UNL     1       9.977 -14.561   7.208  1.00  0.00     0.102 A 
HETATM   29  C20 UNL     1      10.733 -13.515   7.692  1.00  0.00     0.037 A 
HETATM   30  C21 UNL     1      10.423 -12.987   8.951  1.00  0.00     0.012 A 
BRANCH  28  31
HETATM   31  N2  UNL     1      10.292 -15.095   5.937  1.00  0.00    -0.116 N 
HETATM   32  O7  UNL     1       9.508 -14.918   4.988  1.00  0.00    -0.532 OA
HETATM   33  O8  UNL     1      11.464 -15.798   5.783  1.00  0.00    -0.532 OA
ENDBRANCH  28  31
ENDBRANCH  20  25
ENDBRANCH   1  20
TORSDOF 13
ENDMDL
