MODEL 1
REMARK VINA RESULT: -9.175341960      0.000      0.000
REMARK  12 active torsions:
REMARK  status: ('A' for Active; 'I' for Inactive)
REMARK    1  A    between atoms: C2_2  and  C3_3 
REMARK    2  A    between atoms: C3_3  and  C4_4 
REMARK    3  A    between atoms: C4_4  and  N1_5 
REMARK    4  A    between atoms: C6_8  and  N3_9 
REMARK    5  A    between atoms: N3_9  and  C7_10 
REMARK       I    between atoms: N3_9  and  C14_17 
REMARK    6  A    between atoms: C7_10  and  C8_11 
REMARK    7  A    between atoms: C14_17  and  C15_19 
REMARK    8  A    between atoms: C15_19  and  O2_20 
REMARK    9  A    between atoms: O2_20  and  C16_21 
REMARK   10  A    between atoms: C16_21  and  C17_23 
REMARK   11  A    between atoms: C17_23  and  O4_24 
REMARK   12  A    between atoms: O4_24  and  C18_25 
ROOT
HETATM    1  N3  UNL     1       8.383 -13.419  10.073  1.00  0.00    -0.282 N 
HETATM    2  C14 UNL     1       8.553 -14.834  10.347  1.00  0.00     0.253 C 
HETATM    3  O1  UNL     1       8.931 -15.610   9.434  1.00  0.00    -0.270 OA
ENDROOT
BRANCH   1   4
HETATM    4  C6  UNL     1       8.729 -12.949   8.787  1.00  0.00     0.152 A 
HETATM    5  C5  UNL     1       7.876 -13.116   7.726  1.00  0.00     0.155 A 
HETATM    6  N1  UNL     1       8.172 -12.675   6.478  1.00  0.00    -0.285 N 
HETATM    7  N2  UNL     1       6.616 -13.745   7.899  1.00  0.00    -0.080 NA
HETATM    8  C25 UNL     1       9.341 -12.054   6.277  1.00  0.00     0.330 A 
HETATM    9  N4  UNL     1      10.178 -11.885   7.302  1.00  0.00    -0.273 N 
HETATM   10  O6  UNL     1       9.666 -11.620   5.113  1.00  0.00    -0.246 OA
HETATM   11  C24 UNL     1       9.912 -12.316   8.569  1.00  0.00     0.280 A 
ATOM     12  H4  UNL     1      11.064 -11.408   7.129  1.00  0.00     0.173 HD
HETATM   13  O5  UNL     1      10.791 -12.094   9.475  1.00  0.00    -0.265 OA
BRANCH   6  14
HETATM   14  C4  UNL     1       7.247 -12.867   5.382  1.00  0.00     0.135 C 
BRANCH  14  15
HETATM   15  C3  UNL     1       6.598 -11.527   5.004  1.00  0.00     0.020 C 
BRANCH  15  16
HETATM   16  C2  UNL     1       5.247 -11.415   5.668  1.00  0.00    -0.003 C 
HETATM   17  C1  UNL     1       5.270 -10.493   6.839  1.00  0.00     0.005 C 
ENDBRANCH  15  16
ENDBRANCH  14  15
ENDBRANCH   6  14
ENDBRANCH   1   4
BRANCH   1  18
HETATM   18  C7  UNL     1       7.920 -12.482  11.051  1.00  0.00     0.112 C 
BRANCH  18  19
HETATM   19  C8  UNL     1       6.510 -12.165  11.122  1.00  0.00    -0.020 A 
HETATM   20  C9  UNL     1       6.091 -11.174  12.024  1.00  0.00     0.013 A 
HETATM   21  C10 UNL     1       4.765 -10.830  12.145  1.00  0.00     0.001 A 
HETATM   22  C11 UNL     1       3.808 -11.445  11.389  1.00  0.00     0.000 A 
HETATM   23  C12 UNL     1       4.190 -12.420  10.498  1.00  0.00     0.001 A 
HETATM   24  C13 UNL     1       5.540 -12.756  10.389  1.00  0.00     0.013 A 
ENDBRANCH  18  19
ENDBRANCH   1  18
BRANCH   2  25
HETATM   25  C15 UNL     1       8.303 -15.418  11.685  1.00  0.00     0.282 C 
BRANCH  25  26
HETATM   26  O2  UNL     1       9.454 -15.694  12.428  1.00  0.00    -0.310 OA
BRANCH  26  27
HETATM   27  C16 UNL     1      10.251 -14.713  12.949  1.00  0.00     0.283 C 
HETATM   28  O3  UNL     1      11.195 -14.222  12.302  1.00  0.00    -0.263 OA
BRANCH  27  29
HETATM   29  C17 UNL     1      10.038 -14.169  14.327  1.00  0.00     0.286 C 
BRANCH  29  30
HETATM   30  O4  UNL     1      11.063 -14.518  15.220  1.00  0.00    -0.340 OA
BRANCH  30  31
HETATM   31  C18 UNL     1      10.718 -15.454  16.213  1.00  0.00     0.091 A 
HETATM   32  C19 UNL     1      10.773 -16.813  15.977  1.00  0.00     0.038 A 
HETATM   33  C20 UNL     1      10.429 -17.677  16.972  1.00  0.00     0.003 A 
HETATM   34  C21 UNL     1      10.021 -17.270  18.220  1.00  0.00     0.002 A 
HETATM   35  C22 UNL     1       9.973 -15.900  18.436  1.00  0.00     0.026 A 
HETATM   36  C23 UNL     1      10.316 -15.000  17.448  1.00  0.00     0.067 A 
HETATM   37 CL1  UNL     1      10.239 -13.256  17.769  1.00  0.00    -0.081 Cl
ENDBRANCH  30  31
ENDBRANCH  29  30
ENDBRANCH  27  29
ENDBRANCH  26  27
ENDBRANCH  25  26
ENDBRANCH   2  25
TORSDOF 12
ENDMDL
MODEL 2
REMARK VINA RESULT: -9.174716709      2.014      3.007
REMARK  12 active torsions:
REMARK  status: ('A' for Active; 'I' for Inactive)
REMARK    1  A    between atoms: C2_2  and  C3_3 
REMARK    2  A    between atoms: C3_3  and  C4_4 
REMARK    3  A    between atoms: C4_4  and  N1_5 
REMARK    4  A    between atoms: C6_8  and  N3_9 
REMARK    5  A    between atoms: N3_9  and  C7_10 
REMARK       I    between atoms: N3_9  and  C14_17 
REMARK    6  A    between atoms: C7_10  and  C8_11 
REMARK    7  A    between atoms: C14_17  and  C15_19 
REMARK    8  A    between atoms: C15_19  and  O2_20 
REMARK    9  A    between atoms: O2_20  and  C16_21 
REMARK   10  A    between atoms: C16_21  and  C17_23 
REMARK   11  A    between atoms: C17_23  and  O4_24 
REMARK   12  A    between atoms: O4_24  and  C18_25 
ROOT
HETATM    1  N3  UNL     1       8.749 -13.955  10.370  1.00  0.00    -0.282 N 
HETATM    2  C14 UNL     1       9.780 -14.088  11.383  1.00  0.00     0.253 C 
HETATM    3  O1  UNL     1      10.979 -13.854  11.092  1.00  0.00    -0.270 OA
ENDROOT
BRANCH   1   4
HETATM    4  C6  UNL     1       9.131 -13.485   9.095  1.00  0.00     0.152 A 
HETATM    5  C5  UNL     1       9.478 -14.362   8.099  1.00  0.00     0.155 A 
HETATM    6  N1  UNL     1       9.848 -13.948   6.861  1.00  0.00    -0.285 N 
HETATM    7  N2  UNL     1       9.439 -15.763   8.319  1.00  0.00    -0.080 NA
HETATM    8  C25 UNL     1       9.875 -12.635   6.605  1.00  0.00     0.330 A 
HETATM    9  N4  UNL     1       9.538 -11.772   7.565  1.00  0.00    -0.273 N 
HETATM   10  O6  UNL     1      10.219 -12.195   5.448  1.00  0.00    -0.246 OA
HETATM   11  C24 UNL     1       9.162 -12.154   8.820  1.00  0.00     0.280 A 
ATOM     12  H4  UNL     1       9.563 -10.775   7.349  1.00  0.00     0.173 HD
HETATM   13  O5  UNL     1       8.856 -11.235   9.660  1.00  0.00    -0.265 OA
BRANCH   6  14
HETATM   14  C4  UNL     1      10.206 -14.903   5.834  1.00  0.00     0.135 C 
BRANCH  14  15
HETATM   15  C3  UNL     1      11.733 -15.058   5.771  1.00  0.00     0.020 C 
BRANCH  15  16
HETATM   16  C2  UNL     1      12.110 -15.841   4.537  1.00  0.00    -0.003 C 
HETATM   17  C1  UNL     1      11.085 -16.863   4.183  1.00  0.00     0.005 C 
ENDBRANCH  15  16
ENDBRANCH  14  15
ENDBRANCH   6  14
ENDBRANCH   1   4
BRANCH   1  18
HETATM   18  C7  UNL     1       7.368 -14.241  10.616  1.00  0.00     0.112 C 
BRANCH  18  19
HETATM   19  C8  UNL     1       6.409 -13.158  10.645  1.00  0.00    -0.020 A 
HETATM   20  C9  UNL     1       6.398 -12.304  11.759  1.00  0.00     0.013 A 
HETATM   21  C10 UNL     1       5.508 -11.259  11.852  1.00  0.00     0.001 A 
HETATM   22  C11 UNL     1       4.602 -11.019  10.858  1.00  0.00     0.000 A 
HETATM   23  C12 UNL     1       4.590 -11.840   9.756  1.00  0.00     0.001 A 
HETATM   24  C13 UNL     1       5.501 -12.896   9.679  1.00  0.00     0.013 A 
ENDBRANCH  18  19
ENDBRANCH   1  18
BRANCH   2  25
HETATM   25  C15 UNL     1       9.475 -14.488  12.775  1.00  0.00     0.282 C 
BRANCH  25  26
HETATM   26  O2  UNL     1      10.050 -15.698  13.176  1.00  0.00    -0.310 OA
BRANCH  26  27
HETATM   27  C16 UNL     1       9.749 -16.301  14.365  1.00  0.00     0.283 C 
HETATM   28  O3  UNL     1       8.771 -17.062  14.486  1.00  0.00    -0.263 OA
BRANCH  27  29
HETATM   29  C17 UNL     1      10.575 -16.085  15.595  1.00  0.00     0.286 C 
BRANCH  29  30
HETATM   30  O4  UNL     1      10.237 -14.911  16.285  1.00  0.00    -0.340 OA
BRANCH  30  31
HETATM   31  C18 UNL     1      10.069 -15.044  17.676  1.00  0.00     0.091 A 
HETATM   32  C19 UNL     1       9.885 -16.277  18.268  1.00  0.00     0.038 A 
HETATM   33  C20 UNL     1       9.727 -16.352  19.619  1.00  0.00     0.003 A 
HETATM   34  C21 UNL     1       9.738 -15.252  20.443  1.00  0.00     0.002 A 
HETATM   35  C22 UNL     1       9.924 -14.022  19.828  1.00  0.00     0.026 A 
HETATM   36  C23 UNL     1      10.087 -13.915  18.462  1.00  0.00     0.067 A 
HETATM   37 CL1  UNL     1      10.321 -12.321  17.718  1.00  0.00    -0.081 Cl
ENDBRANCH  30  31
ENDBRANCH  29  30
ENDBRANCH  27  29
ENDBRANCH  26  27
ENDBRANCH  25  26
ENDBRANCH   2  25
TORSDOF 12
ENDMDL
MODEL 3
REMARK VINA RESULT: -9.075538822      3.530      9.126
REMARK  12 active torsions:
REMARK  status: ('A' for Active; 'I' for Inactive)
REMARK    1  A    between atoms: C2_2  and  C3_3 
REMARK    2  A    between atoms: C3_3  and  C4_4 
REMARK    3  A    between atoms: C4_4  and  N1_5 
REMARK    4  A    between atoms: C6_8  and  N3_9 
REMARK    5  A    between atoms: N3_9  and  C7_10 
REMARK       I    between atoms: N3_9  and  C14_17 
REMARK    6  A    between atoms: C7_10  and  C8_11 
REMARK    7  A    between atoms: C14_17  and  C15_19 
REMARK    8  A    between atoms: C15_19  and  O2_20 
REMARK    9  A    between atoms: O2_20  and  C16_21 
REMARK   10  A    between atoms: C16_21  and  C17_23 
REMARK   11  A    between atoms: C17_23  and  O4_24 
REMARK   12  A    between atoms: O4_24  and  C18_25 
ROOT
HETATM    1  N3  UNL     1       7.864 -13.038   8.928  1.00  0.00    -0.282 N 
HETATM    2  C14 UNL     1       6.967 -11.923   9.173  1.00  0.00     0.253 C 
HETATM    3  O1  UNL     1       7.103 -11.224  10.208  1.00  0.00    -0.270 OA
ENDROOT
BRANCH   1   4
HETATM    4  C6  UNL     1       8.920 -13.250   9.841  1.00  0.00     0.152 A 
HETATM    5  C5  UNL     1       8.799 -14.167  10.854  1.00  0.00     0.155 A 
HETATM    6  N1  UNL     1       9.793 -14.399  11.747  1.00  0.00    -0.285 N 
HETATM    7  N2  UNL     1       7.619 -14.941  10.996  1.00  0.00    -0.080 NA
HETATM    8  C25 UNL     1      10.933 -13.707  11.633  1.00  0.00     0.330 A 
HETATM    9  N4  UNL     1      11.063 -12.814  10.651  1.00  0.00    -0.273 N 
HETATM   10  O6  UNL     1      11.902 -13.892  12.456  1.00  0.00    -0.246 OA
HETATM   11  C24 UNL     1      10.084 -12.555   9.737  1.00  0.00     0.280 A 
ATOM     12  H4  UNL     1      11.940 -12.297  10.581  1.00  0.00     0.173 HD
HETATM   13  O5  UNL     1      10.323 -11.677   8.834  1.00  0.00    -0.265 OA
BRANCH   6  14
HETATM   14  C4  UNL     1       9.631 -15.376  12.803  1.00  0.00     0.135 C 
BRANCH  14  15
HETATM   15  C3  UNL     1       9.130 -14.688  14.081  1.00  0.00     0.020 C 
BRANCH  15  16
HETATM   16  C2  UNL     1      10.010 -15.079  15.244  1.00  0.00    -0.003 C 
HETATM   17  C1  UNL     1      10.746 -13.914  15.810  1.00  0.00     0.005 C 
ENDBRANCH  15  16
ENDBRANCH  14  15
ENDBRANCH   6  14
ENDBRANCH   1   4
BRANCH   1  18
HETATM   18  C7  UNL     1       7.747 -13.902   7.793  1.00  0.00     0.112 C 
BRANCH  18  19
HETATM   19  C8  UNL     1       8.516 -13.620   6.600  1.00  0.00    -0.020 A 
HETATM   20  C9  UNL     1       9.247 -14.665   6.012  1.00  0.00     0.013 A 
HETATM   21  C10 UNL     1      10.003 -14.461   4.881  1.00  0.00     0.001 A 
HETATM   22  C11 UNL     1      10.067 -13.230   4.291  1.00  0.00     0.000 A 
HETATM   23  C12 UNL     1       9.361 -12.189   4.847  1.00  0.00     0.001 A 
HETATM   24  C13 UNL     1       8.599 -12.415   5.995  1.00  0.00     0.013 A 
ENDBRANCH  18  19
ENDBRANCH   1  18
BRANCH   2  25
HETATM   25  C15 UNL     1       5.881 -11.560   8.235  1.00  0.00     0.282 C 
BRANCH  25  26
HETATM   26  O2  UNL     1       6.184 -10.508   7.366  1.00  0.00    -0.310 OA
BRANCH  26  27
HETATM   27  C16 UNL     1       5.327 -10.087   6.387  1.00  0.00     0.283 C 
HETATM   28  O3  UNL     1       5.298  -8.903   6.005  1.00  0.00    -0.263 OA
BRANCH  27  29
HETATM   29  C17 UNL     1       4.373 -11.024   5.715  1.00  0.00     0.286 C 
BRANCH  29  30
HETATM   30  O4  UNL     1       4.827 -11.466   4.463  1.00  0.00    -0.340 OA
BRANCH  30  31
HETATM   31  C18 UNL     1       5.264 -12.803   4.405  1.00  0.00     0.091 A 
HETATM   32  C19 UNL     1       4.846 -13.740   5.329  1.00  0.00     0.038 A 
HETATM   33  C20 UNL     1       5.299 -15.021   5.229  1.00  0.00     0.003 A 
HETATM   34  C21 UNL     1       6.163 -15.445   4.247  1.00  0.00     0.002 A 
HETATM   35  C22 UNL     1       6.570 -14.486   3.329  1.00  0.00     0.026 A 
HETATM   36  C23 UNL     1       6.129 -13.180   3.404  1.00  0.00     0.067 A 
HETATM   37 CL1  UNL     1       6.677 -11.988   2.210  1.00  0.00    -0.081 Cl
ENDBRANCH  30  31
ENDBRANCH  29  30
ENDBRANCH  27  29
ENDBRANCH  26  27
ENDBRANCH  25  26
ENDBRANCH   2  25
TORSDOF 12
ENDMDL
MODEL 4
REMARK VINA RESULT: -9.013483108      2.126      3.260
REMARK  12 active torsions:
REMARK  status: ('A' for Active; 'I' for Inactive)
REMARK    1  A    between atoms: C2_2  and  C3_3 
REMARK    2  A    between atoms: C3_3  and  C4_4 
REMARK    3  A    between atoms: C4_4  and  N1_5 
REMARK    4  A    between atoms: C6_8  and  N3_9 
REMARK    5  A    between atoms: N3_9  and  C7_10 
REMARK       I    between atoms: N3_9  and  C14_17 
REMARK    6  A    between atoms: C7_10  and  C8_11 
REMARK    7  A    between atoms: C14_17  and  C15_19 
REMARK    8  A    between atoms: C15_19  and  O2_20 
REMARK    9  A    between atoms: O2_20  and  C16_21 
REMARK   10  A    between atoms: C16_21  and  C17_23 
REMARK   11  A    between atoms: C17_23  and  O4_24 
REMARK   12  A    between atoms: O4_24  and  C18_25 
ROOT
HETATM    1  N3  UNL     1       8.839 -13.865  10.370  1.00  0.00    -0.282 N 
HETATM    2  C14 UNL     1       9.916 -13.925  11.342  1.00  0.00     0.253 C 
HETATM    3  O1  UNL     1      11.095 -13.674  10.988  1.00  0.00    -0.270 OA
ENDROOT
BRANCH   1   4
HETATM    4  C6  UNL     1       9.155 -13.447   9.059  1.00  0.00     0.152 A 
HETATM    5  C5  UNL     1       9.499 -14.360   8.094  1.00  0.00     0.155 A 
HETATM    6  N1  UNL     1       9.805 -13.995   6.824  1.00  0.00    -0.285 N 
HETATM    7  N2  UNL     1       9.524 -15.748   8.385  1.00  0.00    -0.080 NA
HETATM    8  C25 UNL     1       9.769 -12.696   6.503  1.00  0.00     0.330 A 
HETATM    9  N4  UNL     1       9.435 -11.799   7.431  1.00  0.00    -0.273 N 
HETATM   10  O6  UNL     1      10.051 -12.303   5.313  1.00  0.00    -0.246 OA
HETATM   11  C24 UNL     1       9.121 -12.131   8.717  1.00  0.00     0.280 A 
ATOM     12  H4  UNL     1       9.412 -10.814   7.166  1.00  0.00     0.173 HD
HETATM   13  O5  UNL     1       8.811 -11.183   9.523  1.00  0.00    -0.265 OA
BRANCH   6  14
HETATM   14  C4  UNL     1      10.162 -14.986   5.832  1.00  0.00     0.135 C 
BRANCH  14  15
HETATM   15  C3  UNL     1      11.690 -15.089   5.720  1.00  0.00     0.020 C 
BRANCH  15  16
HETATM   16  C2  UNL     1      12.053 -15.883   4.488  1.00  0.00    -0.003 C 
HETATM   17  C1  UNL     1      10.994 -16.864   4.117  1.00  0.00     0.005 C 
ENDBRANCH  15  16
ENDBRANCH  14  15
ENDBRANCH   6  14
ENDBRANCH   1   4
BRANCH   1  18
HETATM   18  C7  UNL     1       7.479 -14.174  10.689  1.00  0.00     0.112 C 
BRANCH  18  19
HETATM   19  C8  UNL     1       6.515 -13.102  10.818  1.00  0.00    -0.020 A 
HETATM   20  C9  UNL     1       5.571 -12.923   9.795  1.00  0.00     0.013 A 
HETATM   21  C10 UNL     1       4.633 -11.919   9.855  1.00  0.00     0.001 A 
HETATM   22  C11 UNL     1       4.589 -11.061  10.916  1.00  0.00     0.000 A 
HETATM   23  C12 UNL     1       5.503 -11.213  11.932  1.00  0.00     0.001 A 
HETATM   24  C13 UNL     1       6.448 -12.237  11.855  1.00  0.00     0.013 A 
ENDBRANCH  18  19
ENDBRANCH   1  18
BRANCH   2  25
HETATM   25  C15 UNL     1       9.682 -14.267  12.763  1.00  0.00     0.282 C 
BRANCH  25  26
HETATM   26  O2  UNL     1      10.054 -15.565  13.123  1.00  0.00    -0.310 OA
BRANCH  26  27
HETATM   27  C16 UNL     1       9.251 -16.385  13.866  1.00  0.00     0.283 C 
HETATM   28  O3  UNL     1       8.207 -16.878  13.402  1.00  0.00    -0.263 OA
BRANCH  27  29
HETATM   29  C17 UNL     1       9.579 -16.740  15.283  1.00  0.00     0.286 C 
BRANCH  29  30
HETATM   30  O4  UNL     1      10.749 -16.123  15.748  1.00  0.00    -0.340 OA
BRANCH  30  31
HETATM   31  C18 UNL     1      10.563 -15.030  16.616  1.00  0.00     0.091 A 
HETATM   32  C19 UNL     1      10.736 -13.729  16.188  1.00  0.00     0.038 A 
HETATM   33  C20 UNL     1      10.544 -12.707  17.067  1.00  0.00     0.003 A 
HETATM   34  C21 UNL     1      10.184 -12.896  18.381  1.00  0.00     0.002 A 
HETATM   35  C22 UNL     1      10.016 -14.212  18.790  1.00  0.00     0.026 A 
HETATM   36  C23 UNL     1      10.202 -15.269  17.922  1.00  0.00     0.067 A 
HETATM   37 CL1  UNL     1       9.978 -16.935  18.490  1.00  0.00    -0.081 Cl
ENDBRANCH  30  31
ENDBRANCH  29  30
ENDBRANCH  27  29
ENDBRANCH  26  27
ENDBRANCH  25  26
ENDBRANCH   2  25
TORSDOF 12
ENDMDL
MODEL 5
REMARK VINA RESULT: -8.984948155      3.291      8.869
REMARK  12 active torsions:
REMARK  status: ('A' for Active; 'I' for Inactive)
REMARK    1  A    between atoms: C2_2  and  C3_3 
REMARK    2  A    between atoms: C3_3  and  C4_4 
REMARK    3  A    between atoms: C4_4  and  N1_5 
REMARK    4  A    between atoms: C6_8  and  N3_9 
REMARK    5  A    between atoms: N3_9  and  C7_10 
REMARK       I    between atoms: N3_9  and  C14_17 
REMARK    6  A    between atoms: C7_10  and  C8_11 
REMARK    7  A    between atoms: C14_17  and  C15_19 
REMARK    8  A    between atoms: C15_19  and  O2_20 
REMARK    9  A    between atoms: O2_20  and  C16_21 
REMARK   10  A    between atoms: C16_21  and  C17_23 
REMARK   11  A    between atoms: C17_23  and  O4_24 
REMARK   12  A    between atoms: O4_24  and  C18_25 
ROOT
HETATM    1  N3  UNL     1       9.447 -13.408   9.917  1.00  0.00    -0.282 N 
HETATM    2  C14 UNL     1      10.165 -13.871   8.743  1.00  0.00     0.253 C 
HETATM    3  O1  UNL     1      10.785 -14.962   8.778  1.00  0.00    -0.270 OA
ENDROOT
BRANCH   1   4
HETATM    4  C6  UNL     1       9.411 -14.254  11.046  1.00  0.00     0.152 A 
HETATM    5  C5  UNL     1      10.247 -14.039  12.112  1.00  0.00     0.155 A 
HETATM    6  N1  UNL     1      10.238 -14.829  13.215  1.00  0.00    -0.285 N 
HETATM    7  N2  UNL     1      11.152 -12.946  12.115  1.00  0.00    -0.080 NA
HETATM    8  C25 UNL     1       9.381 -15.856  13.262  1.00  0.00     0.330 A 
HETATM    9  N4  UNL     1       8.562 -16.075  12.233  1.00  0.00    -0.273 N 
HETATM   10  O6  UNL     1       9.337 -16.631  14.285  1.00  0.00    -0.246 OA
HETATM   11  C24 UNL     1       8.544 -15.301  11.109  1.00  0.00     0.280 A 
ATOM     12  H4  UNL     1       7.915 -16.862  12.288  1.00  0.00     0.173 HD
HETATM   13  O5  UNL     1       7.710 -15.605  10.184  1.00  0.00    -0.265 OA
BRANCH   6  14
HETATM   14  C4  UNL     1      11.134 -14.570  14.322  1.00  0.00     0.135 C 
BRANCH  14  15
HETATM   15  C3  UNL     1      10.510 -13.535  15.270  1.00  0.00     0.020 C 
BRANCH  15  16
HETATM   16  C2  UNL     1      10.768 -13.941  16.701  1.00  0.00    -0.003 C 
HETATM   17  C1  UNL     1      10.435 -12.853  17.664  1.00  0.00     0.005 C 
ENDBRANCH  15  16
ENDBRANCH  14  15
ENDBRANCH   6  14
ENDBRANCH   1   4
BRANCH   1  18
HETATM   18  C7  UNL     1       8.749 -12.159   9.966  1.00  0.00     0.112 C 
BRANCH  18  19
HETATM   19  C8  UNL     1       7.302 -12.149   9.958  1.00  0.00    -0.020 A 
HETATM   20  C9  UNL     1       6.630 -11.728  11.117  1.00  0.00     0.013 A 
HETATM   21  C10 UNL     1       5.256 -11.702  11.176  1.00  0.00     0.001 A 
HETATM   22  C11 UNL     1       4.499 -12.085  10.106  1.00  0.00     0.000 A 
HETATM   23  C12 UNL     1       5.131 -12.503   8.960  1.00  0.00     0.001 A 
HETATM   24  C13 UNL     1       6.527 -12.523   8.917  1.00  0.00     0.013 A 
ENDBRANCH  18  19
ENDBRANCH   1  18
BRANCH   2  25
HETATM   25  C15 UNL     1      10.193 -13.103   7.478  1.00  0.00     0.282 C 
BRANCH  25  26
HETATM   26  O2  UNL     1       9.317 -13.564   6.492  1.00  0.00    -0.310 OA
BRANCH  26  27
HETATM   27  C16 UNL     1       8.829 -12.759   5.501  1.00  0.00     0.283 C 
HETATM   28  O3  UNL     1       8.828 -13.115   4.308  1.00  0.00    -0.263 OA
BRANCH  27  29
HETATM   29  C17 UNL     1       8.267 -11.402   5.788  1.00  0.00     0.286 C 
BRANCH  29  30
HETATM   30  O4  UNL     1       7.404 -10.941   4.782  1.00  0.00    -0.340 OA
BRANCH  30  31
HETATM   31  C18 UNL     1       6.038 -10.894   5.119  1.00  0.00     0.091 A 
HETATM   32  C19 UNL     1       5.578 -10.119   6.165  1.00  0.00     0.038 A 
HETATM   33  C20 UNL     1       4.246 -10.110   6.451  1.00  0.00     0.003 A 
HETATM   34  C21 UNL     1       3.316 -10.840   5.749  1.00  0.00     0.002 A 
HETATM   35  C22 UNL     1       3.800 -11.612   4.702  1.00  0.00     0.026 A 
HETATM   36  C23 UNL     1       5.144 -11.642   4.388  1.00  0.00     0.067 A 
HETATM   37 CL1  UNL     1       5.719 -12.645   3.042  1.00  0.00    -0.081 Cl
ENDBRANCH  30  31
ENDBRANCH  29  30
ENDBRANCH  27  29
ENDBRANCH  26  27
ENDBRANCH  25  26
ENDBRANCH   2  25
TORSDOF 12
ENDMDL
