MODEL 1
REMARK VINA RESULT: -9.473059000      0.000      0.000
REMARK  13 active torsions:
REMARK  status: ('A' for Active; 'I' for Inactive)
REMARK    1  A    between atoms: C1_2  and  C2_3 
REMARK       I    between atoms: C1_2  and  N7_29 
REMARK    2  A    between atoms: C2_3  and  N1_4 
REMARK    3  A    between atoms: C3_7  and  C4_8 
REMARK    4  A    between atoms: C12_16  and  N3_17 
REMARK    5  A    between atoms: N3_17  and  C13_19 
REMARK    6  A    between atoms: C13_19  and  C14_20 
REMARK    7  A    between atoms: C14_20  and  C15_21 
REMARK    8  A    between atoms: C15_21  and  N4_22 
REMARK    9  A    between atoms: N7_29  and  C18_31 
REMARK   10  A    between atoms: C18_31  and  C19_32 
REMARK   11  A    between atoms: C19_32  and  C20_33 
REMARK   12  A    between atoms: C20_33  and  O3_35 
REMARK   13  A    between atoms: O3_35  and  C21_36 
ROOT
HETATM    1  N1  UNL     1       9.515 -15.051  12.058  1.00  0.00    -0.268 N 
HETATM    2  N2  UNL     1       9.311 -15.621  13.228  1.00  0.00    -0.296 N 
ATOM      3  H2  UNL     1       8.483 -16.203  13.349  1.00  0.00     0.187 HD
HETATM    4  C3  UNL     1      10.145 -15.469  14.269  1.00  0.00     0.058 A 
HETATM    5  C10 UNL     1      11.243 -14.672  14.044  1.00  0.00     0.035 A 
HETATM    6  C11 UNL     1      11.480 -14.057  12.812  1.00  0.00     0.052 A 
HETATM    7  C12 UNL     1      10.595 -14.250  11.792  1.00  0.00     0.118 A 
ENDROOT
BRANCH   1   8
HETATM    8  C2  UNL     1       8.562 -15.274  10.998  1.00  0.00     0.253 C 
BRANCH   8   9
HETATM    9  C1  UNL     1       7.485 -14.249  10.993  1.00  0.00     0.237 C 
HETATM   10  O1  UNL     1       7.224 -13.685  12.070  1.00  0.00    -0.272 OA
HETATM   11  N7  UNL     1       6.795 -13.934   9.819  1.00  0.00    -0.359 N 
ATOM     12  H7  UNL     1       7.035 -14.419   8.954  1.00  0.00     0.162 HD
BRANCH  11  13
HETATM   13  C18 UNL     1       5.763 -12.950   9.799  1.00  0.00     0.132 C 
BRANCH  13  14
HETATM   14  C19 UNL     1       5.250 -12.599   8.438  1.00  0.00     0.131 C 
BRANCH  14  15
HETATM   15  C20 UNL     1       6.336 -12.857   7.431  1.00  0.00     0.265 C 
HETATM   16  O2  UNL     1       6.444 -13.945   6.844  1.00  0.00    -0.265 OA
BRANCH  15  17
HETATM   17  O3  UNL     1       7.259 -11.865   7.131  1.00  0.00    -0.279 OA
BRANCH  17  18
HETATM   18  C21 UNL     1       7.542 -11.550   5.805  1.00  0.00     0.079 A 
HETATM   19  C22 UNL     1       8.824 -11.716   5.334  1.00  0.00     0.039 A 
HETATM   20  C23 UNL     1       9.178 -11.420   4.019  1.00  0.00     0.026 A 
HETATM   21  C24 UNL     1       8.214 -10.940   3.140  1.00  0.00     0.034 A 
HETATM   22 CL1  UNL     1       8.647 -10.562   1.476  1.00  0.00    -0.084 Cl
HETATM   23  C25 UNL     1       6.937 -10.779   3.623  1.00  0.00     0.026 A 
HETATM   24  C26 UNL     1       6.592 -11.073   4.927  1.00  0.00     0.039 A 
ENDBRANCH  17  18
ENDBRANCH  15  17
ENDBRANCH  14  15
ENDBRANCH  13  14
ENDBRANCH  11  13
ENDBRANCH   8   9
ENDBRANCH   1   8
BRANCH   7  25
HETATM   25  N3  UNL     1      10.719 -13.732  10.628  1.00  0.00    -0.375 N 
ATOM     26  H3  UNL     1      11.073 -14.368   9.913  1.00  0.00     0.161 HD
BRANCH  25  27
HETATM   27  C13 UNL     1      10.448 -12.428  10.174  1.00  0.00     0.123 C 
BRANCH  27  28
HETATM   28  C14 UNL     1      10.339 -12.387   8.639  1.00  0.00     0.041 C 
BRANCH  28  29
HETATM   29  C15 UNL     1       9.977 -13.778   8.213  1.00  0.00     0.151 C 
BRANCH  29  30
HETATM   30  N4  UNL     1      10.808 -14.265   7.124  1.00  0.00    -0.287 N 
HETATM   31  C16 UNL     1      10.312 -14.985   6.100  1.00  0.00     0.201 A 
HETATM   32  N5  UNL     1      11.302 -15.283   5.272  1.00  0.00    -0.346 N 
HETATM   33  C17 UNL     1      12.414 -14.747   5.784  1.00  0.00     0.198 A 
ATOM     34  H5  UNL     1      11.229 -15.820   4.407  1.00  0.00     0.167 HD
HETATM   35  N6  UNL     1      12.089 -14.125   6.924  1.00  0.00    -0.293 N 
ATOM     36  H6  UNL     1      12.735 -13.625   7.535  1.00  0.00     0.188 HD
ENDBRANCH  29  30
ENDBRANCH  28  29
ENDBRANCH  27  28
ENDBRANCH  25  27
ENDBRANCH   7  25
BRANCH   4  37
HETATM   37  C4  UNL     1       9.842 -16.136  15.523  1.00  0.00    -0.008 A 
HETATM   38  C5  UNL     1       8.576 -16.629  15.752  1.00  0.00     0.014 A 
HETATM   39  C6  UNL     1       8.262 -17.266  16.936  1.00  0.00     0.001 A 
HETATM   40  C7  UNL     1       9.187 -17.443  17.945  1.00  0.00     0.000 A 
HETATM   41  C8  UNL     1      10.457 -16.954  17.727  1.00  0.00     0.001 A 
HETATM   42  C9  UNL     1      10.768 -16.309  16.525  1.00  0.00     0.014 A 
ENDBRANCH   4  37
TORSDOF 13
ENDMDL
MODEL 2
REMARK VINA RESULT: -9.284800563      4.491      9.311
REMARK  13 active torsions:
REMARK  status: ('A' for Active; 'I' for Inactive)
REMARK    1  A    between atoms: C1_2  and  C2_3 
REMARK       I    between atoms: C1_2  and  N7_29 
REMARK    2  A    between atoms: C2_3  and  N1_4 
REMARK    3  A    between atoms: C3_7  and  C4_8 
REMARK    4  A    between atoms: C12_16  and  N3_17 
REMARK    5  A    between atoms: N3_17  and  C13_19 
REMARK    6  A    between atoms: C13_19  and  C14_20 
REMARK    7  A    between atoms: C14_20  and  C15_21 
REMARK    8  A    between atoms: C15_21  and  N4_22 
REMARK    9  A    between atoms: N7_29  and  C18_31 
REMARK   10  A    between atoms: C18_31  and  C19_32 
REMARK   11  A    between atoms: C19_32  and  C20_33 
REMARK   12  A    between atoms: C20_33  and  O3_35 
REMARK   13  A    between atoms: O3_35  and  C21_36 
ROOT
HETATM    1  N1  UNL     1       8.157 -14.012  10.896  1.00  0.00    -0.268 N 
HETATM    2  N2  UNL     1       7.059 -13.444  11.351  1.00  0.00    -0.296 N 
ATOM      3  H2  UNL     1       6.464 -13.973  11.988  1.00  0.00     0.187 HD
HETATM    4  C3  UNL     1       6.687 -12.199  11.014  1.00  0.00     0.058 A 
HETATM    5  C10 UNL     1       7.530 -11.537  10.152  1.00  0.00     0.035 A 
HETATM    6  C11 UNL     1       8.698 -12.118   9.655  1.00  0.00     0.052 A 
HETATM    7  C12 UNL     1       9.022 -13.387  10.035  1.00  0.00     0.118 A 
ENDROOT
BRANCH   1   8
HETATM    8  C2  UNL     1       8.473 -15.356  11.315  1.00  0.00     0.253 C 
BRANCH   8   9
HETATM    9  C1  UNL     1       8.476 -15.490  12.796  1.00  0.00     0.237 C 
HETATM   10  O1  UNL     1       8.794 -14.489  13.463  1.00  0.00    -0.272 OA
HETATM   11  N7  UNL     1       8.134 -16.698  13.412  1.00  0.00    -0.359 N 
ATOM     12  H7  UNL     1       7.881 -17.497  12.832  1.00  0.00     0.162 HD
BRANCH  11  13
HETATM   13  C18 UNL     1       8.129 -16.839  14.830  1.00  0.00     0.132 C 
BRANCH  13  14
HETATM   14  C19 UNL     1       9.350 -17.487  15.405  1.00  0.00     0.131 C 
BRANCH  14  15
HETATM   15  C20 UNL     1      10.237 -16.420  15.984  1.00  0.00     0.265 C 
HETATM   16  O2  UNL     1      11.474 -16.488  15.921  1.00  0.00    -0.265 OA
BRANCH  15  17
HETATM   17  O3  UNL     1       9.679 -15.317  16.614  1.00  0.00    -0.279 OA
BRANCH  17  18
HETATM   18  C21 UNL     1       9.769 -15.180  17.996  1.00  0.00     0.079 A 
HETATM   19  C22 UNL     1      10.063 -13.947  18.532  1.00  0.00     0.039 A 
HETATM   20  C23 UNL     1      10.168 -13.739  19.907  1.00  0.00     0.026 A 
HETATM   21  C24 UNL     1       9.972 -14.803  20.779  1.00  0.00     0.034 A 
HETATM   22 CL1  UNL     1      10.103 -14.554  22.517  1.00  0.00    -0.084 Cl
HETATM   23  C25 UNL     1       9.680 -16.030  20.230  1.00  0.00     0.026 A 
HETATM   24  C26 UNL     1       9.577 -16.231  18.869  1.00  0.00     0.039 A 
ENDBRANCH  17  18
ENDBRANCH  15  17
ENDBRANCH  14  15
ENDBRANCH  13  14
ENDBRANCH  11  13
ENDBRANCH   8   9
ENDBRANCH   1   8
BRANCH   7  25
HETATM   25  N3  UNL     1      10.068 -14.010   9.638  1.00  0.00    -0.375 N 
ATOM     26  H3  UNL     1      10.675 -14.346  10.385  1.00  0.00     0.161 HD
BRANCH  25  27
HETATM   27  C13 UNL     1      10.515 -14.306   8.337  1.00  0.00     0.123 C 
BRANCH  27  28
HETATM   28  C14 UNL     1       9.367 -14.850   7.467  1.00  0.00     0.041 C 
BRANCH  28  29
HETATM   29  C15 UNL     1       9.346 -14.002   6.232  1.00  0.00     0.151 C 
BRANCH  29  30
HETATM   30  N4  UNL     1       8.305 -12.987   6.265  1.00  0.00    -0.287 N 
HETATM   31  C16 UNL     1       8.526 -11.710   5.902  1.00  0.00     0.201 A 
HETATM   32  N5  UNL     1       7.398 -11.030   6.038  1.00  0.00    -0.346 N 
HETATM   33  C17 UNL     1       6.476 -11.887   6.487  1.00  0.00     0.198 A 
ATOM     34  H5  UNL     1       7.259 -10.038   5.839  1.00  0.00     0.167 HD
HETATM   35  N6  UNL     1       7.054 -13.087   6.621  1.00  0.00    -0.293 N 
ATOM     36  H6  UNL     1       6.594 -13.937   6.946  1.00  0.00     0.188 HD
ENDBRANCH  29  30
ENDBRANCH  28  29
ENDBRANCH  27  28
ENDBRANCH  25  27
ENDBRANCH   7  25
BRANCH   4  37
HETATM   37  C4  UNL     1       5.460 -11.652  11.566  1.00  0.00    -0.008 A 
HETATM   38  C5  UNL     1       5.511 -10.570  12.418  1.00  0.00     0.014 A 
HETATM   39  C6  UNL     1       4.359 -10.031  12.956  1.00  0.00     0.001 A 
HETATM   40  C7  UNL     1       3.107 -10.539  12.674  1.00  0.00     0.000 A 
HETATM   41  C8  UNL     1       3.044 -11.621  11.823  1.00  0.00     0.001 A 
HETATM   42  C9  UNL     1       4.215 -12.162  11.282  1.00  0.00     0.014 A 
ENDBRANCH   4  37
TORSDOF 13
ENDMDL
MODEL 3
REMARK VINA RESULT: -9.160431093      3.861      8.529
REMARK  13 active torsions:
REMARK  status: ('A' for Active; 'I' for Inactive)
REMARK    1  A    between atoms: C1_2  and  C2_3 
REMARK       I    between atoms: C1_2  and  N7_29 
REMARK    2  A    between atoms: C2_3  and  N1_4 
REMARK    3  A    between atoms: C3_7  and  C4_8 
REMARK    4  A    between atoms: C12_16  and  N3_17 
REMARK    5  A    between atoms: N3_17  and  C13_19 
REMARK    6  A    between atoms: C13_19  and  C14_20 
REMARK    7  A    between atoms: C14_20  and  C15_21 
REMARK    8  A    between atoms: C15_21  and  N4_22 
REMARK    9  A    between atoms: N7_29  and  C18_31 
REMARK   10  A    between atoms: C18_31  and  C19_32 
REMARK   11  A    between atoms: C19_32  and  C20_33 
REMARK   12  A    between atoms: C20_33  and  O3_35 
REMARK   13  A    between atoms: O3_35  and  C21_36 
ROOT
HETATM    1  N1  UNL     1       8.130 -14.053  10.895  1.00  0.00    -0.268 N 
HETATM    2  N2  UNL     1       7.034 -13.484  11.351  1.00  0.00    -0.296 N 
ATOM      3  H2  UNL     1       6.430 -14.019  11.974  1.00  0.00     0.187 HD
HETATM    4  C3  UNL     1       6.675 -12.230  11.033  1.00  0.00     0.058 A 
HETATM    5  C10 UNL     1       7.529 -11.560  10.189  1.00  0.00     0.035 A 
HETATM    6  C11 UNL     1       8.697 -12.142   9.691  1.00  0.00     0.052 A 
HETATM    7  C12 UNL     1       9.008 -13.421  10.052  1.00  0.00     0.118 A 
ENDROOT
BRANCH   1   8
HETATM    8  C2  UNL     1       8.432 -15.406  11.294  1.00  0.00     0.253 C 
BRANCH   8   9
HETATM    9  C1  UNL     1       8.359 -15.582  12.768  1.00  0.00     0.237 C 
HETATM   10  O1  UNL     1       8.527 -14.572  13.475  1.00  0.00    -0.272 OA
HETATM   11  N7  UNL     1       8.109 -16.835  13.334  1.00  0.00    -0.359 N 
ATOM     12  H7  UNL     1       7.978 -17.640  12.722  1.00  0.00     0.162 HD
BRANCH  11  13
HETATM   13  C18 UNL     1       8.032 -17.016  14.746  1.00  0.00     0.132 C 
BRANCH  13  14
HETATM   14  C19 UNL     1       8.890 -18.114  15.290  1.00  0.00     0.131 C 
BRANCH  14  15
HETATM   15  C20 UNL     1       9.095 -17.884  16.762  1.00  0.00     0.265 C 
HETATM   16  O2  UNL     1       8.264 -18.254  17.607  1.00  0.00    -0.265 OA
BRANCH  15  17
HETATM   17  O3  UNL     1      10.237 -17.241  17.214  1.00  0.00    -0.279 OA
BRANCH  17  18
HETATM   18  C21 UNL     1      10.282 -15.851  17.272  1.00  0.00     0.079 A 
HETATM   19  C22 UNL     1      10.742 -15.148  16.182  1.00  0.00     0.039 A 
HETATM   20  C23 UNL     1      10.814 -13.756  16.171  1.00  0.00     0.026 A 
HETATM   21  C24 UNL     1      10.411 -13.039  17.291  1.00  0.00     0.034 A 
HETATM   22 CL1  UNL     1      10.497 -11.280  17.291  1.00  0.00    -0.084 Cl
HETATM   23  C25 UNL     1       9.954 -13.754  18.373  1.00  0.00     0.026 A 
HETATM   24  C26 UNL     1       9.885 -15.132  18.379  1.00  0.00     0.039 A 
ENDBRANCH  17  18
ENDBRANCH  15  17
ENDBRANCH  14  15
ENDBRANCH  13  14
ENDBRANCH  11  13
ENDBRANCH   8   9
ENDBRANCH   1   8
BRANCH   7  25
HETATM   25  N3  UNL     1      10.052 -14.045   9.652  1.00  0.00    -0.375 N 
ATOM     26  H3  UNL     1      10.614 -14.458  10.396  1.00  0.00     0.161 HD
BRANCH  25  27
HETATM   27  C13 UNL     1      10.550 -14.253   8.352  1.00  0.00     0.123 C 
BRANCH  27  28
HETATM   28  C14 UNL     1       9.480 -14.889   7.446  1.00  0.00     0.041 C 
BRANCH  28  29
HETATM   29  C15 UNL     1       9.438 -14.050   6.205  1.00  0.00     0.151 C 
BRANCH  29  30
HETATM   30  N4  UNL     1       8.405 -13.027   6.253  1.00  0.00    -0.287 N 
HETATM   31  C16 UNL     1       8.639 -11.744   5.922  1.00  0.00     0.201 A 
HETATM   32  N5  UNL     1       7.516 -11.057   6.065  1.00  0.00    -0.346 N 
HETATM   33  C17 UNL     1       6.584 -11.917   6.486  1.00  0.00     0.198 A 
ATOM     34  H5  UNL     1       7.387 -10.060   5.887  1.00  0.00     0.167 HD
HETATM   35  N6  UNL     1       7.150 -13.125   6.596  1.00  0.00    -0.293 N 
ATOM     36  H6  UNL     1       6.680 -13.978   6.897  1.00  0.00     0.188 HD
ENDBRANCH  29  30
ENDBRANCH  28  29
ENDBRANCH  27  28
ENDBRANCH  25  27
ENDBRANCH   7  25
BRANCH   4  37
HETATM   37  C4  UNL     1       5.448 -11.683  11.584  1.00  0.00    -0.008 A 
HETATM   38  C5  UNL     1       5.503 -10.635  12.478  1.00  0.00     0.014 A 
HETATM   39  C6  UNL     1       4.351 -10.097  13.016  1.00  0.00     0.001 A 
HETATM   40  C7  UNL     1       3.095 -10.571  12.694  1.00  0.00     0.000 A 
HETATM   41  C8  UNL     1       3.028 -11.619  11.801  1.00  0.00     0.001 A 
HETATM   42  C9  UNL     1       4.199 -12.160  11.259  1.00  0.00     0.014 A 
ENDBRANCH   4  37
TORSDOF 13
ENDMDL
MODEL 4
REMARK VINA RESULT: -9.086133987      3.989      8.464
REMARK  13 active torsions:
REMARK  status: ('A' for Active; 'I' for Inactive)
REMARK    1  A    between atoms: C1_2  and  C2_3 
REMARK       I    between atoms: C1_2  and  N7_29 
REMARK    2  A    between atoms: C2_3  and  N1_4 
REMARK    3  A    between atoms: C3_7  and  C4_8 
REMARK    4  A    between atoms: C12_16  and  N3_17 
REMARK    5  A    between atoms: N3_17  and  C13_19 
REMARK    6  A    between atoms: C13_19  and  C14_20 
REMARK    7  A    between atoms: C14_20  and  C15_21 
REMARK    8  A    between atoms: C15_21  and  N4_22 
REMARK    9  A    between atoms: N7_29  and  C18_31 
REMARK   10  A    between atoms: C18_31  and  C19_32 
REMARK   11  A    between atoms: C19_32  and  C20_33 
REMARK   12  A    between atoms: C20_33  and  O3_35 
REMARK   13  A    between atoms: O3_35  and  C21_36 
ROOT
HETATM    1  N1  UNL     1       6.400 -13.227  10.285  1.00  0.00    -0.268 N 
HETATM    2  N2  UNL     1       5.938 -12.474  11.263  1.00  0.00    -0.296 N 
ATOM      3  H2  UNL     1       6.275 -12.645  12.209  1.00  0.00     0.187 HD
HETATM    4  C3  UNL     1       5.042 -11.494  11.069  1.00  0.00     0.058 A 
HETATM    5  C10 UNL     1       4.626 -11.313   9.771  1.00  0.00     0.035 A 
HETATM    6  C11 UNL     1       5.100 -12.097   8.717  1.00  0.00     0.052 A 
HETATM    7  C12 UNL     1       6.010 -13.080   8.978  1.00  0.00     0.118 A 
ENDROOT
BRANCH   1   8
HETATM    8  C2  UNL     1       7.362 -14.257  10.591  1.00  0.00     0.253 C 
BRANCH   8   9
HETATM    9  C1  UNL     1       8.641 -13.692  11.094  1.00  0.00     0.237 C 
HETATM   10  O1  UNL     1       8.892 -12.505  10.820  1.00  0.00    -0.272 OA
HETATM   11  N7  UNL     1       9.527 -14.469  11.847  1.00  0.00    -0.359 N 
ATOM     12  H7  UNL     1       9.288 -15.440  12.050  1.00  0.00     0.162 HD
BRANCH  11  13
HETATM   13  C18 UNL     1      10.755 -13.939  12.339  1.00  0.00     0.132 C 
BRANCH  13  14
HETATM   14  C19 UNL     1      10.663 -13.260  13.669  1.00  0.00     0.131 C 
BRANCH  14  15
HETATM   15  C20 UNL     1      11.025 -14.249  14.742  1.00  0.00     0.265 C 
HETATM   16  O2  UNL     1      11.373 -13.889  15.878  1.00  0.00    -0.265 OA
BRANCH  15  17
HETATM   17  O3  UNL     1      10.976 -15.610  14.480  1.00  0.00    -0.279 OA
BRANCH  17  18
HETATM   18  C21 UNL     1      10.096 -16.428  15.184  1.00  0.00     0.079 A 
HETATM   19  C22 UNL     1       8.762 -16.425  14.848  1.00  0.00     0.039 A 
HETATM   20  C23 UNL     1       7.826 -17.218  15.509  1.00  0.00     0.026 A 
HETATM   21  C24 UNL     1       8.238 -18.046  16.547  1.00  0.00     0.034 A 
HETATM   22 CL1  UNL     1       7.067 -19.052  17.392  1.00  0.00    -0.084 Cl
HETATM   23  C25 UNL     1       9.575 -18.039  16.873  1.00  0.00     0.026 A 
HETATM   24  C26 UNL     1      10.497 -17.252  16.215  1.00  0.00     0.039 A 
ENDBRANCH  17  18
ENDBRANCH  15  17
ENDBRANCH  14  15
ENDBRANCH  13  14
ENDBRANCH  11  13
ENDBRANCH   8   9
ENDBRANCH   1   8
BRANCH   7  25
HETATM   25  N3  UNL     1       6.506 -13.853   8.086  1.00  0.00    -0.375 N 
ATOM     26  H3  UNL     1       7.004 -14.664   8.453  1.00  0.00     0.161 HD
BRANCH  25  27
HETATM   27  C13 UNL     1       6.476 -13.764   6.682  1.00  0.00     0.123 C 
BRANCH  27  28
HETATM   28  C14 UNL     1       7.619 -14.579   6.051  1.00  0.00     0.041 C 
BRANCH  28  29
HETATM   29  C15 UNL     1       8.517 -14.977   7.183  1.00  0.00     0.151 C 
BRANCH  29  30
HETATM   30  N4  UNL     1       9.915 -14.668   6.927  1.00  0.00    -0.287 N 
HETATM   31  C16 UNL     1      10.674 -13.969   7.791  1.00  0.00     0.201 A 
HETATM   32  N5  UNL     1      11.891 -13.849   7.286  1.00  0.00    -0.346 N 
HETATM   33  C17 UNL     1      11.888 -14.474   6.105  1.00  0.00     0.198 A 
ATOM     34  H5  UNL     1      12.683 -13.369   7.716  1.00  0.00     0.167 HD
HETATM   35  N6  UNL     1      10.662 -14.972   5.902  1.00  0.00    -0.293 N 
ATOM     36  H6  UNL     1      10.361 -15.501   5.082  1.00  0.00     0.188 HD
ENDBRANCH  29  30
ENDBRANCH  28  29
ENDBRANCH  27  28
ENDBRANCH  25  27
ENDBRANCH   7  25
BRANCH   4  37
HETATM   37  C4  UNL     1       4.589 -10.713  12.206  1.00  0.00    -0.008 A 
HETATM   38  C5  UNL     1       5.416  -9.760  12.761  1.00  0.00     0.014 A 
HETATM   39  C6  UNL     1       5.008  -9.005  13.843  1.00  0.00     0.001 A 
HETATM   40  C7  UNL     1       3.765  -9.160  14.424  1.00  0.00     0.000 A 
HETATM   41  C8  UNL     1       2.930 -10.111  13.877  1.00  0.00     0.001 A 
HETATM   42  C9  UNL     1       3.349 -10.872  12.781  1.00  0.00     0.014 A 
ENDBRANCH   4  37
TORSDOF 13
ENDMDL
MODEL 5
REMARK VINA RESULT: -9.001234154      1.740      2.083
REMARK  13 active torsions:
REMARK  status: ('A' for Active; 'I' for Inactive)
REMARK    1  A    between atoms: C1_2  and  C2_3 
REMARK       I    between atoms: C1_2  and  N7_29 
REMARK    2  A    between atoms: C2_3  and  N1_4 
REMARK    3  A    between atoms: C3_7  and  C4_8 
REMARK    4  A    between atoms: C12_16  and  N3_17 
REMARK    5  A    between atoms: N3_17  and  C13_19 
REMARK    6  A    between atoms: C13_19  and  C14_20 
REMARK    7  A    between atoms: C14_20  and  C15_21 
REMARK    8  A    between atoms: C15_21  and  N4_22 
REMARK    9  A    between atoms: N7_29  and  C18_31 
REMARK   10  A    between atoms: C18_31  and  C19_32 
REMARK   11  A    between atoms: C19_32  and  C20_33 
REMARK   12  A    between atoms: C20_33  and  O3_35 
REMARK   13  A    between atoms: O3_35  and  C21_36 
ROOT
HETATM    1  N1  UNL     1       9.457 -15.002  12.135  1.00  0.00    -0.268 N 
HETATM    2  N2  UNL     1       9.236 -15.546  13.315  1.00  0.00    -0.296 N 
ATOM      3  H2  UNL     1       8.388 -16.096  13.446  1.00  0.00     0.187 HD
HETATM    4  C3  UNL     1      10.077 -15.408  14.351  1.00  0.00     0.058 A 
HETATM    5  C10 UNL     1      11.202 -14.655  14.112  1.00  0.00     0.035 A 
HETATM    6  C11 UNL     1      11.458 -14.068  12.871  1.00  0.00     0.052 A 
HETATM    7  C12 UNL     1      10.565 -14.244  11.856  1.00  0.00     0.118 A 
ENDROOT
BRANCH   1   8
HETATM    8  C2  UNL     1       8.494 -15.206  11.081  1.00  0.00     0.253 C 
BRANCH   8   9
HETATM    9  C1  UNL     1       7.433 -14.165  11.086  1.00  0.00     0.237 C 
HETATM   10  O1  UNL     1       7.225 -13.562  12.155  1.00  0.00    -0.272 OA
HETATM   11  N7  UNL     1       6.698 -13.876   9.932  1.00  0.00    -0.359 N 
ATOM     12  H7  UNL     1       6.896 -14.393   9.075  1.00  0.00     0.162 HD
BRANCH  11  13
HETATM   13  C18 UNL     1       5.681 -12.878   9.923  1.00  0.00     0.132 C 
BRANCH  13  14
HETATM   14  C19 UNL     1       5.215 -12.462   8.563  1.00  0.00     0.131 C 
BRANCH  14  15
HETATM   15  C20 UNL     1       6.142 -11.401   8.037  1.00  0.00     0.265 C 
HETATM   16  O2  UNL     1       7.311 -11.292   8.439  1.00  0.00    -0.265 OA
BRANCH  15  17
HETATM   17  O3  UNL     1       5.701 -10.505   7.075  1.00  0.00    -0.279 OA
BRANCH  17  18
HETATM   18  C21 UNL     1       4.869 -10.937   6.046  1.00  0.00     0.079 A 
HETATM   19  C22 UNL     1       5.413 -11.629   4.988  1.00  0.00     0.039 A 
HETATM   20  C23 UNL     1       4.639 -12.091   3.924  1.00  0.00     0.026 A 
HETATM   21  C24 UNL     1       3.270 -11.851   3.916  1.00  0.00     0.034 A 
HETATM   22 CL1  UNL     1       2.281 -12.428   2.578  1.00  0.00    -0.084 Cl
HETATM   23  C25 UNL     1       2.739 -11.158   4.979  1.00  0.00     0.026 A 
HETATM   24  C26 UNL     1       3.510 -10.703   6.029  1.00  0.00     0.039 A 
ENDBRANCH  17  18
ENDBRANCH  15  17
ENDBRANCH  14  15
ENDBRANCH  13  14
ENDBRANCH  11  13
ENDBRANCH   8   9
ENDBRANCH   1   8
BRANCH   7  25
HETATM   25  N3  UNL     1      10.705 -13.749  10.683  1.00  0.00    -0.375 N 
ATOM     26  H3  UNL     1      11.031 -14.409   9.977  1.00  0.00     0.161 HD
BRANCH  25  27
HETATM   27  C13 UNL     1      10.482 -12.442  10.211  1.00  0.00     0.123 C 
BRANCH  27  28
HETATM   28  C14 UNL     1      10.416 -12.413   8.673  1.00  0.00     0.041 C 
BRANCH  28  29
HETATM   29  C15 UNL     1      10.022 -13.795   8.250  1.00  0.00     0.151 C 
BRANCH  29  30
HETATM   30  N4  UNL     1      10.814 -14.289   7.135  1.00  0.00    -0.287 N 
HETATM   31  C16 UNL     1      10.268 -14.928   6.084  1.00  0.00     0.201 A 
HETATM   32  N5  UNL     1      11.233 -15.255   5.238  1.00  0.00    -0.346 N 
HETATM   33  C17 UNL     1      12.380 -14.819   5.767  1.00  0.00     0.198 A 
ATOM     34  H5  UNL     1      11.122 -15.748   4.351  1.00  0.00     0.167 HD
HETATM   35  N6  UNL     1      12.101 -14.227   6.935  1.00  0.00    -0.293 N 
ATOM     36  H6  UNL     1      12.782 -13.799   7.563  1.00  0.00     0.188 HD
ENDBRANCH  29  30
ENDBRANCH  28  29
ENDBRANCH  27  28
ENDBRANCH  25  27
ENDBRANCH   7  25
BRANCH   4  37
HETATM   37  C4  UNL     1       9.753 -16.045  15.616  1.00  0.00    -0.008 A 
HETATM   38  C5  UNL     1       8.700 -16.930  15.691  1.00  0.00     0.014 A 
HETATM   39  C6  UNL     1       8.371 -17.548  16.881  1.00  0.00     0.001 A 
HETATM   40  C7  UNL     1       9.070 -17.316  18.049  1.00  0.00     0.000 A 
HETATM   41  C8  UNL     1      10.125 -16.433  17.986  1.00  0.00     0.001 A 
HETATM   42  C9  UNL     1      10.453 -15.810  16.776  1.00  0.00     0.014 A 
ENDBRANCH   4  37
TORSDOF 13
ENDMDL
