MODEL 1
REMARK VINA RESULT: -8.694325738      0.000      0.000
REMARK  11 active torsions:
REMARK  status: ('A' for Active; 'I' for Inactive)
REMARK    1  A    between atoms: O1_2  and  C2_3 
REMARK    2  A    between atoms: C5_6  and  C6_7 
REMARK    3  A    between atoms: C6_7  and  N1_8 
REMARK    4  A    between atoms: C8_10  and  C9_11 
REMARK    5  A    between atoms: C9_11  and  C10_12 
REMARK    6  A    between atoms: C10_12  and  O2_13 
REMARK    7  A    between atoms: O2_13  and  C11_14 
REMARK    8  A    between atoms: C11_14  and  C12_15 
REMARK    9  A    between atoms: C12_15  and  N2_16 
REMARK   10  A    between atoms: N4_25  and  C17_26 
REMARK   11  A    between atoms: C17_26  and  C18_27 
ROOT
HETATM    1  N1  UNL     1       9.989 -15.046  13.072  1.00  0.00    -0.303 N 
HETATM    2  C7  UNL     1       8.721 -15.002  12.665  1.00  0.00     0.121 A 
HETATM    3  C8  UNL     1       8.564 -14.063  11.628  1.00  0.00     0.034 A 
HETATM    4  N4  UNL     1       9.788 -13.549  11.436  1.00  0.00    -0.298 N 
HETATM    5  C24 UNL     1      10.633 -14.149  12.307  1.00  0.00     0.329 A 
HETATM    6  O5  UNL     1      11.859 -13.925  12.416  1.00  0.00    -0.246 OA
ENDROOT
BRANCH   3   7
HETATM    7  C9  UNL     1       7.270 -13.794  10.941  1.00  0.00     0.085 C 
BRANCH   7   8
HETATM    8  C10 UNL     1       6.860 -12.386  11.326  1.00  0.00     0.173 C 
BRANCH   8   9
HETATM    9  O2  UNL     1       6.625 -11.576  10.232  1.00  0.00    -0.389 OA
BRANCH   9  10
HETATM   10  C11 UNL     1       6.109 -12.227   9.140  1.00  0.00     0.188 C 
BRANCH  10  11
HETATM   11  C12 UNL     1       5.633 -11.162   8.159  1.00  0.00     0.159 C 
BRANCH  11  12
HETATM   12  N2  UNL     1       5.843 -11.532   6.794  1.00  0.00    -0.308 N 
HETATM   13  C13 UNL     1       5.983 -12.823   6.444  1.00  0.00     0.101 A 
HETATM   14  C14 UNL     1       6.188 -13.202   5.120  1.00  0.00     0.092 A 
HETATM   15  C15 UNL     1       6.255 -12.252   4.123  1.00  0.00     0.250 A 
HETATM   16  O3  UNL     1       6.440 -12.554   2.910  1.00  0.00    -0.268 OA
HETATM   17  N3  UNL     1       6.110 -10.962   4.514  1.00  0.00    -0.275 N 
HETATM   18  C16 UNL     1       5.912 -10.624   5.800  1.00  0.00     0.329 A 
ATOM     19  H3  UNL     1       6.152 -10.225   3.810  1.00  0.00     0.173 HD
HETATM   20  O4  UNL     1       5.788  -9.386   6.062  1.00  0.00    -0.246 OA
ENDBRANCH  11  12
ENDBRANCH  10  11
ENDBRANCH   9  10
ENDBRANCH   8   9
ENDBRANCH   7   8
ENDBRANCH   3   7
BRANCH   4  21
HETATM   21  C17 UNL     1      10.155 -12.519  10.480  1.00  0.00     0.172 C 
BRANCH  21  22
HETATM   22  C18 UNL     1      10.053 -12.921   9.073  1.00  0.00    -0.040 A 
HETATM   23  C19 UNL     1      10.350 -14.169   8.592  1.00  0.00     0.010 A 
HETATM   24  C20 UNL     1      10.241 -14.501   7.240  1.00  0.00     0.024 A 
HETATM   25  C21 UNL     1       9.822 -13.548   6.357  1.00  0.00     0.034 A 
HETATM   26 CL1  UNL     1       9.683 -13.959   4.649  1.00  0.00    -0.084 Cl
HETATM   27  C22 UNL     1       9.515 -12.293   6.777  1.00  0.00     0.024 A 
HETATM   28  C23 UNL     1       9.629 -11.985   8.122  1.00  0.00     0.010 A 
ENDBRANCH  21  22
ENDBRANCH   4  21
BRANCH   1  29
HETATM   29  C6  UNL     1      10.584 -15.873  14.112  1.00  0.00     0.171 C 
BRANCH  29  30
HETATM   30  C5  UNL     1      10.458 -15.236  15.448  1.00  0.00    -0.040 A 
HETATM   31  C4  UNL     1      10.020 -15.983  16.535  1.00  0.00     0.011 A 
HETATM   32  C3  UNL     1       9.894 -15.416  17.790  1.00  0.00     0.037 A 
HETATM   33  C2  UNL     1      10.196 -14.098  18.002  1.00  0.00     0.068 A 
HETATM   34  C26 UNL     1      10.631 -13.340  16.936  1.00  0.00     0.037 A 
HETATM   35  C25 UNL     1      10.755 -13.915  15.686  1.00  0.00     0.011 A 
BRANCH  33  36
HETATM   36  O1  UNL     1      10.082 -13.487  19.250  1.00  0.00    -0.356 OA
HETATM   37  C1  UNL     1       9.979 -14.261  20.407  1.00  0.00     0.210 C 
ENDBRANCH  33  36
ENDBRANCH  29  30
ENDBRANCH   1  29
TORSDOF 11
ENDMDL
MODEL 2
REMARK VINA RESULT: -8.683637436      2.134      3.375
REMARK  11 active torsions:
REMARK  status: ('A' for Active; 'I' for Inactive)
REMARK    1  A    between atoms: O1_2  and  C2_3 
REMARK    2  A    between atoms: C5_6  and  C6_7 
REMARK    3  A    between atoms: C6_7  and  N1_8 
REMARK    4  A    between atoms: C8_10  and  C9_11 
REMARK    5  A    between atoms: C9_11  and  C10_12 
REMARK    6  A    between atoms: C10_12  and  O2_13 
REMARK    7  A    between atoms: O2_13  and  C11_14 
REMARK    8  A    between atoms: C11_14  and  C12_15 
REMARK    9  A    between atoms: C12_15  and  N2_16 
REMARK   10  A    between atoms: N4_25  and  C17_26 
REMARK   11  A    between atoms: C17_26  and  C18_27 
ROOT
HETATM    1  N1  UNL     1       8.084 -14.741  10.458  1.00  0.00    -0.303 N 
HETATM    2  C7  UNL     1       7.191 -13.754  10.535  1.00  0.00     0.121 A 
HETATM    3  C8  UNL     1       7.177 -13.002   9.345  1.00  0.00     0.034 A 
HETATM    4  N4  UNL     1       8.097 -13.580   8.557  1.00  0.00    -0.298 N 
HETATM    5  C24 UNL     1       8.631 -14.622   9.237  1.00  0.00     0.329 A 
HETATM    6  O5  UNL     1       9.520 -15.396   8.817  1.00  0.00    -0.246 OA
ENDROOT
BRANCH   3   7
HETATM    7  C9  UNL     1       6.271 -11.845   9.106  1.00  0.00     0.085 C 
BRANCH   7   8
HETATM    8  C10 UNL     1       4.897 -12.421   8.827  1.00  0.00     0.173 C 
BRANCH   8   9
HETATM    9  O2  UNL     1       4.124 -11.603   8.025  1.00  0.00    -0.389 OA
BRANCH   9  10
HETATM   10  C11 UNL     1       3.696 -12.187   6.859  1.00  0.00     0.188 C 
BRANCH  10  11
HETATM   11  C12 UNL     1       3.761 -11.125   5.768  1.00  0.00     0.159 C 
BRANCH  11  12
HETATM   12  N2  UNL     1       4.915 -11.255   4.935  1.00  0.00    -0.308 N 
HETATM   13  C13 UNL     1       4.891 -12.044   3.845  1.00  0.00     0.101 A 
HETATM   14  C14 UNL     1       6.004 -12.184   3.021  1.00  0.00     0.092 A 
HETATM   15  C15 UNL     1       7.174 -11.511   3.305  1.00  0.00     0.250 A 
HETATM   16  O3  UNL     1       8.207 -11.611   2.584  1.00  0.00    -0.268 OA
HETATM   17  N3  UNL     1       7.160 -10.726   4.411  1.00  0.00    -0.275 N 
HETATM   18  C16 UNL     1       6.070 -10.609   5.189  1.00  0.00     0.329 A 
ATOM     19  H3  UNL     1       8.003 -10.209   4.660  1.00  0.00     0.173 HD
HETATM   20  O4  UNL     1       6.160  -9.848   6.204  1.00  0.00    -0.246 OA
ENDBRANCH  11  12
ENDBRANCH  10  11
ENDBRANCH   9  10
ENDBRANCH   8   9
ENDBRANCH   7   8
ENDBRANCH   3   7
BRANCH   4  21
HETATM   21  C17 UNL     1       8.476 -13.163   7.219  1.00  0.00     0.172 C 
BRANCH  21  22
HETATM   22  C18 UNL     1       7.949 -14.004   6.139  1.00  0.00    -0.040 A 
HETATM   23  C19 UNL     1       6.673 -14.498   6.084  1.00  0.00     0.010 A 
HETATM   24  C20 UNL     1       6.220 -15.299   5.036  1.00  0.00     0.024 A 
HETATM   25  C21 UNL     1       7.079 -15.607   4.019  1.00  0.00     0.034 A 
HETATM   26 CL1  UNL     1       6.514 -16.618   2.691  1.00  0.00    -0.084 Cl
HETATM   27  C22 UNL     1       8.356 -15.145   4.021  1.00  0.00     0.024 A 
HETATM   28  C23 UNL     1       8.785 -14.351   5.072  1.00  0.00     0.010 A 
ENDBRANCH  21  22
ENDBRANCH   4  21
BRANCH   1  29
HETATM   29  C6  UNL     1       8.418 -15.747  11.455  1.00  0.00     0.171 C 
BRANCH  29  30
HETATM   30  C5  UNL     1       9.175 -15.156  12.588  1.00  0.00    -0.040 A 
HETATM   31  C4  UNL     1      10.357 -14.466  12.350  1.00  0.00     0.011 A 
HETATM   32  C3  UNL     1      11.082 -13.904  13.385  1.00  0.00     0.037 A 
HETATM   33  C2  UNL     1      10.657 -14.012  14.682  1.00  0.00     0.068 A 
HETATM   34  C26 UNL     1       9.486 -14.694  14.940  1.00  0.00     0.037 A 
HETATM   35  C25 UNL     1       8.769 -15.250  13.899  1.00  0.00     0.011 A 
BRANCH  33  36
HETATM   36  O1  UNL     1      11.356 -13.463  15.756  1.00  0.00    -0.356 OA
HETATM   37  C1  UNL     1      10.668 -12.935  16.849  1.00  0.00     0.210 C 
ENDBRANCH  33  36
ENDBRANCH  29  30
ENDBRANCH   1  29
TORSDOF 11
ENDMDL
MODEL 3
REMARK VINA RESULT: -8.646947509      1.789      2.507
REMARK  11 active torsions:
REMARK  status: ('A' for Active; 'I' for Inactive)
REMARK    1  A    between atoms: O1_2  and  C2_3 
REMARK    2  A    between atoms: C5_6  and  C6_7 
REMARK    3  A    between atoms: C6_7  and  N1_8 
REMARK    4  A    between atoms: C8_10  and  C9_11 
REMARK    5  A    between atoms: C9_11  and  C10_12 
REMARK    6  A    between atoms: C10_12  and  O2_13 
REMARK    7  A    between atoms: O2_13  and  C11_14 
REMARK    8  A    between atoms: C11_14  and  C12_15 
REMARK    9  A    between atoms: C12_15  and  N2_16 
REMARK   10  A    between atoms: N4_25  and  C17_26 
REMARK   11  A    between atoms: C17_26  and  C18_27 
ROOT
HETATM    1  N1  UNL     1       9.670 -13.015  11.239  1.00  0.00    -0.303 N 
HETATM    2  C7  UNL     1       8.396 -13.368  11.414  1.00  0.00     0.121 A 
HETATM    3  C8  UNL     1       7.622 -13.007  10.293  1.00  0.00     0.034 A 
HETATM    4  N4  UNL     1       8.486 -12.426   9.447  1.00  0.00    -0.298 N 
HETATM    5  C24 UNL     1       9.709 -12.439  10.026  1.00  0.00     0.329 A 
HETATM    6  O5  UNL     1      10.764 -11.984   9.529  1.00  0.00    -0.246 OA
ENDROOT
BRANCH   3   7
HETATM    7  C9  UNL     1       6.165 -13.286  10.168  1.00  0.00     0.085 C 
BRANCH   7   8
HETATM    8  C10 UNL     1       5.443 -12.055  10.679  1.00  0.00     0.173 C 
BRANCH   8   9
HETATM    9  O2  UNL     1       4.980 -11.242   9.663  1.00  0.00    -0.389 OA
BRANCH   9  10
HETATM   10  C11 UNL     1       4.464 -11.915   8.585  1.00  0.00     0.188 C 
BRANCH  10  11
HETATM   11  C12 UNL     1       4.283 -10.902   7.460  1.00  0.00     0.159 C 
BRANCH  11  12
HETATM   12  N2  UNL     1       5.041 -11.227   6.293  1.00  0.00    -0.308 N 
HETATM   13  C13 UNL     1       5.078 -12.489   5.826  1.00  0.00     0.101 A 
HETATM   14  C14 UNL     1       5.811 -12.825   4.691  1.00  0.00     0.092 A 
HETATM   15  C15 UNL     1       6.526 -11.863   4.009  1.00  0.00     0.250 A 
HETATM   16  O3  UNL     1       7.203 -12.126   2.975  1.00  0.00    -0.268 OA
HETATM   17  N3  UNL     1       6.464 -10.604   4.509  1.00  0.00    -0.275 N 
HETATM   18  C16 UNL     1       5.748 -10.307   5.608  1.00  0.00     0.329 A 
ATOM     19  H3  UNL     1       6.977  -9.860   4.037  1.00  0.00     0.173 HD
HETATM   20  O4  UNL     1       5.755  -9.096   5.995  1.00  0.00    -0.246 OA
ENDBRANCH  11  12
ENDBRANCH  10  11
ENDBRANCH   9  10
ENDBRANCH   8   9
ENDBRANCH   7   8
ENDBRANCH   3   7
BRANCH   4  21
HETATM   21  C17 UNL     1       8.175 -11.861   8.146  1.00  0.00     0.172 C 
BRANCH  21  22
HETATM   22  C18 UNL     1       8.727 -12.600   7.006  1.00  0.00    -0.040 A 
HETATM   23  C19 UNL     1       9.542 -12.063   6.045  1.00  0.00     0.010 A 
HETATM   24  C20 UNL     1      10.038 -12.808   4.975  1.00  0.00     0.024 A 
HETATM   25  C21 UNL     1       9.702 -14.128   4.876  1.00  0.00     0.034 A 
HETATM   26 CL1  UNL     1      10.324 -15.077   3.527  1.00  0.00    -0.084 Cl
HETATM   27  C22 UNL     1       8.896 -14.715   5.799  1.00  0.00     0.024 A 
HETATM   28  C23 UNL     1       8.415 -13.956   6.854  1.00  0.00     0.010 A 
ENDBRANCH  21  22
ENDBRANCH   4  21
BRANCH   1  29
HETATM   29  C6  UNL     1      10.797 -13.199  12.140  1.00  0.00     0.171 C 
BRANCH  29  30
HETATM   30  C5  UNL     1      10.440 -14.079  13.283  1.00  0.00    -0.040 A 
HETATM   31  C4  UNL     1      10.535 -13.601  14.584  1.00  0.00     0.011 A 
HETATM   32  C3  UNL     1      10.208 -14.397  15.666  1.00  0.00     0.037 A 
HETATM   33  C2  UNL     1       9.782 -15.686  15.490  1.00  0.00     0.068 A 
HETATM   34  C26 UNL     1       9.682 -16.179  14.206  1.00  0.00     0.037 A 
HETATM   35  C25 UNL     1      10.009 -15.376  13.131  1.00  0.00     0.011 A 
BRANCH  33  36
HETATM   36  O1  UNL     1       9.444 -16.523  16.552  1.00  0.00    -0.356 OA
HETATM   37  C1  UNL     1      10.194 -17.671  16.811  1.00  0.00     0.210 C 
ENDBRANCH  33  36
ENDBRANCH  29  30
ENDBRANCH   1  29
TORSDOF 11
ENDMDL
MODEL 4
REMARK VINA RESULT: -8.474212055      1.655      2.378
REMARK  11 active torsions:
REMARK  status: ('A' for Active; 'I' for Inactive)
REMARK    1  A    between atoms: O1_2  and  C2_3 
REMARK    2  A    between atoms: C5_6  and  C6_7 
REMARK    3  A    between atoms: C6_7  and  N1_8 
REMARK    4  A    between atoms: C8_10  and  C9_11 
REMARK    5  A    between atoms: C9_11  and  C10_12 
REMARK    6  A    between atoms: C10_12  and  O2_13 
REMARK    7  A    between atoms: O2_13  and  C11_14 
REMARK    8  A    between atoms: C11_14  and  C12_15 
REMARK    9  A    between atoms: C12_15  and  N2_16 
REMARK   10  A    between atoms: N4_25  and  C17_26 
REMARK   11  A    between atoms: C17_26  and  C18_27 
ROOT
HETATM    1  N1  UNL     1       8.489 -14.791  11.093  1.00  0.00    -0.303 N 
HETATM    2  C7  UNL     1       7.386 -14.273  10.552  1.00  0.00     0.121 A 
HETATM    3  C8  UNL     1       7.709 -13.438   9.465  1.00  0.00     0.034 A 
HETATM    4  N4  UNL     1       9.048 -13.479   9.382  1.00  0.00    -0.298 N 
HETATM    5  C24 UNL     1       9.501 -14.294  10.363  1.00  0.00     0.329 A 
HETATM    6  O5  UNL     1      10.699 -14.575  10.592  1.00  0.00    -0.246 OA
ENDROOT
BRANCH   3   7
HETATM    7  C9  UNL     1       6.698 -12.729   8.634  1.00  0.00     0.085 C 
BRANCH   7   8
HETATM    8  C10 UNL     1       5.821 -11.948   9.592  1.00  0.00     0.173 C 
BRANCH   8   9
HETATM    9  O2  UNL     1       4.972 -11.068   8.948  1.00  0.00    -0.389 OA
BRANCH   9  10
HETATM   10  C11 UNL     1       3.958 -11.666   8.244  1.00  0.00     0.188 C 
BRANCH  10  11
HETATM   11  C12 UNL     1       3.785 -10.886   6.945  1.00  0.00     0.159 C 
BRANCH  11  12
HETATM   12  N2  UNL     1       4.821 -11.151   5.997  1.00  0.00    -0.308 N 
HETATM   13  C13 UNL     1       4.977 -12.380   5.473  1.00  0.00     0.101 A 
HETATM   14  C14 UNL     1       5.981 -12.657   4.548  1.00  0.00     0.092 A 
HETATM   15  C15 UNL     1       6.851 -11.666   4.143  1.00  0.00     0.250 A 
HETATM   16  O3  UNL     1       7.775 -11.876   3.306  1.00  0.00    -0.268 OA
HETATM   17  N3  UNL     1       6.663 -10.442   4.693  1.00  0.00    -0.275 N 
HETATM   18  C16 UNL     1       5.685 -10.202   5.583  1.00  0.00     0.329 A 
ATOM     19  H3  UNL     1       7.283  -9.678   4.422  1.00  0.00     0.173 HD
HETATM   20  O4  UNL     1       5.593  -9.018   6.040  1.00  0.00    -0.246 OA
ENDBRANCH  11  12
ENDBRANCH  10  11
ENDBRANCH   9  10
ENDBRANCH   8   9
ENDBRANCH   7   8
ENDBRANCH   3   7
BRANCH   4  21
HETATM   21  C17 UNL     1       9.878 -12.765   8.428  1.00  0.00     0.172 C 
BRANCH  21  22
HETATM   22  C18 UNL     1      10.188 -13.511   7.203  1.00  0.00    -0.040 A 
HETATM   23  C19 UNL     1       9.340 -13.650   6.136  1.00  0.00     0.010 A 
HETATM   24  C20 UNL     1       9.681 -14.375   4.993  1.00  0.00     0.024 A 
HETATM   25  C21 UNL     1      10.907 -14.972   4.930  1.00  0.00     0.034 A 
HETATM   26 CL1  UNL     1      11.345 -15.889   3.490  1.00  0.00    -0.084 Cl
HETATM   27  C22 UNL     1      11.789 -14.869   5.958  1.00  0.00     0.024 A 
HETATM   28  C23 UNL     1      11.431 -14.144   7.083  1.00  0.00     0.010 A 
ENDBRANCH  21  22
ENDBRANCH   4  21
BRANCH   1  29
HETATM   29  C6  UNL     1       8.609 -15.698  12.224  1.00  0.00     0.171 C 
BRANCH  29  30
HETATM   30  C5  UNL     1       9.332 -15.062  13.355  1.00  0.00    -0.040 A 
HETATM   31  C4  UNL     1       8.902 -13.839  13.854  1.00  0.00     0.011 A 
HETATM   32  C3  UNL     1       9.557 -13.225  14.906  1.00  0.00     0.037 A 
HETATM   33  C2  UNL     1      10.652 -13.802  15.489  1.00  0.00     0.068 A 
HETATM   34  C26 UNL     1      11.095 -15.016  15.007  1.00  0.00     0.037 A 
HETATM   35  C25 UNL     1      10.434 -15.623  13.957  1.00  0.00     0.011 A 
BRANCH  33  36
HETATM   36  O1  UNL     1      11.341 -13.217  16.551  1.00  0.00    -0.356 OA
HETATM   37  C1  UNL     1      10.646 -12.553  17.563  1.00  0.00     0.210 C 
ENDBRANCH  33  36
ENDBRANCH  29  30
ENDBRANCH   1  29
TORSDOF 11
ENDMDL
MODEL 5
REMARK VINA RESULT: -8.464664178      3.451      9.932
REMARK  11 active torsions:
REMARK  status: ('A' for Active; 'I' for Inactive)
REMARK    1  A    between atoms: O1_2  and  C2_3 
REMARK    2  A    between atoms: C5_6  and  C6_7 
REMARK    3  A    between atoms: C6_7  and  N1_8 
REMARK    4  A    between atoms: C8_10  and  C9_11 
REMARK    5  A    between atoms: C9_11  and  C10_12 
REMARK    6  A    between atoms: C10_12  and  O2_13 
REMARK    7  A    between atoms: O2_13  and  C11_14 
REMARK    8  A    between atoms: C11_14  and  C12_15 
REMARK    9  A    between atoms: C12_15  and  N2_16 
REMARK   10  A    between atoms: N4_25  and  C17_26 
REMARK   11  A    between atoms: C17_26  and  C18_27 
ROOT
HETATM    1  N1  UNL     1       8.819 -12.479   8.700  1.00  0.00    -0.303 N 
HETATM    2  C7  UNL     1       9.304 -12.827   9.892  1.00  0.00     0.121 A 
HETATM    3  C8  UNL     1       8.259 -13.144  10.780  1.00  0.00     0.034 A 
HETATM    4  N4  UNL     1       7.134 -12.969  10.070  1.00  0.00    -0.298 N 
HETATM    5  C24 UNL     1       7.485 -12.572   8.825  1.00  0.00     0.329 A 
HETATM    6  O5  UNL     1       6.700 -12.316   7.885  1.00  0.00    -0.246 OA
ENDROOT
BRANCH   3   7
HETATM    7  C9  UNL     1       8.471 -13.594  12.184  1.00  0.00     0.085 C 
BRANCH   7   8
HETATM    8  C10 UNL     1       9.756 -14.397  12.191  1.00  0.00     0.173 C 
BRANCH   8   9
HETATM    9  O2  UNL     1       9.553 -15.734  12.474  1.00  0.00    -0.389 OA
BRANCH   9  10
HETATM   10  C11 UNL     1       8.455 -15.991  13.255  1.00  0.00     0.188 C 
BRANCH  10  11
HETATM   11  C12 UNL     1       8.745 -17.263  14.044  1.00  0.00     0.159 C 
BRANCH  11  12
HETATM   12  N2  UNL     1       8.903 -17.024  15.444  1.00  0.00    -0.308 N 
HETATM   13  C13 UNL     1      10.076 -16.589  15.940  1.00  0.00     0.101 A 
HETATM   14  C14 UNL     1      10.249 -16.350  17.301  1.00  0.00     0.092 A 
HETATM   15  C15 UNL     1       9.210 -16.556  18.185  1.00  0.00     0.250 A 
HETATM   16  O3  UNL     1       9.325 -16.352  19.426  1.00  0.00    -0.268 OA
HETATM   17  N3  UNL     1       8.045 -16.995  17.648  1.00  0.00    -0.275 N 
HETATM   18  C16 UNL     1       7.906 -17.217  16.329  1.00  0.00     0.329 A 
ATOM     19  H3  UNL     1       7.249 -17.161  18.264  1.00  0.00     0.173 HD
HETATM   20  O4  UNL     1       6.771 -17.627  15.926  1.00  0.00    -0.246 OA
ENDBRANCH  11  12
ENDBRANCH  10  11
ENDBRANCH   9  10
ENDBRANCH   8   9
ENDBRANCH   7   8
ENDBRANCH   3   7
BRANCH   4  21
HETATM   21  C17 UNL     1       5.774 -13.151  10.545  1.00  0.00     0.172 C 
BRANCH  21  22
HETATM   22  C18 UNL     1       5.178 -11.968  11.176  1.00  0.00    -0.040 A 
HETATM   23  C19 UNL     1       5.783 -11.209  12.143  1.00  0.00     0.010 A 
HETATM   24  C20 UNL     1       5.172 -10.094  12.718  1.00  0.00     0.024 A 
HETATM   25  C21 UNL     1       3.920  -9.738  12.303  1.00  0.00     0.034 A 
HETATM   26 CL1  UNL     1       3.141  -8.331  13.023  1.00  0.00    -0.084 Cl
HETATM   27  C22 UNL     1       3.272 -10.454  11.347  1.00  0.00     0.024 A 
HETATM   28  C23 UNL     1       3.897 -11.558  10.791  1.00  0.00     0.010 A 
ENDBRANCH  21  22
ENDBRANCH   4  21
BRANCH   1  29
HETATM   29  C6  UNL     1       9.545 -12.081   7.502  1.00  0.00     0.171 C 
BRANCH  29  30
HETATM   30  C5  UNL     1      10.026 -13.263   6.742  1.00  0.00    -0.040 A 
HETATM   31  C4  UNL     1      11.350 -13.670   6.855  1.00  0.00     0.011 A 
HETATM   32  C3  UNL     1      11.825 -14.766   6.159  1.00  0.00     0.037 A 
HETATM   33  C2  UNL     1      11.005 -15.488   5.335  1.00  0.00     0.068 A 
HETATM   34  C26 UNL     1       9.687 -15.100   5.209  1.00  0.00     0.037 A 
HETATM   35  C25 UNL     1       9.221 -14.004   5.908  1.00  0.00     0.011 A 
BRANCH  33  36
HETATM   36  O1  UNL     1      11.442 -16.599   4.615  1.00  0.00    -0.356 OA
HETATM   37  C1  UNL     1      12.588 -16.519   3.822  1.00  0.00     0.210 C 
ENDBRANCH  33  36
ENDBRANCH  29  30
ENDBRANCH   1  29
TORSDOF 11
ENDMDL
