MODEL 1
REMARK VINA RESULT: -6.406651419      0.000      0.000
REMARK  4 active torsions:
REMARK  status: ('A' for Active; 'I' for Inactive)
REMARK    1  A    between atoms: C2_2  and  C3_3 
REMARK    2  A    between atoms: C3_3  and  C4_4 
REMARK       I    between atoms: N1_6  and  C6_7 
REMARK    3  A    between atoms: C6_7  and  C7_9 
REMARK    4  A    between atoms: C7_9  and  C8_13 
ROOT
HETATM    1  C4  UNL     1      26.564   9.305  70.221  1.00  0.00     0.204 C 
HETATM    2  C5  UNL     1      27.683   9.214  69.212  1.00  0.00     0.159 C 
HETATM    3  N1  UNL     1      28.790  10.071  69.426  1.00  0.00    -0.343 N 
HETATM    4  C6  UNL     1      29.913  10.068  68.589  1.00  0.00     0.269 C 
HETATM    5  O1  UNL     1      30.861  10.881  68.881  1.00  0.00    -0.266 OA
HETATM    6  C13 UNL     1      28.838  11.035  70.544  1.00  0.00     0.153 C 
HETATM    7  C14 UNL     1      27.882  10.621  71.632  1.00  0.00     0.252 C 
HETATM    8  N3  UNL     1      26.584  10.489  71.004  1.00  0.00    -0.068 N 
ATOM      9  H31 UNL     1      25.820  10.519  71.681  1.00  0.00     0.277 HD
ATOM     10  H32 UNL     1      26.329  11.315  70.464  1.00  0.00     0.277 HD
ENDROOT
BRANCH   4  11
HETATM   11  C7  UNL     1      30.131   9.249  67.424  1.00  0.00     0.115 C 
HETATM   12  N2  UNL     1      29.756   9.676  66.267  1.00  0.00    -0.395 N 
ATOM     13  H22 UNL     1      29.301  10.589  66.259  1.00  0.00     0.156 HD
ATOM     14  H21 UNL     1      29.910   9.097  65.442  1.00  0.00     0.156 HD
BRANCH  11  15
HETATM   15  C8  UNL     1      30.784   7.937  67.436  1.00  0.00     0.172 A 
HETATM   16  F1  UNL     1      31.491   7.735  68.580  1.00  0.00    -0.231 F 
HETATM   17  C9  UNL     1      31.266   7.434  66.287  1.00  0.00     0.047 A 
HETATM   18  C10 UNL     1      31.189   6.825  65.667  1.00  0.00     0.134 A 
HETATM   19  O2  UNL     1      30.537   5.813  65.238  1.00  0.00    -0.363 OA
HETATM   20  C11 UNL     1      29.462   5.832  66.434  1.00  0.00     0.178 A 
HETATM   21  C12 UNL     1      29.630   6.770  67.508  1.00  0.00     0.081 A 
ENDBRANCH  11  15
ENDBRANCH   4  11
BRANCH   1  22
HETATM   22  C3  UNL     1      26.557   8.060  71.078  1.00  0.00     0.034 C 
BRANCH  22  23
HETATM   23  C2  UNL     1      25.261   7.316  71.067  1.00  0.00    -0.002 C 
HETATM   24  C1  UNL     1      24.435   7.720  69.842  1.00  0.00     0.005 C 
ENDBRANCH  22  23
ENDBRANCH   1  22
TORSDOF 4
ENDMDL
MODEL 2
REMARK VINA RESULT: -6.380930874      3.825      5.631
REMARK  4 active torsions:
REMARK  status: ('A' for Active; 'I' for Inactive)
REMARK    1  A    between atoms: C2_2  and  C3_3 
REMARK    2  A    between atoms: C3_3  and  C4_4 
REMARK       I    between atoms: N1_6  and  C6_7 
REMARK    3  A    between atoms: C6_7  and  C7_9 
REMARK    4  A    between atoms: C7_9  and  C8_13 
ROOT
HETATM    1  C4  UNL     1      30.190   9.240  68.491  1.00  0.00     0.204 C 
HETATM    2  C5  UNL     1      30.957  10.197  67.611  1.00  0.00     0.159 C 
HETATM    3  N1  UNL     1      30.861   9.978  66.215  1.00  0.00    -0.343 N 
HETATM    4  C6  UNL     1      31.491  10.810  65.281  1.00  0.00     0.269 C 
HETATM    5  O1  UNL     1      31.330  10.522  64.042  1.00  0.00    -0.266 OA
HETATM    6  C13 UNL     1      30.093   8.854  65.644  1.00  0.00     0.153 C 
HETATM    7  C14 UNL     1      29.075   8.358  66.637  1.00  0.00     0.252 C 
HETATM    8  N3  UNL     1      29.808   8.036  67.844  1.00  0.00    -0.068 N 
ATOM      9  H31 UNL     1      29.286   7.413  68.461  1.00  0.00     0.277 HD
ATOM     10  H32 UNL     1      30.604   7.424  67.663  1.00  0.00     0.277 HD
ENDROOT
BRANCH   4  11
HETATM   11  C7  UNL     1      32.311  11.963  65.551  1.00  0.00     0.115 C 
HETATM   12  N2  UNL     1      31.755  13.111  65.732  1.00  0.00    -0.395 N 
ATOM     13  H22 UNL     1      30.738  13.127  65.654  1.00  0.00     0.156 HD
ATOM     14  H21 UNL     1      32.336  13.928  65.924  1.00  0.00     0.156 HD
BRANCH  11  15
HETATM   15  C8  UNL     1      33.772  11.940  65.663  1.00  0.00     0.172 A 
HETATM   16  F1  UNL     1      34.371  11.835  64.446  1.00  0.00    -0.231 F 
HETATM   17  C9  UNL     1      34.341  11.322  66.712  1.00  0.00     0.047 A 
HETATM   18  C10 UNL     1      34.792  11.408  67.453  1.00  0.00     0.134 A 
HETATM   19  O2  UNL     1      35.356  12.208  68.275  1.00  0.00    -0.363 OA
HETATM   20  C11 UNL     1      34.952  13.537  67.464  1.00  0.00     0.178 A 
HETATM   21  C12 UNL     1      34.287  13.406  66.197  1.00  0.00     0.081 A 
ENDBRANCH  11  15
ENDBRANCH   4  11
BRANCH   1  22
HETATM   22  C3  UNL     1      29.005   9.956  69.099  1.00  0.00     0.034 C 
BRANCH  22  23
HETATM   23  C2  UNL     1      29.331  10.753  70.320  1.00  0.00    -0.002 C 
HETATM   24  C1  UNL     1      28.075  10.937  71.177  1.00  0.00     0.005 C 
ENDBRANCH  22  23
ENDBRANCH   1  22
TORSDOF 4
ENDMDL
MODEL 3
REMARK VINA RESULT: -6.342549543      1.653      1.957
REMARK  4 active torsions:
REMARK  status: ('A' for Active; 'I' for Inactive)
REMARK    1  A    between atoms: C2_2  and  C3_3 
REMARK    2  A    between atoms: C3_3  and  C4_4 
REMARK       I    between atoms: N1_6  and  C6_7 
REMARK    3  A    between atoms: C6_7  and  C7_9 
REMARK    4  A    between atoms: C7_9  and  C8_13 
ROOT
HETATM    1  C4  UNL     1      26.829   9.626  70.275  1.00  0.00     0.204 C 
HETATM    2  C5  UNL     1      27.480   9.053  69.040  1.00  0.00     0.159 C 
HETATM    3  N1  UNL     1      28.828   9.421  68.813  1.00  0.00    -0.343 N 
HETATM    4  C6  UNL     1      29.566   8.935  67.727  1.00  0.00     0.269 C 
HETATM    5  O1  UNL     1      30.782   9.329  67.624  1.00  0.00    -0.266 OA
HETATM    6  C13 UNL     1      29.553  10.348  69.705  1.00  0.00     0.153 C 
HETATM    7  C14 UNL     1      28.891  10.398  71.057  1.00  0.00     0.252 C 
HETATM    8  N3  UNL     1      27.506  10.749  70.819  1.00  0.00    -0.068 N 
ATOM      9  H31 UNL     1      27.048  11.110  71.656  1.00  0.00     0.277 HD
ATOM     10  H32 UNL     1      27.412  11.579  70.234  1.00  0.00     0.277 HD
ENDROOT
BRANCH   4  11
HETATM   11  C7  UNL     1      29.113   8.035  66.696  1.00  0.00     0.115 C 
HETATM   12  N2  UNL     1      28.890   8.486  65.510  1.00  0.00    -0.395 N 
ATOM     13  H22 UNL     1      29.040   9.487  65.382  1.00  0.00     0.156 HD
ATOM     14  H21 UNL     1      28.569   7.849  64.781  1.00  0.00     0.156 HD
BRANCH  11  15
HETATM   15  C8  UNL     1      28.897   6.597  66.880  1.00  0.00     0.172 A 
HETATM   16  F1  UNL     1      27.574   6.291  66.956  1.00  0.00    -0.231 F 
HETATM   17  C9  UNL     1      29.761   5.895  67.632  1.00  0.00     0.047 A 
HETATM   18  C10 UNL     1      30.387   5.288  67.650  1.00  0.00     0.134 A 
HETATM   19  O2  UNL     1      31.103   4.470  66.978  1.00  0.00    -0.363 OA
HETATM   20  C11 UNL     1      30.471   4.878  65.557  1.00  0.00     0.178 A 
HETATM   21  C12 UNL     1      29.378   5.809  65.521  1.00  0.00     0.081 A 
ENDBRANCH  11  15
ENDBRANCH   4  11
BRANCH   1  22
HETATM   22  C3  UNL     1      26.639   8.530  71.298  1.00  0.00     0.034 C 
BRANCH  22  23
HETATM   23  C2  UNL     1      25.551   7.562  70.964  1.00  0.00    -0.002 C 
HETATM   24  C1  UNL     1      25.300   6.625  72.150  1.00  0.00     0.005 C 
ENDBRANCH  22  23
ENDBRANCH   1  22
TORSDOF 4
ENDMDL
MODEL 4
REMARK VINA RESULT: -6.154701541      3.811      6.025
REMARK  4 active torsions:
REMARK  status: ('A' for Active; 'I' for Inactive)
REMARK    1  A    between atoms: C2_2  and  C3_3 
REMARK    2  A    between atoms: C3_3  and  C4_4 
REMARK       I    between atoms: N1_6  and  C6_7 
REMARK    3  A    between atoms: C6_7  and  C7_9 
REMARK    4  A    between atoms: C7_9  and  C8_13 
ROOT
HETATM    1  C4  UNL     1      30.357   8.907  68.399  1.00  0.00     0.204 C 
HETATM    2  C5  UNL     1      31.104  10.060  67.775  1.00  0.00     0.159 C 
HETATM    3  N1  UNL     1      31.581   9.857  66.456  1.00  0.00    -0.343 N 
HETATM    4  C6  UNL     1      32.259  10.853  65.743  1.00  0.00     0.269 C 
HETATM    5  O1  UNL     1      32.639  10.562  64.553  1.00  0.00    -0.266 OA
HETATM    6  C13 UNL     1      31.401   8.578  65.741  1.00  0.00     0.153 C 
HETATM    7  C14 UNL     1      30.266   7.795  66.346  1.00  0.00     0.252 C 
HETATM    8  N3  UNL     1      30.571   7.660  67.756  1.00  0.00    -0.068 N 
ATOM      9  H31 UNL     1      30.049   6.902  68.195  1.00  0.00     0.277 HD
ATOM     10  H32 UNL     1      31.511   7.298  67.915  1.00  0.00     0.277 HD
ENDROOT
BRANCH   4  11
HETATM   11  C7  UNL     1      32.586  12.182  66.194  1.00  0.00     0.115 C 
HETATM   12  N2  UNL     1      31.890  13.184  65.779  1.00  0.00    -0.395 N 
ATOM     13  H22 UNL     1      31.139  12.961  65.126  1.00  0.00     0.156 HD
ATOM     14  H21 UNL     1      32.122  14.125  66.098  1.00  0.00     0.156 HD
BRANCH  11  15
HETATM   15  C8  UNL     1      33.665  12.502  67.132  1.00  0.00     0.172 A 
HETATM   16  F1  UNL     1      34.673  11.591  67.073  1.00  0.00    -0.231 F 
HETATM   17  C9  UNL     1      33.360  13.044  68.323  1.00  0.00     0.047 A 
HETATM   18  C10 UNL     1      33.392  13.750  68.834  1.00  0.00     0.134 A 
HETATM   19  O2  UNL     1      33.759  14.968  68.952  1.00  0.00    -0.363 OA
HETATM   20  C11 UNL     1      34.363  15.069  67.465  1.00  0.00     0.178 A 
HETATM   21  C12 UNL     1      34.398  13.890  66.645  1.00  0.00     0.081 A 
ENDBRANCH  11  15
ENDBRANCH   4  11
BRANCH   1  22
HETATM   22  C3  UNL     1      28.888   9.251  68.492  1.00  0.00     0.034 C 
BRANCH  22  23
HETATM   23  C2  UNL     1      28.511  10.001  69.728  1.00  0.00    -0.002 C 
HETATM   24  C1  UNL     1      27.191   9.460  70.287  1.00  0.00     0.005 C 
ENDBRANCH  22  23
ENDBRANCH   1  22
TORSDOF 4
ENDMDL
MODEL 5
REMARK VINA RESULT: -6.146174621      2.822      5.110
REMARK  4 active torsions:
REMARK  status: ('A' for Active; 'I' for Inactive)
REMARK    1  A    between atoms: C2_2  and  C3_3 
REMARK    2  A    between atoms: C3_3  and  C4_4 
REMARK       I    between atoms: N1_6  and  C6_7 
REMARK    3  A    between atoms: C6_7  and  C7_9 
REMARK    4  A    between atoms: C7_9  and  C8_13 
ROOT
HETATM    1  C4  UNL     1      28.758   7.495  67.852  1.00  0.00     0.204 C 
HETATM    2  C5  UNL     1      29.760   8.495  67.329  1.00  0.00     0.159 C 
HETATM    3  N1  UNL     1      30.560   8.070  66.241  1.00  0.00    -0.343 N 
HETATM    4  C6  UNL     1      31.505   8.906  65.634  1.00  0.00     0.269 C 
HETATM    5  O1  UNL     1      32.170   8.418  64.651  1.00  0.00    -0.266 OA
HETATM    6  C13 UNL     1      30.459   6.712  65.671  1.00  0.00     0.153 C 
HETATM    7  C14 UNL     1      29.128   6.097  66.017  1.00  0.00     0.252 C 
HETATM    8  N3  UNL     1      29.016   6.156  67.460  1.00  0.00    -0.068 N 
ATOM      9  H31 UNL     1      28.319   5.504  67.822  1.00  0.00     0.277 HD
ATOM     10  H32 UNL     1      29.834   5.766  67.929  1.00  0.00     0.277 HD
ENDROOT
BRANCH   4  11
HETATM   11  C7  UNL     1      31.825  10.265  65.989  1.00  0.00     0.115 C 
HETATM   12  N2  UNL     1      31.340  11.236  65.294  1.00  0.00    -0.395 N 
ATOM     13  H22 UNL     1      30.753  10.964  64.505  1.00  0.00     0.156 HD
ATOM     14  H21 UNL     1      31.566  12.198  65.546  1.00  0.00     0.156 HD
BRANCH  11  15
HETATM   15  C8  UNL     1      32.668  10.655  67.123  1.00  0.00     0.172 A 
HETATM   16  F1  UNL     1      33.071   9.577  67.847  1.00  0.00    -0.231 F 
HETATM   17  C9  UNL     1      32.404  11.801  67.773  1.00  0.00     0.047 A 
HETATM   18  C10 UNL     1      32.663  12.614  67.954  1.00  0.00     0.134 A 
HETATM   19  O2  UNL     1      33.548  13.518  67.777  1.00  0.00    -0.363 OA
HETATM   20  C11 UNL     1      34.450  12.629  66.785  1.00  0.00     0.178 A 
HETATM   21  C12 UNL     1      34.084  11.260  66.549  1.00  0.00     0.081 A 
ENDBRANCH  11  15
ENDBRANCH   4  11
BRANCH   1  22
HETATM   22  C3  UNL     1      27.362   7.936  67.473  1.00  0.00     0.034 C 
BRANCH  22  23
HETATM   23  C2  UNL     1      26.396   7.959  68.612  1.00  0.00    -0.002 C 
HETATM   24  C1  UNL     1      26.932   8.852  69.736  1.00  0.00     0.005 C 
ENDBRANCH  22  23
ENDBRANCH   1  22
TORSDOF 4
ENDMDL
