MODEL 1
REMARK VINA RESULT: -5.577286882      0.000      0.000
REMARK  5 active torsions:
REMARK  status: ('A' for Active; 'I' for Inactive)
REMARK    1  A    between atoms: C1_2  and  C2_3 
REMARK       I    between atoms: C1_2  and  N1_6 
REMARK    2  A    between atoms: C2_3  and  C3_4 
REMARK    3  A    between atoms: C5_8  and  O2_9 
REMARK    4  A    between atoms: C7_12  and  C8_13 
REMARK    5  A    between atoms: C8_13  and  C9_14 
ROOT
HETATM    1  O1  UNL     1      26.803   7.767  68.041  1.00  0.00    -0.273 OA
HETATM    2  C1  UNL     1      28.032   8.064  67.845  1.00  0.00     0.221 C 
HETATM    3  N1  UNL     1      28.628   9.095  68.625  1.00  0.00    -0.345 N 
HETATM    4  C4  UNL     1      27.805   9.809  69.640  1.00  0.00     0.158 C 
HETATM    5  C5  UNL     1      28.887  10.320  70.603  1.00  0.00     0.138 C 
HETATM    6  C6  UNL     1      29.875  10.814  69.570  1.00  0.00     0.058 C 
HETATM    7  C7  UNL     1      29.966   9.619  68.657  1.00  0.00     0.090 C 
ENDROOT
BRANCH   7   8
HETATM    8  C8  UNL     1      30.539   9.986  67.313  1.00  0.00     0.033 C 
BRANCH   8   9
HETATM    9  C9  UNL     1      32.026   9.697  67.244  1.00  0.00     0.039 C 
HETATM   10  C10 UNL     1      32.515   9.558  65.795  1.00  0.00     0.238 C 
HETATM   11  N2  UNL     1      33.756  10.157  66.245  1.00  0.00    -0.074 N 
HETATM   12  C11 UNL     1      32.936  10.887  67.230  1.00  0.00     0.238 C 
ATOM     13  H22 UNL     1      34.553   9.588  66.529  1.00  0.00     0.277 HD
ATOM     14  H21 UNL     1      34.378  10.645  65.601  1.00  0.00     0.277 HD
ENDBRANCH   8   9
ENDBRANCH   7   8
BRANCH   2  15
HETATM   15  C2  UNL     1      28.718   7.283  66.798  1.00  0.00     0.114 C 
BRANCH  15  16
HETATM   16  C3  UNL     1      29.279   5.999  67.416  1.00  0.00     0.094 C 
HETATM   17 BR1  UNL     1      31.188   5.934  67.259  1.00  0.00    -0.096 Br
ENDBRANCH  15  16
ENDBRANCH   2  15
BRANCH   5  18
HETATM   18  O2  UNL     1      28.413  11.311  71.420  1.00  0.00    -0.394 OA
ATOM     19  H2  UNL     1      29.091  11.650  71.992  1.00  0.00     0.210 HD
ENDBRANCH   5  18
TORSDOF 5
ENDMDL
MODEL 2
REMARK VINA RESULT: -5.281526823      2.817      4.528
REMARK  5 active torsions:
REMARK  status: ('A' for Active; 'I' for Inactive)
REMARK    1  A    between atoms: C1_2  and  C2_3 
REMARK       I    between atoms: C1_2  and  N1_6 
REMARK    2  A    between atoms: C2_3  and  C3_4 
REMARK    3  A    between atoms: C5_8  and  O2_9 
REMARK    4  A    between atoms: C7_12  and  C8_13 
REMARK    5  A    between atoms: C8_13  and  C9_14 
ROOT
HETATM    1  O1  UNL     1      29.478  11.096  70.565  1.00  0.00    -0.273 OA
HETATM    2  C1  UNL     1      29.369  10.384  69.508  1.00  0.00     0.221 C 
HETATM    3  N1  UNL     1      28.285   9.466  69.400  1.00  0.00    -0.345 N 
HETATM    4  C4  UNL     1      27.314   9.351  70.523  1.00  0.00     0.158 C 
HETATM    5  C5  UNL     1      26.076   8.802  69.798  1.00  0.00     0.138 C 
HETATM    6  C6  UNL     1      26.772   7.761  68.948  1.00  0.00     0.058 C 
HETATM    7  C7  UNL     1      27.888   8.574  68.345  1.00  0.00     0.090 C 
ENDROOT
BRANCH   7   8
HETATM    8  C8  UNL     1      28.987   7.698  67.805  1.00  0.00     0.033 C 
BRANCH   8   9
HETATM    9  C9  UNL     1      28.614   7.102  66.462  1.00  0.00     0.039 C 
HETATM   10  C10 UNL     1      29.847   6.604  65.694  1.00  0.00     0.238 C 
HETATM   11  N2  UNL     1      28.996   5.551  65.176  1.00  0.00    -0.074 N 
HETATM   12  C11 UNL     1      28.264   5.645  66.453  1.00  0.00     0.238 C 
ATOM     13  H22 UNL     1      28.520   5.641  64.278  1.00  0.00     0.277 HD
ATOM     14  H21 UNL     1      29.382   4.667  64.844  1.00  0.00     0.277 HD
ENDBRANCH   8   9
ENDBRANCH   7   8
BRANCH   2  15
HETATM   15  C2  UNL     1      30.412  10.595  68.486  1.00  0.00     0.114 C 
BRANCH  15  16
HETATM   16  C3  UNL     1      31.144  11.907  68.779  1.00  0.00     0.094 C 
HETATM   17 BR1  UNL     1      32.636  12.144  67.599  1.00  0.00    -0.096 Br
ENDBRANCH  15  16
ENDBRANCH   2  15
BRANCH   5  18
HETATM   18  O2  UNL     1      25.168   8.270  70.673  1.00  0.00    -0.394 OA
ATOM     19  H2  UNL     1      24.277   8.502  70.441  1.00  0.00     0.210 HD
ENDBRANCH   5  18
TORSDOF 5
ENDMDL
MODEL 3
REMARK VINA RESULT: -5.278802252      2.543      4.353
REMARK  5 active torsions:
REMARK  status: ('A' for Active; 'I' for Inactive)
REMARK    1  A    between atoms: C1_2  and  C2_3 
REMARK       I    between atoms: C1_2  and  N1_6 
REMARK    2  A    between atoms: C2_3  and  C3_4 
REMARK    3  A    between atoms: C5_8  and  O2_9 
REMARK    4  A    between atoms: C7_12  and  C8_13 
REMARK    5  A    between atoms: C8_13  and  C9_14 
ROOT
HETATM    1  O1  UNL     1      31.507  11.935  68.871  1.00  0.00    -0.273 OA
HETATM    2  C1  UNL     1      30.704  11.029  68.459  1.00  0.00     0.221 C 
HETATM    3  N1  UNL     1      29.611  10.643  69.288  1.00  0.00    -0.345 N 
HETATM    4  C4  UNL     1      29.439  11.295  70.616  1.00  0.00     0.158 C 
HETATM    5  C5  UNL     1      27.937  11.089  70.861  1.00  0.00     0.138 C 
HETATM    6  C6  UNL     1      27.845   9.644  70.422  1.00  0.00     0.058 C 
HETATM    7  C7  UNL     1      28.546   9.699  69.089  1.00  0.00     0.090 C 
ENDROOT
BRANCH   7   8
HETATM    8  C8  UNL     1      28.983   8.333  68.632  1.00  0.00     0.033 C 
BRANCH   8   9
HETATM    9  C9  UNL     1      28.244   7.902  67.380  1.00  0.00     0.039 C 
HETATM   10  C10 UNL     1      28.544   6.442  67.012  1.00  0.00     0.238 C 
HETATM   11  N2  UNL     1      27.177   6.369  66.533  1.00  0.00    -0.074 N 
HETATM   12  C11 UNL     1      26.859   7.362  67.576  1.00  0.00     0.238 C 
ATOM     13  H22 UNL     1      26.945   6.529  65.553  1.00  0.00     0.277 HD
ATOM     14  H21 UNL     1      26.680   5.481  66.471  1.00  0.00     0.277 HD
ENDBRANCH   8   9
ENDBRANCH   7   8
BRANCH   2  15
HETATM   15  C2  UNL     1      31.006  10.463  67.131  1.00  0.00     0.114 C 
BRANCH  15  16
HETATM   16  C3  UNL     1      32.293   9.638  67.217  1.00  0.00     0.094 C 
HETATM   17 BR1  UNL     1      33.803  10.646  66.601  1.00  0.00    -0.096 Br
ENDBRANCH  15  16
ENDBRANCH   2  15
BRANCH   5  18
HETATM   18  O2  UNL     1      27.606  11.279  72.176  1.00  0.00    -0.394 OA
ATOM     19  H2  UNL     1      27.246  10.492  72.566  1.00  0.00     0.210 HD
ENDBRANCH   5  18
TORSDOF 5
ENDMDL
MODEL 4
REMARK VINA RESULT: -5.268320195      2.951      5.186
REMARK  5 active torsions:
REMARK  status: ('A' for Active; 'I' for Inactive)
REMARK    1  A    between atoms: C1_2  and  C2_3 
REMARK       I    between atoms: C1_2  and  N1_6 
REMARK    2  A    between atoms: C2_3  and  C3_4 
REMARK    3  A    between atoms: C5_8  and  O2_9 
REMARK    4  A    between atoms: C7_12  and  C8_13 
REMARK    5  A    between atoms: C8_13  and  C9_14 
ROOT
HETATM    1  O1  UNL     1      31.590   7.643  65.990  1.00  0.00    -0.273 OA
HETATM    2  C1  UNL     1      30.981   8.075  67.028  1.00  0.00     0.221 C 
HETATM    3  N1  UNL     1      29.606   7.751  67.209  1.00  0.00    -0.345 N 
HETATM    4  C4  UNL     1      28.911   6.928  66.181  1.00  0.00     0.158 C 
HETATM    5  C5  UNL     1      27.762   6.323  67.002  1.00  0.00     0.138 C 
HETATM    6  C6  UNL     1      27.351   7.575  67.747  1.00  0.00     0.058 C 
HETATM    7  C7  UNL     1      28.681   8.056  68.266  1.00  0.00     0.090 C 
ENDROOT
BRANCH   7   8
HETATM    8  C8  UNL     1      28.631   9.506  68.669  1.00  0.00     0.033 C 
BRANCH   8   9
HETATM    9  C9  UNL     1      28.497   9.662  70.171  1.00  0.00     0.039 C 
HETATM   10  C10 UNL     1      28.773  11.102  70.625  1.00  0.00     0.238 C 
HETATM   11  N2  UNL     1      27.772  10.883  71.650  1.00  0.00    -0.074 N 
HETATM   12  C11 UNL     1      27.125   9.971  70.690  1.00  0.00     0.238 C 
ATOM     13  H22 UNL     1      28.027  10.579  72.590  1.00  0.00     0.277 HD
ATOM     14  H21 UNL     1      27.265  11.659  72.076  1.00  0.00     0.277 HD
ENDBRANCH   8   9
ENDBRANCH   7   8
BRANCH   2  15
HETATM   15  C2  UNL     1      31.792   8.889  67.953  1.00  0.00     0.114 C 
BRANCH  15  16
HETATM   16  C3  UNL     1      32.405  10.062  67.183  1.00  0.00     0.094 C 
HETATM   17 BR1  UNL     1      31.820  11.741  67.899  1.00  0.00    -0.096 Br
ENDBRANCH  15  16
ENDBRANCH   2  15
BRANCH   5  18
HETATM   18  O2  UNL     1      26.774   5.819  66.200  1.00  0.00    -0.394 OA
ATOM     19  H2  UNL     1      25.955   5.715  66.672  1.00  0.00     0.210 HD
ENDBRANCH   5  18
TORSDOF 5
ENDMDL
MODEL 5
REMARK VINA RESULT: -5.190154981      3.159      5.684
REMARK  5 active torsions:
REMARK  status: ('A' for Active; 'I' for Inactive)
REMARK    1  A    between atoms: C1_2  and  C2_3 
REMARK       I    between atoms: C1_2  and  N1_6 
REMARK    2  A    between atoms: C2_3  and  C3_4 
REMARK    3  A    between atoms: C5_8  and  O2_9 
REMARK    4  A    between atoms: C7_12  and  C8_13 
REMARK    5  A    between atoms: C8_13  and  C9_14 
ROOT
HETATM    1  O1  UNL     1      31.655   7.335  66.078  1.00  0.00    -0.273 OA
HETATM    2  C1  UNL     1      30.729   7.559  66.932  1.00  0.00     0.221 C 
HETATM    3  N1  UNL     1      29.477   6.898  66.785  1.00  0.00    -0.345 N 
HETATM    4  C4  UNL     1      29.272   5.972  65.636  1.00  0.00     0.158 C 
HETATM    5  C5  UNL     1      28.151   5.068  66.172  1.00  0.00     0.138 C 
HETATM    6  C6  UNL     1      27.277   6.148  66.772  1.00  0.00     0.058 C 
HETATM    7  C7  UNL     1      28.282   6.920  67.585  1.00  0.00     0.090 C 
ENDROOT
BRANCH   7   8
HETATM    8  C8  UNL     1      27.778   8.295  67.937  1.00  0.00     0.033 C 
BRANCH   8   9
HETATM    9  C9  UNL     1      27.535   8.434  69.427  1.00  0.00     0.039 C 
HETATM   10  C10 UNL     1      27.834   9.854  69.926  1.00  0.00     0.238 C 
HETATM   11  N2  UNL     1      26.749   9.663  70.868  1.00  0.00    -0.074 N 
HETATM   12  C11 UNL     1      26.141   8.793  69.844  1.00  0.00     0.238 C 
ATOM     13  H22 UNL     1      26.917   9.333  71.818  1.00  0.00     0.277 HD
ATOM     14  H21 UNL     1      26.243  10.453  71.268  1.00  0.00     0.277 HD
ENDBRANCH   8   9
ENDBRANCH   7   8
BRANCH   2  15
HETATM   15  C2  UNL     1      31.070   8.509  68.008  1.00  0.00     0.114 C 
BRANCH  15  16
HETATM   16  C3  UNL     1      31.192   9.916  67.416  1.00  0.00     0.094 C 
HETATM   17 BR1  UNL     1      33.028  10.439  67.250  1.00  0.00    -0.096 Br
ENDBRANCH  15  16
ENDBRANCH   2  15
BRANCH   5  18
HETATM   18  O2  UNL     1      27.538   4.370  65.166  1.00  0.00    -0.394 OA
ATOM     19  H2  UNL     1      26.602   4.527  65.147  1.00  0.00     0.210 HD
ENDBRANCH   5  18
TORSDOF 5
ENDMDL
