MODEL 1
REMARK VINA RESULT: -6.057559665      0.000      0.000
REMARK  4 active torsions:
REMARK  status: ('A' for Active; 'I' for Inactive)
REMARK    1  A    between atoms: C1_2  and  C2_4 
REMARK    2  A    between atoms: C5_7  and  C6_8 
REMARK    3  A    between atoms: C7_10  and  C8_11 
REMARK    4  A    between atoms: C8_11  and  C9_13 
ROOT
HETATM    1  C2  UNL     1      27.984   7.943  67.201  1.00  0.00     0.171 C 
HETATM    2  C3  UNL     1      26.927   8.325  68.173  1.00  0.00     0.035 C 
HETATM    3  C4  UNL     1      27.518   8.553  69.528  1.00  0.00     0.014 C 
HETATM    4  C5  UNL     1      28.402   9.809  69.273  1.00  0.00     0.049 C 
HETATM    5  C7  UNL     1      29.493   9.401  68.409  1.00  0.00     0.057 C 
HETATM    6  N2  UNL     1      29.311   8.291  67.510  1.00  0.00    -0.377 N 
ATOM      7  H2  UNL     1      30.104   7.784  67.118  1.00  0.00     0.160 HD
ENDROOT
BRANCH   5   8
HETATM    8  C8  UNL     1      30.455  10.370  67.992  1.00  0.00     0.175 C 
HETATM    9  O2  UNL     1      30.587  11.454  68.608  1.00  0.00    -0.291 OA
BRANCH   8  10
HETATM   10  C9  UNL     1      31.433  10.205  66.891  1.00  0.00     0.062 A 
HETATM   11  C10 UNL     1      32.709   9.554  67.467  1.00  0.00     0.013 A 
HETATM   12  C11 UNL     1      32.699  10.868  66.788  1.00  0.00     0.013 A 
ENDBRANCH   8  10
ENDBRANCH   5   8
BRANCH   4  13
HETATM   13  C6  UNL     1      28.797  10.287  70.652  1.00  0.00     0.096 C 
HETATM   14 BR1  UNL     1      27.150  10.794  71.556  1.00  0.00    -0.096 Br
ENDBRANCH   4  13
BRANCH   1  15
HETATM   15  C1  UNL     1      27.837   6.491  66.905  1.00  0.00     0.253 C 
HETATM   16  N1  UNL     1      29.051   5.775  67.076  1.00  0.00    -0.060 NA
HETATM   17  O1  UNL     1      26.815   5.949  66.562  1.00  0.00    -0.275 OA
ENDBRANCH   1  15
TORSDOF 4
ENDMDL
MODEL 2
REMARK VINA RESULT: -5.934571714      3.116      4.220
REMARK  4 active torsions:
REMARK  status: ('A' for Active; 'I' for Inactive)
REMARK    1  A    between atoms: C1_2  and  C2_4 
REMARK    2  A    between atoms: C5_7  and  C6_8 
REMARK    3  A    between atoms: C7_10  and  C8_11 
REMARK    4  A    between atoms: C8_11  and  C9_13 
ROOT
HETATM    1  C2  UNL     1      27.957   9.449  70.411  1.00  0.00     0.171 C 
HETATM    2  C3  UNL     1      27.089   8.252  70.265  1.00  0.00     0.035 C 
HETATM    3  C4  UNL     1      26.556   8.157  68.870  1.00  0.00     0.014 C 
HETATM    4  C5  UNL     1      27.859   7.897  68.059  1.00  0.00     0.049 C 
HETATM    5  C7  UNL     1      28.653   9.109  68.117  1.00  0.00     0.057 C 
HETATM    6  N2  UNL     1      28.514   9.997  69.242  1.00  0.00    -0.377 N 
ATOM      7  H2  UNL     1      28.804  10.973  69.192  1.00  0.00     0.160 HD
ENDROOT
BRANCH   5   8
HETATM    8  C8  UNL     1      29.925   9.144  67.468  1.00  0.00     0.175 C 
HETATM    9  O2  UNL     1      30.157   9.964  66.549  1.00  0.00    -0.291 OA
BRANCH   8  10
HETATM   10  C9  UNL     1      31.105   8.323  67.827  1.00  0.00     0.062 A 
HETATM   11  C10 UNL     1      31.357   7.310  66.689  1.00  0.00     0.013 A 
HETATM   12  C11 UNL     1      31.098   6.915  68.091  1.00  0.00     0.013 A 
ENDBRANCH   8  10
ENDBRANCH   5   8
BRANCH   4  13
HETATM   13  C6  UNL     1      27.379   7.488  66.684  1.00  0.00     0.096 C 
HETATM   14 BR1  UNL     1      27.879   5.621  66.455  1.00  0.00    -0.096 Br
ENDBRANCH   4  13
BRANCH   1  15
HETATM   15  C1  UNL     1      27.217  10.463  71.211  1.00  0.00     0.253 C 
HETATM   16  N1  UNL     1      28.083  11.361  71.888  1.00  0.00    -0.060 NA
HETATM   17  O1  UNL     1      26.016  10.545  71.293  1.00  0.00    -0.275 OA
ENDBRANCH   1  15
TORSDOF 4
ENDMDL
MODEL 3
REMARK VINA RESULT: -5.931372200      1.288      1.435
REMARK  4 active torsions:
REMARK  status: ('A' for Active; 'I' for Inactive)
REMARK    1  A    between atoms: C1_2  and  C2_4 
REMARK    2  A    between atoms: C5_7  and  C6_8 
REMARK    3  A    between atoms: C7_10  and  C8_11 
REMARK    4  A    between atoms: C8_11  and  C9_13 
ROOT
HETATM    1  C2  UNL     1      28.342   6.910  66.561  1.00  0.00     0.171 C 
HETATM    2  C3  UNL     1      27.179   7.371  67.362  1.00  0.00     0.035 C 
HETATM    3  C4  UNL     1      27.630   7.896  68.689  1.00  0.00     0.014 C 
HETATM    4  C5  UNL     1      28.439   9.156  68.264  1.00  0.00     0.049 C 
HETATM    5  C7  UNL     1      29.629   8.694  67.575  1.00  0.00     0.057 C 
HETATM    6  N2  UNL     1      29.608   7.426  66.893  1.00  0.00    -0.377 N 
ATOM      7  H2  UNL     1      30.467   6.927  66.663  1.00  0.00     0.160 HD
ENDROOT
BRANCH   5   8
HETATM    8  C8  UNL     1      30.550   9.651  67.051  1.00  0.00     0.175 C 
HETATM    9  O2  UNL     1      30.312  10.256  65.979  1.00  0.00    -0.291 OA
BRANCH   8  10
HETATM   10  C9  UNL     1      31.802  10.100  67.706  1.00  0.00     0.062 A 
HETATM   11  C10 UNL     1      31.646  11.588  68.085  1.00  0.00     0.013 A 
HETATM   12  C11 UNL     1      32.710  11.081  67.192  1.00  0.00     0.013 A 
ENDBRANCH   8  10
ENDBRANCH   5   8
BRANCH   4  13
HETATM   13  C6  UNL     1      28.675   9.913  69.552  1.00  0.00     0.096 C 
HETATM   14 BR1  UNL     1      27.107   9.616  70.665  1.00  0.00    -0.096 Br
ENDBRANCH   4  13
BRANCH   1  15
HETATM   15  C1  UNL     1      28.329   5.422  66.538  1.00  0.00     0.253 C 
HETATM   16  N1  UNL     1      29.503   4.858  67.101  1.00  0.00    -0.060 NA
HETATM   17  O1  UNL     1      27.435   4.739  66.101  1.00  0.00    -0.275 OA
ENDBRANCH   1  15
TORSDOF 4
ENDMDL
MODEL 4
REMARK VINA RESULT: -5.919011882      2.319      4.398
REMARK  4 active torsions:
REMARK  status: ('A' for Active; 'I' for Inactive)
REMARK    1  A    between atoms: C1_2  and  C2_4 
REMARK    2  A    between atoms: C5_7  and  C6_8 
REMARK    3  A    between atoms: C7_10  and  C8_11 
REMARK    4  A    between atoms: C8_11  and  C9_13 
ROOT
HETATM    1  C2  UNL     1      29.965   9.913  69.253  1.00  0.00     0.171 C 
HETATM    2  C3  UNL     1      28.863   9.674  70.221  1.00  0.00     0.035 C 
HETATM    3  C4  UNL     1      27.561   9.511  69.504  1.00  0.00     0.014 C 
HETATM    4  C5  UNL     1      27.800   8.186  68.724  1.00  0.00     0.049 C 
HETATM    5  C7  UNL     1      28.801   8.455  67.710  1.00  0.00     0.057 C 
HETATM    6  N2  UNL     1      29.765   9.504  67.923  1.00  0.00    -0.377 N 
ATOM      7  H2  UNL     1      30.275   9.928  67.149  1.00  0.00     0.160 HD
ENDROOT
BRANCH   5   8
HETATM    8  C8  UNL     1      29.232   7.398  66.854  1.00  0.00     0.175 C 
HETATM    9  O2  UNL     1      29.341   7.572  65.617  1.00  0.00    -0.291 OA
BRANCH   8  10
HETATM   10  C9  UNL     1      29.669   6.051  67.290  1.00  0.00     0.062 A 
HETATM   11  C10 UNL     1      31.127   6.149  67.789  1.00  0.00     0.013 A 
HETATM   12  C11 UNL     1      30.702   5.267  66.681  1.00  0.00     0.013 A 
ENDBRANCH   8  10
ENDBRANCH   5   8
BRANCH   4  13
HETATM   13  C6  UNL     1      26.433   7.788  68.213  1.00  0.00     0.096 C 
HETATM   14 BR1  UNL     1      25.193   8.045  69.690  1.00  0.00    -0.096 Br
ENDBRANCH   4  13
BRANCH   1  15
HETATM   15  C1  UNL     1      30.362  11.345  69.348  1.00  0.00     0.253 C 
HETATM   16  N1  UNL     1      31.048  11.798  68.191  1.00  0.00    -0.060 NA
HETATM   17  O1  UNL     1      30.137  12.071  70.286  1.00  0.00    -0.275 OA
ENDBRANCH   1  15
TORSDOF 4
ENDMDL
MODEL 5
REMARK VINA RESULT: -5.910140426      2.082      4.388
REMARK  4 active torsions:
REMARK  status: ('A' for Active; 'I' for Inactive)
REMARK    1  A    between atoms: C1_2  and  C2_4 
REMARK    2  A    between atoms: C5_7  and  C6_8 
REMARK    3  A    between atoms: C7_10  and  C8_11 
REMARK    4  A    between atoms: C8_11  and  C9_13 
ROOT
HETATM    1  C2  UNL     1      29.979   9.901  69.116  1.00  0.00     0.171 C 
HETATM    2  C3  UNL     1      29.037   9.864  70.265  1.00  0.00     0.035 C 
HETATM    3  C4  UNL     1      27.625   9.756  69.783  1.00  0.00     0.014 C 
HETATM    4  C5  UNL     1      27.628   8.343  69.130  1.00  0.00     0.049 C 
HETATM    5  C7  UNL     1      28.465   8.414  67.948  1.00  0.00     0.057 C 
HETATM    6  N2  UNL     1      29.529   9.382  67.888  1.00  0.00    -0.377 N 
ATOM      7  H2  UNL     1      29.936   9.677  67.001  1.00  0.00     0.160 HD
ENDROOT
BRANCH   5   8
HETATM    8  C8  UNL     1      28.666   7.241  67.160  1.00  0.00     0.175 C 
HETATM    9  O2  UNL     1      27.704   6.678  66.585  1.00  0.00    -0.291 OA
BRANCH   8  10
HETATM   10  C9  UNL     1      29.972   6.610  66.859  1.00  0.00     0.062 A 
HETATM   11  C10 UNL     1      30.126   5.360  67.753  1.00  0.00     0.013 A 
HETATM   12  C11 UNL     1      31.075   6.494  67.766  1.00  0.00     0.013 A 
ENDBRANCH   8  10
ENDBRANCH   5   8
BRANCH   4  13
HETATM   13  C6  UNL     1      26.169   8.028  68.887  1.00  0.00     0.096 C 
HETATM   14 BR1  UNL     1      25.359   7.765  70.637  1.00  0.00    -0.096 Br
ENDBRANCH   4  13
BRANCH   1  15
HETATM   15  C1  UNL     1      30.496  11.290  68.985  1.00  0.00     0.253 C 
HETATM   16  N1  UNL     1      30.378  12.031  70.190  1.00  0.00    -0.060 NA
HETATM   17  O1  UNL     1      30.973  11.765  67.983  1.00  0.00    -0.275 OA
ENDBRANCH   1  15
TORSDOF 4
ENDMDL
