MODEL 1
REMARK VINA RESULT: -6.955744660      0.000      0.000
REMARK  4 active torsions:
REMARK  status: ('A' for Active; 'I' for Inactive)
REMARK    1  A    between atoms: C2_2  and  N1_3 
REMARK    2  A    between atoms: C2_2  and  C8_11 
REMARK    3  A    between atoms: N1_3  and  C3_5 
REMARK       I    between atoms: C8_11  and  N2_13 
REMARK    4  A    between atoms: C11_16  and  C12_17 
ROOT
HETATM    1  C8  UNL     1      29.524   9.559  68.085  1.00  0.00     0.245 C 
HETATM    2  O1  UNL     1      29.466   9.070  66.916  1.00  0.00    -0.271 OA
HETATM    3  N2  UNL     1      28.536   9.252  69.033  1.00  0.00    -0.330 N 
HETATM    4  C9  UNL     1      28.197   9.779  70.291  1.00  0.00     0.068 C 
HETATM    5  C10 UNL     1      26.963   9.060  70.826  1.00  0.00     0.058 C 
HETATM    6  C11 UNL     1      25.885   8.825  69.817  1.00  0.00     0.081 C 
HETATM    7  C13 UNL     1      26.450   8.285  68.500  1.00  0.00     0.034 C 
HETATM    8  C14 UNL     1      27.870   7.917  68.727  1.00  0.00     0.132 C 
ENDROOT
BRANCH   1   9
HETATM    9  C2  UNL     1      30.747  10.428  68.373  1.00  0.00     0.166 C 
HETATM   10  C1  UNL     1      30.220  11.502  69.399  1.00  0.00     0.042 C 
BRANCH   9  11
HETATM   11  N1  UNL     1      31.068  11.201  67.233  1.00  0.00    -0.398 N 
ATOM     12  H1  UNL     1      30.302  11.519  66.639  1.00  0.00     0.154 HD
BRANCH  11  13
HETATM   13  C3  UNL     1      32.324  11.545  66.881  1.00  0.00     0.053 C 
HETATM   14  C4  UNL     1      33.200  10.238  66.945  1.00  0.00     0.041 C 
HETATM   15  C5  UNL     1      32.649  12.232  65.605  1.00  0.00     0.036 C 
HETATM   16  C6  UNL     1      33.284  13.404  66.362  1.00  0.00     0.042 C 
HETATM   17  C7  UNL     1      33.105  12.581  67.620  1.00  0.00     0.197 C 
HETATM   18  F1  UNL     1      34.358  12.162  68.061  1.00  0.00    -0.247 F 
ENDBRANCH  11  13
ENDBRANCH   9  11
ENDBRANCH   1   9
BRANCH   6  19
HETATM   19  C12 UNL     1      24.962   7.751  70.277  1.00  0.00     0.235 C 
HETATM   20  N3  UNL     1      25.173   6.986  71.425  1.00  0.00    -0.062 NA
HETATM   21  O2  UNL     1      23.903   7.477  69.621  1.00  0.00    -0.276 OA
ENDBRANCH   6  19
TORSDOF 4
ENDMDL
MODEL 2
REMARK VINA RESULT: -6.746621090      1.553      2.216
REMARK  4 active torsions:
REMARK  status: ('A' for Active; 'I' for Inactive)
REMARK    1  A    between atoms: C2_2  and  N1_3 
REMARK    2  A    between atoms: C2_2  and  C8_11 
REMARK    3  A    between atoms: N1_3  and  C3_5 
REMARK       I    between atoms: C8_11  and  N2_13 
REMARK    4  A    between atoms: C11_16  and  C12_17 
ROOT
HETATM    1  C8  UNL     1      29.645  10.230  69.089  1.00  0.00     0.245 C 
HETATM    2  O1  UNL     1      29.892  10.877  70.152  1.00  0.00    -0.271 OA
HETATM    3  N2  UNL     1      28.478   9.458  68.982  1.00  0.00    -0.330 N 
HETATM    4  C9  UNL     1      28.035   8.486  68.069  1.00  0.00     0.068 C 
HETATM    5  C10 UNL     1      26.683   7.945  68.522  1.00  0.00     0.058 C 
HETATM    6  C11 UNL     1      26.572   7.676  69.988  1.00  0.00     0.081 C 
HETATM    7  C13 UNL     1      27.139   8.830  70.821  1.00  0.00     0.034 C 
HETATM    8  C14 UNL     1      27.386   9.974  69.908  1.00  0.00     0.132 C 
ENDROOT
BRANCH   1   9
HETATM    9  C2  UNL     1      30.661  10.407  67.962  1.00  0.00     0.166 C 
HETATM   10  C1  UNL     1      31.439   9.037  67.929  1.00  0.00     0.042 C 
BRANCH   9  11
HETATM   11  N1  UNL     1      31.657  11.333  68.352  1.00  0.00    -0.398 N 
ATOM     12  H1  UNL     1      31.658  11.654  69.321  1.00  0.00     0.154 HD
BRANCH  11  13
HETATM   13  C3  UNL     1      32.604  11.819  67.524  1.00  0.00     0.053 C 
HETATM   14  C4  UNL     1      33.150  13.148  68.167  1.00  0.00     0.041 C 
HETATM   15  C5  UNL     1      33.780  11.026  67.084  1.00  0.00     0.036 C 
HETATM   16  C6  UNL     1      33.389  11.202  65.613  1.00  0.00     0.042 C 
HETATM   17  C7  UNL     1      32.320  12.158  66.097  1.00  0.00     0.197 C 
HETATM   18  F1  UNL     1      32.676  13.452  65.724  1.00  0.00    -0.247 F 
ENDBRANCH  11  13
ENDBRANCH   9  11
ENDBRANCH   1   9
BRANCH   6  19
HETATM   19  C12 UNL     1      25.143   7.605  70.401  1.00  0.00     0.235 C 
HETATM   20  N3  UNL     1      24.089   8.119  69.643  1.00  0.00    -0.062 NA
HETATM   21  O2  UNL     1      24.810   7.052  71.501  1.00  0.00    -0.276 OA
ENDBRANCH   6  19
TORSDOF 4
ENDMDL
MODEL 3
REMARK VINA RESULT: -6.734522403      2.799      3.903
REMARK  4 active torsions:
REMARK  status: ('A' for Active; 'I' for Inactive)
REMARK    1  A    between atoms: C2_2  and  N1_3 
REMARK    2  A    between atoms: C2_2  and  C8_11 
REMARK    3  A    between atoms: N1_3  and  C3_5 
REMARK       I    between atoms: C8_11  and  N2_13 
REMARK    4  A    between atoms: C11_16  and  C12_17 
ROOT
HETATM    1  C8  UNL     1      29.292   9.268  68.487  1.00  0.00     0.245 C 
HETATM    2  O1  UNL     1      28.104   9.570  68.813  1.00  0.00    -0.271 OA
HETATM    3  N2  UNL     1      29.543   8.157  67.667  1.00  0.00    -0.330 N 
HETATM    4  C9  UNL     1      30.704   7.447  67.317  1.00  0.00     0.068 C 
HETATM    5  C10 UNL     1      30.330   6.270  66.423  1.00  0.00     0.058 C 
HETATM    6  C11 UNL     1      29.113   5.515  66.855  1.00  0.00     0.081 C 
HETATM    7  C13 UNL     1      27.965   6.457  67.230  1.00  0.00     0.034 C 
HETATM    8  C14 UNL     1      28.337   7.827  66.797  1.00  0.00     0.132 C 
ENDROOT
BRANCH   1   9
HETATM    9  C2  UNL     1      30.375  10.217  68.998  1.00  0.00     0.166 C 
HETATM   10  C1  UNL     1      29.630  11.109  70.062  1.00  0.00     0.042 C 
BRANCH   9  11
HETATM   11  N1  UNL     1      30.721  11.142  67.986  1.00  0.00    -0.398 N 
ATOM     12  H1  UNL     1      30.003  11.794  67.668  1.00  0.00     0.154 HD
BRANCH  11  13
HETATM   13  C3  UNL     1      31.940  11.217  67.414  1.00  0.00     0.053 C 
HETATM   14  C4  UNL     1      32.629  12.525  67.955  1.00  0.00     0.041 C 
HETATM   15  C5  UNL     1      32.942  10.124  67.497  1.00  0.00     0.036 C 
HETATM   16  C6  UNL     1      32.999  10.018  65.969  1.00  0.00     0.042 C 
HETATM   17  C7  UNL     1      32.127  11.255  65.933  1.00  0.00     0.197 C 
HETATM   18  F1  UNL     1      32.889  12.325  65.469  1.00  0.00    -0.247 F 
ENDBRANCH  11  13
ENDBRANCH   9  11
ENDBRANCH   1   9
BRANCH   6  19
HETATM   19  C12 UNL     1      28.565   4.716  65.724  1.00  0.00     0.235 C 
HETATM   20  N3  UNL     1      29.306   4.355  64.597  1.00  0.00    -0.062 NA
HETATM   21  O2  UNL     1      27.356   4.311  65.739  1.00  0.00    -0.276 OA
ENDBRANCH   6  19
TORSDOF 4
ENDMDL
MODEL 4
REMARK VINA RESULT: -6.711975647      0.819      1.390
REMARK  4 active torsions:
REMARK  status: ('A' for Active; 'I' for Inactive)
REMARK    1  A    between atoms: C2_2  and  N1_3 
REMARK    2  A    between atoms: C2_2  and  C8_11 
REMARK    3  A    between atoms: N1_3  and  C3_5 
REMARK       I    between atoms: C8_11  and  N2_13 
REMARK    4  A    between atoms: C11_16  and  C12_17 
ROOT
HETATM    1  C8  UNL     1      29.456   9.708  68.364  1.00  0.00     0.245 C 
HETATM    2  O1  UNL     1      29.460   9.264  67.176  1.00  0.00    -0.271 OA
HETATM    3  N2  UNL     1      28.439   9.338  69.257  1.00  0.00    -0.330 N 
HETATM    4  C9  UNL     1      28.034   9.807  70.519  1.00  0.00     0.068 C 
HETATM    5  C10 UNL     1      26.800   9.035  70.973  1.00  0.00     0.058 C 
HETATM    6  C11 UNL     1      25.772   8.811  69.912  1.00  0.00     0.081 C 
HETATM    7  C13 UNL     1      26.405   8.338  68.600  1.00  0.00     0.034 C 
HETATM    8  C14 UNL     1      27.825   7.999  68.873  1.00  0.00     0.132 C 
ENDROOT
BRANCH   1   9
HETATM    9  C2  UNL     1      30.641  10.598  68.736  1.00  0.00     0.166 C 
HETATM   10  C1  UNL     1      30.036  11.634  69.757  1.00  0.00     0.042 C 
BRANCH   9  11
HETATM   11  N1  UNL     1      31.003  11.406  67.633  1.00  0.00    -0.398 N 
ATOM     12  H1  UNL     1      30.289  12.015  67.232  1.00  0.00     0.154 HD
BRANCH  11  13
HETATM   13  C3  UNL     1      32.232  11.421  67.076  1.00  0.00     0.053 C 
HETATM   14  C4  UNL     1      33.038  12.587  67.760  1.00  0.00     0.041 C 
HETATM   15  C5  UNL     1      33.119  10.231  67.041  1.00  0.00     0.036 C 
HETATM   16  C6  UNL     1      33.186  10.288  65.511  1.00  0.00     0.042 C 
HETATM   17  C7  UNL     1      32.442  11.603  65.609  1.00  0.00     0.197 C 
HETATM   18  F1  UNL     1      33.312  12.635  65.268  1.00  0.00    -0.247 F 
ENDBRANCH  11  13
ENDBRANCH   9  11
ENDBRANCH   1   9
BRANCH   6  19
HETATM   19  C12 UNL     1      24.861   7.696  70.292  1.00  0.00     0.235 C 
HETATM   20  N3  UNL     1      25.042   6.897  71.422  1.00  0.00    -0.062 NA
HETATM   21  O2  UNL     1      23.842   7.415  69.577  1.00  0.00    -0.276 OA
ENDBRANCH   6  19
TORSDOF 4
ENDMDL
MODEL 5
REMARK VINA RESULT: -6.700754063      1.552      2.093
REMARK  4 active torsions:
REMARK  status: ('A' for Active; 'I' for Inactive)
REMARK    1  A    between atoms: C2_2  and  N1_3 
REMARK    2  A    between atoms: C2_2  and  C8_11 
REMARK    3  A    between atoms: N1_3  and  C3_5 
REMARK       I    between atoms: C8_11  and  N2_13 
REMARK    4  A    between atoms: C11_16  and  C12_17 
ROOT
HETATM    1  C8  UNL     1      29.556   8.479  66.502  1.00  0.00     0.245 C 
HETATM    2  O1  UNL     1      29.254   7.541  65.704  1.00  0.00    -0.271 OA
HETATM    3  N2  UNL     1      28.838   8.655  67.695  1.00  0.00    -0.330 N 
HETATM    4  C9  UNL     1      28.774   9.685  68.649  1.00  0.00     0.068 C 
HETATM    5  C10 UNL     1      27.744   9.326  69.714  1.00  0.00     0.058 C 
HETATM    6  C11 UNL     1      26.475   8.735  69.188  1.00  0.00     0.081 C 
HETATM    7  C13 UNL     1      26.745   7.657  68.134  1.00  0.00     0.034 C 
HETATM    8  C14 UNL     1      28.198   7.352  68.154  1.00  0.00     0.132 C 
ENDROOT
BRANCH   1   9
HETATM    9  C2  UNL     1      30.760   9.326  66.094  1.00  0.00     0.166 C 
HETATM   10  C1  UNL     1      31.782   8.281  65.505  1.00  0.00     0.042 C 
BRANCH   9  11
HETATM   11  N1  UNL     1      31.422   9.810  67.246  1.00  0.00    -0.398 N 
ATOM     12  H1  UNL     1      31.273   9.315  68.126  1.00  0.00     0.154 HD
BRANCH  11  13
HETATM   13  C3  UNL     1      32.237  10.885  67.255  1.00  0.00     0.053 C 
HETATM   14  C4  UNL     1      31.664  11.896  68.318  1.00  0.00     0.041 C 
HETATM   15  C5  UNL     1      33.701  10.789  67.481  1.00  0.00     0.036 C 
HETATM   16  C6  UNL     1      33.985  11.454  66.130  1.00  0.00     0.042 C 
HETATM   17  C7  UNL     1      32.495  11.702  66.031  1.00  0.00     0.197 C 
HETATM   18  F1  UNL     1      32.258  13.066  66.181  1.00  0.00    -0.247 F 
ENDBRANCH  11  13
ENDBRANCH   9  11
ENDBRANCH   1   9
BRANCH   6  19
HETATM   19  C12 UNL     1      25.750   8.008  70.267  1.00  0.00     0.235 C 
HETATM   20  N3  UNL     1      26.260   7.814  71.551  1.00  0.00    -0.062 NA
HETATM   21  O2  UNL     1      24.592   7.516  70.055  1.00  0.00    -0.276 OA
ENDBRANCH   6  19
TORSDOF 4
ENDMDL
