MODEL 1
REMARK VINA RESULT: -8.979407323      0.000      0.000
REMARK  13 active torsions:
REMARK  status: ('A' for Active; 'I' for Inactive)
REMARK    1  A    between atoms: N1_1  and  C1_5 
REMARK    2  A    between atoms: C1_5  and  C2_6 
REMARK    3  A    between atoms: C2_6  and  C3_7 
REMARK    4  A    between atoms: C3_7  and  C4_8 
REMARK    5  A    between atoms: C4_8  and  C5_9 
REMARK    6  A    between atoms: C4_8  and  N5_17 
REMARK    7  A    between atoms: C5_9  and  C6_10 
REMARK    8  A    between atoms: C6_10  and  C7_11 
REMARK    9  A    between atoms: C7_11  and  N2_12 
REMARK   10  A    between atoms: C12_21  and  N6_22 
REMARK       I    between atoms: N6_22  and  C13_24 
REMARK   11  A    between atoms: C13_24  and  C14_26 
REMARK   12  A    between atoms: C14_26  and  C15_27 
REMARK   13  A    between atoms: C15_27  and  C16_28 
ROOT
HETATM    1  N5  UNL     1      12.941  10.885  16.714  1.00  0.00    -0.346 N 
HETATM    2  C9  UNL     1      13.142  12.306  16.882  1.00  0.00     0.126 C 
HETATM    3  C10 UNL     1      12.504  13.018  15.709  1.00  0.00     0.022 C 
HETATM    4  C11 UNL     1      13.206  12.686  14.411  1.00  0.00     0.036 C 
HETATM    5  C12 UNL     1      13.018  11.217  14.164  1.00  0.00     0.176 C 
HETATM    6  C22 UNL     1      13.152  10.390  15.398  1.00  0.00     0.243 C 
HETATM    7  O2  UNL     1      13.481   9.170  15.207  1.00  0.00    -0.271 OA
ENDROOT
BRANCH   1   8
HETATM    8  C4  UNL     1      12.560   9.977  17.741  1.00  0.00     0.087 C 
BRANCH   8   9
HETATM    9  C3  UNL     1      13.701   9.440  18.556  1.00  0.00     0.027 C 
BRANCH   9  10
HETATM   10  C2  UNL     1      13.636   7.921  18.604  1.00  0.00     0.029 C 
BRANCH  10  11
HETATM   11  C1  UNL     1      13.112   7.462  19.962  1.00  0.00     0.230 C 
BRANCH  11  12
HETATM   12  N1  UNL     1      13.146   6.006  19.932  1.00  0.00    -0.079 N 
ATOM     13  H13 UNL     1      12.270   5.584  19.623  1.00  0.00     0.274 HD
ATOM     14  H12 UNL     1      13.734   5.627  19.188  1.00  0.00     0.274 HD
ATOM     15  H11 UNL     1      13.432   5.713  20.866  1.00  0.00     0.274 HD
ENDBRANCH  11  12
ENDBRANCH  10  11
ENDBRANCH   9  10
ENDBRANCH   8   9
BRANCH   8  16
HETATM   16  C5  UNL     1      11.516  10.659  18.600  1.00  0.00     0.027 C 
BRANCH  16  17
HETATM   17  C6  UNL     1      12.059  11.119  19.921  1.00  0.00     0.022 C 
BRANCH  17  18
HETATM   18  C7  UNL     1      10.908  11.130  20.907  1.00  0.00     0.122 C 
BRANCH  18  19
HETATM   19  N2  UNL     1      10.881  12.447  21.515  1.00  0.00    -0.367 N 
HETATM   20  C8  UNL     1       9.837  12.898  22.131  1.00  0.00     0.196 C 
HETATM   21  N3  UNL     1       8.668  12.117  22.239  1.00  0.00    -0.067 NA
HETATM   22  N4  UNL     1       9.889  14.197  22.698  1.00  0.00    -0.067 NA
ATOM     23  H2  UNL     1      11.711  13.036  21.455  1.00  0.00     0.161 HD
ENDBRANCH  18  19
ENDBRANCH  17  18
ENDBRANCH  16  17
ENDBRANCH   8  16
ENDBRANCH   1   8
BRANCH   5  24
HETATM   24  N6  UNL     1      13.942  10.752  13.154  1.00  0.00    -0.348 N 
HETATM   25  C13 UNL     1      13.571  10.855  11.794  1.00  0.00     0.218 C 
HETATM   26  O1  UNL     1      12.459  11.343  11.490  1.00  0.00    -0.274 OA
ATOM     27  H6  UNL     1      14.845  10.357  13.418  1.00  0.00     0.163 HD
BRANCH  25  28
HETATM   28  C14 UNL     1      14.525  10.376  10.761  1.00  0.00     0.103 C 
BRANCH  28  29
HETATM   29  C15 UNL     1      15.637   9.652  11.447  1.00  0.00     0.014 C 
BRANCH  29  30
HETATM   30  C16 UNL     1      16.456   8.804  10.499  1.00  0.00    -0.014 C 
HETATM   31  C17 UNL     1      16.156   9.252   9.105  1.00  0.00     0.004 C 
HETATM   32  C18 UNL     1      16.508   8.257   8.046  1.00  0.00     0.000 C 
HETATM   33  C19 UNL     1      15.800   6.944   8.401  1.00  0.00     0.000 C 
HETATM   34  C20 UNL     1      16.512   6.436   9.659  1.00  0.00     0.000 C 
HETATM   35  C21 UNL     1      16.139   7.372  10.772  1.00  0.00     0.004 C 
ENDBRANCH  29  30
ENDBRANCH  28  29
ENDBRANCH  25  28
ENDBRANCH   5  24
TORSDOF 13
ENDMDL
MODEL 2
REMARK VINA RESULT: -8.790736182      0.782      1.220
REMARK  13 active torsions:
REMARK  status: ('A' for Active; 'I' for Inactive)
REMARK    1  A    between atoms: N1_1  and  C1_5 
REMARK    2  A    between atoms: C1_5  and  C2_6 
REMARK    3  A    between atoms: C2_6  and  C3_7 
REMARK    4  A    between atoms: C3_7  and  C4_8 
REMARK    5  A    between atoms: C4_8  and  C5_9 
REMARK    6  A    between atoms: C4_8  and  N5_17 
REMARK    7  A    between atoms: C5_9  and  C6_10 
REMARK    8  A    between atoms: C6_10  and  C7_11 
REMARK    9  A    between atoms: C7_11  and  N2_12 
REMARK   10  A    between atoms: C12_21  and  N6_22 
REMARK       I    between atoms: N6_22  and  C13_24 
REMARK   11  A    between atoms: C13_24  and  C14_26 
REMARK   12  A    between atoms: C14_26  and  C15_27 
REMARK   13  A    between atoms: C15_27  and  C16_28 
ROOT
HETATM    1  N5  UNL     1      12.877  10.662  17.061  1.00  0.00    -0.346 N 
HETATM    2  C9  UNL     1      12.761  12.084  17.290  1.00  0.00     0.126 C 
HETATM    3  C10 UNL     1      12.150  12.716  16.058  1.00  0.00     0.022 C 
HETATM    4  C11 UNL     1      13.067  12.598  14.861  1.00  0.00     0.036 C 
HETATM    5  C12 UNL     1      13.216  11.135  14.555  1.00  0.00     0.176 C 
HETATM    6  C22 UNL     1      13.354  10.288  15.775  1.00  0.00     0.243 C 
HETATM    7  O2  UNL     1      13.946   9.169  15.600  1.00  0.00    -0.271 OA
ENDROOT
BRANCH   1   8
HETATM    8  C4  UNL     1      12.558   9.644  18.002  1.00  0.00     0.087 C 
BRANCH   8   9
HETATM    9  C3  UNL     1      13.727   9.142  18.800  1.00  0.00     0.027 C 
BRANCH   9  10
HETATM   10  C2  UNL     1      13.897   7.646  18.588  1.00  0.00     0.029 C 
BRANCH  10  11
HETATM   11  C1  UNL     1      13.547   6.893  19.869  1.00  0.00     0.230 C 
BRANCH  11  12
HETATM   12  N1  UNL     1      13.430   5.491  19.490  1.00  0.00    -0.079 N 
ATOM     13  H13 UNL     1      12.470   5.147  19.489  1.00  0.00     0.274 HD
ATOM     14  H12 UNL     1      13.623   5.318  18.502  1.00  0.00     0.274 HD
ATOM     15  H11 UNL     1      14.045   4.978  20.121  1.00  0.00     0.274 HD
ENDBRANCH  11  12
ENDBRANCH  10  11
ENDBRANCH   9  10
ENDBRANCH   8   9
BRANCH   8  16
HETATM   16  C5  UNL     1      11.444  10.163  18.886  1.00  0.00     0.027 C 
BRANCH  16  17
HETATM   17  C6  UNL     1      11.768  10.069  20.348  1.00  0.00     0.022 C 
BRANCH  17  18
HETATM   18  C7  UNL     1      10.547  10.532  21.117  1.00  0.00     0.122 C 
BRANCH  18  19
HETATM   19  N2  UNL     1      10.789  11.907  21.513  1.00  0.00    -0.367 N 
HETATM   20  C8  UNL     1       9.869  12.638  22.052  1.00  0.00     0.196 C 
HETATM   21  N3  UNL     1       8.576  12.122  22.280  1.00  0.00    -0.067 NA
HETATM   22  N4  UNL     1      10.183  13.974  22.412  1.00  0.00    -0.067 NA
ATOM     23  H2  UNL     1      11.714  12.309  21.362  1.00  0.00     0.161 HD
ENDBRANCH  18  19
ENDBRANCH  17  18
ENDBRANCH  16  17
ENDBRANCH   8  16
ENDBRANCH   1   8
BRANCH   5  24
HETATM   24  N6  UNL     1      14.339  10.916  13.671  1.00  0.00    -0.348 N 
HETATM   25  C13 UNL     1      14.105  10.847  12.278  1.00  0.00     0.218 C 
HETATM   26  O1  UNL     1      12.940  10.975  11.838  1.00  0.00    -0.274 OA
ATOM     27  H6  UNL     1      15.283  10.813  14.045  1.00  0.00     0.163 HD
BRANCH  25  28
HETATM   28  C14 UNL     1      15.262  10.621  11.375  1.00  0.00     0.103 C 
BRANCH  28  29
HETATM   29  C15 UNL     1      15.242   9.194  10.932  1.00  0.00     0.014 C 
BRANCH  29  30
HETATM   30  C16 UNL     1      15.500   9.038   9.450  1.00  0.00    -0.014 C 
HETATM   31  C17 UNL     1      15.759   7.591   9.179  1.00  0.00     0.004 C 
HETATM   32  C18 UNL     1      16.466   7.320   7.889  1.00  0.00     0.000 C 
HETATM   33  C19 UNL     1      17.754   8.152   7.892  1.00  0.00     0.000 C 
HETATM   34  C20 UNL     1      17.289   9.606   7.778  1.00  0.00     0.000 C 
HETATM   35  C21 UNL     1      16.622   9.949   9.079  1.00  0.00     0.004 C 
ENDBRANCH  29  30
ENDBRANCH  28  29
ENDBRANCH  25  28
ENDBRANCH   5  24
TORSDOF 13
ENDMDL
MODEL 3
REMARK VINA RESULT: -8.754817983      3.162      9.471
REMARK  13 active torsions:
REMARK  status: ('A' for Active; 'I' for Inactive)
REMARK    1  A    between atoms: N1_1  and  C1_5 
REMARK    2  A    between atoms: C1_5  and  C2_6 
REMARK    3  A    between atoms: C2_6  and  C3_7 
REMARK    4  A    between atoms: C3_7  and  C4_8 
REMARK    5  A    between atoms: C4_8  and  C5_9 
REMARK    6  A    between atoms: C4_8  and  N5_17 
REMARK    7  A    between atoms: C5_9  and  C6_10 
REMARK    8  A    between atoms: C6_10  and  C7_11 
REMARK    9  A    between atoms: C7_11  and  N2_12 
REMARK   10  A    between atoms: C12_21  and  N6_22 
REMARK       I    between atoms: N6_22  and  C13_24 
REMARK   11  A    between atoms: C13_24  and  C14_26 
REMARK   12  A    between atoms: C14_26  and  C15_27 
REMARK   13  A    between atoms: C15_27  and  C16_28 
ROOT
HETATM    1  N5  UNL     1      14.568  10.454  12.279  1.00  0.00    -0.346 N 
HETATM    2  C9  UNL     1      13.785  10.727  11.095  1.00  0.00     0.126 C 
HETATM    3  C10 UNL     1      13.178  12.107  11.234  1.00  0.00     0.022 C 
HETATM    4  C11 UNL     1      12.180  12.162  12.370  1.00  0.00     0.036 C 
HETATM    5  C12 UNL     1      12.936  11.904  13.642  1.00  0.00     0.176 C 
HETATM    6  C22 UNL     1      13.963  10.830  13.510  1.00  0.00     0.243 C 
HETATM    7  O2  UNL     1      14.284  10.243  14.598  1.00  0.00    -0.271 OA
ENDROOT
BRANCH   1   8
HETATM    8  C4  UNL     1      15.857   9.854  12.297  1.00  0.00     0.087 C 
BRANCH   8   9
HETATM    9  C3  UNL     1      15.863   8.378  12.019  1.00  0.00     0.027 C 
BRANCH   9  10
HETATM   10  C2  UNL     1      16.277   7.615  13.268  1.00  0.00     0.029 C 
BRANCH  10  11
HETATM   11  C1  UNL     1      15.196   6.607  13.649  1.00  0.00     0.230 C 
BRANCH  11  12
HETATM   12  N1  UNL     1      14.257   7.329  14.496  1.00  0.00    -0.079 N 
ATOM     13  H13 UNL     1      14.149   6.922  15.425  1.00  0.00     0.274 HD
ATOM     14  H12 UNL     1      14.600   8.241  14.800  1.00  0.00     0.274 HD
ATOM     15  H11 UNL     1      13.385   7.377  13.969  1.00  0.00     0.274 HD
ENDBRANCH  11  12
ENDBRANCH  10  11
ENDBRANCH   9  10
ENDBRANCH   8   9
BRANCH   8  16
HETATM   16  C5  UNL     1      16.739  10.620  11.335  1.00  0.00     0.027 C 
BRANCH  16  17
HETATM   17  C6  UNL     1      17.635   9.727  10.528  1.00  0.00     0.022 C 
BRANCH  17  18
HETATM   18  C7  UNL     1      17.464  10.107   9.071  1.00  0.00     0.122 C 
BRANCH  18  19
HETATM   19  N2  UNL     1      16.524   9.165   8.492  1.00  0.00    -0.367 N 
HETATM   20  C8  UNL     1      16.910   8.065   7.932  1.00  0.00     0.196 C 
HETATM   21  N3  UNL     1      18.279   7.732   7.861  1.00  0.00    -0.067 NA
HETATM   22  N4  UNL     1      15.930   7.196   7.389  1.00  0.00    -0.067 NA
ATOM     23  H2  UNL     1      15.527   9.377   8.529  1.00  0.00     0.161 HD
ENDBRANCH  18  19
ENDBRANCH  17  18
ENDBRANCH  16  17
ENDBRANCH   8  16
ENDBRANCH   1   8
BRANCH   5  24
HETATM   24  N6  UNL     1      12.022  11.585  14.717  1.00  0.00    -0.348 N 
HETATM   25  C13 UNL     1      12.151  12.274  15.944  1.00  0.00     0.218 C 
HETATM   26  O1  UNL     1      13.045  13.139  16.080  1.00  0.00    -0.274 OA
ATOM     27  H6  UNL     1      11.299  10.877  14.591  1.00  0.00     0.163 HD
BRANCH  25  28
HETATM   28  C14 UNL     1      11.210  11.942  17.045  1.00  0.00     0.103 C 
BRANCH  28  29
HETATM   29  C15 UNL     1      12.007  11.491  18.225  1.00  0.00     0.014 C 
BRANCH  29  30
HETATM   30  C16 UNL     1      11.928   9.997  18.448  1.00  0.00    -0.014 C 
HETATM   31  C17 UNL     1      11.317   9.764  19.793  1.00  0.00     0.004 C 
HETATM   32  C18 UNL     1      11.573   8.407  20.363  1.00  0.00     0.000 C 
HETATM   33  C19 UNL     1      13.093   8.195  20.369  1.00  0.00     0.000 C 
HETATM   34  C20 UNL     1      13.483   8.073  18.893  1.00  0.00     0.000 C 
HETATM   35  C21 UNL     1      13.300   9.434  18.286  1.00  0.00     0.004 C 
ENDBRANCH  29  30
ENDBRANCH  28  29
ENDBRANCH  25  28
ENDBRANCH   5  24
TORSDOF 13
ENDMDL
MODEL 4
REMARK VINA RESULT: -8.751304655      0.910      1.258
REMARK  13 active torsions:
REMARK  status: ('A' for Active; 'I' for Inactive)
REMARK    1  A    between atoms: N1_1  and  C1_5 
REMARK    2  A    between atoms: C1_5  and  C2_6 
REMARK    3  A    between atoms: C2_6  and  C3_7 
REMARK    4  A    between atoms: C3_7  and  C4_8 
REMARK    5  A    between atoms: C4_8  and  C5_9 
REMARK    6  A    between atoms: C4_8  and  N5_17 
REMARK    7  A    between atoms: C5_9  and  C6_10 
REMARK    8  A    between atoms: C6_10  and  C7_11 
REMARK    9  A    between atoms: C7_11  and  N2_12 
REMARK   10  A    between atoms: C12_21  and  N6_22 
REMARK       I    between atoms: N6_22  and  C13_24 
REMARK   11  A    between atoms: C13_24  and  C14_26 
REMARK   12  A    between atoms: C14_26  and  C15_27 
REMARK   13  A    between atoms: C15_27  and  C16_28 
ROOT
HETATM    1  N5  UNL     1      12.862  10.814  16.913  1.00  0.00    -0.346 N 
HETATM    2  C9  UNL     1      13.135  12.209  17.178  1.00  0.00     0.126 C 
HETATM    3  C10 UNL     1      12.506  13.034  16.075  1.00  0.00     0.022 C 
HETATM    4  C11 UNL     1      13.162  12.766  14.739  1.00  0.00     0.036 C 
HETATM    5  C12 UNL     1      12.899  11.328  14.393  1.00  0.00     0.176 C 
HETATM    6  C22 UNL     1      13.021  10.408  15.560  1.00  0.00     0.243 C 
HETATM    7  O2  UNL     1      13.287   9.192  15.273  1.00  0.00    -0.271 OA
ENDROOT
BRANCH   1   8
HETATM    8  C4  UNL     1      12.461   9.852  17.881  1.00  0.00     0.087 C 
BRANCH   8   9
HETATM    9  C3  UNL     1      13.564   9.374  18.781  1.00  0.00     0.027 C 
BRANCH   9  10
HETATM   10  C2  UNL     1      13.821   7.894  18.546  1.00  0.00     0.029 C 
BRANCH  10  11
HETATM   11  C1  UNL     1      13.602   7.112  19.839  1.00  0.00     0.230 C 
BRANCH  11  12
HETATM   12  N1  UNL     1      13.399   5.726  19.438  1.00  0.00    -0.079 N 
ATOM     13  H13 UNL     1      13.253   5.092  20.224  1.00  0.00     0.274 HD
ATOM     14  H12 UNL     1      12.503   5.562  18.979  1.00  0.00     0.274 HD
ATOM     15  H11 UNL     1      14.204   5.481  18.862  1.00  0.00     0.274 HD
ENDBRANCH  11  12
ENDBRANCH  10  11
ENDBRANCH   9  10
ENDBRANCH   8   9
BRANCH   8  16
HETATM   16  C5  UNL     1      11.300  10.434  18.659  1.00  0.00     0.027 C 
BRANCH  16  17
HETATM   17  C6  UNL     1      11.339  10.079  20.117  1.00  0.00     0.022 C 
BRANCH  17  18
HETATM   18  C7  UNL     1      10.971  11.323  20.899  1.00  0.00     0.122 C 
BRANCH  18  19
HETATM   19  N2  UNL     1      10.241  10.888  22.074  1.00  0.00    -0.367 N 
HETATM   20  C8  UNL     1       9.462  11.682  22.733  1.00  0.00     0.196 C 
HETATM   21  N3  UNL     1       9.287  13.022  22.329  1.00  0.00    -0.067 NA
HETATM   22  N4  UNL     1       8.782  11.181  23.873  1.00  0.00    -0.067 NA
ATOM     23  H2  UNL     1      10.344   9.924  22.391  1.00  0.00     0.161 HD
ENDBRANCH  18  19
ENDBRANCH  17  18
ENDBRANCH  16  17
ENDBRANCH   8  16
ENDBRANCH   1   8
BRANCH   5  24
HETATM   24  N6  UNL     1      13.778  10.896  13.328  1.00  0.00    -0.348 N 
HETATM   25  C13 UNL     1      13.427  11.197  11.993  1.00  0.00     0.218 C 
HETATM   26  O1  UNL     1      12.371  11.825  11.755  1.00  0.00    -0.274 OA
ATOM     27  H6  UNL     1      14.636  10.385  13.538  1.00  0.00     0.163 HD
BRANCH  25  28
HETATM   28  C14 UNL     1      14.333  10.750  10.904  1.00  0.00     0.103 C 
BRANCH  28  29
HETATM   29  C15 UNL     1      15.645  10.370  11.509  1.00  0.00     0.014 C 
BRANCH  29  30
HETATM   30  C16 UNL     1      16.418   9.383  10.662  1.00  0.00    -0.014 C 
HETATM   31  C17 UNL     1      17.606  10.093  10.098  1.00  0.00     0.004 C 
HETATM   32  C18 UNL     1      18.214   9.431   8.904  1.00  0.00     0.000 C 
HETATM   33  C19 UNL     1      17.099   9.248   7.867  1.00  0.00     0.000 C 
HETATM   34  C20 UNL     1      16.170   8.188   8.465  1.00  0.00     0.000 C 
HETATM   35  C21 UNL     1      15.485   8.827   9.638  1.00  0.00     0.004 C 
ENDBRANCH  29  30
ENDBRANCH  28  29
ENDBRANCH  25  28
ENDBRANCH   5  24
TORSDOF 13
ENDMDL
MODEL 5
REMARK VINA RESULT: -8.715729306      0.877      1.355
REMARK  13 active torsions:
REMARK  status: ('A' for Active; 'I' for Inactive)
REMARK    1  A    between atoms: N1_1  and  C1_5 
REMARK    2  A    between atoms: C1_5  and  C2_6 
REMARK    3  A    between atoms: C2_6  and  C3_7 
REMARK    4  A    between atoms: C3_7  and  C4_8 
REMARK    5  A    between atoms: C4_8  and  C5_9 
REMARK    6  A    between atoms: C4_8  and  N5_17 
REMARK    7  A    between atoms: C5_9  and  C6_10 
REMARK    8  A    between atoms: C6_10  and  C7_11 
REMARK    9  A    between atoms: C7_11  and  N2_12 
REMARK   10  A    between atoms: C12_21  and  N6_22 
REMARK       I    between atoms: N6_22  and  C13_24 
REMARK   11  A    between atoms: C13_24  and  C14_26 
REMARK   12  A    between atoms: C14_26  and  C15_27 
REMARK   13  A    between atoms: C15_27  and  C16_28 
ROOT
HETATM    1  N5  UNL     1      12.891  10.916  16.771  1.00  0.00    -0.346 N 
HETATM    2  C9  UNL     1      13.037  12.348  16.902  1.00  0.00     0.126 C 
HETATM    3  C10 UNL     1      12.440  13.001  15.674  1.00  0.00     0.022 C 
HETATM    4  C11 UNL     1      13.220  12.652  14.426  1.00  0.00     0.036 C 
HETATM    5  C12 UNL     1      13.093  11.170  14.219  1.00  0.00     0.176 C 
HETATM    6  C22 UNL     1      13.188  10.387  15.485  1.00  0.00     0.243 C 
HETATM    7  O2  UNL     1      13.565   9.174  15.351  1.00  0.00    -0.271 OA
ENDROOT
BRANCH   1   8
HETATM    8  C4  UNL     1      12.485  10.028  17.806  1.00  0.00     0.087 C 
BRANCH   8   9
HETATM    9  C3  UNL     1      13.607   9.504  18.655  1.00  0.00     0.027 C 
BRANCH   9  10
HETATM   10  C2  UNL     1      13.451   8.004  18.855  1.00  0.00     0.029 C 
BRANCH  10  11
HETATM   11  C1  UNL     1      12.858   7.718  20.233  1.00  0.00     0.230 C 
BRANCH  11  12
HETATM   12  N1  UNL     1      13.682   6.666  20.812  1.00  0.00    -0.079 N 
ATOM     13  H13 UNL     1      14.638   6.654  20.456  1.00  0.00     0.274 HD
ATOM     14  H12 UNL     1      13.917   6.825  21.792  1.00  0.00     0.274 HD
ATOM     15  H11 UNL     1      13.177   5.795  20.650  1.00  0.00     0.274 HD
ENDBRANCH  11  12
ENDBRANCH  10  11
ENDBRANCH   9  10
ENDBRANCH   8   9
BRANCH   8  16
HETATM   16  C5  UNL     1      11.426  10.729  18.629  1.00  0.00     0.027 C 
BRANCH  16  17
HETATM   17  C6  UNL     1      11.974  11.344  19.883  1.00  0.00     0.022 C 
BRANCH  17  18
HETATM   18  C7  UNL     1      10.897  11.252  20.945  1.00  0.00     0.122 C 
BRANCH  18  19
HETATM   19  N2  UNL     1      10.884  12.519  21.650  1.00  0.00    -0.367 N 
HETATM   20  C8  UNL     1       9.834  12.950  22.271  1.00  0.00     0.196 C 
HETATM   21  N3  UNL     1       8.644  12.193  22.288  1.00  0.00    -0.067 NA
HETATM   22  N4  UNL     1       9.901  14.200  22.937  1.00  0.00    -0.067 NA
ATOM     23  H2  UNL     1      11.729  13.089  21.658  1.00  0.00     0.161 HD
ENDBRANCH  18  19
ENDBRANCH  17  18
ENDBRANCH  16  17
ENDBRANCH   8  16
ENDBRANCH   1   8
BRANCH   5  24
HETATM   24  N6  UNL     1      14.084  10.705  13.274  1.00  0.00    -0.348 N 
HETATM   25  C13 UNL     1      13.780  10.746  11.895  1.00  0.00     0.218 C 
HETATM   26  O1  UNL     1      12.668  11.180  11.517  1.00  0.00    -0.274 OA
ATOM     27  H6  UNL     1      14.986  10.355  13.598  1.00  0.00     0.163 HD
BRANCH  25  28
HETATM   28  C14 UNL     1      14.802  10.267  10.929  1.00  0.00     0.103 C 
BRANCH  28  29
HETATM   29  C15 UNL     1      16.141  10.333  11.589  1.00  0.00     0.014 C 
BRANCH  29  30
HETATM   30  C16 UNL     1      16.829   8.988  11.652  1.00  0.00    -0.014 C 
HETATM   31  C17 UNL     1      16.174   8.089  10.654  1.00  0.00     0.004 C 
HETATM   32  C18 UNL     1      16.405   6.631  10.889  1.00  0.00     0.000 C 
HETATM   33  C19 UNL     1      15.963   6.325  12.325  1.00  0.00     0.000 C 
HETATM   34  C20 UNL     1      16.993   7.027  13.215  1.00  0.00     0.000 C 
HETATM   35  C21 UNL     1      16.762   8.502  13.062  1.00  0.00     0.004 C 
ENDBRANCH  29  30
ENDBRANCH  28  29
ENDBRANCH  25  28
ENDBRANCH   5  24
TORSDOF 13
ENDMDL
