MODEL 1
REMARK VINA RESULT: -7.700780968      0.000      0.000
REMARK  14 active torsions:
REMARK  status: ('A' for Active; 'I' for Inactive)
REMARK    1  A    between atoms: C2_2  and  C4_4 
REMARK    2  A    between atoms: C5_5  and  C6_6 
REMARK    3  A    between atoms: C6_6  and  C7_7 
REMARK    4  A    between atoms: C7_7  and  C8_8 
REMARK    5  A    between atoms: C8_8  and  C9_9 
REMARK    6  A    between atoms: C11_14  and  C12_15 
REMARK    7  A    between atoms: C12_15  and  C13_16 
REMARK    8  A    between atoms: C13_16  and  C14_17 
REMARK    9  A    between atoms: C14_17  and  C15_18 
REMARK   10  A    between atoms: C15_18  and  N2_19 
REMARK   11  A    between atoms: C16_25  and  O2_26 
REMARK   12  A    between atoms: C17_28  and  C18_29 
REMARK   13  A    between atoms: N4_31  and  C20_32 
REMARK   14  A    between atoms: C20_32  and  C21_33 
ROOT
HETATM    1  C9  UNL     1      15.446   9.245  12.142  1.00  0.00     0.176 C 
HETATM    2  N1  UNL     1      15.846   8.785  13.490  1.00  0.00    -0.346 N 
ATOM      3  H1  UNL     1      15.689   9.378  14.305  1.00  0.00     0.163 HD
HETATM    4  C10 UNL     1      16.456   7.504  13.637  1.00  0.00     0.241 C 
HETATM    5  O1  UNL     1      17.436   7.439  14.420  1.00  0.00    -0.271 OA
HETATM    6  C11 UNL     1      15.980   6.304  12.918  1.00  0.00     0.175 C 
HETATM    7  N3  UNL     1      16.926   5.828  11.920  1.00  0.00    -0.359 N 
ATOM      8  H3  UNL     1      17.085   4.820  11.914  1.00  0.00     0.162 HD
HETATM    9  C16 UNL     1      17.640   6.549  10.977  1.00  0.00     0.135 C 
HETATM   10  C17 UNL     1      17.133   7.465   9.921  1.00  0.00     0.161 C 
HETATM   11  N4  UNL     1      17.207   8.865  10.259  1.00  0.00    -0.338 N 
HETATM   12  C23 UNL     1      16.645   9.543  11.333  1.00  0.00     0.243 C 
HETATM   13  O3  UNL     1      17.249  10.618  11.713  1.00  0.00    -0.271 OA
ENDROOT
BRANCH   1  14
HETATM   14  C8  UNL     1      14.606  10.479  12.398  1.00  0.00     0.035 C 
BRANCH  14  15
HETATM   15  C7  UNL     1      13.693  10.833  11.279  1.00  0.00     0.014 C 
BRANCH  15  16
HETATM   16  C6  UNL     1      12.748  11.930  11.791  1.00  0.00     0.094 C 
BRANCH  16  17
HETATM   17  C5  UNL     1      12.642  11.714  13.237  1.00  0.00    -0.101 C 
HETATM   18  C4  UNL     1      12.576  11.526  14.436  1.00  0.00    -0.073 C 
BRANCH  18  19
HETATM   19  C2  UNL     1      12.520  11.287  15.859  1.00  0.00    -0.018 C 
HETATM   20  C1  UNL     1      13.251  10.337  16.393  1.00  0.00     0.028 C 
HETATM   21  C3  UNL     1      11.637  12.106  16.728  1.00  0.00     0.057 C 
ENDBRANCH  18  19
ENDBRANCH  16  17
ENDBRANCH  15  16
ENDBRANCH  14  15
ENDBRANCH   1  14
BRANCH  11  22
HETATM   22  C20 UNL     1      18.028   9.699   9.337  1.00  0.00     0.126 C 
BRANCH  22  23
HETATM   23  C21 UNL     1      17.226  10.120   8.132  1.00  0.00     0.015 C 
HETATM   24  C22 UNL     1      17.570   9.282   6.916  1.00  0.00     0.006 C 
ENDBRANCH  22  23
ENDBRANCH  11  22
BRANCH   6  25
HETATM   25  C12 UNL     1      15.602   5.241  13.885  1.00  0.00     0.035 C 
BRANCH  25  26
HETATM   26  C13 UNL     1      14.363   4.467  13.627  1.00  0.00     0.004 C 
BRANCH  26  27
HETATM   27  C14 UNL     1      14.643   3.342  12.596  1.00  0.00     0.027 C 
BRANCH  27  28
HETATM   28  C15 UNL     1      15.784   2.502  13.106  1.00  0.00     0.229 C 
BRANCH  28  29
HETATM   29  N2  UNL     1      16.390   1.769  12.023  1.00  0.00    -0.079 N 
ATOM     30  H23 UNL     1      15.827   0.965  11.746  1.00  0.00     0.274 HD
ATOM     31  H22 UNL     1      16.354   2.288  11.146  1.00  0.00     0.274 HD
ATOM     32  H21 UNL     1      17.343   1.499  12.266  1.00  0.00     0.274 HD
ENDBRANCH  28  29
ENDBRANCH  27  28
ENDBRANCH  26  27
ENDBRANCH  25  26
ENDBRANCH   6  25
BRANCH  10  33
HETATM   33  C18 UNL     1      15.828   7.022   9.312  1.00  0.00     0.029 C 
HETATM   34  C19 UNL     1      16.094   6.058   8.137  1.00  0.00     0.007 C 
ENDBRANCH  10  33
BRANCH   9  35
HETATM   35  O2  UNL     1      18.932   6.403  11.022  1.00  0.00    -0.348 OA
ATOM     36  H2  UNL     1      19.399   7.052  11.536  1.00  0.00     0.219 HD
ENDBRANCH   9  35
TORSDOF 14
ENDMDL
MODEL 2
REMARK VINA RESULT: -7.611024380      1.361      1.793
REMARK  14 active torsions:
REMARK  status: ('A' for Active; 'I' for Inactive)
REMARK    1  A    between atoms: C2_2  and  C4_4 
REMARK    2  A    between atoms: C5_5  and  C6_6 
REMARK    3  A    between atoms: C6_6  and  C7_7 
REMARK    4  A    between atoms: C7_7  and  C8_8 
REMARK    5  A    between atoms: C8_8  and  C9_9 
REMARK    6  A    between atoms: C11_14  and  C12_15 
REMARK    7  A    between atoms: C12_15  and  C13_16 
REMARK    8  A    between atoms: C13_16  and  C14_17 
REMARK    9  A    between atoms: C14_17  and  C15_18 
REMARK   10  A    between atoms: C15_18  and  N2_19 
REMARK   11  A    between atoms: C16_25  and  O2_26 
REMARK   12  A    between atoms: C17_28  and  C18_29 
REMARK   13  A    between atoms: N4_31  and  C20_32 
REMARK   14  A    between atoms: C20_32  and  C21_33 
ROOT
HETATM    1  C9  UNL     1      15.711   8.627  12.782  1.00  0.00     0.176 C 
HETATM    2  N1  UNL     1      16.315   8.183  14.057  1.00  0.00    -0.346 N 
ATOM      3  H1  UNL     1      16.134   8.697  14.920  1.00  0.00     0.163 HD
HETATM    4  C10 UNL     1      17.154   7.029  14.068  1.00  0.00     0.241 C 
HETATM    5  O1  UNL     1      18.201   7.107  14.757  1.00  0.00    -0.271 OA
HETATM    6  C11 UNL     1      16.831   5.799  13.315  1.00  0.00     0.175 C 
HETATM    7  N3  UNL     1      17.745   5.553  12.211  1.00  0.00    -0.359 N 
ATOM      8  H3  UNL     1      18.080   4.593  12.125  1.00  0.00     0.162 HD
HETATM    9  C16 UNL     1      18.226   6.437  11.259  1.00  0.00     0.135 C 
HETATM   10  C17 UNL     1      17.464   7.295  10.313  1.00  0.00     0.161 C 
HETATM   11  N4  UNL     1      17.320   8.667  10.733  1.00  0.00    -0.338 N 
HETATM   12  C23 UNL     1      16.754   9.178  11.894  1.00  0.00     0.243 C 
HETATM   13  O3  UNL     1      17.191  10.326  12.290  1.00  0.00    -0.271 OA
ENDROOT
BRANCH   1  14
HETATM   14  C8  UNL     1      14.694   9.673  13.190  1.00  0.00     0.035 C 
BRANCH  14  15
HETATM   15  C7  UNL     1      14.141   9.479  14.557  1.00  0.00     0.014 C 
BRANCH  15  16
HETATM   16  C6  UNL     1      13.444  10.787  14.957  1.00  0.00     0.094 C 
BRANCH  16  17
HETATM   17  C5  UNL     1      12.907  10.551  16.300  1.00  0.00    -0.101 C 
HETATM   18  C4  UNL     1      12.450  10.338  17.406  1.00  0.00    -0.073 C 
BRANCH  18  19
HETATM   19  C2  UNL     1      11.888  10.067  18.709  1.00  0.00    -0.018 C 
HETATM   20  C1  UNL     1      12.370   9.090  19.440  1.00  0.00     0.028 C 
HETATM   21  C3  UNL     1      10.763  10.884  19.231  1.00  0.00     0.057 C 
ENDBRANCH  18  19
ENDBRANCH  16  17
ENDBRANCH  15  16
ENDBRANCH  14  15
ENDBRANCH   1  14
BRANCH  11  22
HETATM   22  C20 UNL     1      17.887   9.681   9.800  1.00  0.00     0.126 C 
BRANCH  22  23
HETATM   23  C21 UNL     1      16.955   9.929   8.642  1.00  0.00     0.015 C 
HETATM   24  C22 UNL     1      17.502   9.345   7.354  1.00  0.00     0.006 C 
ENDBRANCH  22  23
ENDBRANCH  11  22
BRANCH   6  25
HETATM   25  C12 UNL     1      16.744   4.639  14.240  1.00  0.00     0.035 C 
BRANCH  25  26
HETATM   26  C13 UNL     1      15.421   3.997  14.435  1.00  0.00     0.004 C 
BRANCH  26  27
HETATM   27  C14 UNL     1      14.631   3.988  13.100  1.00  0.00     0.027 C 
BRANCH  27  28
HETATM   28  C15 UNL     1      15.094   2.814  12.279  1.00  0.00     0.229 C 
BRANCH  28  29
HETATM   29  N2  UNL     1      15.406   3.232  10.936  1.00  0.00    -0.079 N 
ATOM     30  H23 UNL     1      14.578   3.251  10.342  1.00  0.00     0.274 HD
ATOM     31  H22 UNL     1      15.645   4.223  10.893  1.00  0.00     0.274 HD
ATOM     32  H21 UNL     1      16.143   2.646  10.544  1.00  0.00     0.274 HD
ENDBRANCH  28  29
ENDBRANCH  27  28
ENDBRANCH  26  27
ENDBRANCH  25  26
ENDBRANCH   6  25
BRANCH  10  33
HETATM   33  C18 UNL     1      16.206   6.651   9.791  1.00  0.00     0.029 C 
HETATM   34  C19 UNL     1      16.511   5.865   8.499  1.00  0.00     0.007 C 
ENDBRANCH  10  33
BRANCH   9  35
HETATM   35  O2  UNL     1      19.521   6.528  11.182  1.00  0.00    -0.348 OA
ATOM     36  H2  UNL     1      19.875   6.602  10.304  1.00  0.00     0.219 HD
ENDBRANCH   9  35
TORSDOF 14
ENDMDL
MODEL 3
REMARK VINA RESULT: -7.590734123      1.265      1.949
REMARK  14 active torsions:
REMARK  status: ('A' for Active; 'I' for Inactive)
REMARK    1  A    between atoms: C2_2  and  C4_4 
REMARK    2  A    between atoms: C5_5  and  C6_6 
REMARK    3  A    between atoms: C6_6  and  C7_7 
REMARK    4  A    between atoms: C7_7  and  C8_8 
REMARK    5  A    between atoms: C8_8  and  C9_9 
REMARK    6  A    between atoms: C11_14  and  C12_15 
REMARK    7  A    between atoms: C12_15  and  C13_16 
REMARK    8  A    between atoms: C13_16  and  C14_17 
REMARK    9  A    between atoms: C14_17  and  C15_18 
REMARK   10  A    between atoms: C15_18  and  N2_19 
REMARK   11  A    between atoms: C16_25  and  O2_26 
REMARK   12  A    between atoms: C17_28  and  C18_29 
REMARK   13  A    between atoms: N4_31  and  C20_32 
REMARK   14  A    between atoms: C20_32  and  C21_33 
ROOT
HETATM    1  C9  UNL     1      15.471   9.457  12.025  1.00  0.00     0.176 C 
HETATM    2  N1  UNL     1      15.882   9.042  13.384  1.00  0.00    -0.346 N 
ATOM      3  H1  UNL     1      15.748   9.669  14.177  1.00  0.00     0.163 HD
HETATM    4  C10 UNL     1      16.470   7.755  13.573  1.00  0.00     0.241 C 
HETATM    5  O1  UNL     1      17.459   7.702  14.344  1.00  0.00    -0.271 OA
HETATM    6  C11 UNL     1      15.960   6.538  12.907  1.00  0.00     0.175 C 
HETATM    7  N3  UNL     1      16.883   6.006  11.916  1.00  0.00    -0.359 N 
ATOM      8  H3  UNL     1      17.023   4.996  11.947  1.00  0.00     0.162 HD
HETATM    9  C16 UNL     1      17.597   6.675  10.936  1.00  0.00     0.135 C 
HETATM   10  C17 UNL     1      17.092   7.559   9.852  1.00  0.00     0.161 C 
HETATM   11  N4  UNL     1      17.197   8.970  10.134  1.00  0.00    -0.338 N 
HETATM   12  C23 UNL     1      16.664   9.700  11.189  1.00  0.00     0.243 C 
HETATM   13  O3  UNL     1      17.294  10.777  11.518  1.00  0.00    -0.271 OA
ENDROOT
BRANCH   1  14
HETATM   14  C8  UNL     1      14.659  10.716  12.244  1.00  0.00     0.035 C 
BRANCH  14  15
HETATM   15  C7  UNL     1      13.540  10.891  11.280  1.00  0.00     0.014 C 
BRANCH  15  16
HETATM   16  C6  UNL     1      12.633  12.000  11.830  1.00  0.00     0.094 C 
BRANCH  16  17
HETATM   17  C5  UNL     1      12.586  11.787  13.279  1.00  0.00    -0.101 C 
HETATM   18  C4  UNL     1      12.538  11.590  14.478  1.00  0.00    -0.073 C 
BRANCH  18  19
HETATM   19  C2  UNL     1      12.465  11.332  15.897  1.00  0.00    -0.018 C 
HETATM   20  C1  UNL     1      11.719  12.092  16.664  1.00  0.00     0.028 C 
HETATM   21  C3  UNL     1      13.232  10.213  16.501  1.00  0.00     0.057 C 
ENDBRANCH  18  19
ENDBRANCH  16  17
ENDBRANCH  15  16
ENDBRANCH  14  15
ENDBRANCH   1  14
BRANCH  11  22
HETATM   22  C20 UNL     1      18.021   9.752   9.169  1.00  0.00     0.126 C 
BRANCH  22  23
HETATM   23  C21 UNL     1      17.222  10.104   7.940  1.00  0.00     0.015 C 
HETATM   24  C22 UNL     1      17.558   9.190   6.779  1.00  0.00     0.006 C 
ENDBRANCH  22  23
ENDBRANCH  11  22
BRANCH   6  25
HETATM   25  C12 UNL     1      15.577   5.521  13.921  1.00  0.00     0.035 C 
BRANCH  25  26
HETATM   26  C13 UNL     1      14.170   5.498  14.392  1.00  0.00     0.004 C 
BRANCH  26  27
HETATM   27  C14 UNL     1      13.966   6.555  15.509  1.00  0.00     0.027 C 
BRANCH  27  28
HETATM   28  C15 UNL     1      14.995   6.320  16.583  1.00  0.00     0.229 C 
BRANCH  28  29
HETATM   29  N2  UNL     1      14.373   5.778  17.764  1.00  0.00    -0.079 N 
ATOM     30  H23 UNL     1      13.988   4.848  17.599  1.00  0.00     0.274 HD
ATOM     31  H22 UNL     1      15.060   5.532  18.477  1.00  0.00     0.274 HD
ATOM     32  H21 UNL     1      13.668   6.423  18.122  1.00  0.00     0.274 HD
ENDBRANCH  28  29
ENDBRANCH  27  28
ENDBRANCH  26  27
ENDBRANCH  25  26
ENDBRANCH   6  25
BRANCH  10  33
HETATM   33  C18 UNL     1      15.771   7.119   9.279  1.00  0.00     0.029 C 
HETATM   34  C19 UNL     1      15.997   6.052   8.187  1.00  0.00     0.007 C 
ENDBRANCH  10  33
BRANCH   9  35
HETATM   35  O2  UNL     1      18.886   6.506  10.969  1.00  0.00    -0.348 OA
ATOM     36  H2  UNL     1      19.350   6.740  10.173  1.00  0.00     0.219 HD
ENDBRANCH   9  35
TORSDOF 14
ENDMDL
MODEL 4
REMARK VINA RESULT: -7.580616425      2.258      7.409
REMARK  14 active torsions:
REMARK  status: ('A' for Active; 'I' for Inactive)
REMARK    1  A    between atoms: C2_2  and  C4_4 
REMARK    2  A    between atoms: C5_5  and  C6_6 
REMARK    3  A    between atoms: C6_6  and  C7_7 
REMARK    4  A    between atoms: C7_7  and  C8_8 
REMARK    5  A    between atoms: C8_8  and  C9_9 
REMARK    6  A    between atoms: C11_14  and  C12_15 
REMARK    7  A    between atoms: C12_15  and  C13_16 
REMARK    8  A    between atoms: C13_16  and  C14_17 
REMARK    9  A    between atoms: C14_17  and  C15_18 
REMARK   10  A    between atoms: C15_18  and  N2_19 
REMARK   11  A    between atoms: C16_25  and  O2_26 
REMARK   12  A    between atoms: C17_28  and  C18_29 
REMARK   13  A    between atoms: N4_31  and  C20_32 
REMARK   14  A    between atoms: C20_32  and  C21_33 
ROOT
HETATM    1  C9  UNL     1      16.259   8.203  10.084  1.00  0.00     0.176 C 
HETATM    2  N1  UNL     1      16.347   9.616  10.515  1.00  0.00    -0.346 N 
ATOM      3  H1  UNL     1      16.492  10.356   9.829  1.00  0.00     0.163 HD
HETATM    4  C10 UNL     1      16.227   9.931  11.902  1.00  0.00     0.241 C 
HETATM    5  O1  UNL     1      17.026  10.790  12.350  1.00  0.00    -0.271 OA
HETATM    6  C11 UNL     1      15.228   9.292  12.783  1.00  0.00     0.175 C 
HETATM    7  N3  UNL     1      15.826   8.421  13.783  1.00  0.00    -0.359 N 
ATOM      8  H3  UNL     1      15.458   8.522  14.729  1.00  0.00     0.162 HD
HETATM    9  C16 UNL     1      16.825   7.473  13.632  1.00  0.00     0.135 C 
HETATM   10  C17 UNL     1      16.869   6.299  12.721  1.00  0.00     0.161 C 
HETATM   11  N4  UNL     1      17.629   6.508  11.513  1.00  0.00    -0.338 N 
HETATM   12  C23 UNL     1      17.462   7.466  10.522  1.00  0.00     0.243 C 
HETATM   13  O3  UNL     1      18.517   7.789   9.852  1.00  0.00    -0.271 OA
ENDROOT
BRANCH   1  14
HETATM   14  C8  UNL     1      16.149   8.276   8.576  1.00  0.00     0.035 C 
BRANCH  14  15
HETATM   15  C7  UNL     1      15.865   6.969   7.926  1.00  0.00     0.014 C 
BRANCH  15  16
HETATM   16  C6  UNL     1      16.265   7.097   6.449  1.00  0.00     0.094 C 
BRANCH  16  17
HETATM   17  C5  UNL     1      16.895   5.821   6.100  1.00  0.00    -0.101 C 
HETATM   18  C4  UNL     1      17.406   4.762   5.791  1.00  0.00    -0.073 C 
BRANCH  18  19
HETATM   19  C2  UNL     1      17.994   3.501   5.402  1.00  0.00    -0.018 C 
HETATM   20  C1  UNL     1      17.960   2.481   6.226  1.00  0.00     0.028 C 
HETATM   21  C3  UNL     1      18.643   3.349   4.075  1.00  0.00     0.057 C 
ENDBRANCH  18  19
ENDBRANCH  16  17
ENDBRANCH  15  16
ENDBRANCH  14  15
ENDBRANCH   1  14
BRANCH  11  22
HETATM   22  C20 UNL     1      18.777   5.578  11.315  1.00  0.00     0.126 C 
BRANCH  22  23
HETATM   23  C21 UNL     1      18.378   4.403  10.460  1.00  0.00     0.015 C 
HETATM   24  C22 UNL     1      19.116   4.404   9.136  1.00  0.00     0.006 C 
ENDBRANCH  22  23
ENDBRANCH  11  22
BRANCH   6  25
HETATM   25  C12 UNL     1      14.347  10.323  13.393  1.00  0.00     0.035 C 
BRANCH  25  26
HETATM   26  C13 UNL     1      13.722  10.024  14.704  1.00  0.00     0.004 C 
BRANCH  26  27
HETATM   27  C14 UNL     1      12.643  11.088  15.034  1.00  0.00     0.027 C 
BRANCH  27  28
HETATM   28  C15 UNL     1      12.319  11.846  13.774  1.00  0.00     0.229 C 
BRANCH  28  29
HETATM   29  N2  UNL     1      11.101  11.348  13.188  1.00  0.00    -0.079 N 
ATOM     30  H23 UNL     1      11.136  11.362  12.169  1.00  0.00     0.274 HD
ATOM     31  H22 UNL     1      10.998  10.342  13.322  1.00  0.00     0.274 HD
ATOM     32  H21 UNL     1      10.297  11.864  13.547  1.00  0.00     0.274 HD
ENDBRANCH  28  29
ENDBRANCH  27  28
ENDBRANCH  26  27
ENDBRANCH  25  26
ENDBRANCH   6  25
BRANCH  10  33
HETATM   33  C18 UNL     1      15.531   5.635  12.527  1.00  0.00     0.029 C 
HETATM   34  C19 UNL     1      15.114   4.899  13.817  1.00  0.00     0.007 C 
ENDBRANCH  10  33
BRANCH   9  35
HETATM   35  O2  UNL     1      17.867   7.632  14.393  1.00  0.00    -0.348 OA
ATOM     36  H2  UNL     1      18.323   8.460  14.295  1.00  0.00     0.219 HD
ENDBRANCH   9  35
TORSDOF 14
ENDMDL
MODEL 5
REMARK VINA RESULT: -7.505834265      2.152      5.411
REMARK  14 active torsions:
REMARK  status: ('A' for Active; 'I' for Inactive)
REMARK    1  A    between atoms: C2_2  and  C4_4 
REMARK    2  A    between atoms: C5_5  and  C6_6 
REMARK    3  A    between atoms: C6_6  and  C7_7 
REMARK    4  A    between atoms: C7_7  and  C8_8 
REMARK    5  A    between atoms: C8_8  and  C9_9 
REMARK    6  A    between atoms: C11_14  and  C12_15 
REMARK    7  A    between atoms: C12_15  and  C13_16 
REMARK    8  A    between atoms: C13_16  and  C14_17 
REMARK    9  A    between atoms: C14_17  and  C15_18 
REMARK   10  A    between atoms: C15_18  and  N2_19 
REMARK   11  A    between atoms: C16_25  and  O2_26 
REMARK   12  A    between atoms: C17_28  and  C18_29 
REMARK   13  A    between atoms: N4_31  and  C20_32 
REMARK   14  A    between atoms: C20_32  and  C21_33 
ROOT
HETATM    1  C9  UNL     1      14.775   9.061  14.573  1.00  0.00     0.176 C 
HETATM    2  N1  UNL     1      14.315   9.646  13.295  1.00  0.00    -0.346 N 
ATOM      3  H1  UNL     1      13.444  10.176  13.254  1.00  0.00     0.163 HD
HETATM    4  C10 UNL     1      15.103   9.462  12.119  1.00  0.00     0.241 C 
HETATM    5  O1  UNL     1      14.477   9.191  11.065  1.00  0.00    -0.271 OA
HETATM    6  C11 UNL     1      16.576   9.576  12.118  1.00  0.00     0.175 C 
HETATM    7  N3  UNL     1      17.243   8.305  11.880  1.00  0.00    -0.359 N 
ATOM      8  H3  UNL     1      18.012   8.333  11.210  1.00  0.00     0.162 HD
HETATM    9  C16 UNL     1      16.982   7.062  12.434  1.00  0.00     0.135 C 
HETATM   10  C17 UNL     1      16.948   6.668  13.867  1.00  0.00     0.161 C 
HETATM   11  N4  UNL     1      15.625   6.601  14.438  1.00  0.00    -0.338 N 
HETATM   12  C23 UNL     1      14.654   7.589  14.527  1.00  0.00     0.243 C 
HETATM   13  O3  UNL     1      13.429   7.188  14.580  1.00  0.00    -0.271 OA
ENDROOT
BRANCH   1  14
HETATM   14  C8  UNL     1      13.870   9.678  15.618  1.00  0.00     0.035 C 
BRANCH  14  15
HETATM   15  C7  UNL     1      12.912  10.678  15.075  1.00  0.00     0.014 C 
BRANCH  15  16
HETATM   16  C6  UNL     1      12.772  11.791  16.123  1.00  0.00     0.094 C 
BRANCH  16  17
HETATM   17  C5  UNL     1      12.199  11.146  17.308  1.00  0.00    -0.101 C 
HETATM   18  C4  UNL     1      11.713  10.630  18.295  1.00  0.00    -0.073 C 
BRANCH  18  19
HETATM   19  C2  UNL     1      11.125  10.042  19.476  1.00  0.00    -0.018 C 
HETATM   20  C1  UNL     1      10.107  10.628  20.062  1.00  0.00     0.028 C 
HETATM   21  C3  UNL     1      11.664   8.778  20.038  1.00  0.00     0.057 C 
ENDBRANCH  18  19
ENDBRANCH  16  17
ENDBRANCH  15  16
ENDBRANCH  14  15
ENDBRANCH   1  14
BRANCH  11  22
HETATM   22  C20 UNL     1      15.234   5.271  14.984  1.00  0.00     0.126 C 
BRANCH  22  23
HETATM   23  C21 UNL     1      15.618   4.164  14.035  1.00  0.00     0.015 C 
HETATM   24  C22 UNL     1      14.464   3.786  13.127  1.00  0.00     0.006 C 
ENDBRANCH  22  23
ENDBRANCH  11  22
BRANCH   6  25
HETATM   25  C12 UNL     1      17.009  10.625  11.159  1.00  0.00     0.035 C 
BRANCH  25  26
HETATM   26  C13 UNL     1      17.858  10.219  10.012  1.00  0.00     0.004 C 
BRANCH  26  27
HETATM   27  C14 UNL     1      16.980   9.990   8.754  1.00  0.00     0.027 C 
BRANCH  27  28
HETATM   28  C15 UNL     1      17.071   8.538   8.366  1.00  0.00     0.229 C 
BRANCH  28  29
HETATM   29  N2  UNL     1      15.910   7.822   8.830  1.00  0.00    -0.079 N 
ATOM     30  H23 UNL     1      15.219   8.446   9.246  1.00  0.00     0.274 HD
ATOM     31  H22 UNL     1      15.347   7.469   8.056  1.00  0.00     0.274 HD
ATOM     32  H21 UNL     1      16.184   7.077   9.471  1.00  0.00     0.274 HD
ENDBRANCH  28  29
ENDBRANCH  27  28
ENDBRANCH  26  27
ENDBRANCH  25  26
ENDBRANCH   6  25
BRANCH  10  33
HETATM   33  C18 UNL     1      17.974   7.375  14.714  1.00  0.00     0.029 C 
HETATM   34  C19 UNL     1      18.645   6.374  15.678  1.00  0.00     0.007 C 
ENDBRANCH  10  33
BRANCH   9  35
HETATM   35  O2  UNL     1      16.734   6.111  11.583  1.00  0.00    -0.348 OA
ATOM     36  H2  UNL     1      15.937   5.618  11.741  1.00  0.00     0.219 HD
ENDBRANCH   9  35
TORSDOF 14
ENDMDL
