MODEL 1
REMARK VINA RESULT: -7.699501270      0.000      0.000
REMARK  12 active torsions:
REMARK  status: ('A' for Active; 'I' for Inactive)
REMARK    1  A    between atoms: C5_5  and  N1_6 
REMARK    2  A    between atoms: N1_6  and  C6_7 
REMARK    3  A    between atoms: N1_6  and  C8_11 
REMARK    4  A    between atoms: N1_6  and  C15_21 
REMARK    5  A    between atoms: C6_7  and  C7_8 
REMARK    6  A    between atoms: C7_8  and  O1_9 
REMARK    7  A    between atoms: C9_12  and  C10_13 
REMARK    8  A    between atoms: C15_21  and  C16_22 
REMARK    9  A    between atoms: C15_21  and  C17_25 
REMARK   10  A    between atoms: C16_22  and  O2_23 
REMARK   11  A    between atoms: C17_25  and  C18_26 
REMARK   12  A    between atoms: C18_26  and  O3_27 
ROOT
HETATM    1  N1  UNL     1      17.087   7.908  11.182  1.00  0.00    -0.019 N 
ENDROOT
BRANCH   1   2
HETATM    2  C5  UNL     1      17.917   7.206  10.176  1.00  0.00     0.212 C 
HETATM    3  C4  UNL     1      17.593   6.580   8.970  1.00  0.00    -0.050 C 
HETATM    4  C3  UNL     1      16.919   7.253   7.791  1.00  0.00     0.045 C 
HETATM    5  C19 UNL     1      17.242   5.155   8.756  1.00  0.00     0.024 C 
HETATM    6  C2  UNL     1      16.881   6.100   6.770  1.00  0.00    -0.039 C 
HETATM    7  C1  UNL     1      16.163   6.423   5.540  1.00  0.00     0.015 C 
HETATM    8  C20 UNL     1      16.102   5.150   7.708  1.00  0.00     0.019 C 
HETATM    9  C24 UNL     1      18.171   5.378   6.636  1.00  0.00     0.018 C 
HETATM   10  C21 UNL     1      18.253   4.422   7.834  1.00  0.00    -0.040 C 
HETATM   11  C22 UNL     1      19.629   4.457   8.421  1.00  0.00     0.015 C 
HETATM   12  C23 UNL     1      17.812   3.044   7.519  1.00  0.00     0.015 C 
ENDBRANCH   1   2
BRANCH   1  13
HETATM   13  C6  UNL     1      17.918   8.410  12.198  1.00  0.00     0.275 C 
BRANCH  13  14
HETATM   14  C7  UNL     1      18.904   7.544  12.899  1.00  0.00     0.193 C 
BRANCH  14  15
HETATM   15  O1  UNL     1      20.009   8.323  13.359  1.00  0.00    -0.399 OA
ATOM     16  H1  UNL     1      20.087   8.257  14.304  1.00  0.00     0.209 HD
ENDBRANCH  14  15
ENDBRANCH  13  14
ENDBRANCH   1  13
BRANCH   1  17
HETATM   17  C8  UNL     1      15.999   7.049  11.409  1.00  0.00     0.205 C 
HETATM   18  C9  UNL     1      15.677   5.857  12.101  1.00  0.00     0.003 C 
BRANCH  18  19
HETATM   19  C10 UNL     1      15.554   5.754  13.567  1.00  0.00     0.013 C 
HETATM   20  C11 UNL     1      16.583   5.266  14.464  1.00  0.00     0.036 C 
HETATM   21  C12 UNL     1      15.938   5.069  15.859  1.00  0.00     0.233 C 
HETATM   22  N2  UNL     1      15.281   3.782  15.806  1.00  0.00    -0.075 N 
HETATM   23  C13 UNL     1      14.643   3.666  14.493  1.00  0.00     0.233 C 
ATOM     24  H22 UNL     1      15.909   3.005  16.013  1.00  0.00     0.277 HD
ATOM     25  H21 UNL     1      14.630   3.636  16.578  1.00  0.00     0.277 HD
HETATM   26  C14 UNL     1      14.253   5.009  13.953  1.00  0.00     0.036 C 
ENDBRANCH  18  19
ENDBRANCH   1  17
BRANCH   1  27
HETATM   27  C15 UNL     1      16.555   9.136  10.541  1.00  0.00     0.226 C 
BRANCH  27  28
HETATM   28  C16 UNL     1      17.103  10.400  11.134  1.00  0.00     0.198 C 
BRANCH  28  29
HETATM   29  O2  UNL     1      17.604  11.339  10.296  1.00  0.00    -0.399 OA
ATOM     30  H2  UNL     1      18.369  11.829  10.574  1.00  0.00     0.209 HD
ENDBRANCH  28  29
ENDBRANCH  27  28
BRANCH  27  31
HETATM   31  C17 UNL     1      15.121   9.272  10.375  1.00  0.00     0.062 C 
BRANCH  31  32
HETATM   32  C18 UNL     1      14.460  10.423  11.137  1.00  0.00     0.166 C 
BRANCH  32  33
HETATM   33  O3  UNL     1      13.137  10.432  10.602  1.00  0.00    -0.401 OA
ATOM     34  H3  UNL     1      12.619  10.743  11.336  1.00  0.00     0.209 HD
ENDBRANCH  32  33
ENDBRANCH  31  32
ENDBRANCH  27  31
ENDBRANCH   1  27
TORSDOF 12
ENDMDL
MODEL 2
REMARK VINA RESULT: -7.234191009      1.878      3.040
REMARK  12 active torsions:
REMARK  status: ('A' for Active; 'I' for Inactive)
REMARK    1  A    between atoms: C5_5  and  N1_6 
REMARK    2  A    between atoms: N1_6  and  C6_7 
REMARK    3  A    between atoms: N1_6  and  C8_11 
REMARK    4  A    between atoms: N1_6  and  C15_21 
REMARK    5  A    between atoms: C6_7  and  C7_8 
REMARK    6  A    between atoms: C7_8  and  O1_9 
REMARK    7  A    between atoms: C9_12  and  C10_13 
REMARK    8  A    between atoms: C15_21  and  C16_22 
REMARK    9  A    between atoms: C15_21  and  C17_25 
REMARK   10  A    between atoms: C16_22  and  O2_23 
REMARK   11  A    between atoms: C17_25  and  C18_26 
REMARK   12  A    between atoms: C18_26  and  O3_27 
ROOT
HETATM    1  N1  UNL     1      16.431   9.141  10.948  1.00  0.00    -0.019 N 
ENDROOT
BRANCH   1   2
HETATM    2  C5  UNL     1      16.056   8.239   9.833  1.00  0.00     0.212 C 
HETATM    3  C4  UNL     1      16.418   6.924   9.535  1.00  0.00    -0.050 C 
HETATM    4  C3  UNL     1      16.192   5.729  10.441  1.00  0.00     0.045 C 
HETATM    5  C19 UNL     1      17.551   6.465   8.695  1.00  0.00     0.024 C 
HETATM    6  C2  UNL     1      16.734   4.583   9.565  1.00  0.00    -0.039 C 
HETATM    7  C1  UNL     1      16.755   3.286  10.237  1.00  0.00     0.015 C 
HETATM    8  C20 UNL     1      18.133   5.220   9.408  1.00  0.00     0.019 C 
HETATM    9  C24 UNL     1      16.243   4.617   8.165  1.00  0.00     0.018 C 
HETATM   10  C21 UNL     1      17.086   5.676   7.441  1.00  0.00    -0.040 C 
HETATM   11  C22 UNL     1      16.207   6.524   6.577  1.00  0.00     0.015 C 
HETATM   12  C23 UNL     1      18.230   5.108   6.692  1.00  0.00     0.015 C 
ENDBRANCH   1   2
BRANCH   1  13
HETATM   13  C6  UNL     1      17.123  10.250  10.431  1.00  0.00     0.275 C 
BRANCH  13  14
HETATM   14  C7  UNL     1      17.829  10.189   9.123  1.00  0.00     0.193 C 
BRANCH  14  15
HETATM   15  O1  UNL     1      17.017  10.762   8.096  1.00  0.00    -0.399 OA
ATOM     16  H1  UNL     1      16.351  10.144   7.820  1.00  0.00     0.209 HD
ENDBRANCH  14  15
ENDBRANCH  13  14
ENDBRANCH   1  13
BRANCH   1  17
HETATM   17  C8  UNL     1      16.942   8.288  11.940  1.00  0.00     0.205 C 
HETATM   18  C9  UNL     1      16.737   7.951  13.300  1.00  0.00     0.003 C 
BRANCH  18  19
HETATM   19  C10 UNL     1      15.577   7.191  13.802  1.00  0.00     0.013 C 
HETATM   20  C11 UNL     1      14.660   7.639  14.831  1.00  0.00     0.036 C 
HETATM   21  C12 UNL     1      13.778   6.432  15.236  1.00  0.00     0.233 C 
HETATM   22  N2  UNL     1      14.568   5.670  16.178  1.00  0.00    -0.075 N 
HETATM   23  C13 UNL     1      15.948   5.655  15.686  1.00  0.00     0.233 C 
ATOM     24  H22 UNL     1      14.491   6.017  17.134  1.00  0.00     0.277 HD
ATOM     25  H21 UNL     1      14.196   4.735  16.345  1.00  0.00     0.277 HD
HETATM   26  C14 UNL     1      15.997   5.753  14.191  1.00  0.00     0.036 C 
ENDBRANCH  18  19
ENDBRANCH   1  17
BRANCH   1  27
HETATM   27  C15 UNL     1      15.180   9.738  11.478  1.00  0.00     0.226 C 
BRANCH  27  28
HETATM   28  C16 UNL     1      14.176  10.056  10.410  1.00  0.00     0.198 C 
BRANCH  28  29
HETATM   29  O2  UNL     1      13.809  11.348  10.237  1.00  0.00    -0.399 OA
ATOM     30  H2  UNL     1      12.968  11.627  10.580  1.00  0.00     0.209 HD
ENDBRANCH  28  29
ENDBRANCH  27  28
BRANCH  27  31
HETATM   31  C17 UNL     1      15.275  10.860  12.390  1.00  0.00     0.062 C 
BRANCH  31  32
HETATM   32  C18 UNL     1      14.151  10.987  13.421  1.00  0.00     0.166 C 
BRANCH  32  33
HETATM   33  O3  UNL     1      13.600  12.270  13.125  1.00  0.00    -0.401 OA
ATOM     34  H3  UNL     1      14.215  12.861  13.545  1.00  0.00     0.209 HD
ENDBRANCH  32  33
ENDBRANCH  31  32
ENDBRANCH  27  31
ENDBRANCH   1  27
TORSDOF 12
ENDMDL
MODEL 3
REMARK VINA RESULT: -7.178727501      2.955      6.290
REMARK  12 active torsions:
REMARK  status: ('A' for Active; 'I' for Inactive)
REMARK    1  A    between atoms: C5_5  and  N1_6 
REMARK    2  A    between atoms: N1_6  and  C6_7 
REMARK    3  A    between atoms: N1_6  and  C8_11 
REMARK    4  A    between atoms: N1_6  and  C15_21 
REMARK    5  A    between atoms: C6_7  and  C7_8 
REMARK    6  A    between atoms: C7_8  and  O1_9 
REMARK    7  A    between atoms: C9_12  and  C10_13 
REMARK    8  A    between atoms: C15_21  and  C16_22 
REMARK    9  A    between atoms: C15_21  and  C17_25 
REMARK   10  A    between atoms: C16_22  and  O2_23 
REMARK   11  A    between atoms: C17_25  and  C18_26 
REMARK   12  A    between atoms: C18_26  and  O3_27 
ROOT
HETATM    1  N1  UNL     1      16.919   8.437  11.446  1.00  0.00    -0.019 N 
ENDROOT
BRANCH   1   2
HETATM    2  C5  UNL     1      15.967   7.385  11.873  1.00  0.00     0.212 C 
HETATM    3  C4  UNL     1      15.549   6.962  13.136  1.00  0.00    -0.050 C 
HETATM    4  C3  UNL     1      14.880   7.842  14.174  1.00  0.00     0.045 C 
HETATM    5  C19 UNL     1      16.139   5.889  13.973  1.00  0.00     0.024 C 
HETATM    6  C2  UNL     1      14.612   6.825  15.300  1.00  0.00    -0.039 C 
HETATM    7  C1  UNL     1      14.064   7.421  16.516  1.00  0.00     0.015 C 
HETATM    8  C20 UNL     1      16.096   6.414  15.430  1.00  0.00     0.019 C 
HETATM    9  C24 UNL     1      14.003   5.557  14.828  1.00  0.00     0.018 C 
HETATM   10  C21 UNL     1      15.149   4.724  14.239  1.00  0.00    -0.040 C 
HETATM   11  C22 UNL     1      14.713   4.095  12.953  1.00  0.00     0.015 C 
HETATM   12  C23 UNL     1      15.706   3.733  15.189  1.00  0.00     0.015 C 
ENDBRANCH   1   2
BRANCH   1  13
HETATM   13  C6  UNL     1      18.206   7.883  11.348  1.00  0.00     0.275 C 
BRANCH  13  14
HETATM   14  C7  UNL     1      18.422   6.411  11.305  1.00  0.00     0.193 C 
BRANCH  14  15
HETATM   15  O1  UNL     1      18.833   6.009   9.997  1.00  0.00    -0.399 OA
ATOM     16  H1  UNL     1      18.233   5.360   9.648  1.00  0.00     0.209 HD
ENDBRANCH  14  15
ENDBRANCH  13  14
ENDBRANCH   1  13
BRANCH   1  17
HETATM   17  C8  UNL     1      16.600   9.550  12.241  1.00  0.00     0.205 C 
HETATM   18  C9  UNL     1      15.893  10.774  12.171  1.00  0.00     0.003 C 
BRANCH  18  19
HETATM   19  C10 UNL     1      14.422  10.883  12.126  1.00  0.00     0.013 C 
HETATM   20  C11 UNL     1      13.670  11.743  11.235  1.00  0.00     0.036 C 
HETATM   21  C12 UNL     1      12.197  11.748  11.716  1.00  0.00     0.233 C 
HETATM   22  N2  UNL     1      12.143  12.709  12.797  1.00  0.00    -0.075 N 
HETATM   23  C13 UNL     1      13.354  12.536  13.601  1.00  0.00     0.233 C 
ATOM     24  H22 UNL     1      12.016  13.668  12.470  1.00  0.00     0.277 HD
ATOM     25  H21 UNL     1      11.287  12.641  13.347  1.00  0.00     0.277 HD
HETATM   26  C14 UNL     1      13.852  11.123  13.545  1.00  0.00     0.036 C 
ENDBRANCH  18  19
ENDBRANCH   1  17
BRANCH   1  27
HETATM   27  C15 UNL     1      16.592   8.789  10.041  1.00  0.00     0.226 C 
BRANCH  27  28
HETATM   28  C16 UNL     1      15.808   7.726   9.331  1.00  0.00     0.198 C 
BRANCH  28  29
HETATM   29  O2  UNL     1      16.446   6.960   8.414  1.00  0.00    -0.399 OA
ATOM     30  H2  UNL     1      17.324   6.656   8.614  1.00  0.00     0.209 HD
ENDBRANCH  28  29
ENDBRANCH  27  28
BRANCH  27  31
HETATM   31  C17 UNL     1      17.656   9.254   9.173  1.00  0.00     0.062 C 
BRANCH  31  32
HETATM   32  C18 UNL     1      17.233  10.157   8.012  1.00  0.00     0.166 C 
BRANCH  32  33
HETATM   33  O3  UNL     1      17.562   9.369   6.869  1.00  0.00    -0.401 OA
ATOM     34  H3  UNL     1      16.998   8.611   6.971  1.00  0.00     0.209 HD
ENDBRANCH  32  33
ENDBRANCH  31  32
ENDBRANCH  27  31
ENDBRANCH   1  27
TORSDOF 12
ENDMDL
MODEL 4
REMARK VINA RESULT: -7.169483317      1.344      1.500
REMARK  12 active torsions:
REMARK  status: ('A' for Active; 'I' for Inactive)
REMARK    1  A    between atoms: C5_5  and  N1_6 
REMARK    2  A    between atoms: N1_6  and  C6_7 
REMARK    3  A    between atoms: N1_6  and  C8_11 
REMARK    4  A    between atoms: N1_6  and  C15_21 
REMARK    5  A    between atoms: C6_7  and  C7_8 
REMARK    6  A    between atoms: C7_8  and  O1_9 
REMARK    7  A    between atoms: C9_12  and  C10_13 
REMARK    8  A    between atoms: C15_21  and  C16_22 
REMARK    9  A    between atoms: C15_21  and  C17_25 
REMARK   10  A    between atoms: C16_22  and  O2_23 
REMARK   11  A    between atoms: C17_25  and  C18_26 
REMARK   12  A    between atoms: C18_26  and  O3_27 
ROOT
HETATM    1  N1  UNL     1      17.534   6.476  11.153  1.00  0.00    -0.019 N 
ENDROOT
BRANCH   1   2
HETATM    2  C5  UNL     1      18.260   6.009   9.949  1.00  0.00     0.212 C 
HETATM    3  C4  UNL     1      17.824   5.687   8.663  1.00  0.00    -0.050 C 
HETATM    4  C3  UNL     1      17.091   6.629   7.728  1.00  0.00     0.045 C 
HETATM    5  C19 UNL     1      17.403   4.358   8.156  1.00  0.00     0.024 C 
HETATM    6  C2  UNL     1      16.934   5.745   6.476  1.00  0.00    -0.039 C 
HETATM    7  C1  UNL     1      16.140   6.360   5.415  1.00  0.00     0.015 C 
HETATM    8  C20 UNL     1      16.189   4.621   7.230  1.00  0.00     0.019 C 
HETATM    9  C24 UNL     1      18.181   5.047   6.076  1.00  0.00     0.018 C 
HETATM   10  C21 UNL     1      18.313   3.838   7.012  1.00  0.00    -0.040 C 
HETATM   11  C22 UNL     1      19.729   3.707   7.478  1.00  0.00     0.015 C 
HETATM   12  C23 UNL     1      17.796   2.580   6.425  1.00  0.00     0.015 C 
ENDBRANCH   1   2
BRANCH   1  13
HETATM   13  C6  UNL     1      18.411   6.474  12.251  1.00  0.00     0.275 C 
BRANCH  13  14
HETATM   14  C7  UNL     1      19.660   5.666  12.251  1.00  0.00     0.193 C 
BRANCH  14  15
HETATM   15  O1  UNL     1      20.804   6.522  12.212  1.00  0.00    -0.399 OA
ATOM     16  H1  UNL     1      21.354   6.371  12.971  1.00  0.00     0.209 HD
ENDBRANCH  14  15
ENDBRANCH  13  14
ENDBRANCH   1  13
BRANCH   1  17
HETATM   17  C8  UNL     1      16.312   5.785  11.123  1.00  0.00     0.205 C 
HETATM   18  C9  UNL     1      15.519   4.935  11.931  1.00  0.00     0.003 C 
BRANCH  18  19
HETATM   19  C10 UNL     1      14.786   5.376  13.133  1.00  0.00     0.013 C 
HETATM   20  C11 UNL     1      15.209   6.427  14.036  1.00  0.00     0.036 C 
HETATM   21  C12 UNL     1      14.302   6.364  15.291  1.00  0.00     0.233 C 
HETATM   22  N2  UNL     1      14.866   5.327  16.128  1.00  0.00    -0.075 N 
HETATM   23  C13 UNL     1      15.272   4.226  15.252  1.00  0.00     0.233 C 
ATOM     24  H22 UNL     1      15.625   5.663  16.722  1.00  0.00     0.277 HD
ATOM     25  H21 UNL     1      14.235   5.031  16.873  1.00  0.00     0.277 HD
HETATM   26  C14 UNL     1      14.418   4.162  14.021  1.00  0.00     0.036 C 
ENDBRANCH  18  19
ENDBRANCH   1  17
BRANCH   1  27
HETATM   27  C15 UNL     1      17.233   7.917  10.961  1.00  0.00     0.226 C 
BRANCH  27  28
HETATM   28  C16 UNL     1      17.783   8.788  12.051  1.00  0.00     0.198 C 
BRANCH  28  29
HETATM   29  O2  UNL     1      17.066   9.873  12.430  1.00  0.00    -0.399 OA
ATOM     30  H2  UNL     1      16.188   9.739  12.767  1.00  0.00     0.209 HD
ENDBRANCH  28  29
ENDBRANCH  27  28
BRANCH  27  31
HETATM   31  C17 UNL     1      15.868   8.313  10.679  1.00  0.00     0.062 C 
BRANCH  31  32
HETATM   32  C18 UNL     1      15.669   9.238   9.476  1.00  0.00     0.166 C 
BRANCH  32  33
HETATM   33  O3  UNL     1      14.960  10.339  10.044  1.00  0.00    -0.401 OA
ATOM     34  H3  UNL     1      15.166  11.048   9.446  1.00  0.00     0.209 HD
ENDBRANCH  32  33
ENDBRANCH  31  32
ENDBRANCH  27  31
ENDBRANCH   1  27
TORSDOF 12
ENDMDL
MODEL 5
REMARK VINA RESULT: -7.145328233      1.536      2.719
REMARK  12 active torsions:
REMARK  status: ('A' for Active; 'I' for Inactive)
REMARK    1  A    between atoms: C5_5  and  N1_6 
REMARK    2  A    between atoms: N1_6  and  C6_7 
REMARK    3  A    between atoms: N1_6  and  C8_11 
REMARK    4  A    between atoms: N1_6  and  C15_21 
REMARK    5  A    between atoms: C6_7  and  C7_8 
REMARK    6  A    between atoms: C7_8  and  O1_9 
REMARK    7  A    between atoms: C9_12  and  C10_13 
REMARK    8  A    between atoms: C15_21  and  C16_22 
REMARK    9  A    between atoms: C15_21  and  C17_25 
REMARK   10  A    between atoms: C16_22  and  O2_23 
REMARK   11  A    between atoms: C17_25  and  C18_26 
REMARK   12  A    between atoms: C18_26  and  O3_27 
ROOT
HETATM    1  N1  UNL     1      17.044   7.910  12.056  1.00  0.00    -0.019 N 
ENDROOT
BRANCH   1   2
HETATM    2  C5  UNL     1      16.515   6.767  11.276  1.00  0.00     0.212 C 
HETATM    3  C4  UNL     1      17.120   5.602  10.800  1.00  0.00    -0.050 C 
HETATM    4  C3  UNL     1      17.810   4.562  11.660  1.00  0.00     0.045 C 
HETATM    5  C19 UNL     1      17.767   5.393   9.482  1.00  0.00     0.024 C 
HETATM    6  C2  UNL     1      18.214   3.518  10.601  1.00  0.00    -0.039 C 
HETATM    7  C1  UNL     1      19.022   2.423  11.130  1.00  0.00     0.015 C 
HETATM    8  C20 UNL     1      19.022   4.528   9.756  1.00  0.00     0.019 C 
HETATM    9  C24 UNL     1      17.120   3.167   9.662  1.00  0.00     0.018 C 
HETATM   10  C21 UNL     1      17.057   4.304   8.633  1.00  0.00    -0.040 C 
HETATM   11  C22 UNL     1      15.632   4.678   8.374  1.00  0.00     0.015 C 
HETATM   12  C23 UNL     1      17.797   4.010   7.384  1.00  0.00     0.015 C 
ENDBRANCH   1   2
BRANCH   1  13
HETATM   13  C6  UNL     1      18.422   7.729  12.264  1.00  0.00     0.275 C 
BRANCH  13  14
HETATM   14  C7  UNL     1      19.014   7.751  13.628  1.00  0.00     0.193 C 
BRANCH  14  15
HETATM   15  O1  UNL     1      20.313   8.346  13.594  1.00  0.00    -0.399 OA
ATOM     16  H1  UNL     1      20.754   8.221  14.426  1.00  0.00     0.209 HD
ENDBRANCH  14  15
ENDBRANCH  13  14
ENDBRANCH   1  13
BRANCH   1  17
HETATM   17  C8  UNL     1      16.111   8.100  13.088  1.00  0.00     0.205 C 
HETATM   18  C9  UNL     1      15.011   7.450  13.698  1.00  0.00     0.003 C 
BRANCH  18  19
HETATM   19  C10 UNL     1      15.122   6.255  14.555  1.00  0.00     0.013 C 
HETATM   20  C11 UNL     1      16.322   5.463  14.741  1.00  0.00     0.036 C 
HETATM   21  C12 UNL     1      15.919   4.166  15.486  1.00  0.00     0.233 C 
HETATM   22  N2  UNL     1      15.408   3.273  14.469  1.00  0.00    -0.075 N 
HETATM   23  C13 UNL     1      14.597   4.073  13.549  1.00  0.00     0.233 C 
ATOM     24  H22 UNL     1      16.143   2.746  13.996  1.00  0.00     0.277 HD
ATOM     25  H21 UNL     1      14.901   2.477  14.856  1.00  0.00     0.277 HD
HETATM   26  C14 UNL     1      13.985   5.253  14.242  1.00  0.00     0.036 C 
ENDBRANCH  18  19
ENDBRANCH   1  17
BRANCH   1  27
HETATM   27  C15 UNL     1      16.987   9.109  11.182  1.00  0.00     0.226 C 
BRANCH  27  28
HETATM   28  C16 UNL     1      16.552  10.349  11.904  1.00  0.00     0.198 C 
BRANCH  28  29
HETATM   29  O2  UNL     1      16.547  11.521  11.224  1.00  0.00    -0.399 OA
ATOM     30  H2  UNL     1      17.354  12.019  11.179  1.00  0.00     0.209 HD
ENDBRANCH  28  29
ENDBRANCH  27  28
BRANCH  27  31
HETATM   31  C17 UNL     1      16.279   9.020   9.920  1.00  0.00     0.062 C 
BRANCH  31  32
HETATM   32  C18 UNL     1      17.124   9.208   8.658  1.00  0.00     0.166 C 
BRANCH  32  33
HETATM   33  O3  UNL     1      16.923  10.587   8.351  1.00  0.00    -0.401 OA
ATOM     34  H3  UNL     1      17.283  11.023   9.114  1.00  0.00     0.209 HD
ENDBRANCH  32  33
ENDBRANCH  31  32
ENDBRANCH  27  31
ENDBRANCH   1  27
TORSDOF 12
ENDMDL
