MODEL 1
REMARK VINA RESULT: -6.771542537      0.000      0.000
REMARK  9 active torsions:
REMARK  status: ('A' for Active; 'I' for Inactive)
REMARK    1  A    between atoms: C2_2  and  C4_4 
REMARK    2  A    between atoms: C6_9  and  C7_10 
REMARK    3  A    between atoms: C7_10  and  C8_11 
REMARK    4  A    between atoms: C7_10  and  C20_23 
REMARK    5  A    between atoms: C8_11  and  C9_12 
REMARK    6  A    between atoms: C9_12  and  C11_14 
REMARK    7  A    between atoms: C13_16  and  C19_22 
REMARK    8  A    between atoms: C16_19  and  C17_20 
REMARK    9  A    between atoms: C24_29  and  C25_30 
ROOT
HETATM    1  C4  UNL     1       2.066  -8.472 -17.766  1.00  0.00     0.180 C 
HETATM    2  N1  UNL     1       1.141  -8.328 -18.822  1.00  0.00    -0.345 N 
ATOM      3  H1  UNL     1       1.102  -9.098 -19.490  1.00  0.00     0.163 HD
HETATM    4  C5  UNL     1       0.253  -7.241 -19.071  1.00  0.00     0.248 C 
HETATM    5  O1  UNL     1      -0.472  -7.316 -20.122  1.00  0.00    -0.271 OA
HETATM    6  C6  UNL     1       0.096  -6.041 -18.235  1.00  0.00     0.228 C 
HETATM    7  O2  UNL     1       0.631  -4.901 -18.772  1.00  0.00    -0.304 OA
HETATM    8  C23 UNL     1       1.780  -4.287 -19.000  1.00  0.00     0.289 C 
HETATM    9  O3  UNL     1       2.369  -3.416 -18.242  1.00  0.00    -0.262 OA
HETATM   10  C24 UNL     1       2.583  -4.530 -20.226  1.00  0.00     0.234 C 
HETATM   11  O4  UNL     1       2.380  -5.723 -20.873  1.00  0.00    -0.304 OA
HETATM   12  C28 UNL     1       3.252  -6.650 -21.372  1.00  0.00     0.277 C 
HETATM   13  O5  UNL     1       3.531  -6.825 -22.607  1.00  0.00    -0.263 OA
HETATM   14  C29 UNL     1       3.962  -7.557 -20.435  1.00  0.00     0.233 C 
HETATM   15  N2  UNL     1       3.892  -7.161 -19.058  1.00  0.00    -0.350 N 
ATOM     16  H2  UNL     1       4.252  -6.229 -18.852  1.00  0.00     0.163 HD
HETATM   17  C30 UNL     1       3.401  -7.874 -17.958  1.00  0.00     0.241 C 
HETATM   18  O6  UNL     1       4.184  -8.060 -16.944  1.00  0.00    -0.271 OA
ENDROOT
BRANCH   6  19
HETATM   19  C7  UNL     1      -1.245  -5.785 -17.636  1.00  0.00     0.028 C 
BRANCH  19  20
HETATM   20  C8  UNL     1      -1.911  -6.839 -16.868  1.00  0.00     0.012 C 
BRANCH  20  21
HETATM   21  C9  UNL     1      -2.514  -8.041 -17.503  1.00  0.00    -0.014 C 
HETATM   22  C10 UNL     1      -1.682  -9.208 -16.885  1.00  0.00     0.010 C 
BRANCH  21  23
HETATM   23  C11 UNL     1      -3.942  -8.201 -17.139  1.00  0.00    -0.006 C 
HETATM   24  C12 UNL     1      -4.784  -6.994 -16.961  1.00  0.00     0.015 C 
HETATM   25  C13 UNL     1      -5.926  -7.467 -16.038  1.00  0.00    -0.039 C 
HETATM   26  C14 UNL     1      -7.233  -6.898 -16.360  1.00  0.00     0.015 C 
HETATM   27  C15 UNL     1      -5.816  -8.977 -16.200  1.00  0.00     0.015 C 
HETATM   28  C16 UNL     1      -4.284  -9.018 -15.936  1.00  0.00    -0.005 C 
BRANCH  25  29
HETATM   29  C19 UNL     1      -5.425  -7.293 -14.643  1.00  0.00    -0.002 A 
HETATM   30  C17 UNL     1      -6.503  -6.356 -14.062  1.00  0.00    -0.005 A 
HETATM   31  C18 UNL     1      -5.058  -6.014 -14.054  1.00  0.00     0.011 A 
ENDBRANCH  25  29
ENDBRANCH  21  23
ENDBRANCH  20  21
ENDBRANCH  19  20
BRANCH  19  32
HETATM   32  C20 UNL     1      -1.288  -4.430 -16.962  1.00  0.00    -0.016 C 
HETATM   33  C21 UNL     1      -0.214  -4.369 -15.863  1.00  0.00     0.010 C 
HETATM   34  C22 UNL     1      -2.624  -4.193 -16.257  1.00  0.00     0.010 C 
ENDBRANCH  19  32
ENDBRANCH   6  19
BRANCH   1  35
HETATM   35  C2  UNL     1       2.314  -9.937 -17.412  1.00  0.00     0.009 C 
HETATM   36  C1  UNL     1       1.827 -10.907 -18.428  1.00  0.00     0.012 C 
HETATM   37  C3  UNL     1       1.780 -10.295 -16.044  1.00  0.00     0.012 C 
ENDBRANCH   1  35
BRANCH  10  38
HETATM   38  C25 UNL     1       2.103  -3.427 -21.205  1.00  0.00     0.017 C 
HETATM   39  C26 UNL     1       3.247  -2.917 -22.026  1.00  0.00     0.012 C 
HETATM   40  C27 UNL     1       1.030  -3.988 -22.082  1.00  0.00     0.012 C 
ENDBRANCH  10  38
TORSDOF 9
ENDMDL
MODEL 2
REMARK VINA RESULT: -6.696036086      3.210      5.497
REMARK  9 active torsions:
REMARK  status: ('A' for Active; 'I' for Inactive)
REMARK    1  A    between atoms: C2_2  and  C4_4 
REMARK    2  A    between atoms: C6_9  and  C7_10 
REMARK    3  A    between atoms: C7_10  and  C8_11 
REMARK    4  A    between atoms: C7_10  and  C20_23 
REMARK    5  A    between atoms: C8_11  and  C9_12 
REMARK    6  A    between atoms: C9_12  and  C11_14 
REMARK    7  A    between atoms: C13_16  and  C19_22 
REMARK    8  A    between atoms: C16_19  and  C17_20 
REMARK    9  A    between atoms: C24_29  and  C25_30 
ROOT
HETATM    1  C4  UNL     1      -1.137  -7.388 -16.834  1.00  0.00     0.180 C 
HETATM    2  N1  UNL     1      -1.268  -6.189 -17.567  1.00  0.00    -0.345 N 
ATOM      3  H1  UNL     1      -1.990  -6.182 -18.287  1.00  0.00     0.163 HD
HETATM    4  C5  UNL     1      -0.516  -4.986 -17.426  1.00  0.00     0.248 C 
HETATM    5  O1  UNL     1      -0.790  -4.035 -18.236  1.00  0.00    -0.271 OA
HETATM    6  C6  UNL     1       0.547  -4.738 -16.440  1.00  0.00     0.228 C 
HETATM    7  O2  UNL     1       1.813  -4.721 -16.961  1.00  0.00    -0.304 OA
HETATM    8  C23 UNL     1       2.769  -5.511 -17.421  1.00  0.00     0.289 C 
HETATM    9  O3  UNL     1       3.760  -6.013 -16.755  1.00  0.00    -0.262 OA
HETATM   10  C24 UNL     1       2.830  -5.942 -18.842  1.00  0.00     0.234 C 
HETATM   11  O4  UNL     1       1.653  -5.918 -19.547  1.00  0.00    -0.304 OA
HETATM   12  C28 UNL     1       1.070  -6.834 -20.377  1.00  0.00     0.277 C 
HETATM   13  O5  UNL     1       1.028  -6.767 -21.653  1.00  0.00    -0.263 OA
HETATM   14  C29 UNL     1       0.411  -8.030 -19.790  1.00  0.00     0.233 C 
HETATM   15  N2  UNL     1       0.726  -8.263 -18.411  1.00  0.00    -0.350 N 
ATOM     16  H2  UNL     1       1.717  -8.373 -18.200  1.00  0.00     0.163 HD
HETATM   17  C30 UNL     1      -0.138  -8.361 -17.313  1.00  0.00     0.241 C 
HETATM   18  O6  UNL     1      -0.091  -9.431 -16.586  1.00  0.00    -0.271 OA
ENDROOT
BRANCH   6  19
HETATM   19  C7  UNL     1       0.342  -3.627 -15.467  1.00  0.00     0.028 C 
BRANCH  19  20
HETATM   20  C8  UNL     1      -0.898  -3.560 -14.691  1.00  0.00     0.012 C 
BRANCH  20  21
HETATM   21  C9  UNL     1      -2.059  -2.724 -15.097  1.00  0.00    -0.014 C 
HETATM   22  C10 UNL     1      -3.207  -3.774 -15.227  1.00  0.00     0.010 C 
BRANCH  21  23
HETATM   23  C11 UNL     1      -2.413  -1.726 -14.061  1.00  0.00    -0.006 C 
HETATM   24  C12 UNL     1      -2.923  -0.398 -14.478  1.00  0.00     0.015 C 
HETATM   25  C13 UNL     1      -2.598   0.521 -13.283  1.00  0.00    -0.039 C 
HETATM   26  C14 UNL     1      -3.626   1.519 -12.996  1.00  0.00     0.015 C 
HETATM   27  C15 UNL     1      -2.368  -0.510 -12.186  1.00  0.00     0.015 C 
HETATM   28  C16 UNL     1      -1.389  -1.373 -13.031  1.00  0.00    -0.005 C 
BRANCH  25  29
HETATM   29  C19 UNL     1      -1.207   1.012 -13.508  1.00  0.00    -0.002 A 
HETATM   30  C17 UNL     1      -1.457   2.523 -13.686  1.00  0.00    -0.005 A 
HETATM   31  C18 UNL     1      -0.762   1.702 -14.710  1.00  0.00     0.011 A 
ENDBRANCH  25  29
ENDBRANCH  21  23
ENDBRANCH  20  21
ENDBRANCH  19  20
BRANCH  19  32
HETATM   32  C20 UNL     1       1.586  -3.400 -14.635  1.00  0.00    -0.016 C 
HETATM   33  C21 UNL     1       1.370  -3.967 -13.221  1.00  0.00     0.010 C 
HETATM   34  C22 UNL     1       1.877  -1.910 -14.449  1.00  0.00     0.010 C 
ENDBRANCH  19  32
ENDBRANCH   6  19
BRANCH   1  35
HETATM   35  C2  UNL     1      -2.455  -8.155 -16.744  1.00  0.00     0.009 C 
HETATM   36  C1  UNL     1      -2.954  -8.677 -18.043  1.00  0.00     0.012 C 
HETATM   37  C3  UNL     1      -3.535  -7.360 -16.045  1.00  0.00     0.012 C 
ENDBRANCH   1  35
BRANCH  10  38
HETATM   38  C25 UNL     1       3.748  -4.884 -19.508  1.00  0.00     0.017 C 
HETATM   39  C26 UNL     1       4.610  -5.519 -20.555  1.00  0.00     0.012 C 
HETATM   40  C27 UNL     1       2.898  -3.807 -20.102  1.00  0.00     0.012 C 
ENDBRANCH  10  38
TORSDOF 9
ENDMDL
MODEL 3
REMARK VINA RESULT: -6.371394609      2.660      8.457
REMARK  9 active torsions:
REMARK  status: ('A' for Active; 'I' for Inactive)
REMARK    1  A    between atoms: C2_2  and  C4_4 
REMARK    2  A    between atoms: C6_9  and  C7_10 
REMARK    3  A    between atoms: C7_10  and  C8_11 
REMARK    4  A    between atoms: C7_10  and  C20_23 
REMARK    5  A    between atoms: C8_11  and  C9_12 
REMARK    6  A    between atoms: C9_12  and  C11_14 
REMARK    7  A    between atoms: C13_16  and  C19_22 
REMARK    8  A    between atoms: C16_19  and  C17_20 
REMARK    9  A    between atoms: C24_29  and  C25_30 
ROOT
HETATM    1  C4  UNL     1       2.916  -5.815 -21.360  1.00  0.00     0.180 C 
HETATM    2  N1  UNL     1       3.319  -6.627 -20.278  1.00  0.00    -0.345 N 
ATOM      3  H1  UNL     1       3.766  -7.510 -20.524  1.00  0.00     0.163 HD
HETATM    4  C5  UNL     1       3.180  -6.365 -18.884  1.00  0.00     0.248 C 
HETATM    5  O1  UNL     1       3.588  -7.273 -18.081  1.00  0.00    -0.271 OA
HETATM    6  C6  UNL     1       2.607  -5.151 -18.282  1.00  0.00     0.228 C 
HETATM    7  O2  UNL     1       1.366  -5.322 -17.730  1.00  0.00    -0.304 OA
HETATM    8  C23 UNL     1       0.089  -5.468 -18.043  1.00  0.00     0.289 C 
HETATM    9  O3  UNL     1      -0.807  -4.536 -18.138  1.00  0.00    -0.262 OA
HETATM   10  C24 UNL     1      -0.512  -6.794 -18.337  1.00  0.00     0.234 C 
HETATM   11  O4  UNL     1       0.344  -7.784 -18.750  1.00  0.00    -0.304 OA
HETATM   12  C28 UNL     1       0.269  -8.681 -19.778  1.00  0.00     0.277 C 
HETATM   13  O5  UNL     1      -0.004  -9.926 -19.666  1.00  0.00    -0.263 OA
HETATM   14  C29 UNL     1       0.521  -8.218 -21.167  1.00  0.00     0.233 C 
HETATM   15  N2  UNL     1       0.515  -6.794 -21.327  1.00  0.00    -0.350 N 
ATOM     16  H2  UNL     1      -0.343  -6.324 -21.040  1.00  0.00     0.163 HD
HETATM   17  C30 UNL     1       1.523  -5.956 -21.823  1.00  0.00     0.241 C 
HETATM   18  O6  UNL     1       1.245  -5.180 -22.820  1.00  0.00    -0.271 OA
ENDROOT
BRANCH   6  19
HETATM   19  C7  UNL     1       3.489  -4.334 -17.401  1.00  0.00     0.028 C 
BRANCH  19  20
HETATM   20  C8  UNL     1       3.990  -3.041 -17.871  1.00  0.00     0.012 C 
BRANCH  20  21
HETATM   21  C9  UNL     1       5.376  -2.849 -18.375  1.00  0.00    -0.014 C 
HETATM   22  C10 UNL     1       6.048  -4.222 -18.059  1.00  0.00     0.010 C 
BRANCH  21  23
HETATM   23  C11 UNL     1       5.406  -2.606 -19.837  1.00  0.00    -0.006 C 
HETATM   24  C12 UNL     1       6.462  -1.736 -20.405  1.00  0.00     0.015 C 
HETATM   25  C13 UNL     1       5.857  -1.228 -21.729  1.00  0.00    -0.039 C 
HETATM   26  C14 UNL     1       6.816  -1.121 -22.826  1.00  0.00     0.015 C 
HETATM   27  C15 UNL     1       4.739  -2.240 -21.938  1.00  0.00     0.015 C 
HETATM   28  C16 UNL     1       4.169  -2.093 -20.499  1.00  0.00    -0.005 C 
BRANCH  25  29
HETATM   29  C19 UNL     1       5.074  -0.006 -21.381  1.00  0.00    -0.002 A 
HETATM   30  C17 UNL     1       5.925   1.088 -22.055  1.00  0.00    -0.005 A 
HETATM   31  C18 UNL     1       5.592   1.113 -20.608  1.00  0.00     0.011 A 
ENDBRANCH  25  29
ENDBRANCH  21  23
ENDBRANCH  20  21
ENDBRANCH  19  20
BRANCH  19  32
HETATM   32  C20 UNL     1       2.951  -4.292 -15.986  1.00  0.00    -0.016 C 
HETATM   33  C21 UNL     1       3.043  -2.856 -15.443  1.00  0.00     0.010 C 
HETATM   34  C22 UNL     1       3.789  -5.153 -15.039  1.00  0.00     0.010 C 
ENDBRANCH  19  32
ENDBRANCH   6  19
BRANCH   1  35
HETATM   35  C2  UNL     1       3.788  -6.028 -22.596  1.00  0.00     0.009 C 
HETATM   36  C1  UNL     1       3.614  -7.350 -23.253  1.00  0.00     0.012 C 
HETATM   37  C3  UNL     1       5.251  -5.767 -22.318  1.00  0.00     0.012 C 
ENDBRANCH   1  35
BRANCH  10  38
HETATM   38  C25 UNL     1      -1.068  -7.258 -16.964  1.00  0.00     0.017 C 
HETATM   39  C26 UNL     1      -2.319  -8.062 -17.148  1.00  0.00     0.012 C 
HETATM   40  C27 UNL     1      -0.021  -8.059 -16.261  1.00  0.00     0.012 C 
ENDBRANCH  10  38
TORSDOF 9
ENDMDL
MODEL 4
REMARK VINA RESULT: -6.368158326      3.102      6.370
REMARK  9 active torsions:
REMARK  status: ('A' for Active; 'I' for Inactive)
REMARK    1  A    between atoms: C2_2  and  C4_4 
REMARK    2  A    between atoms: C6_9  and  C7_10 
REMARK    3  A    between atoms: C7_10  and  C8_11 
REMARK    4  A    between atoms: C7_10  and  C20_23 
REMARK    5  A    between atoms: C8_11  and  C9_12 
REMARK    6  A    between atoms: C9_12  and  C11_14 
REMARK    7  A    between atoms: C13_16  and  C19_22 
REMARK    8  A    between atoms: C16_19  and  C17_20 
REMARK    9  A    between atoms: C24_29  and  C25_30 
ROOT
HETATM    1  C4  UNL     1       2.134  -3.988 -19.841  1.00  0.00     0.180 C 
HETATM    2  N1  UNL     1       2.657  -4.954 -18.954  1.00  0.00    -0.345 N 
ATOM      3  H1  UNL     1       3.366  -5.577 -19.341  1.00  0.00     0.163 HD
HETATM    4  C5  UNL     1       2.317  -5.168 -17.587  1.00  0.00     0.248 C 
HETATM    5  O1  UNL     1       2.900  -6.138 -16.991  1.00  0.00    -0.271 OA
HETATM    6  C6  UNL     1       1.356  -4.381 -16.799  1.00  0.00     0.228 C 
HETATM    7  O2  UNL     1       0.176  -5.023 -16.535  1.00  0.00    -0.304 OA
HETATM    8  C23 UNL     1      -0.965  -5.392 -17.093  1.00  0.00     0.289 C 
HETATM    9  O3  UNL     1      -2.084  -4.738 -17.098  1.00  0.00    -0.262 OA
HETATM   10  C24 UNL     1      -1.115  -6.677 -17.823  1.00  0.00     0.234 C 
HETATM   11  O4  UNL     1       0.031  -7.242 -18.325  1.00  0.00    -0.304 OA
HETATM   12  C28 UNL     1       0.322  -7.777 -19.548  1.00  0.00     0.277 C 
HETATM   13  O5  UNL     1       0.422  -9.024 -19.814  1.00  0.00    -0.263 OA
HETATM   14  C29 UNL     1       0.553  -6.871 -20.702  1.00  0.00     0.233 C 
HETATM   15  N2  UNL     1       0.140  -5.516 -20.483  1.00  0.00    -0.350 N 
ATOM     16  H2  UNL     1      -0.842  -5.392 -20.238  1.00  0.00     0.163 HD
HETATM   17  C30 UNL     1       0.895  -4.338 -20.560  1.00  0.00     0.241 C 
HETATM   18  O6  UNL     1       0.493  -3.398 -21.353  1.00  0.00    -0.271 OA
ENDROOT
BRANCH   6  19
HETATM   19  C7  UNL     1       1.870  -3.667 -15.595  1.00  0.00     0.028 C 
BRANCH  19  20
HETATM   20  C8  UNL     1       1.576  -4.190 -14.259  1.00  0.00     0.012 C 
BRANCH  20  21
HETATM   21  C9  UNL     1       0.664  -3.504 -13.307  1.00  0.00    -0.014 C 
HETATM   22  C10 UNL     1       1.655  -2.724 -12.386  1.00  0.00     0.010 C 
BRANCH  21  23
HETATM   23  C11 UNL     1      -0.235  -2.546 -13.993  1.00  0.00    -0.006 C 
HETATM   24  C12 UNL     1      -0.006  -1.091 -13.827  1.00  0.00     0.015 C 
HETATM   25  C13 UNL     1      -1.383  -0.460 -14.116  1.00  0.00    -0.039 C 
HETATM   26  C14 UNL     1      -1.323   0.803 -14.848  1.00  0.00     0.015 C 
HETATM   27  C15 UNL     1      -2.072  -1.604 -14.847  1.00  0.00     0.015 C 
HETATM   28  C16 UNL     1      -1.708  -2.672 -13.778  1.00  0.00    -0.005 C 
BRANCH  25  29
HETATM   29  C19 UNL     1      -2.120  -0.467 -12.818  1.00  0.00    -0.002 A 
HETATM   30  C17 UNL     1      -3.049   0.749 -13.003  1.00  0.00    -0.005 A 
HETATM   31  C18 UNL     1      -2.110   0.628 -11.859  1.00  0.00     0.011 A 
ENDBRANCH  25  29
ENDBRANCH  21  23
ENDBRANCH  20  21
ENDBRANCH  19  20
BRANCH  19  32
HETATM   32  C20 UNL     1       3.318  -3.266 -15.780  1.00  0.00    -0.016 C 
HETATM   33  C21 UNL     1       4.180  -3.938 -14.698  1.00  0.00     0.010 C 
HETATM   34  C22 UNL     1       3.514  -1.761 -15.598  1.00  0.00     0.010 C 
ENDBRANCH  19  32
ENDBRANCH   6  19
BRANCH   1  35
HETATM   35  C2  UNL     1       3.141  -3.589 -20.918  1.00  0.00     0.009 C 
HETATM   36  C1  UNL     1       3.741  -4.732 -21.654  1.00  0.00     0.012 C 
HETATM   37  C3  UNL     1       4.223  -2.680 -20.382  1.00  0.00     0.012 C 
ENDBRANCH   1  35
BRANCH  10  38
HETATM   38  C25 UNL     1      -1.634  -7.658 -16.739  1.00  0.00     0.017 C 
HETATM   39  C26 UNL     1      -2.813  -8.429 -17.246  1.00  0.00     0.012 C 
HETATM   40  C27 UNL     1      -0.525  -8.581 -16.348  1.00  0.00     0.012 C 
ENDBRANCH  10  38
TORSDOF 9
ENDMDL
MODEL 5
REMARK VINA RESULT: -6.303704161      3.326      6.893
REMARK  9 active torsions:
REMARK  status: ('A' for Active; 'I' for Inactive)
REMARK    1  A    between atoms: C2_2  and  C4_4 
REMARK    2  A    between atoms: C6_9  and  C7_10 
REMARK    3  A    between atoms: C7_10  and  C8_11 
REMARK    4  A    between atoms: C7_10  and  C20_23 
REMARK    5  A    between atoms: C8_11  and  C9_12 
REMARK    6  A    between atoms: C9_12  and  C11_14 
REMARK    7  A    between atoms: C13_16  and  C19_22 
REMARK    8  A    between atoms: C16_19  and  C17_20 
REMARK    9  A    between atoms: C24_29  and  C25_30 
ROOT
HETATM    1  C4  UNL     1       2.220  -3.997 -20.076  1.00  0.00     0.180 C 
HETATM    2  N1  UNL     1       2.816  -4.965 -19.240  1.00  0.00    -0.345 N 
ATOM      3  H1  UNL     1       3.515  -5.564 -19.679  1.00  0.00     0.163 HD
HETATM    4  C5  UNL     1       2.562  -5.211 -17.859  1.00  0.00     0.248 C 
HETATM    5  O1  UNL     1       3.200  -6.176 -17.316  1.00  0.00    -0.271 OA
HETATM    6  C6  UNL     1       1.631  -4.460 -17.002  1.00  0.00     0.228 C 
HETATM    7  O2  UNL     1       0.484  -5.134 -16.682  1.00  0.00    -0.304 OA
HETATM    8  C23 UNL     1      -0.679  -5.520 -17.180  1.00  0.00     0.289 C 
HETATM    9  O3  UNL     1      -1.811  -4.893 -17.106  1.00  0.00    -0.262 OA
HETATM   10  C24 UNL     1      -0.843  -6.796 -17.924  1.00  0.00     0.234 C 
HETATM   11  O4  UNL     1       0.283  -7.325 -18.502  1.00  0.00    -0.304 OA
HETATM   12  C28 UNL     1       0.514  -7.832 -19.750  1.00  0.00     0.277 C 
HETATM   13  O5  UNL     1       0.626  -9.071 -20.043  1.00  0.00    -0.263 OA
HETATM   14  C29 UNL     1       0.657  -6.900 -20.898  1.00  0.00     0.233 C 
HETATM   15  N2  UNL     1       0.227  -5.559 -20.630  1.00  0.00    -0.350 N 
ATOM     16  H2  UNL     1      -0.742  -5.462 -20.326  1.00  0.00     0.163 HD
HETATM   17  C30 UNL     1       0.949  -4.363 -20.728  1.00  0.00     0.241 C 
HETATM   18  O6  UNL     1       0.480  -3.419 -21.479  1.00  0.00    -0.271 OA
ENDROOT
BRANCH   6  19
HETATM   19  C7  UNL     1       2.199  -3.755 -15.817  1.00  0.00     0.028 C 
BRANCH  19  20
HETATM   20  C8  UNL     1       1.884  -4.231 -14.469  1.00  0.00     0.012 C 
BRANCH  20  21
HETATM   21  C9  UNL     1       0.779  -3.664 -13.651  1.00  0.00    -0.014 C 
HETATM   22  C10 UNL     1       1.359  -3.724 -12.203  1.00  0.00     0.010 C 
BRANCH  21  23
HETATM   23  C11 UNL     1       0.489  -2.256 -14.012  1.00  0.00    -0.006 C 
HETATM   24  C12 UNL     1       1.478  -1.204 -13.678  1.00  0.00     0.015 C 
HETATM   25  C13 UNL     1       0.641   0.090 -13.614  1.00  0.00    -0.039 C 
HETATM   26  C14 UNL     1       1.317   1.269 -14.150  1.00  0.00     0.015 C 
HETATM   27  C15 UNL     1      -0.610  -0.342 -14.368  1.00  0.00     0.015 C 
HETATM   28  C16 UNL     1      -0.798  -1.653 -13.552  1.00  0.00    -0.005 C 
BRANCH  25  29
HETATM   29  C19 UNL     1       0.119   0.173 -12.219  1.00  0.00    -0.002 A 
HETATM   30  C17 UNL     1       0.816   1.455 -11.722  1.00  0.00    -0.005 A 
HETATM   31  C18 UNL     1       0.951   0.150 -11.025  1.00  0.00     0.011 A 
ENDBRANCH  25  29
ENDBRANCH  21  23
ENDBRANCH  20  21
ENDBRANCH  19  20
BRANCH  19  32
HETATM   32  C20 UNL     1       3.668  -3.451 -16.020  1.00  0.00    -0.016 C 
HETATM   33  C21 UNL     1       4.433  -3.711 -14.712  1.00  0.00     0.010 C 
HETATM   34  C22 UNL     1       3.898  -1.976 -16.354  1.00  0.00     0.010 C 
ENDBRANCH  19  32
ENDBRANCH   6  19
BRANCH   1  35
HETATM   35  C2  UNL     1       3.153  -3.555 -21.203  1.00  0.00     0.009 C 
HETATM   36  C1  UNL     1       3.783  -4.672 -21.955  1.00  0.00     0.012 C 
HETATM   37  C3  UNL     1       4.206  -2.581 -20.726  1.00  0.00     0.012 C 
ENDBRANCH   1  35
BRANCH  10  38
HETATM   38  C25 UNL     1      -1.275  -7.807 -16.829  1.00  0.00     0.017 C 
HETATM   39  C26 UNL     1      -2.395  -8.671 -17.322  1.00  0.00     0.012 C 
HETATM   40  C27 UNL     1      -0.095  -8.638 -16.442  1.00  0.00     0.012 C 
ENDBRANCH  10  38
TORSDOF 9
ENDMDL
