MODEL 1
REMARK VINA RESULT: -8.652055909      0.000      0.000
REMARK  8 active torsions:
REMARK  status: ('A' for Active; 'I' for Inactive)
REMARK    1  A    between atoms: C2_2  and  C4_4 
REMARK    2  A    between atoms: C6_6  and  O1_7 
REMARK    3  A    between atoms: O1_7  and  C7_8 
REMARK       I    between atoms: C7_8  and  N1_10 
REMARK    4  A    between atoms: N1_10  and  C8_12 
REMARK    5  A    between atoms: C8_12  and  C9_13 
REMARK    6  A    between atoms: C8_12  and  C13_17 
REMARK    7  A    between atoms: C9_13  and  C10_14 
REMARK       I    between atoms: C13_17  and  N2_19 
REMARK    8  A    between atoms: N2_19  and  C14_20 
REMARK       I    between atoms: N4_25  and  C17_26 
ROOT
HETATM    1  C7  UNL     1      -2.975  -5.100 -16.049  1.00  0.00     0.363 C 
HETATM    2  O2  UNL     1      -2.741  -4.636 -17.176  1.00  0.00    -0.238 OA
HETATM    3  N1  UNL     1      -3.490  -6.378 -15.774  1.00  0.00    -0.322 N 
ATOM      4  H1  UNL     1      -3.617  -6.636 -14.796  1.00  0.00     0.165 HD
ENDROOT
BRANCH   3   5
HETATM    5  C8  UNL     1      -3.859  -7.369 -16.794  1.00  0.00     0.194 C 
BRANCH   5   6
HETATM    6  C9  UNL     1      -2.937  -8.563 -16.627  1.00  0.00     0.040 C 
BRANCH   6   7
HETATM    7  C10 UNL     1      -1.636  -8.368 -17.331  1.00  0.00    -0.020 C 
HETATM    8  C11 UNL     1      -1.799  -8.650 -18.821  1.00  0.00     0.009 C 
HETATM    9  C12 UNL     1      -0.631  -9.402 -16.819  1.00  0.00     0.009 C 
ENDBRANCH   6   7
ENDBRANCH   5   6
BRANCH   5  10
HETATM   10  C13 UNL     1      -5.263  -7.786 -16.374  1.00  0.00     0.316 C 
HETATM   11  O3  UNL     1      -5.646  -8.845 -16.874  1.00  0.00    -0.255 OA
HETATM   12  N2  UNL     1      -5.942  -6.963 -15.498  1.00  0.00    -0.344 NA
BRANCH  12  13
HETATM   13  C14 UNL     1      -6.589  -6.182 -14.664  1.00  0.00     0.251 C 
HETATM   14  N3  UNL     1      -7.904  -6.030 -14.899  1.00  0.00    -0.339 N 
HETATM   15  C15 UNL     1      -8.832  -5.265 -14.181  1.00  0.00     0.084 C 
ATOM     16  H3  UNL     1      -8.274  -6.537 -15.702  1.00  0.00     0.167 HD
HETATM   17  C16 UNL     1      -8.418  -5.147 -12.722  1.00  0.00     0.180 C 
HETATM   18  N4  UNL     1      -7.052  -4.676 -12.737  1.00  0.00    -0.276 N 
HETATM   19  C17 UNL     1      -6.614  -3.525 -12.041  1.00  0.00     0.223 C 
HETATM   20  C19 UNL     1      -6.110  -5.456 -13.502  1.00  0.00     0.309 C 
HETATM   21  C18 UNL     1      -7.601  -2.763 -11.236  1.00  0.00     0.117 C 
HETATM   22  O4  UNL     1      -5.397  -3.155 -12.104  1.00  0.00    -0.273 OA
HETATM   23  O5  UNL     1      -4.902  -5.460 -13.110  1.00  0.00    -0.262 OA
ENDBRANCH  12  13
ENDBRANCH   5  10
ENDBRANCH   3   5
BRANCH   1  24
HETATM   24  O1  UNL     1      -2.705  -4.282 -14.970  1.00  0.00    -0.272 OA
BRANCH  24  25
HETATM   25  C6  UNL     1      -1.965  -3.060 -15.029  1.00  0.00     0.272 C 
HETATM   26  C5  UNL     1      -0.785  -3.281 -14.215  1.00  0.00     0.070 C 
HETATM   27  C4  UNL     1       0.221  -2.333 -13.808  1.00  0.00     0.022 C 
HETATM   28  C24 UNL     1      -0.063  -0.869 -13.628  1.00  0.00     0.000 C 
HETATM   29  C23 UNL     1      -0.495  -0.508 -12.213  1.00  0.00     0.006 C 
HETATM   30  C25 UNL     1      -1.290  -0.640 -14.472  1.00  0.00     0.020 C 
HETATM   31  C22 UNL     1      -1.761   0.256 -12.081  1.00  0.00     0.007 C 
HETATM   32  C21 UNL     1      -2.933  -0.248 -12.945  1.00  0.00     0.015 C 
HETATM   33  C20 UNL     1      -2.349  -1.372 -13.680  1.00  0.00     0.133 C 
HETATM   34  C27 UNL     1      -3.079   0.832 -14.030  1.00  0.00     0.007 C 
HETATM   35  O6  UNL     1      -2.968  -2.175 -14.504  1.00  0.00    -0.355 OA
HETATM   36  C26 UNL     1      -1.677   0.795 -14.598  1.00  0.00     0.008 C 
BRANCH  27  37
HETATM   37  C2  UNL     1       1.479  -2.408 -14.625  1.00  0.00    -0.088 C 
HETATM   38  C1  UNL     1       2.474  -1.554 -14.413  1.00  0.00     0.014 C 
HETATM   39  C3  UNL     1       1.656  -3.426 -15.694  1.00  0.00     0.043 C 
ENDBRANCH  27  37
ENDBRANCH  24  25
ENDBRANCH   1  24
TORSDOF 8
ENDMDL
MODEL 2
REMARK VINA RESULT: -8.204458146      1.526      3.277
REMARK  8 active torsions:
REMARK  status: ('A' for Active; 'I' for Inactive)
REMARK    1  A    between atoms: C2_2  and  C4_4 
REMARK    2  A    between atoms: C6_6  and  O1_7 
REMARK    3  A    between atoms: O1_7  and  C7_8 
REMARK       I    between atoms: C7_8  and  N1_10 
REMARK    4  A    between atoms: N1_10  and  C8_12 
REMARK    5  A    between atoms: C8_12  and  C9_13 
REMARK    6  A    between atoms: C8_12  and  C13_17 
REMARK    7  A    between atoms: C9_13  and  C10_14 
REMARK       I    between atoms: C13_17  and  N2_19 
REMARK    8  A    between atoms: N2_19  and  C14_20 
REMARK       I    between atoms: N4_25  and  C17_26 
ROOT
HETATM    1  C7  UNL     1      -2.090  -4.565 -16.705  1.00  0.00     0.363 C 
HETATM    2  O2  UNL     1      -1.373  -4.197 -17.649  1.00  0.00    -0.238 OA
HETATM    3  N1  UNL     1      -2.351  -5.896 -16.339  1.00  0.00    -0.322 N 
ATOM      4  H1  UNL     1      -2.947  -6.054 -15.526  1.00  0.00     0.165 HD
ENDROOT
BRANCH   3   5
HETATM    5  C8  UNL     1      -1.827  -7.076 -17.040  1.00  0.00     0.194 C 
BRANCH   5   6
HETATM    6  C9  UNL     1      -0.493  -7.429 -16.408  1.00  0.00     0.040 C 
BRANCH   6   7
HETATM    7  C10 UNL     1       0.625  -7.377 -17.395  1.00  0.00    -0.020 C 
HETATM    8  C11 UNL     1       1.485  -6.142 -17.149  1.00  0.00     0.009 C 
HETATM    9  C12 UNL     1       0.043  -7.206 -18.800  1.00  0.00     0.009 C 
ENDBRANCH   6   7
ENDBRANCH   5   6
BRANCH   5  10
HETATM   10  C13 UNL     1      -2.831  -8.163 -16.677  1.00  0.00     0.316 C 
HETATM   11  O3  UNL     1      -2.420  -9.310 -16.858  1.00  0.00    -0.255 OA
HETATM   12  N2  UNL     1      -4.061  -7.766 -16.193  1.00  0.00    -0.344 NA
BRANCH  12  13
HETATM   13  C14 UNL     1      -5.232  -7.389 -15.731  1.00  0.00     0.251 C 
HETATM   14  N3  UNL     1      -6.288  -7.649 -16.521  1.00  0.00    -0.339 N 
HETATM   15  C15 UNL     1      -7.639  -7.363 -16.288  1.00  0.00     0.084 C 
ATOM     16  H3  UNL     1      -6.079  -8.115 -17.404  1.00  0.00     0.167 HD
HETATM   17  C16 UNL     1      -7.936  -7.348 -14.796  1.00  0.00     0.180 C 
HETATM   18  N4  UNL     1      -6.965  -6.452 -14.210  1.00  0.00    -0.276 N 
HETATM   19  C17 UNL     1      -7.310  -5.348 -13.396  1.00  0.00     0.223 C 
HETATM   20  C19 UNL     1      -5.577  -6.741 -14.480  1.00  0.00     0.309 C 
HETATM   21  C18 UNL     1      -8.745  -5.099 -13.110  1.00  0.00     0.117 C 
HETATM   22  O4  UNL     1      -6.407  -4.588 -12.918  1.00  0.00    -0.273 OA
HETATM   23  O5  UNL     1      -4.730  -6.404 -13.597  1.00  0.00    -0.262 OA
ENDBRANCH  12  13
ENDBRANCH   5  10
ENDBRANCH   3   5
BRANCH   1  24
HETATM   24  O1  UNL     1      -2.685  -3.574 -15.951  1.00  0.00    -0.272 OA
BRANCH  24  25
HETATM   25  C6  UNL     1      -2.164  -3.046 -14.728  1.00  0.00     0.272 C 
HETATM   26  C5  UNL     1      -2.415  -1.618 -14.784  1.00  0.00     0.070 C 
HETATM   27  C4  UNL     1      -1.963  -0.588 -13.884  1.00  0.00     0.022 C 
HETATM   28  C24 UNL     1      -0.685  -0.692 -13.099  1.00  0.00     0.000 C 
HETATM   29  C23 UNL     1       0.520  -0.116 -13.830  1.00  0.00     0.006 C 
HETATM   30  C25 UNL     1      -0.425  -2.175 -13.043  1.00  0.00     0.020 C 
HETATM   31  C22 UNL     1       1.704  -1.002 -13.960  1.00  0.00     0.007 C 
HETATM   32  C21 UNL     1       1.400  -2.455 -14.375  1.00  0.00     0.015 C 
HETATM   33  C20 UNL     1      -0.060  -2.477 -14.478  1.00  0.00     0.133 C 
HETATM   34  C27 UNL     1       1.666  -3.265 -13.095  1.00  0.00     0.007 C 
HETATM   35  O6  UNL     1      -0.802  -3.480 -14.868  1.00  0.00    -0.355 OA
HETATM   36  C26 UNL     1       0.714  -2.555 -12.158  1.00  0.00     0.008 C 
BRANCH  27  37
HETATM   37  C2  UNL     1      -3.011  -0.147 -12.903  1.00  0.00    -0.088 C 
HETATM   38  C1  UNL     1      -2.751   0.814 -12.022  1.00  0.00     0.014 C 
HETATM   39  C3  UNL     1      -4.363  -0.765 -12.874  1.00  0.00     0.043 C 
ENDBRANCH  27  37
ENDBRANCH  24  25
ENDBRANCH   1  24
TORSDOF 8
ENDMDL
MODEL 3
REMARK VINA RESULT: -8.194051974      1.811      6.087
REMARK  8 active torsions:
REMARK  status: ('A' for Active; 'I' for Inactive)
REMARK    1  A    between atoms: C2_2  and  C4_4 
REMARK    2  A    between atoms: C6_6  and  O1_7 
REMARK    3  A    between atoms: O1_7  and  C7_8 
REMARK       I    between atoms: C7_8  and  N1_10 
REMARK    4  A    between atoms: N1_10  and  C8_12 
REMARK    5  A    between atoms: C8_12  and  C9_13 
REMARK    6  A    between atoms: C8_12  and  C13_17 
REMARK    7  A    between atoms: C9_13  and  C10_14 
REMARK       I    between atoms: C13_17  and  N2_19 
REMARK    8  A    between atoms: N2_19  and  C14_20 
REMARK       I    between atoms: N4_25  and  C17_26 
ROOT
HETATM    1  C7  UNL     1      -5.326  -3.323 -12.841  1.00  0.00     0.363 C 
HETATM    2  O2  UNL     1      -5.501  -3.285 -11.613  1.00  0.00    -0.238 OA
HETATM    3  N1  UNL     1      -5.634  -4.403 -13.685  1.00  0.00    -0.322 N 
ATOM      4  H1  UNL     1      -5.452  -4.291 -14.682  1.00  0.00     0.165 HD
ENDROOT
BRANCH   3   5
HETATM    5  C8  UNL     1      -6.200  -5.683 -13.234  1.00  0.00     0.194 C 
BRANCH   5   6
HETATM    6  C9  UNL     1      -7.668  -5.451 -12.927  1.00  0.00     0.040 C 
BRANCH   6   7
HETATM    7  C10 UNL     1      -8.239  -4.332 -13.733  1.00  0.00    -0.020 C 
HETATM    8  C11 UNL     1      -8.974  -3.353 -12.824  1.00  0.00     0.009 C 
HETATM    9  C12 UNL     1      -9.298  -4.892 -14.686  1.00  0.00     0.009 C 
ENDBRANCH   6   7
ENDBRANCH   5   6
BRANCH   5  10
HETATM   10  C13 UNL     1      -6.102  -6.556 -14.478  1.00  0.00     0.316 C 
HETATM   11  O3  UNL     1      -7.110  -7.229 -14.702  1.00  0.00    -0.255 OA
HETATM   12  N2  UNL     1      -4.933  -6.503 -15.211  1.00  0.00    -0.344 NA
BRANCH  12  13
HETATM   13  C14 UNL     1      -3.822  -6.453 -15.909  1.00  0.00     0.251 C 
HETATM   14  N3  UNL     1      -3.273  -5.234 -16.057  1.00  0.00    -0.339 N 
HETATM   15  C15 UNL     1      -2.104  -4.886 -16.742  1.00  0.00     0.084 C 
ATOM     16  H3  UNL     1      -3.774  -4.465 -15.612  1.00  0.00     0.167 HD
HETATM   17  C16 UNL     1      -1.116  -6.043 -16.746  1.00  0.00     0.180 C 
HETATM   18  N4  UNL     1      -1.851  -7.185 -17.241  1.00  0.00    -0.276 N 
HETATM   19  C17 UNL     1      -1.427  -7.972 -18.337  1.00  0.00     0.223 C 
HETATM   20  C19 UNL     1      -3.069  -7.519 -16.543  1.00  0.00     0.309 C 
HETATM   21  C18 UNL     1      -0.152  -7.622 -19.011  1.00  0.00     0.117 C 
HETATM   22  O4  UNL     1      -2.126  -8.961 -18.732  1.00  0.00    -0.273 OA
HETATM   23  O5  UNL     1      -3.416  -8.740 -16.528  1.00  0.00    -0.262 OA
ENDBRANCH  12  13
ENDBRANCH   5  10
ENDBRANCH   3   5
BRANCH   1  24
HETATM   24  O1  UNL     1      -4.774  -2.201 -13.427  1.00  0.00    -0.272 OA
BRANCH  24  25
HETATM   25  C6  UNL     1      -3.806  -1.345 -12.814  1.00  0.00     0.272 C 
HETATM   26  C5  UNL     1      -4.178   0.002 -13.204  1.00  0.00     0.070 C 
HETATM   27  C4  UNL     1      -3.460   1.233 -12.991  1.00  0.00     0.022 C 
HETATM   28  C24 UNL     1      -1.962   1.296 -12.885  1.00  0.00     0.000 C 
HETATM   29  C23 UNL     1      -1.272   1.517 -14.225  1.00  0.00     0.006 C 
HETATM   30  C25 UNL     1      -1.576  -0.103 -12.482  1.00  0.00     0.020 C 
HETATM   31  C22 UNL     1      -0.202   0.553 -14.586  1.00  0.00     0.007 C 
HETATM   32  C21 UNL     1      -0.532  -0.930 -14.329  1.00  0.00     0.015 C 
HETATM   33  C20 UNL     1      -1.873  -0.879 -13.745  1.00  0.00     0.133 C 
HETATM   34  C27 UNL     1       0.352  -1.299 -13.126  1.00  0.00     0.007 C 
HETATM   35  O6  UNL     1      -2.622  -1.898 -13.411  1.00  0.00    -0.355 OA
HETATM   36  C26 UNL     1      -0.132  -0.257 -12.142  1.00  0.00     0.008 C 
BRANCH  27  37
HETATM   37  C2  UNL     1      -3.986   2.042 -11.840  1.00  0.00    -0.088 C 
HETATM   38  C1  UNL     1      -3.154   2.713 -11.050  1.00  0.00     0.014 C 
HETATM   39  C3  UNL     1      -5.440   2.117 -11.539  1.00  0.00     0.043 C 
ENDBRANCH  27  37
ENDBRANCH  24  25
ENDBRANCH   1  24
TORSDOF 8
ENDMDL
MODEL 4
REMARK VINA RESULT: -7.970840628      1.771      5.849
REMARK  8 active torsions:
REMARK  status: ('A' for Active; 'I' for Inactive)
REMARK    1  A    between atoms: C2_2  and  C4_4 
REMARK    2  A    between atoms: C6_6  and  O1_7 
REMARK    3  A    between atoms: O1_7  and  C7_8 
REMARK       I    between atoms: C7_8  and  N1_10 
REMARK    4  A    between atoms: N1_10  and  C8_12 
REMARK    5  A    between atoms: C8_12  and  C9_13 
REMARK    6  A    between atoms: C8_12  and  C13_17 
REMARK    7  A    between atoms: C9_13  and  C10_14 
REMARK       I    between atoms: C13_17  and  N2_19 
REMARK    8  A    between atoms: N2_19  and  C14_20 
REMARK       I    between atoms: N4_25  and  C17_26 
ROOT
HETATM    1  C7  UNL     1      -4.463  -4.500 -13.984  1.00  0.00     0.363 C 
HETATM    2  O2  UNL     1      -5.109  -4.268 -12.950  1.00  0.00    -0.238 OA
HETATM    3  N1  UNL     1      -4.598  -5.633 -14.803  1.00  0.00    -0.322 N 
ATOM      4  H1  UNL     1      -4.012  -5.687 -15.636  1.00  0.00     0.165 HD
ENDROOT
BRANCH   3   5
HETATM    5  C8  UNL     1      -5.522  -6.747 -14.547  1.00  0.00     0.194 C 
BRANCH   5   6
HETATM    6  C9  UNL     1      -6.926  -6.257 -14.854  1.00  0.00     0.040 C 
BRANCH   6   7
HETATM    7  C10 UNL     1      -7.905  -6.670 -13.807  1.00  0.00    -0.020 C 
HETATM    8  C11 UNL     1      -9.197  -7.153 -14.459  1.00  0.00     0.009 C 
HETATM    9  C12 UNL     1      -8.292  -5.446 -12.974  1.00  0.00     0.009 C 
ENDBRANCH   6   7
ENDBRANCH   5   6
BRANCH   5  10
HETATM   10  C13 UNL     1      -5.129  -7.768 -15.606  1.00  0.00     0.316 C 
HETATM   11  O3  UNL     1      -6.016  -8.578 -15.880  1.00  0.00    -0.255 OA
HETATM   12  N2  UNL     1      -3.858  -7.684 -16.140  1.00  0.00    -0.344 NA
BRANCH  12  13
HETATM   13  C14 UNL     1      -2.651  -7.603 -16.649  1.00  0.00     0.251 C 
HETATM   14  N3  UNL     1      -2.024  -8.773 -16.866  1.00  0.00    -0.339 N 
HETATM   15  C15 UNL     1      -0.745  -8.988 -17.393  1.00  0.00     0.084 C 
ATOM     16  H3  UNL     1      -2.547  -9.611 -16.615  1.00  0.00     0.167 HD
HETATM   17  C16 UNL     1      -0.355  -7.862 -18.339  1.00  0.00     0.180 C 
HETATM   18  N4  UNL     1      -0.562  -6.638 -17.598  1.00  0.00    -0.276 N 
HETATM   19  C17 UNL     1       0.437  -5.652 -17.422  1.00  0.00     0.223 C 
HETATM   20  C19 UNL     1      -1.876  -6.439 -17.036  1.00  0.00     0.309 C 
HETATM   21  C18 UNL     1       1.768  -5.872 -18.042  1.00  0.00     0.117 C 
HETATM   22  O4  UNL     1       0.195  -4.599 -16.748  1.00  0.00    -0.273 OA
HETATM   23  O5  UNL     1      -2.280  -5.243 -16.909  1.00  0.00    -0.262 OA
ENDBRANCH  12  13
ENDBRANCH   5  10
ENDBRANCH   3   5
BRANCH   1  24
HETATM   24  O1  UNL     1      -3.526  -3.558 -14.357  1.00  0.00    -0.272 OA
BRANCH  24  25
HETATM   25  C6  UNL     1      -3.144  -2.422 -13.576  1.00  0.00     0.272 C 
HETATM   26  C5  UNL     1      -3.866  -1.300 -14.146  1.00  0.00     0.070 C 
HETATM   27  C4  UNL     1      -3.737   0.103 -13.842  1.00  0.00     0.022 C 
HETATM   28  C24 UNL     1      -2.457   0.718 -13.352  1.00  0.00     0.000 C 
HETATM   29  C23 UNL     1      -1.562   1.223 -14.477  1.00  0.00     0.006 C 
HETATM   30  C25 UNL     1      -1.707  -0.448 -12.763  1.00  0.00     0.020 C 
HETATM   31  C22 UNL     1      -0.158   0.741 -14.474  1.00  0.00     0.007 C 
HETATM   32  C21 UNL     1       0.024  -0.766 -14.207  1.00  0.00     0.015 C 
HETATM   33  C20 UNL     1      -1.345  -1.239 -13.999  1.00  0.00     0.133 C 
HETATM   34  C27 UNL     1       0.623  -0.817 -12.791  1.00  0.00     0.007 C 
HETATM   35  O6  UNL     1      -1.727  -2.473 -13.800  1.00  0.00    -0.355 OA
HETATM   36  C26 UNL     1      -0.458  -0.063 -12.046  1.00  0.00     0.008 C 
BRANCH  27  37
HETATM   37  C2  UNL     1      -4.814   0.619 -12.930  1.00  0.00    -0.088 C 
HETATM   38  C1  UNL     1      -4.675   1.789 -12.315  1.00  0.00     0.014 C 
HETATM   39  C3  UNL     1      -6.060  -0.152 -12.679  1.00  0.00     0.043 C 
ENDBRANCH  27  37
ENDBRANCH  24  25
ENDBRANCH   1  24
TORSDOF 8
ENDMDL
MODEL 5
REMARK VINA RESULT: -7.966013383      3.710      8.633
REMARK  8 active torsions:
REMARK  status: ('A' for Active; 'I' for Inactive)
REMARK    1  A    between atoms: C2_2  and  C4_4 
REMARK    2  A    between atoms: C6_6  and  O1_7 
REMARK    3  A    between atoms: O1_7  and  C7_8 
REMARK       I    between atoms: C7_8  and  N1_10 
REMARK    4  A    between atoms: N1_10  and  C8_12 
REMARK    5  A    between atoms: C8_12  and  C9_13 
REMARK    6  A    between atoms: C8_12  and  C13_17 
REMARK    7  A    between atoms: C9_13  and  C10_14 
REMARK       I    between atoms: C13_17  and  N2_19 
REMARK    8  A    between atoms: N2_19  and  C14_20 
REMARK       I    between atoms: N4_25  and  C17_26 
ROOT
HETATM    1  C7  UNL     1      -3.173  -6.641 -16.150  1.00  0.00     0.363 C 
HETATM    2  O2  UNL     1      -3.095  -5.480 -16.580  1.00  0.00    -0.238 OA
HETATM    3  N1  UNL     1      -2.235  -7.665 -16.366  1.00  0.00    -0.322 N 
ATOM      4  H1  UNL     1      -2.418  -8.571 -15.936  1.00  0.00     0.165 HD
ENDROOT
BRANCH   3   5
HETATM    5  C8  UNL     1      -1.010  -7.524 -17.166  1.00  0.00     0.194 C 
BRANCH   5   6
HETATM    6  C9  UNL     1       0.104  -8.241 -16.426  1.00  0.00     0.040 C 
BRANCH   6   7
HETATM    7  C10 UNL     1       1.308  -7.377 -16.253  1.00  0.00    -0.020 C 
HETATM    8  C11 UNL     1       1.872  -7.537 -14.845  1.00  0.00     0.009 C 
HETATM    9  C12 UNL     1       0.891  -5.909 -16.370  1.00  0.00     0.009 C 
ENDBRANCH   6   7
ENDBRANCH   5   6
BRANCH   5  10
HETATM   10  C13 UNL     1      -1.333  -8.313 -18.427  1.00  0.00     0.316 C 
HETATM   11  O3  UNL     1      -2.277  -9.096 -18.305  1.00  0.00    -0.255 OA
HETATM   12  N2  UNL     1      -0.564  -8.076 -19.549  1.00  0.00    -0.344 NA
BRANCH  12  13
HETATM   13  C14 UNL     1       0.167  -7.851 -20.616  1.00  0.00     0.251 C 
HETATM   14  N3  UNL     1      -0.087  -8.634 -21.680  1.00  0.00    -0.339 N 
HETATM   15  C15 UNL     1       0.530  -8.619 -22.936  1.00  0.00     0.084 C 
ATOM     16  H3  UNL     1      -0.824  -9.328 -21.556  1.00  0.00     0.167 HD
HETATM   17  C16 UNL     1       1.042  -7.225 -23.268  1.00  0.00     0.180 C 
HETATM   18  N4  UNL     1       1.847  -6.823 -22.137  1.00  0.00    -0.276 N 
HETATM   19  C17 UNL     1       3.188  -6.385 -22.248  1.00  0.00     0.223 C 
HETATM   20  C19 UNL     1       1.210  -6.868 -20.844  1.00  0.00     0.309 C 
HETATM   21  C18 UNL     1       3.804  -6.318 -23.597  1.00  0.00     0.117 C 
HETATM   22  O4  UNL     1       3.848  -6.054 -21.210  1.00  0.00    -0.273 OA
HETATM   23  O5  UNL     1       1.606  -6.038 -19.969  1.00  0.00    -0.262 OA
ENDBRANCH  12  13
ENDBRANCH   5  10
ENDBRANCH   3   5
BRANCH   1  24
HETATM   24  O1  UNL     1      -4.285  -6.952 -15.393  1.00  0.00    -0.272 OA
BRANCH  24  25
HETATM   25  C6  UNL     1      -5.348  -6.047 -15.083  1.00  0.00     0.272 C 
HETATM   26  C5  UNL     1      -5.121  -5.638 -13.710  1.00  0.00     0.070 C 
HETATM   27  C4  UNL     1      -5.972  -4.855 -12.850  1.00  0.00     0.022 C 
HETATM   28  C24 UNL     1      -7.468  -4.834 -12.982  1.00  0.00     0.000 C 
HETATM   29  C23 UNL     1      -8.162  -5.897 -12.141  1.00  0.00     0.006 C 
HETATM   30  C25 UNL     1      -7.704  -5.261 -14.407  1.00  0.00     0.020 C 
HETATM   31  C22 UNL     1      -9.116  -6.786 -12.851  1.00  0.00     0.007 C 
HETATM   32  C21 UNL     1      -8.629  -7.331 -14.207  1.00  0.00     0.015 C 
HETATM   33  C20 UNL     1      -7.308  -6.719 -14.361  1.00  0.00     0.133 C 
HETATM   34  C27 UNL     1      -9.482  -6.571 -15.236  1.00  0.00     0.007 C 
HETATM   35  O6  UNL     1      -6.457  -6.925 -15.332  1.00  0.00    -0.355 OA
HETATM   36  C26 UNL     1      -9.126  -5.153 -14.843  1.00  0.00     0.008 C 
BRANCH  27  37
HETATM   37  C2  UNL     1      -5.551  -3.417 -12.739  1.00  0.00    -0.088 C 
HETATM   38  C1  UNL     1      -6.301  -2.543 -12.077  1.00  0.00     0.014 C 
HETATM   39  C3  UNL     1      -4.295  -2.921 -13.362  1.00  0.00     0.043 C 
ENDBRANCH  27  37
ENDBRANCH  24  25
ENDBRANCH   1  24
TORSDOF 8
ENDMDL
