MODEL 1
REMARK VINA RESULT: -8.049844095      0.000      0.000
REMARK  11 active torsions:
REMARK  status: ('A' for Active; 'I' for Inactive)
REMARK    1  A    between atoms: N1_6  and  C6_7 
REMARK    2  A    between atoms: N2_10  and  S1_11 
REMARK    3  A    between atoms: S1_11  and  C9_14 
REMARK    4  A    between atoms: C9_14  and  C10_15 
REMARK    5  A    between atoms: C10_15  and  C11_16 
REMARK    6  A    between atoms: C11_16  and  O3_17 
REMARK    7  A    between atoms: N3_19  and  O4_21 
REMARK    8  A    between atoms: N4_25  and  C14_26 
REMARK    9  A    between atoms: C14_26  and  O5_27 
REMARK   10  A    between atoms: C14_26  and  C15_29 
REMARK   11  A    between atoms: C15_29  and  C16_31 
ROOT
HETATM    1  C10 UNL     1       0.516  -5.563 -19.122  1.00  0.00     0.043 C 
HETATM    2  C12 UNL     1      -0.187  -5.629 -17.813  1.00  0.00     0.039 C 
HETATM    3  C13 UNL     1       0.125  -6.900 -17.050  1.00  0.00     0.126 C 
HETATM    4  N4  UNL     1      -0.376  -7.993 -17.931  1.00  0.00    -0.359 N 
HETATM    5  C22 UNL     1       0.294  -8.054 -19.192  1.00  0.00     0.126 C 
HETATM    6  C23 UNL     1       0.129  -6.772 -19.992  1.00  0.00     0.039 C 
ENDROOT
BRANCH   1   7
HETATM    7  C9  UNL     1       1.988  -5.484 -18.970  1.00  0.00     0.175 C 
BRANCH   7   8
HETATM    8  S1  UNL     1       2.642  -4.089 -18.154  1.00  0.00     0.212 S 
HETATM    9  O1  UNL     1       3.611  -4.436 -17.033  1.00  0.00    -0.211 OA
HETATM   10  O2  UNL     1       1.566  -3.244 -17.536  1.00  0.00    -0.211 OA
BRANCH   8  11
HETATM   11  N2  UNL     1       3.549  -3.074 -19.223  1.00  0.00    -0.210 NA
HETATM   12  C8  UNL     1       3.662  -3.563 -20.548  1.00  0.00     0.109 C 
HETATM   13  C7  UNL     1       4.907  -3.202 -21.269  1.00  0.00     0.051 C 
HETATM   14  C6  UNL     1       5.559  -1.914 -20.888  1.00  0.00     0.226 C 
HETATM   15  C25 UNL     1       5.187  -1.403 -19.529  1.00  0.00     0.051 C 
HETATM   16  C24 UNL     1       4.791  -2.624 -18.683  1.00  0.00     0.109 C 
BRANCH  14  17
HETATM   17  N1  UNL     1       5.397  -0.941 -21.939  1.00  0.00     0.097 N 
HETATM   18  C2  UNL     1       6.565  -0.596 -22.666  1.00  0.00     0.219 C 
HETATM   19  C1  UNL     1       7.521  -1.696 -22.950  1.00  0.00     0.043 C 
HETATM   20  C3  UNL     1       7.188   0.612 -22.003  1.00  0.00     0.037 C 
HETATM   21  C4  UNL     1       5.957   1.346 -21.532  1.00  0.00     0.032 C 
HETATM   22  C5  UNL     1       4.839   0.307 -21.489  1.00  0.00     0.273 C 
ENDBRANCH  14  17
ENDBRANCH   8  11
ENDBRANCH   7   8
ENDBRANCH   1   7
BRANCH   1  23
HETATM   23  C11 UNL     1       0.062  -4.385 -19.897  1.00  0.00     0.145 C 
HETATM   24  N3  UNL     1       0.265  -4.314 -21.156  1.00  0.00    -0.250 N 
ATOM     25  H3  UNL     1       0.743  -5.071 -21.642  1.00  0.00     0.196 HD
BRANCH  23  26
HETATM   26  O3  UNL     1      -0.586  -3.359 -19.246  1.00  0.00    -0.347 OA
ATOM     27  H3  UNL     1      -1.426  -3.057 -19.573  1.00  0.00     0.219 HD
ENDBRANCH  23  26
BRANCH  24  28
HETATM   28  O4  UNL     1      -0.166  -3.213 -21.846  1.00  0.00    -0.288 OA
ATOM     29  H4  UNL     1      -0.444  -2.441 -21.368  1.00  0.00     0.244 HD
ENDBRANCH  24  28
ENDBRANCH   1  23
BRANCH   4  30
HETATM   30  C14 UNL     1      -1.408  -8.793 -17.422  1.00  0.00     0.185 C 
BRANCH  30  31
HETATM   31  O5  UNL     1      -1.091  -9.794 -16.652  1.00  0.00    -0.344 OA
ATOM     32  H5  UNL     1      -1.053  -9.645 -15.714  1.00  0.00     0.219 HD
ENDBRANCH  30  31
BRANCH  30  33
HETATM   33  C15 UNL     1      -2.818  -8.648 -17.647  1.00  0.00     0.203 C 
HETATM   34  O6  UNL     1      -3.350  -8.875 -18.773  1.00  0.00    -0.288 OA
BRANCH  33  35
HETATM   35  C16 UNL     1      -3.745  -8.219 -16.558  1.00  0.00     0.064 C 
HETATM   36  C17 UNL     1      -3.764  -6.716 -16.412  1.00  0.00     0.013 C 
HETATM   37  C18 UNL     1      -4.388  -6.418 -15.045  1.00  0.00     0.001 C 
HETATM   38  C19 UNL     1      -5.688  -7.191 -14.888  1.00  0.00     0.000 C 
HETATM   39  C20 UNL     1      -6.157  -7.738 -16.218  1.00  0.00     0.001 C 
HETATM   40  C21 UNL     1      -5.150  -8.764 -16.747  1.00  0.00     0.013 C 
ENDBRANCH  33  35
ENDBRANCH  30  33
ENDBRANCH   4  30
TORSDOF 11
ENDMDL
MODEL 2
REMARK VINA RESULT: -7.489639603      6.769      8.822
REMARK  11 active torsions:
REMARK  status: ('A' for Active; 'I' for Inactive)
REMARK    1  A    between atoms: N1_6  and  C6_7 
REMARK    2  A    between atoms: N2_10  and  S1_11 
REMARK    3  A    between atoms: S1_11  and  C9_14 
REMARK    4  A    between atoms: C9_14  and  C10_15 
REMARK    5  A    between atoms: C10_15  and  C11_16 
REMARK    6  A    between atoms: C11_16  and  O3_17 
REMARK    7  A    between atoms: N3_19  and  O4_21 
REMARK    8  A    between atoms: N4_25  and  C14_26 
REMARK    9  A    between atoms: C14_26  and  O5_27 
REMARK   10  A    between atoms: C14_26  and  C15_29 
REMARK   11  A    between atoms: C15_29  and  C16_31 
ROOT
HETATM    1  C10 UNL     1      -2.247   0.421 -13.561  1.00  0.00     0.043 C 
HETATM    2  C12 UNL     1      -3.546   1.119 -13.756  1.00  0.00     0.039 C 
HETATM    3  C13 UNL     1      -4.538   0.818 -12.652  1.00  0.00     0.126 C 
HETATM    4  N4  UNL     1      -4.755  -0.654 -12.739  1.00  0.00    -0.359 N 
HETATM    5  C22 UNL     1      -3.570  -1.415 -12.493  1.00  0.00     0.126 C 
HETATM    6  C23 UNL     1      -2.469  -1.100 -13.492  1.00  0.00     0.039 C 
ENDROOT
BRANCH   1   7
HETATM    7  C9  UNL     1      -1.526   0.895 -12.355  1.00  0.00     0.175 C 
BRANCH   7   8
HETATM    8  S1  UNL     1       0.210   0.730 -12.335  1.00  0.00     0.212 S 
HETATM    9  O1  UNL     1       0.850   1.173 -11.027  1.00  0.00    -0.211 OA
HETATM   10  O2  UNL     1       0.863   1.537 -13.419  1.00  0.00    -0.211 OA
BRANCH   8  11
HETATM   11  N2  UNL     1       0.710  -0.914 -12.537  1.00  0.00    -0.210 NA
HETATM   12  C8  UNL     1       0.160  -1.820 -11.596  1.00  0.00     0.109 C 
HETATM   13  C7  UNL     1       1.010  -2.982 -11.242  1.00  0.00     0.051 C 
HETATM   14  C6  UNL     1       1.955  -3.472 -12.289  1.00  0.00     0.226 C 
HETATM   15  C25 UNL     1       2.293  -2.466 -13.347  1.00  0.00     0.051 C 
HETATM   16  C24 UNL     1       2.117  -1.075 -12.716  1.00  0.00     0.109 C 
BRANCH  14  17
HETATM   17  N1  UNL     1       1.508  -4.739 -12.814  1.00  0.00     0.097 N 
HETATM   18  C2  UNL     1       2.338  -5.858 -12.555  1.00  0.00     0.219 C 
HETATM   19  C1  UNL     1       2.990  -5.910 -11.221  1.00  0.00     0.043 C 
HETATM   20  C3  UNL     1       3.293  -6.012 -13.718  1.00  0.00     0.037 C 
HETATM   21  C4  UNL     1       2.422  -5.560 -14.863  1.00  0.00     0.032 C 
HETATM   22  C5  UNL     1       1.301  -4.733 -14.238  1.00  0.00     0.273 C 
ENDBRANCH  14  17
ENDBRANCH   8  11
ENDBRANCH   7   8
ENDBRANCH   1   7
BRANCH   1  23
HETATM   23  C11 UNL     1      -1.369   0.619 -14.738  1.00  0.00     0.145 C 
HETATM   24  N3  UNL     1      -1.322   1.746 -15.335  1.00  0.00    -0.250 N 
ATOM     25  H3  UNL     1      -1.891   2.526 -15.006  1.00  0.00     0.196 HD
BRANCH  23  26
HETATM   26  O3  UNL     1      -0.598  -0.430 -15.188  1.00  0.00    -0.347 OA
ATOM     27  H3  UNL     1       0.134  -0.254 -15.767  1.00  0.00     0.219 HD
ENDBRANCH  23  26
BRANCH  24  28
HETATM   28  O4  UNL     1      -0.502   1.900 -16.420  1.00  0.00    -0.288 OA
ATOM     29  H4  UNL     1       0.389   2.203 -16.293  1.00  0.00     0.244 HD
ENDBRANCH  24  28
ENDBRANCH   1  23
BRANCH   4  30
HETATM   30  C14 UNL     1      -6.052  -1.086 -13.042  1.00  0.00     0.185 C 
BRANCH  30  31
HETATM   31  O5  UNL     1      -6.697  -0.479 -13.996  1.00  0.00    -0.344 OA
ATOM     32  H5  UNL     1      -7.282  -0.992 -14.542  1.00  0.00     0.219 HD
ENDBRANCH  30  31
BRANCH  30  33
HETATM   33  C15 UNL     1      -6.790  -2.147 -12.417  1.00  0.00     0.203 C 
HETATM   34  O6  UNL     1      -7.357  -2.005 -11.295  1.00  0.00    -0.288 OA
BRANCH  33  35
HETATM   35  C16 UNL     1      -6.932  -3.487 -13.060  1.00  0.00     0.064 C 
HETATM   36  C17 UNL     1      -5.815  -4.416 -12.647  1.00  0.00     0.013 C 
HETATM   37  C18 UNL     1      -5.814  -5.572 -13.652  1.00  0.00     0.001 C 
HETATM   38  C19 UNL     1      -7.220  -6.129 -13.803  1.00  0.00     0.000 C 
HETATM   39  C20 UNL     1      -8.122  -5.635 -12.695  1.00  0.00     0.001 C 
HETATM   40  C21 UNL     1      -8.288  -4.114 -12.793  1.00  0.00     0.013 C 
ENDBRANCH  33  35
ENDBRANCH  30  33
ENDBRANCH   4  30
TORSDOF 11
ENDMDL
MODEL 3
REMARK VINA RESULT: -7.424602950      7.689      9.575
REMARK  11 active torsions:
REMARK  status: ('A' for Active; 'I' for Inactive)
REMARK    1  A    between atoms: N1_6  and  C6_7 
REMARK    2  A    between atoms: N2_10  and  S1_11 
REMARK    3  A    between atoms: S1_11  and  C9_14 
REMARK    4  A    between atoms: C9_14  and  C10_15 
REMARK    5  A    between atoms: C10_15  and  C11_16 
REMARK    6  A    between atoms: C11_16  and  O3_17 
REMARK    7  A    between atoms: N3_19  and  O4_21 
REMARK    8  A    between atoms: N4_25  and  C14_26 
REMARK    9  A    between atoms: C14_26  and  O5_27 
REMARK   10  A    between atoms: C14_26  and  C15_29 
REMARK   11  A    between atoms: C15_29  and  C16_31 
ROOT
HETATM    1  C10 UNL     1      -6.384  -0.851 -13.039  1.00  0.00     0.043 C 
HETATM    2  C12 UNL     1      -6.255  -2.086 -12.221  1.00  0.00     0.039 C 
HETATM    3  C13 UNL     1      -6.539  -3.343 -13.017  1.00  0.00     0.126 C 
HETATM    4  N4  UNL     1      -7.956  -3.192 -13.456  1.00  0.00    -0.359 N 
HETATM    5  C22 UNL     1      -8.165  -2.065 -14.311  1.00  0.00     0.126 C 
HETATM    6  C23 UNL     1      -7.801  -0.754 -13.632  1.00  0.00     0.039 C 
ENDROOT
BRANCH   1   7
HETATM    7  C9  UNL     1      -5.367  -0.776 -14.115  1.00  0.00     0.175 C 
BRANCH   7   8
HETATM    8  S1  UNL     1      -3.724  -1.189 -13.702  1.00  0.00     0.212 S 
HETATM    9  O1  UNL     1      -3.062  -2.130 -14.699  1.00  0.00    -0.211 OA
HETATM   10  O2  UNL     1      -3.633  -1.860 -12.363  1.00  0.00    -0.211 OA
BRANCH   8  11
HETATM   11  N2  UNL     1      -2.694   0.201 -13.658  1.00  0.00    -0.210 NA
HETATM   12  C8  UNL     1      -2.377   0.743 -14.929  1.00  0.00     0.109 C 
HETATM   13  C7  UNL     1      -1.049   1.393 -15.043  1.00  0.00     0.051 C 
HETATM   14  C6  UNL     1      -0.491   2.012 -13.805  1.00  0.00     0.226 C 
HETATM   15  C25 UNL     1      -1.069   1.485 -12.526  1.00  0.00     0.051 C 
HETATM   16  C24 UNL     1      -1.556   0.055 -12.811  1.00  0.00     0.109 C 
BRANCH  14  17
HETATM   17  N1  UNL     1      -0.520   3.450 -13.907  1.00  0.00     0.097 N 
HETATM   18  C2  UNL     1       0.730   4.097 -14.079  1.00  0.00     0.219 C 
HETATM   19  C1  UNL     1       1.721   3.411 -14.948  1.00  0.00     0.043 C 
HETATM   20  C3  UNL     1       1.257   4.467 -12.711  1.00  0.00     0.037 C 
HETATM   21  C4  UNL     1      -0.028   4.783 -11.986  1.00  0.00     0.032 C 
HETATM   22  C5  UNL     1      -1.138   4.096 -12.779  1.00  0.00     0.273 C 
ENDBRANCH  14  17
ENDBRANCH   8  11
ENDBRANCH   7   8
ENDBRANCH   1   7
BRANCH   1  23
HETATM   23  C11 UNL     1      -6.253   0.354 -12.187  1.00  0.00     0.145 C 
HETATM   24  N3  UNL     1      -6.980   0.500 -11.147  1.00  0.00    -0.250 N 
ATOM     25  H3  UNL     1      -7.661  -0.215 -10.892  1.00  0.00     0.196 HD
BRANCH  23  26
HETATM   26  O3  UNL     1      -5.335   1.322 -12.525  1.00  0.00    -0.347 OA
ATOM     27  H3  UNL     1      -5.625   2.220 -12.640  1.00  0.00     0.219 HD
ENDBRANCH  23  26
BRANCH  24  28
HETATM   28  O4  UNL     1      -6.837   1.623 -10.378  1.00  0.00    -0.288 OA
ATOM     29  H4  UNL     1      -7.515   1.851  -9.754  1.00  0.00     0.244 HD
ENDBRANCH  24  28
ENDBRANCH   1  23
BRANCH   4  30
HETATM   30  C14 UNL     1      -8.868  -4.144 -12.987  1.00  0.00     0.185 C 
BRANCH  30  31
HETATM   31  O5  UNL     1     -10.080  -3.755 -12.710  1.00  0.00    -0.344 OA
ATOM     32  H5  UNL     1     -10.701  -4.403 -12.399  1.00  0.00     0.219 HD
ENDBRANCH  30  31
BRANCH  30  33
HETATM   33  C15 UNL     1      -8.635  -5.543 -12.761  1.00  0.00     0.203 C 
HETATM   34  O6  UNL     1      -8.695  -6.061 -11.608  1.00  0.00    -0.288 OA
BRANCH  33  35
HETATM   35  C16 UNL     1      -8.309  -6.473 -13.883  1.00  0.00     0.064 C 
HETATM   36  C17 UNL     1      -8.807  -5.938 -15.204  1.00  0.00     0.013 C 
HETATM   37  C18 UNL     1      -8.801  -7.116 -16.183  1.00  0.00     0.001 C 
HETATM   38  C19 UNL     1      -7.458  -7.826 -16.133  1.00  0.00     0.000 C 
HETATM   39  C20 UNL     1      -6.426  -6.984 -15.418  1.00  0.00     0.001 C 
HETATM   40  C21 UNL     1      -6.826  -6.796 -13.951  1.00  0.00     0.013 C 
ENDBRANCH  33  35
ENDBRANCH  30  33
ENDBRANCH   4  30
TORSDOF 11
ENDMDL
MODEL 4
REMARK VINA RESULT: -7.381755184      2.519      9.795
REMARK  11 active torsions:
REMARK  status: ('A' for Active; 'I' for Inactive)
REMARK    1  A    between atoms: N1_6  and  C6_7 
REMARK    2  A    between atoms: N2_10  and  S1_11 
REMARK    3  A    between atoms: S1_11  and  C9_14 
REMARK    4  A    between atoms: C9_14  and  C10_15 
REMARK    5  A    between atoms: C10_15  and  C11_16 
REMARK    6  A    between atoms: C11_16  and  O3_17 
REMARK    7  A    between atoms: N3_19  and  O4_21 
REMARK    8  A    between atoms: N4_25  and  C14_26 
REMARK    9  A    between atoms: C14_26  and  O5_27 
REMARK   10  A    between atoms: C14_26  and  C15_29 
REMARK   11  A    between atoms: C15_29  and  C16_31 
ROOT
HETATM    1  C10 UNL     1       0.641  -5.744 -19.060  1.00  0.00     0.043 C 
HETATM    2  C12 UNL     1       0.880  -5.447 -20.498  1.00  0.00     0.039 C 
HETATM    3  C13 UNL     1       1.436  -6.636 -21.253  1.00  0.00     0.126 C 
HETATM    4  N4  UNL     1       2.740  -6.920 -20.588  1.00  0.00    -0.359 N 
HETATM    5  C22 UNL     1       2.606  -7.287 -19.213  1.00  0.00     0.126 C 
HETATM    6  C23 UNL     1       1.952  -6.191 -18.388  1.00  0.00     0.039 C 
ENDROOT
BRANCH   1   7
HETATM    7  C9  UNL     1      -0.416  -6.764 -18.861  1.00  0.00     0.175 C 
BRANCH   7   8
HETATM    8  S1  UNL     1      -0.500  -7.548 -17.305  1.00  0.00     0.212 S 
HETATM    9  O1  UNL     1       0.467  -6.973 -16.280  1.00  0.00    -0.211 OA
HETATM   10  O2  UNL     1      -0.195  -9.014 -17.398  1.00  0.00    -0.211 OA
BRANCH   8  11
HETATM   11  N2  UNL     1      -2.061  -7.386 -16.578  1.00  0.00    -0.210 NA
HETATM   12  C8  UNL     1      -2.849  -8.565 -16.599  1.00  0.00     0.109 C 
HETATM   13  C7  UNL     1      -4.316  -8.364 -16.680  1.00  0.00     0.051 C 
HETATM   14  C6  UNL     1      -4.860  -7.111 -16.077  1.00  0.00     0.226 C 
HETATM   15  C25 UNL     1      -3.860  -6.005 -15.922  1.00  0.00     0.051 C 
HETATM   16  C24 UNL     1      -2.779  -6.225 -16.994  1.00  0.00     0.109 C 
BRANCH  14  17
HETATM   17  N1  UNL     1      -5.586  -7.411 -14.867  1.00  0.00     0.097 N 
HETATM   18  C2  UNL     1      -6.994  -7.255 -14.921  1.00  0.00     0.219 C 
HETATM   19  C1  UNL     1      -7.661  -7.654 -16.186  1.00  0.00     0.043 C 
HETATM   20  C3  UNL     1      -7.327  -5.853 -14.460  1.00  0.00     0.037 C 
HETATM   21  C4  UNL     1      -6.257  -5.634 -13.418  1.00  0.00     0.032 C 
HETATM   22  C5  UNL     1      -5.154  -6.643 -13.730  1.00  0.00     0.273 C 
ENDBRANCH  14  17
ENDBRANCH   8  11
ENDBRANCH   7   8
ENDBRANCH   1   7
BRANCH   1  23
HETATM   23  C11 UNL     1       0.248  -4.515 -18.333  1.00  0.00     0.145 C 
HETATM   24  N3  UNL     1       0.814  -4.199 -17.233  1.00  0.00    -0.250 N 
ATOM     25  H3  UNL     1       1.546  -4.792 -16.842  1.00  0.00     0.196 HD
BRANCH  23  26
HETATM   26  O3  UNL     1      -0.739  -3.710 -18.855  1.00  0.00    -0.347 OA
ATOM     27  H3  UNL     1      -0.940  -2.884 -18.429  1.00  0.00     0.219 HD
ENDBRANCH  23  26
BRANCH  24  28
HETATM   28  O4  UNL     1       0.431  -3.057 -16.582  1.00  0.00    -0.288 OA
ATOM     29  H4  UNL     1       1.040  -2.626 -15.996  1.00  0.00     0.244 HD
ENDBRANCH  24  28
ENDBRANCH   1  23
BRANCH   4  30
HETATM   30  C14 UNL     1       3.892  -6.791 -21.375  1.00  0.00     0.185 C 
BRANCH  30  31
HETATM   31  O5  UNL     1       4.714  -7.799 -21.434  1.00  0.00    -0.344 OA
ATOM     32  H5  UNL     1       5.647  -7.621 -21.397  1.00  0.00     0.219 HD
ENDBRANCH  30  31
BRANCH  30  33
HETATM   33  C15 UNL     1       4.299  -5.654 -22.151  1.00  0.00     0.203 C 
HETATM   34  O6  UNL     1       4.410  -5.702 -23.411  1.00  0.00    -0.288 OA
BRANCH  33  35
HETATM   35  C16 UNL     1       4.614  -4.342 -21.513  1.00  0.00     0.064 C 
HETATM   36  C17 UNL     1       3.549  -3.315 -21.812  1.00  0.00     0.013 C 
HETATM   37  C18 UNL     1       4.157  -1.947 -21.485  1.00  0.00     0.001 C 
HETATM   38  C19 UNL     1       4.785  -1.976 -20.102  1.00  0.00     0.000 C 
HETATM   39  C20 UNL     1       4.337  -3.196 -19.328  1.00  0.00     0.001 C 
HETATM   40  C21 UNL     1       4.842  -4.469 -20.017  1.00  0.00     0.013 C 
ENDBRANCH  33  35
ENDBRANCH  30  33
ENDBRANCH   4  30
TORSDOF 11
ENDMDL
MODEL 5
REMARK VINA RESULT: -7.318505457      3.644      5.955
REMARK  11 active torsions:
REMARK  status: ('A' for Active; 'I' for Inactive)
REMARK    1  A    between atoms: N1_6  and  C6_7 
REMARK    2  A    between atoms: N2_10  and  S1_11 
REMARK    3  A    between atoms: S1_11  and  C9_14 
REMARK    4  A    between atoms: C9_14  and  C10_15 
REMARK    5  A    between atoms: C10_15  and  C11_16 
REMARK    6  A    between atoms: C11_16  and  O3_17 
REMARK    7  A    between atoms: N3_19  and  O4_21 
REMARK    8  A    between atoms: N4_25  and  C14_26 
REMARK    9  A    between atoms: C14_26  and  O5_27 
REMARK   10  A    between atoms: C14_26  and  C15_29 
REMARK   11  A    between atoms: C15_29  and  C16_31 
ROOT
HETATM    1  C10 UNL     1       0.514  -5.436 -18.832  1.00  0.00     0.043 C 
HETATM    2  C12 UNL     1      -0.459  -5.516 -17.710  1.00  0.00     0.039 C 
HETATM    3  C13 UNL     1      -0.200  -6.698 -16.800  1.00  0.00     0.126 C 
HETATM    4  N4  UNL     1      -0.369  -7.889 -17.681  1.00  0.00    -0.359 N 
HETATM    5  C22 UNL     1       0.575  -7.936 -18.754  1.00  0.00     0.126 C 
HETATM    6  C23 UNL     1       0.465  -6.727 -19.668  1.00  0.00     0.039 C 
ENDROOT
BRANCH   1   7
HETATM    7  C9  UNL     1       1.897  -5.174 -18.365  1.00  0.00     0.175 C 
BRANCH   7   8
HETATM    8  S1  UNL     1       2.119  -3.939 -17.154  1.00  0.00     0.212 S 
HETATM    9  O1  UNL     1       0.854  -3.149 -16.849  1.00  0.00    -0.211 OA
HETATM   10  O2  UNL     1       3.156  -2.934 -17.561  1.00  0.00    -0.211 OA
BRANCH   8  11
HETATM   11  N2  UNL     1       2.605  -4.599 -15.631  1.00  0.00    -0.210 NA
HETATM   12  C8  UNL     1       1.590  -4.614 -14.641  1.00  0.00     0.109 C 
HETATM   13  C7  UNL     1       2.050  -4.470 -13.239  1.00  0.00     0.051 C 
HETATM   14  C6  UNL     1       3.415  -4.985 -12.919  1.00  0.00     0.226 C 
HETATM   15  C25 UNL     1       4.327  -5.115 -14.101  1.00  0.00     0.051 C 
HETATM   16  C24 UNL     1       3.851  -4.096 -15.149  1.00  0.00     0.109 C 
BRANCH  14  17
HETATM   17  N1  UNL     1       3.324  -6.181 -12.120  1.00  0.00     0.097 N 
HETATM   18  C2  UNL     1       3.716  -6.065 -10.762  1.00  0.00     0.219 C 
HETATM   19  C1  UNL     1       3.355  -4.802 -10.070  1.00  0.00     0.043 C 
HETATM   20  C3  UNL     1       5.181  -6.427 -10.666  1.00  0.00     0.037 C 
HETATM   21  C4  UNL     1       5.282  -7.494 -11.728  1.00  0.00     0.032 C 
HETATM   22  C5  UNL     1       4.081  -7.286 -12.648  1.00  0.00     0.273 C 
ENDBRANCH  14  17
ENDBRANCH   8  11
ENDBRANCH   7   8
ENDBRANCH   1   7
BRANCH   1  23
HETATM   23  C11 UNL     1       0.130  -4.363 -19.779  1.00  0.00     0.145 C 
HETATM   24  N3  UNL     1       0.503  -4.405 -20.999  1.00  0.00    -0.250 N 
ATOM     25  H3  UNL     1       1.072  -5.181 -21.336  1.00  0.00     0.196 HD
BRANCH  23  26
HETATM   26  O3  UNL     1      -0.639  -3.312 -19.331  1.00  0.00    -0.347 OA
ATOM     27  H3  UNL     1      -0.222  -2.595 -18.867  1.00  0.00     0.219 HD
ENDBRANCH  23  26
BRANCH  24  28
HETATM   28  O4  UNL     1       0.133  -3.400 -21.851  1.00  0.00    -0.288 OA
ATOM     29  H4  UNL     1      -0.128  -3.612 -22.739  1.00  0.00     0.244 HD
ENDBRANCH  24  28
ENDBRANCH   1  23
BRANCH   4  30
HETATM   30  C14 UNL     1      -1.401  -8.777 -17.352  1.00  0.00     0.185 C 
BRANCH  30  31
HETATM   31  O5  UNL     1      -1.092  -9.879 -16.730  1.00  0.00    -0.344 OA
ATOM     32  H5  UNL     1      -0.226  -9.951 -16.346  1.00  0.00     0.219 HD
ENDBRANCH  30  31
BRANCH  30  33
HETATM   33  C15 UNL     1      -2.803  -8.627 -17.621  1.00  0.00     0.203 C 
HETATM   34  O6  UNL     1      -3.297  -8.832 -18.768  1.00  0.00    -0.288 OA
BRANCH  33  35
HETATM   35  C16 UNL     1      -3.765  -8.219 -16.555  1.00  0.00     0.064 C 
HETATM   36  C17 UNL     1      -3.816  -6.717 -16.406  1.00  0.00     0.013 C 
HETATM   37  C18 UNL     1      -4.481  -6.435 -15.055  1.00  0.00     0.001 C 
HETATM   38  C19 UNL     1      -5.769  -7.232 -14.934  1.00  0.00     0.000 C 
HETATM   39  C20 UNL     1      -6.193  -7.783 -16.277  1.00  0.00     0.001 C 
HETATM   40  C21 UNL     1      -5.154  -8.790 -16.783  1.00  0.00     0.013 C 
ENDBRANCH  33  35
ENDBRANCH  30  33
ENDBRANCH   4  30
TORSDOF 11
ENDMDL
