MODEL 1
REMARK VINA RESULT: -6.450974517      0.000      0.000
REMARK  18 active torsions:
REMARK  status: ('A' for Active; 'I' for Inactive)
REMARK    1  A    between atoms: S1_2  and  C2_3 
REMARK    2  A    between atoms: C2_3  and  C3_4 
REMARK    3  A    between atoms: C3_4  and  C4_5 
REMARK    4  A    between atoms: C4_5  and  C5_7 
REMARK    5  A    between atoms: C5_7  and  O1_8 
REMARK    6  A    between atoms: C5_7  and  N8_39 
REMARK    7  A    between atoms: O1_8  and  C6_9 
REMARK    8  A    between atoms: C7_12  and  N2_13 
REMARK    9  A    between atoms: C8_20  and  C9_21 
REMARK   10  A    between atoms: C9_21  and  O2_22 
REMARK   11  A    between atoms: C9_21  and  O3_24 
REMARK   12  A    between atoms: C10_26  and  N6_27 
REMARK       I    between atoms: N6_27  and  C11_29 
REMARK   13  A    between atoms: C11_29  and  O5_31 
REMARK   14  A    between atoms: O5_31  and  N7_32 
REMARK   15  A    between atoms: C12_35  and  O6_36 
REMARK   16  A    between atoms: C14_44  and  C15_45 
REMARK   17  A    between atoms: C15_45  and  N11_46 
REMARK   18  A    between atoms: C15_45  and  N12_50 
ROOT
HETATM    1  C6  UNL     1      14.612  21.025  12.769  1.00  0.00     0.120 C 
HETATM    2  N1  UNL     1      15.762  20.534  13.101  1.00  0.00    -0.349 N 
ATOM      3  H1  UNL     1      16.211  20.927  13.927  1.00  0.00     0.163 HD
HETATM    4  C7  UNL     1      16.485  19.458  12.396  1.00  0.00     0.240 C 
HETATM    5  C8  UNL     1      16.657  19.914  10.981  1.00  0.00     0.112 C 
HETATM    6  C10 UNL     1      15.487  19.622  10.107  1.00  0.00     0.128 C 
HETATM    7  C12 UNL     1      14.448  20.710  10.297  1.00  0.00     0.149 C 
HETATM    8  C13 UNL     1      13.740  20.645  11.623  1.00  0.00     0.117 C 
ENDROOT
BRANCH   1   9
HETATM    9  O1  UNL     1      14.199  22.025  13.629  1.00  0.00    -0.311 OA
BRANCH   9  10
HETATM   10  C5  UNL     1      14.277  21.839  15.029  1.00  0.00     0.269 C 
BRANCH  10  11
HETATM   11  C4  UNL     1      14.760  23.179  15.579  1.00  0.00     0.110 C 
HETATM   12  S2  UNL     1      14.273  24.447  14.398  1.00  0.00    -0.088 SA
BRANCH  11  13
HETATM   13  C3  UNL     1      16.217  23.212  15.824  1.00  0.00     0.030 C 
BRANCH  13  14
HETATM   14  C2  UNL     1      16.675  21.921  16.440  1.00  0.00     0.075 C 
BRANCH  14  15
HETATM   15  S1  UNL     1      17.479  22.063  18.026  1.00  0.00    -0.173 SA
HETATM   16  C1  UNL     1      18.159  20.431  18.490  1.00  0.00     0.089 C 
ENDBRANCH  14  15
ENDBRANCH  13  14
ENDBRANCH  11  13
ENDBRANCH  10  11
BRANCH  10  17
HETATM   17  N8  UNL     1      13.000  21.474  15.623  1.00  0.00    -0.231 N 
HETATM   18  N9  UNL     1      12.274  22.237  16.421  1.00  0.00    -0.236 N 
HETATM   19  N10 UNL     1      11.173  21.621  16.787  1.00  0.00    -0.283 N 
ATOM     20  H9  UNL     1      12.534  23.180  16.714  1.00  0.00     0.208 HD
HETATM   21  C14 UNL     1      11.170  20.406  16.211  1.00  0.00     0.127 A 
ATOM     22  H10 UNL     1      10.449  21.997  17.399  1.00  0.00     0.188 HD
HETATM   23  C16 UNL     1      12.323  20.320  15.480  1.00  0.00     0.165 A 
HETATM   24  N13 UNL     1      12.706  19.193  14.714  1.00  0.00    -0.079 NA
BRANCH  21  25
HETATM   25  C15 UNL     1      10.080  19.388  16.379  1.00  0.00     0.432 C 
BRANCH  25  26
HETATM   26  N11 UNL     1      10.667  18.143  16.899  1.00  0.00    -0.045 N 
ATOM     27 3H11 UNL     1      11.618  17.992  16.565  1.00  0.00     0.277 HD
ATOM     28 2H11 UNL     1      10.873  18.197  17.897  1.00  0.00     0.277 HD
ATOM     29 1H11 UNL     1      10.046  17.365  16.671  1.00  0.00     0.277 HD
ENDBRANCH  25  26
BRANCH  25  30
HETATM   30  N12 UNL     1       9.453  19.064  15.133  1.00  0.00    -0.045 N 
ATOM     31 3H12 UNL     1       8.685  19.703  14.928  1.00  0.00     0.277 HD
ATOM     32 2H12 UNL     1      10.061  19.283  14.344  1.00  0.00     0.277 HD
ATOM     33 1H12 UNL     1       9.143  18.092  15.103  1.00  0.00     0.277 HD
ENDBRANCH  25  30
ENDBRANCH  21  25
ENDBRANCH  10  17
ENDBRANCH   9  10
ENDBRANCH   1   9
BRANCH   4  34
HETATM   34  N2  UNL     1      15.820  18.200  12.572  1.00  0.00    -0.178 N 
HETATM   35  N3  UNL     1      15.330  17.517  13.581  1.00  0.00    -0.207 N 
HETATM   36  N4  UNL     1      14.945  16.551  12.801  1.00  0.00    -0.211 N 
ATOM     37  H3  UNL     1      15.272  17.682  14.586  1.00  0.00     0.211 HD
HETATM   38  N5  UNL     1      15.416  17.191  11.775  1.00  0.00    -0.207 N 
ATOM     39  H4  UNL     1      14.469  15.660  12.939  1.00  0.00     0.211 HD
ATOM     40  H5  UNL     1      15.462  17.005  10.773  1.00  0.00     0.211 HD
ENDBRANCH   4  34
BRANCH   7  41
HETATM   41  O6  UNL     1      15.016  21.968  10.114  1.00  0.00    -0.393 OA
ATOM     42  H6  UNL     1      14.466  22.505   9.556  1.00  0.00     0.210 HD
ENDBRANCH   7  41
BRANCH   5  43
HETATM   43  C9  UNL     1      17.989  19.461  10.488  1.00  0.00     0.263 C 
BRANCH  43  44
HETATM   44  O2  UNL     1      18.919  19.182  11.482  1.00  0.00    -0.371 OA
ATOM     45  H2  UNL     1      19.662  19.773  11.513  1.00  0.00     0.212 HD
ENDBRANCH  43  44
BRANCH  43  46
HETATM   46  O3  UNL     1      18.523  20.231   9.476  1.00  0.00    -0.371 OA
ATOM     47  H3  UNL     1      18.157  20.066   8.615  1.00  0.00     0.212 HD
ENDBRANCH  43  46
ENDBRANCH   5  43
BRANCH   6  48
HETATM   48  N6  UNL     1      15.852  19.678   8.705  1.00  0.00    -0.328 N 
HETATM   49  C11 UNL     1      15.912  18.454   7.949  1.00  0.00     0.382 C 
HETATM   50  O4  UNL     1      15.654  17.345   8.484  1.00  0.00    -0.236 OA
ATOM     51  H6  UNL     1      16.063  20.571   8.261  1.00  0.00     0.165 HD
BRANCH  49  52
HETATM   52  O5  UNL     1      16.256  18.454   6.607  1.00  0.00    -0.188 OA
BRANCH  52  53
HETATM   53  N7  UNL     1      17.542  18.126   6.192  1.00  0.00    -0.301 N 
ATOM     54  H72 UNL     1      18.023  18.761   5.555  1.00  0.00     0.184 HD
ATOM     55  H71 UNL     1      17.999  17.272   6.512  1.00  0.00     0.184 HD
ENDBRANCH  52  53
ENDBRANCH  49  52
ENDBRANCH   6  48
TORSDOF 18
ENDMDL
MODEL 2
REMARK VINA RESULT: -6.344686882      3.431      8.396
REMARK  18 active torsions:
REMARK  status: ('A' for Active; 'I' for Inactive)
REMARK    1  A    between atoms: S1_2  and  C2_3 
REMARK    2  A    between atoms: C2_3  and  C3_4 
REMARK    3  A    between atoms: C3_4  and  C4_5 
REMARK    4  A    between atoms: C4_5  and  C5_7 
REMARK    5  A    between atoms: C5_7  and  O1_8 
REMARK    6  A    between atoms: C5_7  and  N8_39 
REMARK    7  A    between atoms: O1_8  and  C6_9 
REMARK    8  A    between atoms: C7_12  and  N2_13 
REMARK    9  A    between atoms: C8_20  and  C9_21 
REMARK   10  A    between atoms: C9_21  and  O2_22 
REMARK   11  A    between atoms: C9_21  and  O3_24 
REMARK   12  A    between atoms: C10_26  and  N6_27 
REMARK       I    between atoms: N6_27  and  C11_29 
REMARK   13  A    between atoms: C11_29  and  O5_31 
REMARK   14  A    between atoms: O5_31  and  N7_32 
REMARK   15  A    between atoms: C12_35  and  O6_36 
REMARK   16  A    between atoms: C14_44  and  C15_45 
REMARK   17  A    between atoms: C15_45  and  N11_46 
REMARK   18  A    between atoms: C15_45  and  N12_50 
ROOT
HETATM    1  C6  UNL     1      12.397  20.213  15.415  1.00  0.00     0.120 C 
HETATM    2  N1  UNL     1      11.646  20.217  14.362  1.00  0.00    -0.349 N 
ATOM      3  H1  UNL     1      12.095  19.990  13.475  1.00  0.00     0.163 HD
HETATM    4  C7  UNL     1      10.203  20.521  14.323  1.00  0.00     0.240 C 
HETATM    5  C8  UNL     1      10.037  21.884  14.918  1.00  0.00     0.112 C 
HETATM    6  C10 UNL     1       9.937  21.885  16.404  1.00  0.00     0.128 C 
HETATM    7  C12 UNL     1      11.335  21.835  16.989  1.00  0.00     0.149 C 
HETATM    8  C13 UNL     1      12.013  20.502  16.826  1.00  0.00     0.117 C 
ENDROOT
BRANCH   1   9
HETATM    9  O1  UNL     1      13.709  19.889  15.126  1.00  0.00    -0.311 OA
BRANCH   9  10
HETATM   10  C5  UNL     1      14.235  20.132  13.836  1.00  0.00     0.269 C 
BRANCH  10  11
HETATM   11  C4  UNL     1      15.421  21.067  14.063  1.00  0.00     0.110 C 
HETATM   12  S2  UNL     1      16.147  20.631  15.651  1.00  0.00    -0.088 SA
BRANCH  11  13
HETATM   13  C3  UNL     1      15.047  22.496  14.024  1.00  0.00     0.030 C 
BRANCH  13  14
HETATM   14  C2  UNL     1      14.444  22.843  12.693  1.00  0.00     0.075 C 
BRANCH  14  15
HETATM   15  S1  UNL     1      12.757  23.421  12.735  1.00  0.00    -0.173 SA
HETATM   16  C1  UNL     1      11.781  22.482  11.507  1.00  0.00     0.089 C 
ENDBRANCH  14  15
ENDBRANCH  13  14
ENDBRANCH  11  13
ENDBRANCH  10  11
BRANCH  10  17
HETATM   17  N8  UNL     1      14.666  18.916  13.162  1.00  0.00    -0.231 N 
HETATM   18  N9  UNL     1      14.907  17.754  13.745  1.00  0.00    -0.236 N 
HETATM   19  N10 UNL     1      15.276  16.854  12.862  1.00  0.00    -0.283 N 
ATOM     20  H9  UNL     1      14.818  17.580  14.746  1.00  0.00     0.208 HD
HETATM   21  C14 UNL     1      15.280  17.440  11.652  1.00  0.00     0.127 A 
ATOM     22  H10 UNL     1      15.516  15.883  13.059  1.00  0.00     0.188 HD
HETATM   23  C16 UNL     1      14.895  18.738  11.848  1.00  0.00     0.165 A 
HETATM   24  N13 UNL     1      14.769  19.703  10.819  1.00  0.00    -0.079 NA
BRANCH  21  25
HETATM   25  C15 UNL     1      15.645  16.747  10.373  1.00  0.00     0.432 C 
BRANCH  25  26
HETATM   26  N11 UNL     1      16.736  17.491   9.722  1.00  0.00    -0.045 N 
ATOM     27 3H11 UNL     1      17.537  17.624  10.338  1.00  0.00     0.277 HD
ATOM     28 2H11 UNL     1      17.202  16.943   8.998  1.00  0.00     0.277 HD
ATOM     29 1H11 UNL     1      16.367  18.373   9.365  1.00  0.00     0.277 HD
ENDBRANCH  25  26
BRANCH  25  30
HETATM   30  N12 UNL     1      14.553  16.717   9.447  1.00  0.00    -0.045 N 
ATOM     31 3H12 UNL     1      14.556  15.857   8.899  1.00  0.00     0.277 HD
ATOM     32 2H12 UNL     1      13.662  16.597   9.930  1.00  0.00     0.277 HD
ATOM     33 1H12 UNL     1      14.540  17.540   8.844  1.00  0.00     0.277 HD
ENDBRANCH  25  30
ENDBRANCH  21  25
ENDBRANCH  10  17
ENDBRANCH   9  10
ENDBRANCH   1   9
BRANCH   4  34
HETATM   34  N2  UNL     1       9.446  19.472  14.940  1.00  0.00    -0.178 N 
HETATM   35  N3  UNL     1       8.181  19.128  15.010  1.00  0.00    -0.207 N 
HETATM   36  N4  UNL     1       8.455  18.092  15.746  1.00  0.00    -0.211 N 
ATOM     37  H3  UNL     1       7.318  19.521  14.634  1.00  0.00     0.211 HD
HETATM   38  N5  UNL     1       9.716  18.395  15.703  1.00  0.00    -0.207 N 
ATOM     39  H4  UNL     1       7.906  17.349  16.179  1.00  0.00     0.211 HD
ATOM     40  H5  UNL     1      10.566  17.984  16.090  1.00  0.00     0.211 HD
ENDBRANCH   4  34
BRANCH   7  41
HETATM   41  O6  UNL     1      12.127  22.848  16.455  1.00  0.00    -0.393 OA
ATOM     42  H6  UNL     1      12.896  22.484  16.033  1.00  0.00     0.210 HD
ENDBRANCH   7  41
BRANCH   5  43
HETATM   43  C9  UNL     1       8.963  22.605  14.176  1.00  0.00     0.263 C 
BRANCH  43  44
HETATM   44  O2  UNL     1       9.163  23.973  14.036  1.00  0.00    -0.371 OA
ATOM     45  H2  UNL     1       8.370  24.486  13.934  1.00  0.00     0.212 HD
ENDBRANCH  43  44
BRANCH  43  46
HETATM   46  O3  UNL     1       7.679  22.306  14.582  1.00  0.00    -0.371 OA
ATOM     47  H3  UNL     1       7.034  22.296  13.885  1.00  0.00     0.212 HD
ENDBRANCH  43  46
ENDBRANCH   5  43
BRANCH   6  48
HETATM   48  N6  UNL     1       9.359  23.121  16.890  1.00  0.00    -0.328 N 
HETATM   49  C11 UNL     1       8.473  23.079  18.025  1.00  0.00     0.382 C 
HETATM   50  O4  UNL     1       8.196  21.993  18.595  1.00  0.00    -0.236 OA
ATOM     51  H6  UNL     1       9.576  24.008  16.437  1.00  0.00     0.165 HD
BRANCH  49  52
HETATM   52  O5  UNL     1       7.894  24.234  18.528  1.00  0.00    -0.188 OA
BRANCH  52  53
HETATM   53  N7  UNL     1       7.822  24.467  19.896  1.00  0.00    -0.301 N 
ATOM     54  H72 UNL     1       7.029  24.084  20.412  1.00  0.00     0.184 HD
ATOM     55  H71 UNL     1       8.539  25.007  20.379  1.00  0.00     0.184 HD
ENDBRANCH  52  53
ENDBRANCH  49  52
ENDBRANCH   6  48
TORSDOF 18
ENDMDL
MODEL 3
REMARK VINA RESULT: -6.330288827      3.812      8.130
REMARK  18 active torsions:
REMARK  status: ('A' for Active; 'I' for Inactive)
REMARK    1  A    between atoms: S1_2  and  C2_3 
REMARK    2  A    between atoms: C2_3  and  C3_4 
REMARK    3  A    between atoms: C3_4  and  C4_5 
REMARK    4  A    between atoms: C4_5  and  C5_7 
REMARK    5  A    between atoms: C5_7  and  O1_8 
REMARK    6  A    between atoms: C5_7  and  N8_39 
REMARK    7  A    between atoms: O1_8  and  C6_9 
REMARK    8  A    between atoms: C7_12  and  N2_13 
REMARK    9  A    between atoms: C8_20  and  C9_21 
REMARK   10  A    between atoms: C9_21  and  O2_22 
REMARK   11  A    between atoms: C9_21  and  O3_24 
REMARK   12  A    between atoms: C10_26  and  N6_27 
REMARK       I    between atoms: N6_27  and  C11_29 
REMARK   13  A    between atoms: C11_29  and  O5_31 
REMARK   14  A    between atoms: O5_31  and  N7_32 
REMARK   15  A    between atoms: C12_35  and  O6_36 
REMARK   16  A    between atoms: C14_44  and  C15_45 
REMARK   17  A    between atoms: C15_45  and  N11_46 
REMARK   18  A    between atoms: C15_45  and  N12_50 
ROOT
HETATM    1  C6  UNL     1      13.007  20.994  13.604  1.00  0.00     0.120 C 
HETATM    2  N1  UNL     1      13.301  22.234  13.829  1.00  0.00    -0.349 N 
ATOM      3  H1  UNL     1      14.203  22.564  13.487  1.00  0.00     0.163 HD
HETATM    4  C7  UNL     1      12.454  23.215  14.533  1.00  0.00     0.240 C 
HETATM    5  C8  UNL     1      12.164  22.639  15.884  1.00  0.00     0.112 C 
HETATM    6  C10 UNL     1      11.002  21.708  15.905  1.00  0.00     0.128 C 
HETATM    7  C12 UNL     1      11.464  20.336  15.455  1.00  0.00     0.149 C 
HETATM    8  C13 UNL     1      11.771  20.253  13.984  1.00  0.00     0.117 C 
ENDROOT
BRANCH   1   9
HETATM    9  O1  UNL     1      14.008  20.331  12.921  1.00  0.00    -0.311 OA
BRANCH   9  10
HETATM   10  C5  UNL     1      14.455  19.064  13.362  1.00  0.00     0.269 C 
BRANCH  10  11
HETATM   11  C4  UNL     1      15.372  18.559  12.250  1.00  0.00     0.110 C 
HETATM   12  S2  UNL     1      15.102  19.614  10.817  1.00  0.00    -0.088 SA
BRANCH  11  13
HETATM   13  C3  UNL     1      15.147  17.138  11.915  1.00  0.00     0.030 C 
BRANCH  13  14
HETATM   14  C2  UNL     1      14.864  16.985  10.448  1.00  0.00     0.075 C 
BRANCH  14  15
HETATM   15  S1  UNL     1      16.035  15.999   9.532  1.00  0.00    -0.173 SA
HETATM   16  C1  UNL     1      16.760  17.026   8.205  1.00  0.00     0.089 C 
ENDBRANCH  14  15
ENDBRANCH  13  14
ENDBRANCH  11  13
ENDBRANCH  10  11
BRANCH  10  17
HETATM   17  N8  UNL     1      15.171  19.124  14.627  1.00  0.00    -0.231 N 
HETATM   18  N9  UNL     1      15.136  18.208  15.578  1.00  0.00    -0.236 N 
HETATM   19  N10 UNL     1      15.894  18.556  16.594  1.00  0.00    -0.283 N 
ATOM     20  H9  UNL     1      14.593  17.346  15.531  1.00  0.00     0.208 HD
HETATM   21  C14 UNL     1      16.450  19.745  16.304  1.00  0.00     0.127 A 
ATOM     22  H10 UNL     1      16.035  18.019  17.449  1.00  0.00     0.188 HD
HETATM   23  C16 UNL     1      15.992  20.097  15.065  1.00  0.00     0.165 A 
HETATM   24  N13 UNL     1      16.341  21.291  14.388  1.00  0.00    -0.079 NA
BRANCH  21  25
HETATM   25  C15 UNL     1      17.387  20.488  17.210  1.00  0.00     0.432 C 
BRANCH  25  26
HETATM   26  N11 UNL     1      17.489  19.766  18.488  1.00  0.00    -0.045 N 
ATOM     27 3H11 UNL     1      16.811  19.007  18.561  1.00  0.00     0.277 HD
ATOM     28 2H11 UNL     1      18.338  19.204  18.551  1.00  0.00     0.277 HD
ATOM     29 1H11 UNL     1      17.407  20.435  19.254  1.00  0.00     0.277 HD
ENDBRANCH  25  26
BRANCH  25  30
HETATM   30  N12 UNL     1      16.910  21.804  17.514  1.00  0.00    -0.045 N 
ATOM     31 3H12 UNL     1      16.574  22.278  16.676  1.00  0.00     0.277 HD
ATOM     32 2H12 UNL     1      16.036  21.769  18.040  1.00  0.00     0.277 HD
ATOM     33 1H12 UNL     1      17.612  22.363  18.000  1.00  0.00     0.277 HD
ENDBRANCH  25  30
ENDBRANCH  21  25
ENDBRANCH  10  17
ENDBRANCH   9  10
ENDBRANCH   1   9
BRANCH   4  34
HETATM   34  N2  UNL     1      11.310  23.560  13.741  1.00  0.00    -0.178 N 
HETATM   35  N3  UNL     1      10.160  24.161  13.943  1.00  0.00    -0.207 N 
HETATM   36  N4  UNL     1       9.812  24.015  12.699  1.00  0.00    -0.211 N 
ATOM     37  H3  UNL     1       9.714  24.580  14.759  1.00  0.00     0.211 HD
HETATM   38  N5  UNL     1      10.936  23.415  12.455  1.00  0.00    -0.207 N 
ATOM     39  H4  UNL     1       8.993  24.268  12.146  1.00  0.00     0.211 HD
ATOM     40  H5  UNL     1      11.363  23.002  11.625  1.00  0.00     0.211 HD
ENDBRANCH   4  34
BRANCH   7  41
HETATM   41  O6  UNL     1      12.562  19.919  16.202  1.00  0.00    -0.393 OA
ATOM     42  H6  UNL     1      12.281  19.431  16.967  1.00  0.00     0.210 HD
ENDBRANCH   7  41
BRANCH   5  43
HETATM   43  C9  UNL     1      12.154  23.744  16.886  1.00  0.00     0.263 C 
BRANCH  43  44
HETATM   44  O2  UNL     1      12.694  23.418  18.124  1.00  0.00    -0.371 OA
ATOM     45  H2  UNL     1      12.061  23.326  18.826  1.00  0.00     0.212 HD
ENDBRANCH  43  44
BRANCH  43  46
HETATM   46  O3  UNL     1      10.951  24.408  17.001  1.00  0.00    -0.371 OA
ATOM     47  H3  UNL     1      11.025  25.334  17.196  1.00  0.00     0.212 HD
ENDBRANCH  43  46
ENDBRANCH   5  43
BRANCH   6  48
HETATM   48  N6  UNL     1      10.502  21.524  17.253  1.00  0.00    -0.328 N 
HETATM   49  C11 UNL     1       9.080  21.553  17.481  1.00  0.00     0.382 C 
HETATM   50  O4  UNL     1       8.272  21.735  16.534  1.00  0.00    -0.236 OA
ATOM     51  H6  UNL     1      11.147  21.375  18.028  1.00  0.00     0.165 HD
BRANCH  49  52
HETATM   52  O5  UNL     1       8.552  21.382  18.751  1.00  0.00    -0.188 OA
BRANCH  52  53
HETATM   53  N7  UNL     1       7.690  20.331  19.038  1.00  0.00    -0.301 N 
ATOM     54  H72 UNL     1       7.911  19.725  19.828  1.00  0.00     0.184 HD
ATOM     55  H71 UNL     1       6.855  20.163  18.477  1.00  0.00     0.184 HD
ENDBRANCH  52  53
ENDBRANCH  49  52
ENDBRANCH   6  48
TORSDOF 18
ENDMDL
MODEL 4
REMARK VINA RESULT: -6.311116571      3.802      8.375
REMARK  18 active torsions:
REMARK  status: ('A' for Active; 'I' for Inactive)
REMARK    1  A    between atoms: S1_2  and  C2_3 
REMARK    2  A    between atoms: C2_3  and  C3_4 
REMARK    3  A    between atoms: C3_4  and  C4_5 
REMARK    4  A    between atoms: C4_5  and  C5_7 
REMARK    5  A    between atoms: C5_7  and  O1_8 
REMARK    6  A    between atoms: C5_7  and  N8_39 
REMARK    7  A    between atoms: O1_8  and  C6_9 
REMARK    8  A    between atoms: C7_12  and  N2_13 
REMARK    9  A    between atoms: C8_20  and  C9_21 
REMARK   10  A    between atoms: C9_21  and  O2_22 
REMARK   11  A    between atoms: C9_21  and  O3_24 
REMARK   12  A    between atoms: C10_26  and  N6_27 
REMARK       I    between atoms: N6_27  and  C11_29 
REMARK   13  A    between atoms: C11_29  and  O5_31 
REMARK   14  A    between atoms: O5_31  and  N7_32 
REMARK   15  A    between atoms: C12_35  and  O6_36 
REMARK   16  A    between atoms: C14_44  and  C15_45 
REMARK   17  A    between atoms: C15_45  and  N11_46 
REMARK   18  A    between atoms: C15_45  and  N12_50 
ROOT
HETATM    1  C6  UNL     1      12.380  21.200  14.551  1.00  0.00     0.120 C 
HETATM    2  N1  UNL     1      11.429  20.511  14.009  1.00  0.00    -0.349 N 
ATOM      3  H1  UNL     1      11.580  20.186  13.054  1.00  0.00     0.163 HD
HETATM    4  C7  UNL     1      10.146  20.150  14.642  1.00  0.00     0.240 C 
HETATM    5  C8  UNL     1       9.499  21.434  15.060  1.00  0.00     0.112 C 
HETATM    6  C10 UNL     1       9.949  21.931  16.389  1.00  0.00     0.128 C 
HETATM    7  C12 UNL     1      11.255  22.682  16.216  1.00  0.00     0.149 C 
HETATM    8  C13 UNL     1      12.431  21.792  15.917  1.00  0.00     0.117 C 
ENDROOT
BRANCH   1   9
HETATM    9  O1  UNL     1      13.456  21.371  13.701  1.00  0.00    -0.311 OA
BRANCH   9  10
HETATM   10  C5  UNL     1      14.383  20.321  13.504  1.00  0.00     0.269 C 
BRANCH  10  11
HETATM   11  C4  UNL     1      15.234  20.763  12.315  1.00  0.00     0.110 C 
HETATM   12  S2  UNL     1      14.111  21.418  11.071  1.00  0.00    -0.088 SA
BRANCH  11  13
HETATM   13  C3  UNL     1      16.065  19.673  11.761  1.00  0.00     0.030 C 
BRANCH  13  14
HETATM   14  C2  UNL     1      15.300  18.910  10.718  1.00  0.00     0.075 C 
BRANCH  14  15
HETATM   15  S1  UNL     1      15.153  17.154  10.997  1.00  0.00    -0.173 SA
HETATM   16  C1  UNL     1      15.738  16.269   9.509  1.00  0.00     0.089 C 
ENDBRANCH  14  15
ENDBRANCH  13  14
ENDBRANCH  11  13
ENDBRANCH  10  11
BRANCH  10  17
HETATM   17  N8  UNL     1      15.220  20.078  14.669  1.00  0.00    -0.231 N 
HETATM   18  N9  UNL     1      15.376  18.916  15.279  1.00  0.00    -0.236 N 
HETATM   19  N10 UNL     1      16.200  19.026  16.296  1.00  0.00    -0.283 N 
ATOM     20  H9  UNL     1      14.917  18.049  14.998  1.00  0.00     0.208 HD
HETATM   21  C14 UNL     1      16.604  20.307  16.362  1.00  0.00     0.127 A 
ATOM     22  H10 UNL     1      16.483  18.275  16.924  1.00  0.00     0.188 HD
HETATM   23  C16 UNL     1      15.984  20.963  15.335  1.00  0.00     0.165 A 
HETATM   24  N13 UNL     1      16.143  22.341  15.050  1.00  0.00    -0.079 NA
BRANCH  21  25
HETATM   25  C15 UNL     1      17.555  20.847  17.390  1.00  0.00     0.432 C 
BRANCH  25  26
HETATM   26  N11 UNL     1      17.657  19.884  18.498  1.00  0.00    -0.045 N 
ATOM     27 3H11 UNL     1      17.025  20.108  19.266  1.00  0.00     0.277 HD
ATOM     28 2H11 UNL     1      17.269  18.971  18.257  1.00  0.00     0.277 HD
ATOM     29 1H11 UNL     1      18.630  19.826  18.798  1.00  0.00     0.277 HD
ENDBRANCH  25  26
BRANCH  25  30
HETATM   30  N12 UNL     1      17.095  22.080  17.952  1.00  0.00    -0.045 N 
ATOM     31 3H12 UNL     1      16.858  22.753  17.223  1.00  0.00     0.277 HD
ATOM     32 2H12 UNL     1      16.174  21.973  18.378  1.00  0.00     0.277 HD
ATOM     33 1H12 UNL     1      17.765  22.473  18.614  1.00  0.00     0.277 HD
ENDBRANCH  25  30
ENDBRANCH  21  25
ENDBRANCH  10  17
ENDBRANCH   9  10
ENDBRANCH   1   9
BRANCH   4  34
HETATM   34  N2  UNL     1      10.347  19.183  15.681  1.00  0.00    -0.178 N 
HETATM   35  N3  UNL     1       9.593  18.354  16.366  1.00  0.00    -0.207 N 
HETATM   36  N4  UNL     1      10.611  17.912  17.042  1.00  0.00    -0.211 N 
ATOM     37  H3  UNL     1       8.596  18.140  16.367  1.00  0.00     0.211 HD
HETATM   38  N5  UNL     1      11.393  18.716  16.389  1.00  0.00    -0.207 N 
ATOM     39  H4  UNL     1      10.742  17.220  17.779  1.00  0.00     0.211 HD
ATOM     40  H5  UNL     1      12.394  18.914  16.406  1.00  0.00     0.211 HD
ENDBRANCH   4  34
BRANCH   7  41
HETATM   41  O6  UNL     1      11.130  23.663  15.236  1.00  0.00    -0.393 OA
ATOM     42  H6  UNL     1      11.902  23.683  14.683  1.00  0.00     0.210 HD
ENDBRANCH   7  41
BRANCH   5  43
HETATM   43  C9  UNL     1       8.027  21.321  14.852  1.00  0.00     0.263 C 
BRANCH  43  44
HETATM   44  O2  UNL     1       7.379  22.519  14.579  1.00  0.00    -0.371 OA
ATOM     45  H2  UNL     1       6.433  22.492  14.664  1.00  0.00     0.212 HD
ENDBRANCH  43  44
BRANCH  43  46
HETATM   46  O3  UNL     1       7.365  20.576  15.805  1.00  0.00    -0.371 OA
ATOM     47  H3  UNL     1       7.462  20.892  16.696  1.00  0.00     0.212 HD
ENDBRANCH  43  46
ENDBRANCH   5  43
BRANCH   6  48
HETATM   48  N6  UNL     1       9.016  22.898  16.932  1.00  0.00    -0.328 N 
HETATM   49  C11 UNL     1       8.305  22.580  18.143  1.00  0.00     0.382 C 
HETATM   50  O4  UNL     1       8.481  21.483  18.733  1.00  0.00    -0.236 OA
ATOM     51  H6  UNL     1       8.866  23.791  16.463  1.00  0.00     0.165 HD
BRANCH  49  52
HETATM   52  O5  UNL     1       7.402  23.471  18.701  1.00  0.00    -0.188 OA
BRANCH  52  53
HETATM   53  N7  UNL     1       7.726  24.213  19.831  1.00  0.00    -0.301 N 
ATOM     54  H72 UNL     1       8.563  23.958  20.355  1.00  0.00     0.184 HD
ATOM     55  H71 UNL     1       7.145  24.995  20.135  1.00  0.00     0.184 HD
ENDBRANCH  52  53
ENDBRANCH  49  52
ENDBRANCH   6  48
TORSDOF 18
ENDMDL
MODEL 5
REMARK VINA RESULT: -6.298773590      3.166      8.119
REMARK  18 active torsions:
REMARK  status: ('A' for Active; 'I' for Inactive)
REMARK    1  A    between atoms: S1_2  and  C2_3 
REMARK    2  A    between atoms: C2_3  and  C3_4 
REMARK    3  A    between atoms: C3_4  and  C4_5 
REMARK    4  A    between atoms: C4_5  and  C5_7 
REMARK    5  A    between atoms: C5_7  and  O1_8 
REMARK    6  A    between atoms: C5_7  and  N8_39 
REMARK    7  A    between atoms: O1_8  and  C6_9 
REMARK    8  A    between atoms: C7_12  and  N2_13 
REMARK    9  A    between atoms: C8_20  and  C9_21 
REMARK   10  A    between atoms: C9_21  and  O2_22 
REMARK   11  A    between atoms: C9_21  and  O3_24 
REMARK   12  A    between atoms: C10_26  and  N6_27 
REMARK       I    between atoms: N6_27  and  C11_29 
REMARK   13  A    between atoms: C11_29  and  O5_31 
REMARK   14  A    between atoms: O5_31  and  N7_32 
REMARK   15  A    between atoms: C12_35  and  O6_36 
REMARK   16  A    between atoms: C14_44  and  C15_45 
REMARK   17  A    between atoms: C15_45  and  N11_46 
REMARK   18  A    between atoms: C15_45  and  N12_50 
ROOT
HETATM    1  C6  UNL     1      12.742  19.981  14.599  1.00  0.00     0.120 C 
HETATM    2  N1  UNL     1      13.156  21.201  14.485  1.00  0.00    -0.349 N 
ATOM      3  H1  UNL     1      14.114  21.335  14.165  1.00  0.00     0.163 HD
HETATM    4  C7  UNL     1      12.371  22.417  14.773  1.00  0.00     0.240 C 
HETATM    5  C8  UNL     1      11.909  22.300  16.192  1.00  0.00     0.112 C 
HETATM    6  C10 UNL     1      10.650  21.520  16.353  1.00  0.00     0.128 C 
HETATM    7  C12 UNL     1      10.988  20.042  16.376  1.00  0.00     0.149 C 
HETATM    8  C13 UNL     1      11.403  19.495  15.037  1.00  0.00     0.117 C 
ENDROOT
BRANCH   1   9
HETATM    9  O1  UNL     1      13.713  19.060  14.254  1.00  0.00    -0.311 OA
BRANCH   9  10
HETATM   10  C5  UNL     1      14.869  19.473  13.552  1.00  0.00     0.269 C 
BRANCH  10  11
HETATM   11  C4  UNL     1      15.997  19.416  14.580  1.00  0.00     0.110 C 
HETATM   12  S2  UNL     1      15.501  18.240  15.849  1.00  0.00    -0.088 SA
BRANCH  11  13
HETATM   13  C3  UNL     1      16.311  20.734  15.169  1.00  0.00     0.030 C 
BRANCH  13  14
HETATM   14  C2  UNL     1      16.974  20.566  16.506  1.00  0.00     0.075 C 
BRANCH  14  15
HETATM   15  S1  UNL     1      17.265  22.070  17.420  1.00  0.00    -0.173 SA
HETATM   16  C1  UNL     1      18.329  21.691  18.857  1.00  0.00     0.089 C 
ENDBRANCH  14  15
ENDBRANCH  13  14
ENDBRANCH  11  13
ENDBRANCH  10  11
BRANCH  10  17
HETATM   17  N8  UNL     1      15.174  18.622  12.412  1.00  0.00    -0.231 N 
HETATM   18  N9  UNL     1      14.909  17.330  12.320  1.00  0.00    -0.236 N 
HETATM   19  N10 UNL     1      15.305  16.850  11.164  1.00  0.00    -0.283 N 
ATOM     20  H9  UNL     1      14.457  16.780  13.051  1.00  0.00     0.208 HD
HETATM   21  C14 UNL     1      15.853  17.859  10.465  1.00  0.00     0.127 A 
ATOM     22  H10 UNL     1      15.214  15.884  10.852  1.00  0.00     0.188 HD
HETATM   23  C16 UNL     1      15.767  18.971  11.256  1.00  0.00     0.165 A 
HETATM   24  N13 UNL     1      16.234  20.257  10.889  1.00  0.00    -0.079 NA
BRANCH  21  25
HETATM   25  C15 UNL     1      16.429  17.724   9.086  1.00  0.00     0.432 C 
BRANCH  25  26
HETATM   26  N11 UNL     1      16.922  16.349   8.907  1.00  0.00    -0.045 N 
ATOM     27 3H11 UNL     1      16.804  15.782   9.747  1.00  0.00     0.277 HD
ATOM     28 2H11 UNL     1      16.330  15.802   8.282  1.00  0.00     0.277 HD
ATOM     29 1H11 UNL     1      17.892  16.383   8.593  1.00  0.00     0.277 HD
ENDBRANCH  25  26
BRANCH  25  30
HETATM   30  N12 UNL     1      17.548  18.595   8.883  1.00  0.00    -0.045 N 
ATOM     31 3H12 UNL     1      17.400  19.498   9.335  1.00  0.00     0.277 HD
ATOM     32 2H12 UNL     1      18.362  18.282   9.411  1.00  0.00     0.277 HD
ATOM     33 1H12 UNL     1      17.770  18.709   7.893  1.00  0.00     0.277 HD
ENDBRANCH  25  30
ENDBRANCH  21  25
ENDBRANCH  10  17
ENDBRANCH   9  10
ENDBRANCH   1   9
BRANCH   4  34
HETATM   34  N2  UNL     1      11.343  22.603  13.792  1.00  0.00    -0.178 N 
HETATM   35  N3  UNL     1      10.271  23.352  13.669  1.00  0.00    -0.207 N 
HETATM   36  N4  UNL     1       9.996  22.849  12.503  1.00  0.00    -0.211 N 
ATOM     37  H3  UNL     1       9.828  24.056  14.259  1.00  0.00     0.211 HD
HETATM   38  N5  UNL     1      11.045  22.089  12.583  1.00  0.00    -0.207 N 
ATOM     39  H4  UNL     1       9.260  22.991  11.812  1.00  0.00     0.211 HD
ATOM     40  H5  UNL     1      11.472  21.388  11.976  1.00  0.00     0.211 HD
ENDBRANCH   4  34
BRANCH   7  41
HETATM   41  O6  UNL     1      11.967  19.778  17.330  1.00  0.00    -0.393 OA
ATOM     42  H6  UNL     1      12.536  19.075  17.039  1.00  0.00     0.210 HD
ENDBRANCH   7  41
BRANCH   5  43
HETATM   43  C9  UNL     1      11.943  23.652  16.822  1.00  0.00     0.263 C 
BRANCH  43  44
HETATM   44  O2  UNL     1      10.811  24.428  16.606  1.00  0.00    -0.371 OA
ATOM     45  H2  UNL     1      10.723  25.177  17.183  1.00  0.00     0.212 HD
ENDBRANCH  43  44
BRANCH  43  46
HETATM   46  O3  UNL     1      13.108  24.358  16.610  1.00  0.00    -0.371 OA
ATOM     47  H3  UNL     1      12.983  25.274  16.390  1.00  0.00     0.212 HD
ENDBRANCH  43  46
ENDBRANCH   5  43
BRANCH   6  48
HETATM   48  N6  UNL     1      10.024  21.793  17.631  1.00  0.00    -0.328 N 
HETATM   49  C11 UNL     1       8.591  21.922  17.694  1.00  0.00     0.382 C 
HETATM   50  O4  UNL     1       7.880  21.802  16.663  1.00  0.00    -0.236 OA
ATOM     51  H6  UNL     1      10.589  21.892  18.474  1.00  0.00     0.165 HD
BRANCH  49  52
HETATM   52  O5  UNL     1       7.945  22.183  18.892  1.00  0.00    -0.188 OA
BRANCH  52  53
HETATM   53  N7  UNL     1       7.730  23.485  19.328  1.00  0.00    -0.301 N 
ATOM     54  H72 UNL     1       8.225  24.242  18.855  1.00  0.00     0.184 HD
ATOM     55  H71 UNL     1       7.095  23.687  20.099  1.00  0.00     0.184 HD
ENDBRANCH  52  53
ENDBRANCH  49  52
ENDBRANCH   6  48
TORSDOF 18
ENDMDL
