MODEL 1
REMARK VINA RESULT: -8.653034827      0.000      0.000
REMARK  16 active torsions:
REMARK  status: ('A' for Active; 'I' for Inactive)
REMARK    1  A    between atoms: O1_2  and  C2_3 
REMARK    2  A    between atoms: C2_3  and  C3_5 
REMARK    3  A    between atoms: C4_6  and  C5_7 
REMARK    4  A    between atoms: C5_7  and  O3_9 
REMARK    5  A    between atoms: N3_14  and  C7_15 
REMARK    6  A    between atoms: C7_15  and  C8_16 
REMARK    7  A    between atoms: N7_23  and  C9_24 
REMARK    8  A    between atoms: C10_25  and  N8_26 
REMARK    9  A    between atoms: N8_26  and  N9_28 
REMARK   10  A    between atoms: N9_28  and  C11_30 
REMARK   11  A    between atoms: C15_42  and  C16_43 
REMARK   12  A    between atoms: C16_43  and  O6_44 
REMARK   13  A    between atoms: C16_43  and  O7_46 
REMARK   14  A    between atoms: C17_48  and  O8_49 
REMARK   15  A    between atoms: C18_51  and  N13_52 
REMARK   16  A    between atoms: N13_52  and  O9_54 
ROOT
HETATM    1  C9  UNL     1      15.552  20.936  14.456  1.00  0.00     0.136 A 
HETATM    2  C10 UNL     1      15.608  19.912  15.361  1.00  0.00     0.152 A 
HETATM    3  N12 UNL     1      16.292  20.022  16.501  1.00  0.00    -0.336 N 
ATOM      4  H12 UNL     1      16.305  19.232  17.145  1.00  0.00     0.167 HD
HETATM    5  C15 UNL     1      16.950  21.111  16.821  1.00  0.00     0.102 A 
HETATM    6  C17 UNL     1      16.955  22.216  15.964  1.00  0.00     0.124 A 
HETATM    7  C18 UNL     1      16.250  22.116  14.779  1.00  0.00     0.122 A 
ENDROOT
BRANCH   1   8
HETATM    8  N7  UNL     1      14.852  20.924  13.227  1.00  0.00    -0.219 N 
HETATM    9  C8  UNL     1      15.043  20.180  12.112  1.00  0.00     0.139 A 
HETATM   10  N4  UNL     1      14.103  20.555  11.250  1.00  0.00    -0.270 N 
HETATM   11  N5  UNL     1      13.352  21.491  11.789  1.00  0.00    -0.226 N 
ATOM     12  H4  UNL     1      13.983  20.174  10.311  1.00  0.00     0.190 HD
HETATM   13  N6  UNL     1      13.796  21.726  12.989  1.00  0.00    -0.219 N 
ATOM     14  H5  UNL     1      12.559  21.953  11.342  1.00  0.00     0.210 HD
ATOM     15  H6  UNL     1      13.408  22.405  13.643  1.00  0.00     0.210 HD
BRANCH   9  16
HETATM   16  C7  UNL     1      16.076  19.150  11.908  1.00  0.00     0.210 C 
BRANCH  16  17
HETATM   17  N3  UNL     1      16.651  19.119  10.584  1.00  0.00    -0.329 N 
HETATM   18  C3  UNL     1      16.415  18.291   9.529  1.00  0.00     0.142 A 
HETATM   19  C4  UNL     1      17.166  18.685   8.451  1.00  0.00     0.115 A 
HETATM   20  N2  UNL     1      17.864  19.787   8.906  1.00  0.00    -0.347 N 
HETATM   21  C6  UNL     1      17.566  20.046  10.159  1.00  0.00     0.184 A 
ATOM     22  H2  UNL     1      18.522  20.327   8.345  1.00  0.00     0.167 HD
BRANCH  18  23
HETATM   23  C2  UNL     1      15.501  17.189   9.598  1.00  0.00     0.312 C 
HETATM   24  O2  UNL     1      14.276  17.334   9.292  1.00  0.00    -0.258 OA
BRANCH  23  25
HETATM   25  O1  UNL     1      15.807  15.903   9.978  1.00  0.00    -0.321 OA
HETATM   26  C1  UNL     1      16.844  15.135   9.404  1.00  0.00     0.213 C 
ENDBRANCH  23  25
ENDBRANCH  18  23
BRANCH  19  27
HETATM   27  C5  UNL     1      17.324  18.167   7.123  1.00  0.00     0.179 C 
HETATM   28  N1  UNL     1      18.315  17.369   6.567  1.00  0.00    -0.073 NA
BRANCH  27  29
HETATM   29  O3  UNL     1      16.387  18.492   6.267  1.00  0.00    -0.347 OA
ATOM     30  H3  UNL     1      16.075  17.791   5.707  1.00  0.00     0.219 HD
ENDBRANCH  27  29
ENDBRANCH  19  27
ENDBRANCH  16  17
ENDBRANCH   9  16
ENDBRANCH   1   8
BRANCH   2  31
HETATM   31  N8  UNL     1      14.897  18.687  15.077  1.00  0.00    -0.282 N 
ATOM     32  H8  UNL     1      15.284  18.043  14.388  1.00  0.00     0.188 HD
BRANCH  31  33
HETATM   33  N9  UNL     1      13.713  18.358  15.706  1.00  0.00    -0.284 N 
ATOM     34  H9  UNL     1      13.616  17.444  16.148  1.00  0.00     0.188 HD
BRANCH  33  35
HETATM   35  C11 UNL     1      12.630  19.268  15.745  1.00  0.00     0.129 A 
HETATM   36  C12 UNL     1      11.848  19.470  14.630  1.00  0.00     0.124 A 
HETATM   37  C13 UNL     1      10.799  20.349  14.666  1.00  0.00     0.252 A 
HETATM   38  O4  UNL     1      10.087  20.531  13.643  1.00  0.00    -0.268 OA
HETATM   39  N10 UNL     1      10.536  21.025  15.822  1.00  0.00    -0.275 N 
HETATM   40  C14 UNL     1      11.299  20.828  16.909  1.00  0.00     0.328 A 
ATOM     41  H10 UNL     1       9.756  21.683  15.860  1.00  0.00     0.173 HD
HETATM   42  O5  UNL     1      11.055  21.448  17.967  1.00  0.00    -0.247 OA
HETATM   43  N11 UNL     1      12.313  19.970  16.857  1.00  0.00    -0.293 N 
ATOM     44  H11 UNL     1      12.879  19.836  17.694  1.00  0.00     0.172 HD
ENDBRANCH  33  35
ENDBRANCH  31  33
ENDBRANCH   2  31
BRANCH   7  45
HETATM   45  N13 UNL     1      16.202  23.081  13.943  1.00  0.00    -0.264 N 
ATOM     46  H13 UNL     1      16.687  22.957  13.054  1.00  0.00     0.194 HD
BRANCH  45  47
HETATM   47  O9  UNL     1      15.569  24.237  14.141  1.00  0.00    -0.289 OA
ATOM     48  H9  UNL     1      15.242  24.806  13.454  1.00  0.00     0.244 HD
ENDBRANCH  45  47
ENDBRANCH   7  45
BRANCH   6  49
HETATM   49  O8  UNL     1      17.665  23.294  16.387  1.00  0.00    -0.356 OA
ATOM     50  H8  UNL     1      17.381  24.137  16.052  1.00  0.00     0.218 HD
ENDBRANCH   6  49
BRANCH   5  51
HETATM   51  C16 UNL     1      17.698  21.162  18.121  1.00  0.00     0.308 C 
BRANCH  51  52
HETATM   52  O6  UNL     1      17.173  22.202  18.893  1.00  0.00    -0.366 OA
ATOM     53  H6  UNL     1      17.840  22.872  18.988  1.00  0.00     0.213 HD
ENDBRANCH  51  52
BRANCH  51  54
HETATM   54  O7  UNL     1      17.603  19.949  18.784  1.00  0.00    -0.366 OA
ATOM     55  H7  UNL     1      17.991  20.011  19.649  1.00  0.00     0.213 HD
ENDBRANCH  51  54
ENDBRANCH   5  51
TORSDOF 16
ENDMDL
MODEL 2
REMARK VINA RESULT: -8.638427069      3.558      7.054
REMARK  16 active torsions:
REMARK  status: ('A' for Active; 'I' for Inactive)
REMARK    1  A    between atoms: O1_2  and  C2_3 
REMARK    2  A    between atoms: C2_3  and  C3_5 
REMARK    3  A    between atoms: C4_6  and  C5_7 
REMARK    4  A    between atoms: C5_7  and  O3_9 
REMARK    5  A    between atoms: N3_14  and  C7_15 
REMARK    6  A    between atoms: C7_15  and  C8_16 
REMARK    7  A    between atoms: N7_23  and  C9_24 
REMARK    8  A    between atoms: C10_25  and  N8_26 
REMARK    9  A    between atoms: N8_26  and  N9_28 
REMARK   10  A    between atoms: N9_28  and  C11_30 
REMARK   11  A    between atoms: C15_42  and  C16_43 
REMARK   12  A    between atoms: C16_43  and  O6_44 
REMARK   13  A    between atoms: C16_43  and  O7_46 
REMARK   14  A    between atoms: C17_48  and  O8_49 
REMARK   15  A    between atoms: C18_51  and  N13_52 
REMARK   16  A    between atoms: N13_52  and  O9_54 
ROOT
HETATM    1  C9  UNL     1      13.382  20.581  15.696  1.00  0.00     0.136 A 
HETATM    2  C10 UNL     1      14.714  20.857  15.834  1.00  0.00     0.152 A 
HETATM    3  N12 UNL     1      15.649  20.074  15.293  1.00  0.00    -0.336 N 
ATOM      4  H12 UNL     1      16.631  20.319  15.423  1.00  0.00     0.167 HD
HETATM    5  C15 UNL     1      15.351  19.000  14.601  1.00  0.00     0.102 A 
HETATM    6  C17 UNL     1      14.017  18.632  14.402  1.00  0.00     0.124 A 
HETATM    7  C18 UNL     1      13.036  19.434  14.957  1.00  0.00     0.122 A 
ENDROOT
BRANCH   1   8
HETATM    8  N7  UNL     1      12.314  21.348  16.222  1.00  0.00    -0.219 N 
HETATM    9  C8  UNL     1      11.643  22.399  15.695  1.00  0.00     0.139 A 
HETATM   10  N4  UNL     1      10.727  22.742  16.594  1.00  0.00    -0.270 N 
HETATM   11  N5  UNL     1      10.810  21.950  17.641  1.00  0.00    -0.226 N 
ATOM     12  H4  UNL     1      10.058  23.506  16.489  1.00  0.00     0.190 HD
HETATM   13  N6  UNL     1      11.771  21.099  17.429  1.00  0.00    -0.219 N 
ATOM     14  H5  UNL     1      10.224  21.995  18.475  1.00  0.00     0.210 HD
ATOM     15  H6  UNL     1      12.065  20.363  18.071  1.00  0.00     0.210 HD
BRANCH   9  16
HETATM   16  C7  UNL     1      11.875  23.022  14.380  1.00  0.00     0.210 C 
BRANCH  16  17
HETATM   17  N3  UNL     1      12.971  23.961  14.337  1.00  0.00    -0.329 N 
HETATM   18  C3  UNL     1      14.172  23.902  13.699  1.00  0.00     0.142 A 
HETATM   19  C4  UNL     1      14.869  25.064  13.908  1.00  0.00     0.115 A 
HETATM   20  N2  UNL     1      14.032  25.825  14.704  1.00  0.00    -0.347 N 
HETATM   21  C6  UNL     1      12.916  25.180  14.959  1.00  0.00     0.184 A 
ATOM     22  H2  UNL     1      14.252  26.760  15.045  1.00  0.00     0.167 HD
BRANCH  18  23
HETATM   23  C2  UNL     1      14.586  22.764  12.931  1.00  0.00     0.312 C 
HETATM   24  O2  UNL     1      15.670  22.155  13.196  1.00  0.00    -0.258 OA
BRANCH  23  25
HETATM   25  O1  UNL     1      13.908  22.209  11.871  1.00  0.00    -0.321 OA
HETATM   26  C1  UNL     1      14.202  20.941  11.322  1.00  0.00     0.213 C 
ENDBRANCH  23  25
ENDBRANCH  18  23
BRANCH  19  27
HETATM   27  C5  UNL     1      16.166  25.518  13.501  1.00  0.00     0.179 C 
HETATM   28  N1  UNL     1      16.549  26.585  12.699  1.00  0.00    -0.073 NA
BRANCH  27  29
HETATM   29  O3  UNL     1      17.182  24.821  13.946  1.00  0.00    -0.347 OA
ATOM     30  H3  UNL     1      17.219  24.694  14.886  1.00  0.00     0.219 HD
ENDBRANCH  27  29
ENDBRANCH  19  27
ENDBRANCH  16  17
ENDBRANCH   9  16
ENDBRANCH   1   8
BRANCH   2  31
HETATM   31  N8  UNL     1      15.114  22.031  16.574  1.00  0.00    -0.282 N 
ATOM     32  H8  UNL     1      14.588  22.288  17.408  1.00  0.00     0.188 HD
BRANCH  31  33
HETATM   33  N9  UNL     1      16.183  22.816  16.192  1.00  0.00    -0.284 N 
ATOM     34  H9  UNL     1      16.175  23.263  15.274  1.00  0.00     0.188 HD
BRANCH  33  35
HETATM   35  C11 UNL     1      17.289  23.012  17.052  1.00  0.00     0.129 A 
HETATM   36  C12 UNL     1      17.571  22.100  18.044  1.00  0.00     0.124 A 
HETATM   37  C13 UNL     1      18.641  22.287  18.877  1.00  0.00     0.252 A 
HETATM   38  O4  UNL     1      18.894  21.450  19.784  1.00  0.00    -0.268 OA
HETATM   39  N10 UNL     1      19.428  23.389  18.713  1.00  0.00    -0.275 N 
HETATM   40  C14 UNL     1      19.154  24.279  17.745  1.00  0.00     0.328 A 
ATOM     41  H10 UNL     1      20.229  23.538  19.329  1.00  0.00     0.173 HD
HETATM   42  O5  UNL     1      19.877  25.287  17.597  1.00  0.00    -0.247 OA
HETATM   43  N11 UNL     1      18.111  24.082  16.945  1.00  0.00    -0.293 N 
ATOM     44  H11 UNL     1      17.920  24.769  16.217  1.00  0.00     0.172 HD
ENDBRANCH  33  35
ENDBRANCH  31  33
ENDBRANCH   2  31
BRANCH   7  45
HETATM   45  N13 UNL     1      11.794  19.168  14.818  1.00  0.00    -0.264 N 
ATOM     46  H13 UNL     1      11.370  19.364  13.911  1.00  0.00     0.194 HD
BRANCH  45  47
HETATM   47  O9  UNL     1      11.009  18.657  15.765  1.00  0.00    -0.289 OA
ATOM     48  H9  UNL     1      10.185  19.032  16.054  1.00  0.00     0.244 HD
ENDBRANCH  45  47
ENDBRANCH   7  45
BRANCH   6  49
HETATM   49  O8  UNL     1      13.813  17.504  13.672  1.00  0.00    -0.356 OA
ATOM     50  H8  UNL     1      13.558  17.635  12.766  1.00  0.00     0.218 HD
ENDBRANCH   6  49
BRANCH   5  51
HETATM   51  C16 UNL     1      16.457  18.167  14.024  1.00  0.00     0.308 C 
BRANCH  51  52
HETATM   52  O6  UNL     1      16.437  16.915  14.644  1.00  0.00    -0.366 OA
ATOM     53  H6  UNL     1      16.539  16.247  13.975  1.00  0.00     0.213 HD
ENDBRANCH  51  52
BRANCH  51  54
HETATM   54  O7  UNL     1      16.310  18.049  12.651  1.00  0.00    -0.366 OA
ATOM     55  H7  UNL     1      17.057  17.599  12.273  1.00  0.00     0.213 HD
ENDBRANCH  51  54
ENDBRANCH   5  51
TORSDOF 16
ENDMDL
MODEL 3
REMARK VINA RESULT: -8.425278648      1.937      5.272
REMARK  16 active torsions:
REMARK  status: ('A' for Active; 'I' for Inactive)
REMARK    1  A    between atoms: O1_2  and  C2_3 
REMARK    2  A    between atoms: C2_3  and  C3_5 
REMARK    3  A    between atoms: C4_6  and  C5_7 
REMARK    4  A    between atoms: C5_7  and  O3_9 
REMARK    5  A    between atoms: N3_14  and  C7_15 
REMARK    6  A    between atoms: C7_15  and  C8_16 
REMARK    7  A    between atoms: N7_23  and  C9_24 
REMARK    8  A    between atoms: C10_25  and  N8_26 
REMARK    9  A    between atoms: N8_26  and  N9_28 
REMARK   10  A    between atoms: N9_28  and  C11_30 
REMARK   11  A    between atoms: C15_42  and  C16_43 
REMARK   12  A    between atoms: C16_43  and  O6_44 
REMARK   13  A    between atoms: C16_43  and  O7_46 
REMARK   14  A    between atoms: C17_48  and  O8_49 
REMARK   15  A    between atoms: C18_51  and  N13_52 
REMARK   16  A    between atoms: N13_52  and  O9_54 
ROOT
HETATM    1  C9  UNL     1      14.011  20.357  15.223  1.00  0.00     0.136 A 
HETATM    2  C10 UNL     1      14.246  21.659  14.877  1.00  0.00     0.152 A 
HETATM    3  N12 UNL     1      13.312  22.600  15.018  1.00  0.00    -0.336 N 
ATOM      4  H12 UNL     1      13.533  23.558  14.747  1.00  0.00     0.167 HD
HETATM    5  C15 UNL     1      12.117  22.336  15.493  1.00  0.00     0.102 A 
HETATM    6  C17 UNL     1      11.777  21.035  15.876  1.00  0.00     0.124 A 
HETATM    7  C18 UNL     1      12.736  20.050  15.736  1.00  0.00     0.122 A 
ENDROOT
BRANCH   1   8
HETATM    8  N7  UNL     1      14.933  19.288  15.120  1.00  0.00    -0.219 N 
HETATM    9  C8  UNL     1      15.162  18.417  14.109  1.00  0.00     0.139 A 
HETATM   10  N4  UNL     1      16.141  17.619  14.522  1.00  0.00    -0.270 N 
HETATM   11  N5  UNL     1      16.516  17.963  15.735  1.00  0.00    -0.226 N 
ATOM     12  H4  UNL     1      16.541  16.854  13.979  1.00  0.00     0.190 HD
HETATM   13  N6  UNL     1      15.790  18.975  16.111  1.00  0.00    -0.219 N 
ATOM     14  H5  UNL     1      17.248  17.515  16.285  1.00  0.00     0.210 HD
ATOM     15  H6  UNL     1      15.858  19.453  17.009  1.00  0.00     0.210 HD
BRANCH   9  16
HETATM   16  C7  UNL     1      14.473  18.380  12.807  1.00  0.00     0.210 C 
BRANCH  16  17
HETATM   17  N3  UNL     1      15.273  18.805  11.683  1.00  0.00    -0.329 N 
HETATM   18  C3  UNL     1      15.568  18.179  10.511  1.00  0.00     0.142 A 
HETATM   19  C4  UNL     1      16.327  19.004   9.721  1.00  0.00     0.115 A 
HETATM   20  N2  UNL     1      16.476  20.154  10.473  1.00  0.00    -0.347 N 
HETATM   21  C6  UNL     1      15.860  20.042  11.627  1.00  0.00     0.184 A 
ATOM     22  H2  UNL     1      16.995  20.978  10.171  1.00  0.00     0.167 HD
BRANCH  18  23
HETATM   23  C2  UNL     1      15.116  16.853  10.205  1.00  0.00     0.312 C 
HETATM   24  O2  UNL     1      13.932  16.643   9.796  1.00  0.00    -0.258 OA
BRANCH  23  25
HETATM   25  O1  UNL     1      15.859  15.700  10.304  1.00  0.00    -0.321 OA
HETATM   26  C1  UNL     1      16.790  15.273   9.330  1.00  0.00     0.213 C 
ENDBRANCH  23  25
ENDBRANCH  18  23
BRANCH  19  27
HETATM   27  C5  UNL     1      16.923  18.847   8.426  1.00  0.00     0.179 C 
HETATM   28  N1  UNL     1      16.363  18.529   7.196  1.00  0.00    -0.073 NA
BRANCH  27  29
HETATM   29  O3  UNL     1      18.219  19.027   8.367  1.00  0.00    -0.347 OA
ATOM     30  H3  UNL     1      18.660  18.638   7.621  1.00  0.00     0.219 HD
ENDBRANCH  27  29
ENDBRANCH  19  27
ENDBRANCH  16  17
ENDBRANCH   9  16
ENDBRANCH   1   8
BRANCH   2  31
HETATM   31  N8  UNL     1      15.544  22.022  14.358  1.00  0.00    -0.282 N 
ATOM     32  H8  UNL     1      16.023  21.372  13.735  1.00  0.00     0.188 HD
BRANCH  31  33
HETATM   33  N9  UNL     1      16.158  23.217  14.673  1.00  0.00    -0.284 N 
ATOM     34  H9  UNL     1      16.020  24.028  14.070  1.00  0.00     0.188 HD
BRANCH  33  35
HETATM   35  C11 UNL     1      16.976  23.336  15.822  1.00  0.00     0.129 A 
HETATM   36  C12 UNL     1      17.866  24.380  15.939  1.00  0.00     0.124 A 
HETATM   37  C13 UNL     1      18.658  24.498  17.049  1.00  0.00     0.252 A 
HETATM   38  O4  UNL     1      19.472  25.454  17.151  1.00  0.00    -0.268 OA
HETATM   39  N10 UNL     1      18.555  23.568  18.042  1.00  0.00    -0.275 N 
HETATM   40  C14 UNL     1      17.686  22.550  17.929  1.00  0.00     0.328 A 
ATOM     41  H10 UNL     1      19.140  23.647  18.875  1.00  0.00     0.173 HD
HETATM   42  O5  UNL     1      17.593  21.701  18.841  1.00  0.00    -0.247 OA
HETATM   43  N11 UNL     1      16.925  22.451  16.844  1.00  0.00    -0.293 N 
ATOM     44  H11 UNL     1      16.272  21.671  16.778  1.00  0.00     0.172 HD
ENDBRANCH  33  35
ENDBRANCH  31  33
ENDBRANCH   2  31
BRANCH   7  45
HETATM   45  N13 UNL     1      12.505  18.837  16.066  1.00  0.00    -0.264 N 
ATOM     46  H13 UNL     1      13.040  18.110  15.589  1.00  0.00     0.194 HD
BRANCH  45  47
HETATM   47  O9  UNL     1      11.622  18.447  16.984  1.00  0.00    -0.289 OA
ATOM     48  H9  UNL     1      11.637  17.612  17.438  1.00  0.00     0.244 HD
ENDBRANCH  45  47
ENDBRANCH   7  45
BRANCH   6  49
HETATM   49  O8  UNL     1      10.516  20.867  16.356  1.00  0.00    -0.356 OA
ATOM     50  H8  UNL     1      10.385  20.118  16.927  1.00  0.00     0.218 HD
ENDBRANCH   6  49
BRANCH   5  51
HETATM   51  C16 UNL     1      11.116  23.447  15.623  1.00  0.00     0.308 C 
BRANCH  51  52
HETATM   52  O6  UNL     1      10.011  23.140  14.824  1.00  0.00    -0.366 OA
ATOM     53  H6  UNL     1      10.063  23.657  14.029  1.00  0.00     0.213 HD
ENDBRANCH  51  52
BRANCH  51  54
HETATM   54  O7  UNL     1      10.746  23.616  16.947  1.00  0.00    -0.366 OA
ATOM     55  H7  UNL     1      11.432  24.061  17.431  1.00  0.00     0.213 HD
ENDBRANCH  51  54
ENDBRANCH   5  51
TORSDOF 16
ENDMDL
MODEL 4
REMARK VINA RESULT: -8.354930981      2.334      5.658
REMARK  16 active torsions:
REMARK  status: ('A' for Active; 'I' for Inactive)
REMARK    1  A    between atoms: O1_2  and  C2_3 
REMARK    2  A    between atoms: C2_3  and  C3_5 
REMARK    3  A    between atoms: C4_6  and  C5_7 
REMARK    4  A    between atoms: C5_7  and  O3_9 
REMARK    5  A    between atoms: N3_14  and  C7_15 
REMARK    6  A    between atoms: C7_15  and  C8_16 
REMARK    7  A    between atoms: N7_23  and  C9_24 
REMARK    8  A    between atoms: C10_25  and  N8_26 
REMARK    9  A    between atoms: N8_26  and  N9_28 
REMARK   10  A    between atoms: N9_28  and  C11_30 
REMARK   11  A    between atoms: C15_42  and  C16_43 
REMARK   12  A    between atoms: C16_43  and  O6_44 
REMARK   13  A    between atoms: C16_43  and  O7_46 
REMARK   14  A    between atoms: C17_48  and  O8_49 
REMARK   15  A    between atoms: C18_51  and  N13_52 
REMARK   16  A    between atoms: N13_52  and  O9_54 
ROOT
HETATM    1  C9  UNL     1      14.040  20.521  14.888  1.00  0.00     0.136 A 
HETATM    2  C10 UNL     1      14.536  21.789  15.011  1.00  0.00     0.152 A 
HETATM    3  N12 UNL     1      13.733  22.838  15.197  1.00  0.00    -0.336 N 
ATOM      4  H12 UNL     1      14.148  23.766  15.283  1.00  0.00     0.167 HD
HETATM    5  C15 UNL     1      12.429  22.719  15.273  1.00  0.00     0.102 A 
HETATM    6  C17 UNL     1      11.823  21.464  15.160  1.00  0.00     0.124 A 
HETATM    7  C18 UNL     1      12.643  20.367  14.967  1.00  0.00     0.122 A 
ENDROOT
BRANCH   1   8
HETATM    8  N7  UNL     1      14.802  19.343  14.696  1.00  0.00    -0.219 N 
HETATM    9  C8  UNL     1      15.228  18.746  13.558  1.00  0.00     0.139 A 
HETATM   10  N4  UNL     1      15.914  17.673  13.937  1.00  0.00    -0.270 N 
HETATM   11  N5  UNL     1      15.924  17.590  15.250  1.00  0.00    -0.226 N 
ATOM     12  H4  UNL     1      16.366  17.013  13.304  1.00  0.00     0.190 HD
HETATM   13  N6  UNL     1      15.251  18.597  15.724  1.00  0.00    -0.219 N 
ATOM     14  H5  UNL     1      16.379  16.862  15.801  1.00  0.00     0.210 HD
ATOM     15  H6  UNL     1      15.090  18.791  16.712  1.00  0.00     0.210 HD
BRANCH   9  16
HETATM   16  C7  UNL     1      14.991  19.210  12.180  1.00  0.00     0.210 C 
BRANCH  16  17
HETATM   17  N3  UNL     1      15.355  18.265  11.150  1.00  0.00    -0.329 N 
HETATM   18  C3  UNL     1      16.371  18.280  10.245  1.00  0.00     0.142 A 
HETATM   19  C4  UNL     1      16.347  17.130   9.499  1.00  0.00     0.115 A 
HETATM   20  N2  UNL     1      15.270  16.422   9.997  1.00  0.00    -0.347 N 
HETATM   21  C6  UNL     1      14.682  17.086  10.967  1.00  0.00     0.184 A 
ATOM     22  H2  UNL     1      14.971  15.508   9.657  1.00  0.00     0.167 HD
BRANCH  18  23
HETATM   23  C2  UNL     1      17.299  19.368  10.139  1.00  0.00     0.312 C 
HETATM   24  O2  UNL     1      18.165  19.580  11.046  1.00  0.00    -0.258 OA
BRANCH  23  25
HETATM   25  O1  UNL     1      17.376  20.272   9.106  1.00  0.00    -0.321 OA
HETATM   26  C1  UNL     1      16.367  20.447   8.133  1.00  0.00     0.213 C 
ENDBRANCH  23  25
ENDBRANCH  18  23
BRANCH  19  27
HETATM   27  C5  UNL     1      17.151  16.647   8.414  1.00  0.00     0.179 C 
HETATM   28  N1  UNL     1      17.538  17.253   7.225  1.00  0.00    -0.073 NA
BRANCH  27  29
HETATM   29  O3  UNL     1      17.607  15.426   8.539  1.00  0.00    -0.347 OA
ATOM     30  H3  UNL     1      18.546  15.343   8.661  1.00  0.00     0.219 HD
ENDBRANCH  27  29
ENDBRANCH  19  27
ENDBRANCH  16  17
ENDBRANCH   9  16
ENDBRANCH   1   8
BRANCH   2  31
HETATM   31  N8  UNL     1      15.964  21.992  14.949  1.00  0.00    -0.282 N 
ATOM     32  H8  UNL     1      16.565  21.194  14.744  1.00  0.00     0.188 HD
BRANCH  31  33
HETATM   33  N9  UNL     1      16.544  23.228  15.155  1.00  0.00    -0.284 N 
ATOM     34  H9  UNL     1      16.320  23.999  14.527  1.00  0.00     0.188 HD
BRANCH  33  35
HETATM   35  C11 UNL     1      17.444  23.441  16.226  1.00  0.00     0.129 A 
HETATM   36  C12 UNL     1      17.398  22.641  17.346  1.00  0.00     0.124 A 
HETATM   37  C13 UNL     1      18.268  22.845  18.383  1.00  0.00     0.252 A 
HETATM   38  O4  UNL     1      18.221  22.111  19.406  1.00  0.00    -0.268 OA
HETATM   39  N10 UNL     1      19.186  23.851  18.294  1.00  0.00    -0.275 N 
HETATM   40  C14 UNL     1      19.231  24.630  17.202  1.00  0.00     0.328 A 
ATOM     41  H10 UNL     1      19.840  24.011  19.061  1.00  0.00     0.173 HD
HETATM   42  O5  UNL     1      20.074  25.551  17.123  1.00  0.00    -0.247 OA
HETATM   43  N11 UNL     1      18.379  24.419  16.205  1.00  0.00    -0.293 N 
ATOM     44  H11 UNL     1      18.431  25.023  15.384  1.00  0.00     0.172 HD
ENDBRANCH  33  35
ENDBRANCH  31  33
ENDBRANCH   2  31
BRANCH   7  45
HETATM   45  N13 UNL     1      12.168  19.186  14.857  1.00  0.00    -0.264 N 
ATOM     46  H13 UNL     1      12.745  18.490  14.385  1.00  0.00     0.194 HD
BRANCH  45  47
HETATM   47  O9  UNL     1      10.979  18.792  15.311  1.00  0.00    -0.289 OA
ATOM     48  H9  UNL     1      10.682  17.891  15.359  1.00  0.00     0.244 HD
ENDBRANCH  45  47
ENDBRANCH   7  45
BRANCH   6  49
HETATM   49  O8  UNL     1      10.467  21.447  15.252  1.00  0.00    -0.356 OA
ATOM     50  H8  UNL     1      10.105  20.936  15.967  1.00  0.00     0.218 HD
ENDBRANCH   6  49
BRANCH   5  51
HETATM   51  C16 UNL     1      11.590  23.945  15.483  1.00  0.00     0.308 C 
BRANCH  51  52
HETATM   52  O6  UNL     1      10.714  24.072  14.401  1.00  0.00    -0.366 OA
ATOM     53  H6  UNL     1      10.947  24.855  13.917  1.00  0.00     0.213 HD
ENDBRANCH  51  52
BRANCH  51  54
HETATM   54  O7  UNL     1      10.898  23.861  16.680  1.00  0.00    -0.366 OA
ATOM     55  H7  UNL     1       9.994  23.612  16.527  1.00  0.00     0.213 HD
ENDBRANCH  51  54
ENDBRANCH   5  51
TORSDOF 16
ENDMDL
MODEL 5
REMARK VINA RESULT: -8.312281047      2.167      5.523
REMARK  16 active torsions:
REMARK  status: ('A' for Active; 'I' for Inactive)
REMARK    1  A    between atoms: O1_2  and  C2_3 
REMARK    2  A    between atoms: C2_3  and  C3_5 
REMARK    3  A    between atoms: C4_6  and  C5_7 
REMARK    4  A    between atoms: C5_7  and  O3_9 
REMARK    5  A    between atoms: N3_14  and  C7_15 
REMARK    6  A    between atoms: C7_15  and  C8_16 
REMARK    7  A    between atoms: N7_23  and  C9_24 
REMARK    8  A    between atoms: C10_25  and  N8_26 
REMARK    9  A    between atoms: N8_26  and  N9_28 
REMARK   10  A    between atoms: N9_28  and  C11_30 
REMARK   11  A    between atoms: C15_42  and  C16_43 
REMARK   12  A    between atoms: C16_43  and  O6_44 
REMARK   13  A    between atoms: C16_43  and  O7_46 
REMARK   14  A    between atoms: C17_48  and  O8_49 
REMARK   15  A    between atoms: C18_51  and  N13_52 
REMARK   16  A    between atoms: N13_52  and  O9_54 
ROOT
HETATM    1  C9  UNL     1      14.082  20.793  15.098  1.00  0.00     0.136 A 
HETATM    2  C10 UNL     1      14.423  22.117  15.082  1.00  0.00     0.152 A 
HETATM    3  N12 UNL     1      13.508  23.076  15.226  1.00  0.00    -0.336 N 
ATOM      4  H12 UNL     1      13.809  24.051  15.208  1.00  0.00     0.167 HD
HETATM    5  C15 UNL     1      12.233  22.811  15.391  1.00  0.00     0.102 A 
HETATM    6  C17 UNL     1      11.782  21.488  15.422  1.00  0.00     0.124 A 
HETATM    7  C18 UNL     1      12.720  20.483  15.274  1.00  0.00     0.122 A 
ENDROOT
BRANCH   1   8
HETATM    8  N7  UNL     1      14.973  19.702  14.961  1.00  0.00    -0.219 N 
HETATM    9  C8  UNL     1      15.502  19.131  13.853  1.00  0.00     0.139 A 
HETATM   10  N4  UNL     1      16.285  18.147  14.281  1.00  0.00    -0.270 N 
HETATM   11  N5  UNL     1      16.256  18.092  15.595  1.00  0.00    -0.226 N 
ATOM     12  H4  UNL     1      16.829  17.526  13.681  1.00  0.00     0.190 HD
HETATM   13  N6  UNL     1      15.462  19.030  16.021  1.00  0.00    -0.219 N 
ATOM     14  H5  UNL     1      16.767  17.429  16.179  1.00  0.00     0.210 HD
ATOM     15  H6  UNL     1      15.246  19.226  16.998  1.00  0.00     0.210 HD
BRANCH   9  16
HETATM   16  C7  UNL     1      15.267  19.537  12.456  1.00  0.00     0.210 C 
BRANCH  16  17
HETATM   17  N3  UNL     1      15.530  18.513  11.473  1.00  0.00    -0.329 N 
HETATM   18  C3  UNL     1      16.336  18.515  10.377  1.00  0.00     0.142 A 
HETATM   19  C4  UNL     1      16.304  17.285   9.772  1.00  0.00     0.115 A 
HETATM   20  N2  UNL     1      15.440  16.542  10.555  1.00  0.00    -0.347 N 
HETATM   21  C6  UNL     1      14.982  17.260  11.555  1.00  0.00     0.184 A 
ATOM     22  H2  UNL     1      15.193  15.569  10.379  1.00  0.00     0.167 HD
BRANCH  18  23
HETATM   23  C2  UNL     1      17.087  19.667   9.969  1.00  0.00     0.312 C 
HETATM   24  O2  UNL     1      18.244  19.896  10.443  1.00  0.00    -0.258 OA
BRANCH  23  25
HETATM   25  O1  UNL     1      16.683  20.621   9.064  1.00  0.00    -0.321 OA
HETATM   26  C1  UNL     1      16.720  20.445   7.662  1.00  0.00     0.213 C 
ENDBRANCH  23  25
ENDBRANCH  18  23
BRANCH  19  27
HETATM   27  C5  UNL     1      16.928  16.753   8.595  1.00  0.00     0.179 C 
HETATM   28  N1  UNL     1      17.085  17.289   7.324  1.00  0.00    -0.073 NA
BRANCH  27  29
HETATM   29  O3  UNL     1      17.444  15.555   8.713  1.00  0.00    -0.347 OA
ATOM     30  H3  UNL     1      17.060  14.881   8.165  1.00  0.00     0.219 HD
ENDBRANCH  27  29
ENDBRANCH  19  27
ENDBRANCH  16  17
ENDBRANCH   9  16
ENDBRANCH   1   8
BRANCH   2  31
HETATM   31  N8  UNL     1      15.811  22.481  14.916  1.00  0.00    -0.282 N 
ATOM     32  H8  UNL     1      16.305  22.164  14.082  1.00  0.00     0.188 HD
BRANCH  31  33
HETATM   33  N9  UNL     1      16.491  23.243  15.845  1.00  0.00    -0.284 N 
ATOM     34  H9  UNL     1      16.454  24.260  15.784  1.00  0.00     0.188 HD
BRANCH  33  35
HETATM   35  C11 UNL     1      17.239  22.634  16.880  1.00  0.00     0.129 A 
HETATM   36  C12 UNL     1      18.145  23.369  17.611  1.00  0.00     0.124 A 
HETATM   37  C13 UNL     1      18.869  22.782  18.613  1.00  0.00     0.252 A 
HETATM   38  O4  UNL     1      19.698  23.460  19.279  1.00  0.00    -0.268 OA
HETATM   39  N10 UNL     1      18.683  21.458  18.883  1.00  0.00    -0.275 N 
HETATM   40  C14 UNL     1      17.799  20.741  18.170  1.00  0.00     0.328 A 
ATOM     41  H10 UNL     1      19.218  21.011  19.628  1.00  0.00     0.173 HD
HETATM   42  O5  UNL     1      17.630  19.527  18.419  1.00  0.00    -0.247 OA
HETATM   43  N11 UNL     1      17.105  21.326  17.200  1.00  0.00    -0.293 N 
ATOM     44  H11 UNL     1      16.438  20.763  16.671  1.00  0.00     0.172 HD
ENDBRANCH  33  35
ENDBRANCH  31  33
ENDBRANCH   2  31
BRANCH   7  45
HETATM   45  N13 UNL     1      12.390  19.248  15.294  1.00  0.00    -0.264 N 
ATOM     46  H13 UNL     1      13.119  18.570  15.514  1.00  0.00     0.194 HD
BRANCH  45  47
HETATM   47  O9  UNL     1      11.168  18.777  15.051  1.00  0.00    -0.289 OA
ATOM     48  H9  UNL     1      10.868  17.900  15.257  1.00  0.00     0.244 HD
ENDBRANCH  45  47
ENDBRANCH   7  45
BRANCH   6  49
HETATM   49  O8  UNL     1      10.445  21.319  15.598  1.00  0.00    -0.356 OA
ATOM     50  H8  UNL     1      10.100  21.581  16.444  1.00  0.00     0.218 HD
ENDBRANCH   6  49
BRANCH   5  51
HETATM   51  C16 UNL     1      11.261  23.943  15.546  1.00  0.00     0.308 C 
BRANCH  51  52
HETATM   52  O6  UNL     1      10.339  23.880  14.498  1.00  0.00    -0.366 OA
ATOM     53  H6  UNL     1      10.320  24.725  14.064  1.00  0.00     0.213 HD
ENDBRANCH  51  52
BRANCH  51  54
HETATM   54  O7  UNL     1      10.627  23.874  16.776  1.00  0.00    -0.366 OA
ATOM     55  H7  UNL     1       9.687  23.793  16.663  1.00  0.00     0.213 HD
ENDBRANCH  51  54
ENDBRANCH   5  51
TORSDOF 16
ENDMDL
