MODEL 1
REMARK VINA RESULT: -9.102562086      0.000      0.000
REMARK  12 active torsions:
REMARK  status: ('A' for Active; 'I' for Inactive)
REMARK    1  A    between atoms: N1_2  and  C3_4 
REMARK    2  A    between atoms: C3_4  and  C4_5 
REMARK    3  A    between atoms: C6_7  and  N2_8 
REMARK    4  A    between atoms: N2_8  and  N3_9 
REMARK    5  A    between atoms: N3_9  and  C7_11 
REMARK    6  A    between atoms: N5_14  and  N6_15 
REMARK    7  A    between atoms: C9_18  and  N7_19 
REMARK    8  A    between atoms: N7_19  and  C10_21 
REMARK    9  A    between atoms: C10_21  and  C11_22 
REMARK   10  A    between atoms: C12_24  and  N8_25 
REMARK   11  A    between atoms: C15_37  and  O4_38 
REMARK   12  A    between atoms: C18_47  and  C19_48 
ROOT
HETATM    1  C7  UNL     1      14.918  19.816  12.167  1.00  0.00     0.172 A 
HETATM    2  C8  UNL     1      15.486  19.608  13.431  1.00  0.00     0.190 A 
HETATM    3  N4  UNL     1      16.329  18.487  13.604  1.00  0.00    -0.077 NA
HETATM    4  N5  UNL     1      15.224  20.468  14.414  1.00  0.00    -0.076 N 
HETATM    5  C9  UNL     1      14.409  21.565  14.097  1.00  0.00     0.703 A 
HETATM    6  N12 UNL     1      13.900  21.738  12.882  1.00  0.00    -0.152 N 
ATOM      7  H12 UNL     1      13.313  22.551  12.701  1.00  0.00     0.187 HD
HETATM    8  C16 UNL     1      14.140  20.866  11.881  1.00  0.00     0.292 A 
HETATM    9  O5  UNL     1      13.635  21.112  10.732  1.00  0.00    -0.265 OA
ENDROOT
BRANCH   5  10
HETATM   10  N7  UNL     1      14.337  22.443  14.961  1.00  0.00    -0.222 N 
ATOM     11  H7  UNL     1      14.341  21.888  15.817  1.00  0.00     0.177 HD
BRANCH  10  12
HETATM   12  C10 UNL     1      14.255  23.721  15.465  1.00  0.00     0.175 C 
BRANCH  12  13
HETATM   13  C11 UNL     1      12.756  24.045  15.536  1.00  0.00     0.200 C 
HETATM   14  O1  UNL     1      11.862  23.388  14.858  1.00  0.00    -0.331 OA
HETATM   15  C12 UNL     1      10.980  22.783  15.835  1.00  0.00     0.401 C 
HETATM   16  O3  UNL     1      11.107  23.477  16.981  1.00  0.00    -0.309 OA
HETATM   17  C15 UNL     1      12.416  23.882  17.023  1.00  0.00     0.292 C 
BRANCH  15  18
HETATM   18  N8  UNL     1      11.368  21.415  15.916  1.00  0.00    -0.173 N 
HETATM   19  N9  UNL     1      11.861  20.667  16.914  1.00  0.00    -0.122 N 
HETATM   20  C13 UNL     1      12.084  19.444  16.516  1.00  0.00     0.695 A 
ATOM     21  H9  UNL     1      12.037  21.008  17.859  1.00  0.00     0.206 HD
HETATM   22  N10 UNL     1      12.594  18.440  17.203  1.00  0.00    -0.233 N 
HETATM   23  N11 UNL     1      11.737  19.338  15.195  1.00  0.00    -0.139 N 
ATOM     24 2H10 UNL     1      12.853  18.519  18.187  1.00  0.00     0.174 HD
ATOM     25 1H10 UNL     1      12.769  17.484  16.892  1.00  0.00     0.174 HD
HETATM   26  C14 UNL     1      11.302  20.528  14.847  1.00  0.00     0.360 A 
ATOM     27  H11 UNL     1      11.803  18.508  14.606  1.00  0.00     0.189 HD
HETATM   28  O2  UNL     1      10.844  20.983  13.789  1.00  0.00    -0.244 OA
ENDBRANCH  15  18
BRANCH  17  29
HETATM   29  O4  UNL     1      13.164  22.824  17.527  1.00  0.00    -0.368 OA
ATOM     30  H4  UNL     1      13.562  23.104  18.343  1.00  0.00     0.212 HD
ENDBRANCH  17  29
ENDBRANCH  12  13
ENDBRANCH  10  12
ENDBRANCH   5  10
BRANCH   4  31
HETATM   31  N6  UNL     1      15.736  20.182  15.714  1.00  0.00    -0.323 N 
ATOM     32  H62 UNL     1      16.629  19.726  15.901  1.00  0.00     0.178 HD
ATOM     33  H61 UNL     1      15.195  20.489  16.522  1.00  0.00     0.178 HD
ENDBRANCH   4  31
BRANCH   1  34
HETATM   34  N3  UNL     1      15.051  18.698  11.161  1.00  0.00    -0.226 N 
ATOM     35  H3  UNL     1      14.669  17.755  11.228  1.00  0.00     0.202 HD
BRANCH  34  36
HETATM   36  N2  UNL     1      15.696  19.154  10.273  1.00  0.00    -0.319 NA
BRANCH  36  37
HETATM   37  C6  UNL     1      16.482  19.522   9.235  1.00  0.00     0.207 A 
HETATM   38  C5  UNL     1      16.121  19.333   7.889  1.00  0.00     0.069 A 
HETATM   39  C4  UNL     1      17.099  19.352   6.927  1.00  0.00     0.024 A 
HETATM   40  C18 UNL     1      18.347  19.584   7.333  1.00  0.00     0.167 A 
HETATM   41  O7  UNL     1      18.712  19.770   8.590  1.00  0.00    -0.265 OA
HETATM   42  C17 UNL     1      17.764  19.733   9.530  1.00  0.00     0.331 A 
HETATM   43  O6  UNL     1      18.174  19.899  10.664  1.00  0.00    -0.256 OA
BRANCH  39  44
HETATM   44  C3  UNL     1      16.787  18.849   5.555  1.00  0.00     0.099 C 
BRANCH  44  45
HETATM   45  N1  UNL     1      16.548  19.755   4.535  1.00  0.00    -0.398 N 
HETATM   46  C1  UNL     1      16.076  21.059   4.623  1.00  0.00     0.148 C 
HETATM   47  C2  UNL     1      15.949  19.078   3.377  1.00  0.00     0.148 C 
ENDBRANCH  44  45
ENDBRANCH  39  44
BRANCH  40  48
HETATM   48  C19 UNL     1      19.447  19.604   6.295  1.00  0.00     0.235 C 
HETATM   49  O8  UNL     1      19.910  20.871   6.043  1.00  0.00    -0.642 OA
HETATM   50  O9  UNL     1      20.355  18.595   6.387  1.00  0.00    -0.642 OA
ENDBRANCH  40  48
ENDBRANCH  36  37
ENDBRANCH  34  36
ENDBRANCH   1  34
TORSDOF 12
ENDMDL
MODEL 2
REMARK VINA RESULT: -8.977889559      1.151      1.763
REMARK  12 active torsions:
REMARK  status: ('A' for Active; 'I' for Inactive)
REMARK    1  A    between atoms: N1_2  and  C3_4 
REMARK    2  A    between atoms: C3_4  and  C4_5 
REMARK    3  A    between atoms: C6_7  and  N2_8 
REMARK    4  A    between atoms: N2_8  and  N3_9 
REMARK    5  A    between atoms: N3_9  and  C7_11 
REMARK    6  A    between atoms: N5_14  and  N6_15 
REMARK    7  A    between atoms: C9_18  and  N7_19 
REMARK    8  A    between atoms: N7_19  and  C10_21 
REMARK    9  A    between atoms: C10_21  and  C11_22 
REMARK   10  A    between atoms: C12_24  and  N8_25 
REMARK   11  A    between atoms: C15_37  and  O4_38 
REMARK   12  A    between atoms: C18_47  and  C19_48 
ROOT
HETATM    1  C7  UNL     1      14.964  19.820  12.009  1.00  0.00     0.172 A 
HETATM    2  C8  UNL     1      14.330  21.016  11.647  1.00  0.00     0.190 A 
HETATM    3  N4  UNL     1      13.578  21.035  10.452  1.00  0.00    -0.077 NA
HETATM    4  N5  UNL     1      14.448  22.081  12.438  1.00  0.00    -0.076 N 
HETATM    5  C9  UNL     1      15.184  21.916  13.622  1.00  0.00     0.703 A 
HETATM    6  N12 UNL     1      15.760  20.761  13.938  1.00  0.00    -0.152 N 
ATOM      7  H12 UNL     1      16.286  20.690  14.808  1.00  0.00     0.187 HD
HETATM    8  C16 UNL     1      15.666  19.679  13.139  1.00  0.00     0.292 A 
HETATM    9  O5  UNL     1      16.227  18.595  13.522  1.00  0.00    -0.265 OA
ENDROOT
BRANCH   5  10
HETATM   10  N7  UNL     1      15.120  22.850  14.425  1.00  0.00    -0.222 N 
ATOM     11  H7  UNL     1      15.631  23.581  13.929  1.00  0.00     0.177 HD
BRANCH  10  12
HETATM   12  C10 UNL     1      14.772  23.499  15.587  1.00  0.00     0.175 C 
BRANCH  12  13
HETATM   13  C11 UNL     1      13.260  23.747  15.491  1.00  0.00     0.200 C 
HETATM   14  O1  UNL     1      12.466  22.985  14.800  1.00  0.00    -0.331 OA
HETATM   15  C12 UNL     1      11.523  22.423  15.744  1.00  0.00     0.401 C 
HETATM   16  O3  UNL     1      11.508  23.223  16.826  1.00  0.00    -0.309 OA
HETATM   17  C15 UNL     1      12.787  23.700  16.949  1.00  0.00     0.292 C 
BRANCH  15  18
HETATM   18  N8  UNL     1      11.963  21.091  15.989  1.00  0.00    -0.173 N 
HETATM   19  N9  UNL     1      13.137  20.471  15.795  1.00  0.00    -0.122 N 
HETATM   20  C13 UNL     1      13.072  19.220  16.162  1.00  0.00     0.695 A 
ATOM     21  H9  UNL     1      13.970  20.918  15.413  1.00  0.00     0.206 HD
HETATM   22  N10 UNL     1      14.011  18.296  16.090  1.00  0.00    -0.233 N 
HETATM   23  N11 UNL     1      11.809  18.959  16.625  1.00  0.00    -0.139 N 
ATOM     24 2H10 UNL     1      14.951  18.489  15.745  1.00  0.00     0.174 HD
ATOM     25 1H10 UNL     1      13.960  17.318  16.376  1.00  0.00     0.174 HD
HETATM   26  C14 UNL     1      11.154  20.094  16.522  1.00  0.00     0.360 A 
ATOM     27  H11 UNL     1      11.453  18.071  16.976  1.00  0.00     0.189 HD
HETATM   28  O2  UNL     1       9.998  20.430  16.817  1.00  0.00    -0.244 OA
ENDBRANCH  15  18
BRANCH  17  29
HETATM   29  O4  UNL     1      13.531  22.734  17.616  1.00  0.00    -0.368 OA
ATOM     30  H4  UNL     1      14.228  22.444  17.040  1.00  0.00     0.212 HD
ENDBRANCH  17  29
ENDBRANCH  12  13
ENDBRANCH  10  12
ENDBRANCH   5  10
BRANCH   4  31
HETATM   31  N6  UNL     1      13.874  23.311  12.002  1.00  0.00    -0.323 N 
ATOM     32  H62 UNL     1      13.221  23.875  12.547  1.00  0.00     0.178 HD
ATOM     33  H61 UNL     1      14.163  23.684  11.097  1.00  0.00     0.178 HD
ENDBRANCH   4  31
BRANCH   1  34
HETATM   34  N3  UNL     1      14.999  18.720  10.974  1.00  0.00    -0.226 N 
ATOM     35  H3  UNL     1      14.469  17.849  10.976  1.00  0.00     0.202 HD
BRANCH  34  36
HETATM   36  N2  UNL     1      15.777  19.089  10.155  1.00  0.00    -0.319 NA
BRANCH  36  37
HETATM   37  C6  UNL     1      16.554  19.466   9.113  1.00  0.00     0.207 A 
HETATM   38  C5  UNL     1      16.221  19.207   7.771  1.00  0.00     0.069 A 
HETATM   39  C4  UNL     1      17.208  19.248   6.819  1.00  0.00     0.024 A 
HETATM   40  C18 UNL     1      18.435  19.568   7.229  1.00  0.00     0.167 A 
HETATM   41  O7  UNL     1      18.773  19.821   8.481  1.00  0.00    -0.265 OA
HETATM   42  C17 UNL     1      17.817  19.762   9.413  1.00  0.00     0.331 A 
HETATM   43  O6  UNL     1      18.203  19.993  10.544  1.00  0.00    -0.256 OA
BRANCH  39  44
HETATM   44  C3  UNL     1      16.944  18.679   5.463  1.00  0.00     0.099 C 
BRANCH  44  45
HETATM   45  N1  UNL     1      16.619  19.528   4.419  1.00  0.00    -0.398 N 
HETATM   46  C1  UNL     1      16.162  20.839   4.473  1.00  0.00     0.148 C 
HETATM   47  C2  UNL     1      15.916  18.792   3.359  1.00  0.00     0.148 C 
ENDBRANCH  44  45
ENDBRANCH  39  44
BRANCH  40  48
HETATM   48  C19 UNL     1      19.545  19.615   6.202  1.00  0.00     0.235 C 
HETATM   49  O8  UNL     1      19.993  20.891   5.969  1.00  0.00    -0.642 OA
HETATM   50  O9  UNL     1      20.465  18.617   6.291  1.00  0.00    -0.642 OA
ENDBRANCH  40  48
ENDBRANCH  36  37
ENDBRANCH  34  36
ENDBRANCH   1  34
TORSDOF 12
ENDMDL
MODEL 3
REMARK VINA RESULT: -8.782156627      1.187      1.325
REMARK  12 active torsions:
REMARK  status: ('A' for Active; 'I' for Inactive)
REMARK    1  A    between atoms: N1_2  and  C3_4 
REMARK    2  A    between atoms: C3_4  and  C4_5 
REMARK    3  A    between atoms: C6_7  and  N2_8 
REMARK    4  A    between atoms: N2_8  and  N3_9 
REMARK    5  A    between atoms: N3_9  and  C7_11 
REMARK    6  A    between atoms: N5_14  and  N6_15 
REMARK    7  A    between atoms: C9_18  and  N7_19 
REMARK    8  A    between atoms: N7_19  and  C10_21 
REMARK    9  A    between atoms: C10_21  and  C11_22 
REMARK   10  A    between atoms: C12_24  and  N8_25 
REMARK   11  A    between atoms: C15_37  and  O4_38 
REMARK   12  A    between atoms: C18_47  and  C19_48 
ROOT
HETATM    1  C7  UNL     1      14.806  18.815  11.536  1.00  0.00     0.172 A 
HETATM    2  C8  UNL     1      15.045  18.142  12.742  1.00  0.00     0.190 A 
HETATM    3  N4  UNL     1      15.476  16.799  12.680  1.00  0.00    -0.077 NA
HETATM    4  N5  UNL     1      14.868  18.788  13.894  1.00  0.00    -0.076 N 
HETATM    5  C9  UNL     1      14.483  20.135  13.816  1.00  0.00     0.703 A 
HETATM    6  N12 UNL     1      14.280  20.743  12.652  1.00  0.00    -0.152 N 
ATOM      7  H12 UNL     1      14.000  21.723  12.647  1.00  0.00     0.187 HD
HETATM    8  C16 UNL     1      14.436  20.099  11.477  1.00  0.00     0.292 A 
HETATM    9  O5  UNL     1      14.246  20.757  10.398  1.00  0.00    -0.265 OA
ENDROOT
BRANCH   5  10
HETATM   10  N7  UNL     1      14.512  20.760  14.879  1.00  0.00    -0.222 N 
ATOM     11  H7  UNL     1      13.958  20.156  15.486  1.00  0.00     0.177 HD
BRANCH  10  12
HETATM   12  C10 UNL     1      14.843  21.783  15.737  1.00  0.00     0.175 C 
BRANCH  12  13
HETATM   13  C11 UNL     1      13.920  22.953  15.368  1.00  0.00     0.200 C 
HETATM   14  O1  UNL     1      13.048  22.883  14.406  1.00  0.00    -0.331 OA
HETATM   15  C12 UNL     1      11.751  23.076  15.022  1.00  0.00     0.401 C 
HETATM   16  O3  UNL     1      11.949  23.703  16.195  1.00  0.00    -0.309 OA
HETATM   17  C15 UNL     1      13.150  23.236  16.664  1.00  0.00     0.292 C 
BRANCH  15  18
HETATM   18  N8  UNL     1      11.172  21.779  15.124  1.00  0.00    -0.173 N 
HETATM   19  N9  UNL     1      10.761  21.047  16.170  1.00  0.00    -0.122 N 
HETATM   20  C13 UNL     1      10.299  19.890  15.779  1.00  0.00     0.695 A 
ATOM     21  H9  UNL     1      10.803  21.353  17.142  1.00  0.00     0.206 HD
HETATM   22  N10 UNL     1       9.842  18.898  16.519  1.00  0.00    -0.233 N 
HETATM   23  N11 UNL     1      10.395  19.813  14.415  1.00  0.00    -0.139 N 
ATOM     24 2H10 UNL     1       9.771  18.955  17.535  1.00  0.00     0.174 HD
ATOM     25 1H10 UNL     1       9.481  17.994  16.214  1.00  0.00     0.174 HD
HETATM   26  C14 UNL     1      10.914  20.958  14.032  1.00  0.00     0.360 A 
ATOM     27  H11 UNL     1      10.119  19.032  13.820  1.00  0.00     0.189 HD
HETATM   28  O2  UNL     1      11.190  21.430  12.919  1.00  0.00    -0.244 OA
ENDBRANCH  15  18
BRANCH  17  29
HETATM   29  O4  UNL     1      12.907  22.024  17.300  1.00  0.00    -0.368 OA
ATOM     30  H4  UNL     1      12.824  21.351  16.634  1.00  0.00     0.212 HD
ENDBRANCH  17  29
ENDBRANCH  12  13
ENDBRANCH  10  12
ENDBRANCH   5  10
BRANCH   4  31
HETATM   31  N6  UNL     1      15.025  18.055  15.108  1.00  0.00    -0.323 N 
ATOM     32  H62 UNL     1      15.411  18.435  15.972  1.00  0.00     0.178 HD
ATOM     33  H61 UNL     1      14.691  17.091  15.135  1.00  0.00     0.178 HD
ENDBRANCH   4  31
BRANCH   1  34
HETATM   34  N3  UNL     1      14.790  17.982  10.276  1.00  0.00    -0.226 N 
ATOM     35  H3  UNL     1      14.227  17.153  10.088  1.00  0.00     0.202 HD
BRANCH  34  36
HETATM   36  N2  UNL     1      15.575  18.501   9.551  1.00  0.00    -0.319 NA
BRANCH  36  37
HETATM   37  C6  UNL     1      16.417  18.989   8.611  1.00  0.00     0.207 A 
HETATM   38  C5  UNL     1      16.344  18.635   7.252  1.00  0.00     0.069 A 
HETATM   39  C4  UNL     1      17.439  18.837   6.450  1.00  0.00     0.024 A 
HETATM   40  C18 UNL     1      18.511  19.393   7.014  1.00  0.00     0.167 A 
HETATM   41  O7  UNL     1      18.604  19.739   8.286  1.00  0.00    -0.265 OA
HETATM   42  C17 UNL     1      17.545  19.526   9.072  1.00  0.00     0.331 A 
HETATM   43  O6  UNL     1      17.708  19.857  10.233  1.00  0.00    -0.256 OA
BRANCH  39  44
HETATM   44  C3  UNL     1      17.491  18.191   5.104  1.00  0.00     0.099 C 
BRANCH  44  45
HETATM   45  N1  UNL     1      17.248  18.952   3.973  1.00  0.00    -0.398 N 
HETATM   46  C1  UNL     1      16.505  20.121   3.854  1.00  0.00     0.148 C 
HETATM   47  C2  UNL     1      17.012  18.084   2.811  1.00  0.00     0.148 C 
ENDBRANCH  44  45
ENDBRANCH  39  44
BRANCH  40  48
HETATM   48  C19 UNL     1      19.736  19.621   6.156  1.00  0.00     0.235 C 
HETATM   49  O8  UNL     1      20.070  20.949   6.056  1.00  0.00    -0.642 OA
HETATM   50  O9  UNL     1      20.739  18.716   6.318  1.00  0.00    -0.642 OA
ENDBRANCH  40  48
ENDBRANCH  36  37
ENDBRANCH  34  36
ENDBRANCH   1  34
TORSDOF 12
ENDMDL
MODEL 4
REMARK VINA RESULT: -8.768851470      1.804      2.739
REMARK  12 active torsions:
REMARK  status: ('A' for Active; 'I' for Inactive)
REMARK    1  A    between atoms: N1_2  and  C3_4 
REMARK    2  A    between atoms: C3_4  and  C4_5 
REMARK    3  A    between atoms: C6_7  and  N2_8 
REMARK    4  A    between atoms: N2_8  and  N3_9 
REMARK    5  A    between atoms: N3_9  and  C7_11 
REMARK    6  A    between atoms: N5_14  and  N6_15 
REMARK    7  A    between atoms: C9_18  and  N7_19 
REMARK    8  A    between atoms: N7_19  and  C10_21 
REMARK    9  A    between atoms: C10_21  and  C11_22 
REMARK   10  A    between atoms: C12_24  and  N8_25 
REMARK   11  A    between atoms: C15_37  and  O4_38 
REMARK   12  A    between atoms: C18_47  and  C19_48 
ROOT
HETATM    1  C7  UNL     1      14.985  18.728  11.338  1.00  0.00     0.172 A 
HETATM    2  C8  UNL     1      15.421  17.812  12.305  1.00  0.00     0.190 A 
HETATM    3  N4  UNL     1      15.674  16.484  11.896  1.00  0.00    -0.077 NA
HETATM    4  N5  UNL     1      15.590  18.222  13.561  1.00  0.00    -0.076 N 
HETATM    5  C9  UNL     1      15.349  19.579  13.825  1.00  0.00     0.703 A 
HETATM    6  N12 UNL     1      14.951  20.421  12.878  1.00  0.00    -0.152 N 
ATOM      7  H12 UNL     1      14.788  21.398  13.120  1.00  0.00     0.187 HD
HETATM    8  C16 UNL     1      14.756  20.019  11.606  1.00  0.00     0.292 A 
HETATM    9  O5  UNL     1      14.395  20.893  10.745  1.00  0.00    -0.265 OA
ENDROOT
BRANCH   5  10
HETATM   10  N7  UNL     1      15.694  19.974  14.942  1.00  0.00    -0.222 N 
ATOM     11  H7  UNL     1      15.059  19.454  15.548  1.00  0.00     0.177 HD
BRANCH  10  12
HETATM   12  C10 UNL     1      16.421  20.694  15.862  1.00  0.00     0.175 C 
BRANCH  12  13
HETATM   13  C11 UNL     1      16.506  22.121  15.301  1.00  0.00     0.200 C 
HETATM   14  O1  UNL     1      15.525  22.683  14.660  1.00  0.00    -0.331 OA
HETATM   15  C12 UNL     1      15.152  23.849  15.436  1.00  0.00     0.401 C 
HETATM   16  O3  UNL     1      16.202  24.173  16.211  1.00  0.00    -0.309 OA
HETATM   17  C15 UNL     1      16.801  22.983  16.535  1.00  0.00     0.292 C 
BRANCH  15  18
HETATM   18  N8  UNL     1      13.972  23.483  16.145  1.00  0.00    -0.173 N 
HETATM   19  N9  UNL     1      13.479  22.300  16.541  1.00  0.00    -0.122 N 
HETATM   20  C13 UNL     1      12.340  22.451  17.161  1.00  0.00     0.695 A 
ATOM     21  H9  UNL     1      13.933  21.402  16.378  1.00  0.00     0.206 HD
HETATM   22  N10 UNL     1      11.549  21.520  17.659  1.00  0.00    -0.233 N 
HETATM   23  N11 UNL     1      12.030  23.785  17.197  1.00  0.00    -0.139 N 
ATOM     24 2H10 UNL     1      11.780  20.528  17.633  1.00  0.00     0.174 HD
ATOM     25 1H10 UNL     1      10.660  21.639  18.144  1.00  0.00     0.174 HD
HETATM   26  C14 UNL     1      13.021  24.396  16.589  1.00  0.00     0.360 A 
ATOM     27  H11 UNL     1      11.202  24.214  17.610  1.00  0.00     0.189 HD
HETATM   28  O2  UNL     1      13.265  25.589  16.362  1.00  0.00    -0.244 OA
ENDBRANCH  15  18
BRANCH  17  29
HETATM   29  O4  UNL     1      16.110  22.448  17.615  1.00  0.00    -0.368 OA
ATOM     30  H4  UNL     1      16.286  22.987  18.378  1.00  0.00     0.212 HD
ENDBRANCH  17  29
ENDBRANCH  12  13
ENDBRANCH  10  12
ENDBRANCH   5  10
BRANCH   4  31
HETATM   31  N6  UNL     1      15.942  17.251  14.544  1.00  0.00    -0.323 N 
ATOM     32  H62 UNL     1      15.327  16.931  15.293  1.00  0.00     0.178 HD
ATOM     33  H61 UNL     1      16.859  16.809  14.478  1.00  0.00     0.178 HD
ENDBRANCH   4  31
BRANCH   1  34
HETATM   34  N3  UNL     1      14.584  18.170   9.993  1.00  0.00    -0.226 N 
ATOM     35  H3  UNL     1      13.751  17.625   9.772  1.00  0.00     0.202 HD
BRANCH  34  36
HETATM   36  N2  UNL     1      15.448  18.502   9.249  1.00  0.00    -0.319 NA
BRANCH  36  37
HETATM   37  C6  UNL     1      16.333  19.000   8.354  1.00  0.00     0.207 A 
HETATM   38  C5  UNL     1      16.314  18.672   6.987  1.00  0.00     0.069 A 
HETATM   39  C4  UNL     1      17.443  18.879   6.236  1.00  0.00     0.024 A 
HETATM   40  C18 UNL     1      18.495  19.418   6.853  1.00  0.00     0.167 A 
HETATM   41  O7  UNL     1      18.536  19.740   8.134  1.00  0.00    -0.265 OA
HETATM   42  C17 UNL     1      17.444  19.521   8.872  1.00  0.00     0.331 A 
HETATM   43  O6  UNL     1      17.560  19.829  10.044  1.00  0.00    -0.256 OA
BRANCH  39  44
HETATM   44  C3  UNL     1      17.547  18.257   4.881  1.00  0.00     0.099 C 
BRANCH  44  45
HETATM   45  N1  UNL     1      17.263  19.017   3.759  1.00  0.00    -0.398 N 
HETATM   46  C1  UNL     1      16.393  20.094   3.634  1.00  0.00     0.148 C 
HETATM   47  C2  UNL     1      17.180  18.161   2.567  1.00  0.00     0.148 C 
ENDBRANCH  44  45
ENDBRANCH  39  44
BRANCH  40  48
HETATM   48  C19 UNL     1      19.755  19.651   6.051  1.00  0.00     0.235 C 
HETATM   49  O8  UNL     1      20.107  20.977   5.997  1.00  0.00    -0.642 OA
HETATM   50  O9  UNL     1      20.742  18.732   6.234  1.00  0.00    -0.642 OA
ENDBRANCH  40  48
ENDBRANCH  36  37
ENDBRANCH  34  36
ENDBRANCH   1  34
TORSDOF 12
ENDMDL
MODEL 5
REMARK VINA RESULT: -8.525250582      2.888      9.980
REMARK  12 active torsions:
REMARK  status: ('A' for Active; 'I' for Inactive)
REMARK    1  A    between atoms: N1_2  and  C3_4 
REMARK    2  A    between atoms: C3_4  and  C4_5 
REMARK    3  A    between atoms: C6_7  and  N2_8 
REMARK    4  A    between atoms: N2_8  and  N3_9 
REMARK    5  A    between atoms: N3_9  and  C7_11 
REMARK    6  A    between atoms: N5_14  and  N6_15 
REMARK    7  A    between atoms: C9_18  and  N7_19 
REMARK    8  A    between atoms: N7_19  and  C10_21 
REMARK    9  A    between atoms: C10_21  and  C11_22 
REMARK   10  A    between atoms: C12_24  and  N8_25 
REMARK   11  A    between atoms: C15_37  and  O4_38 
REMARK   12  A    between atoms: C18_47  and  C19_48 
ROOT
HETATM    1  C7  UNL     1      14.075  20.356  12.514  1.00  0.00     0.172 A 
HETATM    2  C8  UNL     1      14.408  19.003  12.667  1.00  0.00     0.190 A 
HETATM    3  N4  UNL     1      14.091  18.376  13.893  1.00  0.00    -0.077 NA
HETATM    4  N5  UNL     1      14.996  18.359  11.661  1.00  0.00    -0.076 N 
HETATM    5  C9  UNL     1      15.211  19.085  10.480  1.00  0.00     0.703 A 
HETATM    6  N12 UNL     1      14.869  20.364  10.367  1.00  0.00    -0.152 N 
ATOM      7  H12 UNL     1      15.047  20.849   9.488  1.00  0.00     0.187 HD
HETATM    8  C16 UNL     1      14.291  21.037  11.382  1.00  0.00     0.292 A 
HETATM    9  O5  UNL     1      13.967  22.259  11.190  1.00  0.00    -0.265 OA
ENDROOT
BRANCH   5  10
HETATM   10  N7  UNL     1      15.578  18.422   9.506  1.00  0.00    -0.222 N 
ATOM     11  H7  UNL     1      15.854  17.545   9.948  1.00  0.00     0.177 HD
BRANCH  10  12
HETATM   12  C10 UNL     1      15.837  18.155   8.182  1.00  0.00     0.175 C 
BRANCH  12  13
HETATM   13  C11 UNL     1      17.367  18.112   8.056  1.00  0.00     0.200 C 
HETATM   14  O1  UNL     1      17.971  17.660   6.998  1.00  0.00    -0.331 OA
HETATM   15  C12 UNL     1      18.741  18.768   6.469  1.00  0.00     0.401 C 
HETATM   16  O3  UNL     1      18.925  19.648   7.470  1.00  0.00    -0.309 OA
HETATM   17  C15 UNL     1      17.791  19.575   8.237  1.00  0.00     0.292 C 
BRANCH  15  18
HETATM   18  N8  UNL     1      17.997  19.265   5.362  1.00  0.00    -0.173 N 
HETATM   19  N9  UNL     1      16.826  18.904   4.816  1.00  0.00    -0.122 N 
HETATM   20  C13 UNL     1      16.539  19.651   3.785  1.00  0.00     0.695 A 
ATOM     21  H9  UNL     1      16.238  18.146   5.162  1.00  0.00     0.206 HD
HETATM   22  N10 UNL     1      15.496  19.572   2.982  1.00  0.00    -0.233 N 
HETATM   23  N11 UNL     1      17.546  20.563   3.606  1.00  0.00    -0.139 N 
ATOM     24 2H10 UNL     1      14.746  18.894   3.116  1.00  0.00     0.174 HD
ATOM     25 1H10 UNL     1      15.271  20.156   2.177  1.00  0.00     0.174 HD
HETATM   26  C14 UNL     1      18.413  20.325   4.564  1.00  0.00     0.360 A 
ATOM     27  H11 UNL     1      17.608  21.277   2.880  1.00  0.00     0.189 HD
HETATM   28  O2  UNL     1      19.483  20.862   4.885  1.00  0.00    -0.244 OA
ENDBRANCH  15  18
BRANCH  17  29
HETATM   29  O4  UNL     1      16.831  20.383   7.641  1.00  0.00    -0.368 OA
ATOM     30  H4  UNL     1      16.089  19.839   7.404  1.00  0.00     0.212 HD
ENDBRANCH  17  29
ENDBRANCH  12  13
ENDBRANCH  10  12
ENDBRANCH   5  10
BRANCH   4  31
HETATM   31  N6  UNL     1      15.410  17.011  11.875  1.00  0.00    -0.323 N 
ATOM     32  H62 UNL     1      16.112  16.718  12.556  1.00  0.00     0.178 HD
ATOM     33  H61 UNL     1      14.947  16.274  11.342  1.00  0.00     0.178 HD
ENDBRANCH   4  31
BRANCH   1  34
HETATM   34  N3  UNL     1      13.631  21.100  13.751  1.00  0.00    -0.226 N 
ATOM     35  H3  UNL     1      12.679  21.216  14.097  1.00  0.00     0.202 HD
BRANCH  34  36
HETATM   36  N2  UNL     1      14.631  21.520  14.236  1.00  0.00    -0.319 NA
BRANCH  36  37
HETATM   37  C6  UNL     1      15.709  22.146  14.762  1.00  0.00     0.207 A 
HETATM   38  C5  UNL     1      16.298  21.773  15.983  1.00  0.00     0.069 A 
HETATM   39  C4  UNL     1      17.103  22.671  16.637  1.00  0.00     0.024 A 
HETATM   40  C18 UNL     1      17.305  23.849  16.048  1.00  0.00     0.167 A 
HETATM   41  O7  UNL     1      16.769  24.222  14.899  1.00  0.00    -0.265 OA
HETATM   42  C17 UNL     1      15.969  23.357  14.270  1.00  0.00     0.331 A 
HETATM   43  O6  UNL     1      15.501  23.773  13.226  1.00  0.00    -0.256 OA
BRANCH  39  44
HETATM   44  C3  UNL     1      17.478  22.418  18.061  1.00  0.00     0.099 C 
BRANCH  44  45
HETATM   45  N1  UNL     1      18.249  21.311  18.377  1.00  0.00    -0.398 N 
HETATM   46  C1  UNL     1      17.914  19.965  18.297  1.00  0.00     0.148 C 
HETATM   47  C2  UNL     1      19.035  21.564  19.592  1.00  0.00     0.148 C 
ENDBRANCH  44  45
ENDBRANCH  39  44
BRANCH  40  48
HETATM   48  C19 UNL     1      18.183  24.861  16.749  1.00  0.00     0.235 C 
HETATM   49  O8  UNL     1      19.495  24.787  16.350  1.00  0.00    -0.642 OA
HETATM   50  O9  UNL     1      17.632  26.093  16.920  1.00  0.00    -0.642 OA
ENDBRANCH  40  48
ENDBRANCH  36  37
ENDBRANCH  34  36
ENDBRANCH   1  34
TORSDOF 12
ENDMDL
