MODEL 1
REMARK VINA RESULT: -8.243180890      0.000      0.000
REMARK  21 active torsions:
REMARK  status: ('A' for Active; 'I' for Inactive)
REMARK    1  A    between atoms: O1_2  and  C2_3 
REMARK    2  A    between atoms: C3_6  and  C4_7 
REMARK    3  A    between atoms: C6_9  and  N2_10 
REMARK    4  A    between atoms: N2_10  and  O2_12 
REMARK    5  A    between atoms: N4_21  and  O3_22 
REMARK    6  A    between atoms: C11_24  and  C12_25 
REMARK    7  A    between atoms: C12_25  and  O4_26 
REMARK    8  A    between atoms: C12_25  and  N5_28 
REMARK    9  A    between atoms: N5_28  and  C13_30 
REMARK   10  A    between atoms: C13_30  and  O5_31 
REMARK   11  A    between atoms: C13_30  and  C14_33 
REMARK   12  A    between atoms: C14_33  and  O6_34 
REMARK   13  A    between atoms: C14_33  and  C15_36 
REMARK   14  A    between atoms: C15_36  and  O7_37 
REMARK   15  A    between atoms: C15_36  and  C16_39 
REMARK   16  A    between atoms: C16_39  and  O8_40 
REMARK   17  A    between atoms: C16_39  and  O9_42 
REMARK   18  A    between atoms: N6_44  and  O10_45 
REMARK   19  A    between atoms: C17_47  and  O11_48 
REMARK   20  A    between atoms: O11_48  and  C18_49 
REMARK   21  A    between atoms: C20_52  and  O13_53 
ROOT
HETATM    1  C4  UNL     1      13.679  21.347  15.057  1.00  0.00    -0.030 A 
HETATM    2  C5  UNL     1      13.976  20.065  15.501  1.00  0.00     0.043 A 
HETATM    3  C6  UNL     1      14.404  19.067  14.656  1.00  0.00     0.085 A 
HETATM    4  C7  UNL     1      14.554  19.321  13.309  1.00  0.00     0.107 A 
HETATM    5  C8  UNL     1      14.266  20.592  12.823  1.00  0.00     0.042 A 
HETATM    6  C9  UNL     1      13.834  21.580  13.709  1.00  0.00     0.027 A 
HETATM    7  C10 UNL     1      14.417  20.832  11.490  1.00  0.00     0.141 A 
HETATM    8  N3  UNL     1      14.159  22.000  11.010  1.00  0.00    -0.383 N 
ATOM      9  H31 UNL     1      14.272  22.179  10.012  1.00  0.00     0.157 HD
ATOM     10  H32 UNL     1      13.840  22.753  11.620  1.00  0.00     0.157 HD
HETATM   11  N4  UNL     1      14.843  19.824  10.673  1.00  0.00    -0.188 N 
HETATM   12  C11 UNL     1      15.120  18.609  11.130  1.00  0.00     0.188 A 
HETATM   13  N6  UNL     1      14.970  18.373  12.446  1.00  0.00    -0.202 N 
ENDROOT
BRANCH  12  14
HETATM   14  C12 UNL     1      15.603  17.512  10.218  1.00  0.00     0.289 C 
BRANCH  14  15
HETATM   15  O4  UNL     1      14.502  17.065   9.545  1.00  0.00    -0.370 OA
ATOM     16  H4  UNL     1      14.684  16.163   9.310  1.00  0.00     0.212 HD
ENDBRANCH  14  15
BRANCH  14  17
HETATM   17  N5  UNL     1      16.762  17.869   9.500  1.00  0.00    -0.363 N 
ATOM     18  H5  UNL     1      17.464  18.509   9.873  1.00  0.00     0.158 HD
BRANCH  17  19
HETATM   19  C13 UNL     1      16.879  17.274   8.223  1.00  0.00     0.247 C 
BRANCH  19  20
HETATM   20  O5  UNL     1      17.506  16.003   8.295  1.00  0.00    -0.374 OA
ATOM     21  H5  UNL     1      17.559  15.591   7.441  1.00  0.00     0.212 HD
ENDBRANCH  19  20
BRANCH  19  22
HETATM   22  C14 UNL     1      17.397  18.068   7.087  1.00  0.00     0.200 C 
BRANCH  22  23
HETATM   23  O6  UNL     1      18.172  17.160   6.250  1.00  0.00    -0.388 OA
ATOM     24  H6  UNL     1      18.746  17.696   5.715  1.00  0.00     0.210 HD
ENDBRANCH  22  23
BRANCH  22  25
HETATM   25  C15 UNL     1      18.377  19.153   7.419  1.00  0.00     0.205 C 
BRANCH  25  26
HETATM   26  O7  UNL     1      17.821  20.232   8.111  1.00  0.00    -0.388 OA
ATOM     27  H7  UNL     1      17.113  20.665   7.649  1.00  0.00     0.210 HD
ENDBRANCH  25  26
BRANCH  25  28
HETATM   28  C16 UNL     1      19.303  19.542   6.353  1.00  0.00     0.285 C 
BRANCH  28  29
HETATM   29  O8  UNL     1      19.738  20.846   6.391  1.00  0.00    -0.369 OA
ATOM     30  H8  UNL     1      19.081  21.490   6.632  1.00  0.00     0.212 HD
ENDBRANCH  28  29
BRANCH  28  31
HETATM   31  O9  UNL     1      20.413  18.664   6.400  1.00  0.00    -0.369 OA
ATOM     32  H9  UNL     1      21.202  19.192   6.422  1.00  0.00     0.212 HD
ENDBRANCH  28  31
ENDBRANCH  25  28
ENDBRANCH  22  25
ENDBRANCH  19  22
ENDBRANCH  17  19
ENDBRANCH  14  17
ENDBRANCH  12  14
BRANCH  11  33
HETATM   33  O3  UNL     1      14.962  20.123   9.345  1.00  0.00    -0.280 OA
ATOM     34  H3  UNL     1      14.167  20.081   8.828  1.00  0.00     0.245 HD
ENDBRANCH  11  33
BRANCH  13  35
HETATM   35  O10 UNL     1      15.254  17.119  12.916  1.00  0.00    -0.281 OA
ATOM     36  H10 UNL     1      15.862  16.570  12.435  1.00  0.00     0.245 HD
ENDBRANCH  13  35
BRANCH   3  37
HETATM   37  N2  UNL     1      14.707  17.751  15.120  1.00  0.00    -0.267 N 
ATOM     38  H2  UNL     1      14.131  16.959  14.836  1.00  0.00     0.194 HD
BRANCH  37  39
HETATM   39  O2  UNL     1      15.686  17.578  15.880  1.00  0.00    -0.289 OA
ATOM     40  H2  UNL     1      15.672  16.861  16.501  1.00  0.00     0.244 HD
ENDBRANCH  37  39
ENDBRANCH   3  37
BRANCH   1  41
HETATM   41  C3  UNL     1      13.229  22.350  16.022  1.00  0.00     0.149 C 
HETATM   42  N1  UNL     1      12.376  21.811  17.064  1.00  0.00    -0.361 N 
HETATM   43  C2  UNL     1      11.156  22.179  16.900  1.00  0.00     0.146 C 
ATOM     44  H1  UNL     1      12.702  21.218  17.827  1.00  0.00     0.162 HD
HETATM   45  C20 UNL     1      11.009  23.037  15.701  1.00  0.00     0.224 C 
HETATM   46  C17 UNL     1      12.433  23.477  15.444  1.00  0.00     0.195 C 
BRANCH  43  47
HETATM   47  O1  UNL     1      10.100  21.813  17.753  1.00  0.00    -0.342 OA
HETATM   48  C1  UNL     1       8.884  21.299  17.223  1.00  0.00     0.211 C 
ENDBRANCH  43  47
BRANCH  45  49
HETATM   49  O13 UNL     1      10.198  24.143  15.945  1.00  0.00    -0.385 OA
ATOM     50  H13 UNL     1       9.568  24.283  15.248  1.00  0.00     0.210 HD
ENDBRANCH  45  49
BRANCH  46  51
HETATM   51  O11 UNL     1      12.658  24.624  16.243  1.00  0.00    -0.311 OA
BRANCH  51  52
HETATM   52  C18 UNL     1      13.514  25.655  15.875  1.00  0.00     0.255 C 
HETATM   53  C19 UNL     1      14.418  25.555  14.699  1.00  0.00     0.126 C 
HETATM   54  O12 UNL     1      13.495  26.690  16.585  1.00  0.00    -0.266 OA
ENDBRANCH  51  52
ENDBRANCH  46  51
ENDBRANCH   1  41
TORSDOF 21
ENDMDL
MODEL 2
REMARK VINA RESULT: -8.122212940      2.724      9.837
REMARK  21 active torsions:
REMARK  status: ('A' for Active; 'I' for Inactive)
REMARK    1  A    between atoms: O1_2  and  C2_3 
REMARK    2  A    between atoms: C3_6  and  C4_7 
REMARK    3  A    between atoms: C6_9  and  N2_10 
REMARK    4  A    between atoms: N2_10  and  O2_12 
REMARK    5  A    between atoms: N4_21  and  O3_22 
REMARK    6  A    between atoms: C11_24  and  C12_25 
REMARK    7  A    between atoms: C12_25  and  O4_26 
REMARK    8  A    between atoms: C12_25  and  N5_28 
REMARK    9  A    between atoms: N5_28  and  C13_30 
REMARK   10  A    between atoms: C13_30  and  O5_31 
REMARK   11  A    between atoms: C13_30  and  C14_33 
REMARK   12  A    between atoms: C14_33  and  O6_34 
REMARK   13  A    between atoms: C14_33  and  C15_36 
REMARK   14  A    between atoms: C15_36  and  O7_37 
REMARK   15  A    between atoms: C15_36  and  C16_39 
REMARK   16  A    between atoms: C16_39  and  O8_40 
REMARK   17  A    between atoms: C16_39  and  O9_42 
REMARK   18  A    between atoms: N6_44  and  O10_45 
REMARK   19  A    between atoms: C17_47  and  O11_48 
REMARK   20  A    between atoms: O11_48  and  C18_49 
REMARK   21  A    between atoms: C20_52  and  O13_53 
ROOT
HETATM    1  C4  UNL     1      16.453  18.533   8.131  1.00  0.00    -0.030 A 
HETATM    2  C5  UNL     1      16.460  17.249   8.659  1.00  0.00     0.043 A 
HETATM    3  C6  UNL     1      16.014  16.965   9.930  1.00  0.00     0.085 A 
HETATM    4  C7  UNL     1      15.536  17.977  10.734  1.00  0.00     0.107 A 
HETATM    5  C8  UNL     1      15.512  19.279  10.244  1.00  0.00     0.042 A 
HETATM    6  C9  UNL     1      15.971  19.530   8.951  1.00  0.00     0.027 A 
HETATM    7  C10 UNL     1      15.037  20.272  11.048  1.00  0.00     0.141 A 
HETATM    8  N3  UNL     1      15.001  21.488  10.621  1.00  0.00    -0.383 N 
ATOM      9  H31 UNL     1      14.645  22.230  11.223  1.00  0.00     0.157 HD
ATOM     10  H32 UNL     1      15.327  21.718   9.683  1.00  0.00     0.157 HD
HETATM   11  N4  UNL     1      14.600  19.964  12.304  1.00  0.00    -0.188 N 
HETATM   12  C11 UNL     1      14.620  18.723  12.778  1.00  0.00     0.188 A 
HETATM   13  N6  UNL     1      15.090  17.745  11.984  1.00  0.00    -0.202 N 
ENDROOT
BRANCH  12  14
HETATM   14  C12 UNL     1      14.122  18.398  14.162  1.00  0.00     0.289 C 
BRANCH  14  15
HETATM   15  O4  UNL     1      15.188  18.565  14.999  1.00  0.00    -0.370 OA
ATOM     16  H4  UNL     1      15.270  19.501  15.139  1.00  0.00     0.212 HD
ENDBRANCH  14  15
BRANCH  14  17
HETATM   17  N5  UNL     1      12.895  19.024  14.462  1.00  0.00    -0.363 N 
ATOM     18  H5  UNL     1      12.140  19.106  13.781  1.00  0.00     0.158 HD
BRANCH  17  19
HETATM   19  C13 UNL     1      12.791  19.529  15.778  1.00  0.00     0.247 C 
BRANCH  19  20
HETATM   20  O5  UNL     1      13.084  18.532  16.744  1.00  0.00    -0.374 OA
ATOM     21  H5  UNL     1      13.192  18.907  17.611  1.00  0.00     0.212 HD
ENDBRANCH  19  20
BRANCH  19  22
HETATM   22  C14 UNL     1      11.605  20.326  16.167  1.00  0.00     0.200 C 
BRANCH  22  23
HETATM   23  O6  UNL     1      11.797  20.725  17.557  1.00  0.00    -0.388 OA
ATOM     24  H6  UNL     1      11.357  20.078  18.095  1.00  0.00     0.210 HD
ENDBRANCH  22  23
BRANCH  22  25
HETATM   25  C15 UNL     1      10.291  19.605  16.192  1.00  0.00     0.205 C 
BRANCH  25  26
HETATM   26  O7  UNL     1      10.392  18.247  16.502  1.00  0.00    -0.388 OA
ATOM     27  H7  UNL     1       9.588  17.758  16.369  1.00  0.00     0.210 HD
ENDBRANCH  25  26
BRANCH  25  28
HETATM   28  C16 UNL     1       9.368  19.899  15.094  1.00  0.00     0.285 C 
BRANCH  28  29
HETATM   29  O8  UNL     1       9.954  20.124  13.870  1.00  0.00    -0.369 OA
ATOM     30  H8  UNL     1      10.254  21.013  13.717  1.00  0.00     0.212 HD
ENDBRANCH  28  29
BRANCH  28  31
HETATM   31  O9  UNL     1       8.451  18.824  14.997  1.00  0.00    -0.369 OA
ATOM     32  H9  UNL     1       8.285  18.664  14.075  1.00  0.00     0.212 HD
ENDBRANCH  28  31
ENDBRANCH  25  28
ENDBRANCH  22  25
ENDBRANCH  19  22
ENDBRANCH  17  19
ENDBRANCH  14  17
ENDBRANCH  12  14
BRANCH  11  33
HETATM   33  O3  UNL     1      14.148  21.003  13.066  1.00  0.00    -0.280 OA
ATOM     34  H3  UNL     1      14.806  21.595  13.411  1.00  0.00     0.245 HD
ENDBRANCH  11  33
BRANCH  13  35
HETATM   35  O10 UNL     1      15.111  16.467  12.475  1.00  0.00    -0.281 OA
ATOM     36  H10 UNL     1      15.169  16.331  13.413  1.00  0.00     0.245 HD
ENDBRANCH  13  35
BRANCH   3  37
HETATM   37  N2  UNL     1      16.026  15.642  10.465  1.00  0.00    -0.267 N 
ATOM     38  H2  UNL     1      15.525  15.431  11.329  1.00  0.00     0.194 HD
BRANCH  37  39
HETATM   39  O2  UNL     1      16.656  14.743   9.866  1.00  0.00    -0.289 OA
ATOM     40  H2  UNL     1      17.605  14.731   9.908  1.00  0.00     0.244 HD
ENDBRANCH  37  39
ENDBRANCH   3  37
BRANCH   1  41
HETATM   41  C3  UNL     1      16.945  18.748   6.771  1.00  0.00     0.149 C 
HETATM   42  N1  UNL     1      18.140  17.988   6.459  1.00  0.00    -0.361 N 
HETATM   43  C2  UNL     1      19.172  18.752   6.394  1.00  0.00     0.146 C 
ATOM     44  H1  UNL     1      18.160  16.979   6.310  1.00  0.00     0.162 HD
HETATM   45  C20 UNL     1      18.811  20.165   6.658  1.00  0.00     0.224 C 
HETATM   46  C17 UNL     1      17.314  20.160   6.443  1.00  0.00     0.195 C 
BRANCH  43  47
HETATM   47  O1  UNL     1      20.472  18.300   6.108  1.00  0.00    -0.342 OA
HETATM   48  C1  UNL     1      21.584  18.768   6.863  1.00  0.00     0.211 C 
ENDBRANCH  43  47
BRANCH  45  49
HETATM   49  O13 UNL     1      19.426  21.036   5.760  1.00  0.00    -0.385 OA
ATOM     50  H13 UNL     1      20.216  21.420   6.122  1.00  0.00     0.210 HD
ENDBRANCH  45  49
BRANCH  46  51
HETATM   51  O11 UNL     1      17.097  20.358   5.058  1.00  0.00    -0.311 OA
BRANCH  51  52
HETATM   52  C18 UNL     1      16.710  21.576   4.513  1.00  0.00     0.255 C 
HETATM   53  C19 UNL     1      15.326  22.101   4.646  1.00  0.00     0.126 C 
HETATM   54  O12 UNL     1      17.588  22.226   3.892  1.00  0.00    -0.266 OA
ENDBRANCH  51  52
ENDBRANCH  46  51
ENDBRANCH   1  41
TORSDOF 21
ENDMDL
MODEL 3
REMARK VINA RESULT: -8.071129057      0.808      2.426
REMARK  21 active torsions:
REMARK  status: ('A' for Active; 'I' for Inactive)
REMARK    1  A    between atoms: O1_2  and  C2_3 
REMARK    2  A    between atoms: C3_6  and  C4_7 
REMARK    3  A    between atoms: C6_9  and  N2_10 
REMARK    4  A    between atoms: N2_10  and  O2_12 
REMARK    5  A    between atoms: N4_21  and  O3_22 
REMARK    6  A    between atoms: C11_24  and  C12_25 
REMARK    7  A    between atoms: C12_25  and  O4_26 
REMARK    8  A    between atoms: C12_25  and  N5_28 
REMARK    9  A    between atoms: N5_28  and  C13_30 
REMARK   10  A    between atoms: C13_30  and  O5_31 
REMARK   11  A    between atoms: C13_30  and  C14_33 
REMARK   12  A    between atoms: C14_33  and  O6_34 
REMARK   13  A    between atoms: C14_33  and  C15_36 
REMARK   14  A    between atoms: C15_36  and  O7_37 
REMARK   15  A    between atoms: C15_36  and  C16_39 
REMARK   16  A    between atoms: C16_39  and  O8_40 
REMARK   17  A    between atoms: C16_39  and  O9_42 
REMARK   18  A    between atoms: N6_44  and  O10_45 
REMARK   19  A    between atoms: C17_47  and  O11_48 
REMARK   20  A    between atoms: O11_48  and  C18_49 
REMARK   21  A    between atoms: C20_52  and  O13_53 
ROOT
HETATM    1  C4  UNL     1      13.900  21.665  14.682  1.00  0.00    -0.030 A 
HETATM    2  C5  UNL     1      13.836  22.233  13.416  1.00  0.00     0.043 A 
HETATM    3  C6  UNL     1      14.130  21.529  12.270  1.00  0.00     0.085 A 
HETATM    4  C7  UNL     1      14.507  20.206  12.352  1.00  0.00     0.107 A 
HETATM    5  C8  UNL     1      14.585  19.599  13.601  1.00  0.00     0.042 A 
HETATM    6  C9  UNL     1      14.280  20.343  14.741  1.00  0.00     0.027 A 
HETATM    7  C10 UNL     1      14.959  18.290  13.670  1.00  0.00     0.141 A 
HETATM    8  N3  UNL     1      15.040  17.700  14.813  1.00  0.00    -0.383 N 
ATOM      9  H31 UNL     1      15.320  16.721  14.864  1.00  0.00     0.157 HD
ATOM     10  H32 UNL     1      14.827  18.205  15.674  1.00  0.00     0.157 HD
HETATM   11  N4  UNL     1      15.246  17.615  12.518  1.00  0.00    -0.188 N 
HETATM   12  C11 UNL     1      15.173  18.188  11.323  1.00  0.00     0.188 A 
HETATM   13  N6  UNL     1      14.805  19.480  11.256  1.00  0.00    -0.202 N 
ENDROOT
BRANCH  12  14
HETATM   14  C12 UNL     1      15.479  17.425  10.060  1.00  0.00     0.289 C 
BRANCH  14  15
HETATM   15  O4  UNL     1      14.286  17.258   9.418  1.00  0.00    -0.370 OA
ATOM     16  H4  UNL     1      14.495  16.912   8.558  1.00  0.00     0.212 HD
ENDBRANCH  14  15
BRANCH  14  17
HETATM   17  N5  UNL     1      16.582  17.952   9.358  1.00  0.00    -0.363 N 
ATOM     18  H5  UNL     1      17.145  18.723   9.718  1.00  0.00     0.158 HD
BRANCH  17  19
HETATM   19  C13 UNL     1      16.850  17.330   8.118  1.00  0.00     0.247 C 
BRANCH  19  20
HETATM   20  O5  UNL     1      17.543  16.104   8.288  1.00  0.00    -0.374 OA
ATOM     21  H5  UNL     1      18.485  16.228   8.263  1.00  0.00     0.212 HD
ENDBRANCH  19  20
BRANCH  19  22
HETATM   22  C14 UNL     1      17.421  18.123   7.006  1.00  0.00     0.200 C 
BRANCH  22  23
HETATM   23  O6  UNL     1      18.181  17.201   6.170  1.00  0.00    -0.388 OA
ATOM     24  H6  UNL     1      17.618  16.954   5.446  1.00  0.00     0.210 HD
ENDBRANCH  22  23
BRANCH  22  25
HETATM   25  C15 UNL     1      18.432  19.166   7.377  1.00  0.00     0.205 C 
BRANCH  25  26
HETATM   26  O7  UNL     1      17.908  20.233   8.110  1.00  0.00    -0.388 OA
ATOM     27  H7  UNL     1      18.557  20.723   8.602  1.00  0.00     0.210 HD
ENDBRANCH  25  26
BRANCH  25  28
HETATM   28  C16 UNL     1      19.367  19.569   6.324  1.00  0.00     0.285 C 
BRANCH  28  29
HETATM   29  O8  UNL     1      19.799  20.874   6.381  1.00  0.00    -0.369 OA
ATOM     30  H8  UNL     1      20.107  21.167   7.231  1.00  0.00     0.212 HD
ENDBRANCH  28  29
BRANCH  28  31
HETATM   31  O9  UNL     1      20.479  18.693   6.373  1.00  0.00    -0.369 OA
ATOM     32  H9  UNL     1      20.794  18.571   5.484  1.00  0.00     0.212 HD
ENDBRANCH  28  31
ENDBRANCH  25  28
ENDBRANCH  22  25
ENDBRANCH  19  22
ENDBRANCH  17  19
ENDBRANCH  14  17
ENDBRANCH  12  14
BRANCH  11  33
HETATM   33  O3  UNL     1      15.628  16.310  12.654  1.00  0.00    -0.280 OA
ATOM     34  H3  UNL     1      15.823  15.840  11.853  1.00  0.00     0.245 HD
ENDBRANCH  11  33
BRANCH  13  35
HETATM   35  O10 UNL     1      14.731  20.070  10.023  1.00  0.00    -0.281 OA
ATOM     36  H10 UNL     1      13.949  20.552   9.785  1.00  0.00     0.245 HD
ENDBRANCH  13  35
BRANCH   3  37
HETATM   37  N2  UNL     1      14.062  22.121  10.973  1.00  0.00    -0.267 N 
ATOM     38  H2  UNL     1      14.916  22.331  10.456  1.00  0.00     0.194 HD
BRANCH  37  39
HETATM   39  O2  UNL     1      12.944  22.379  10.474  1.00  0.00    -0.289 OA
ATOM     40  H2  UNL     1      12.427  23.090  10.833  1.00  0.00     0.244 HD
ENDBRANCH  37  39
ENDBRANCH   3  37
BRANCH   1  41
HETATM   41  C3  UNL     1      13.572  22.484  15.848  1.00  0.00     0.149 C 
HETATM   42  N1  UNL     1      12.755  21.796  16.829  1.00  0.00    -0.361 N 
HETATM   43  C2  UNL     1      11.550  22.245  16.826  1.00  0.00     0.146 C 
ATOM     44  H1  UNL     1      13.093  21.054  17.442  1.00  0.00     0.162 HD
HETATM   45  C20 UNL     1      11.381  23.322  15.823  1.00  0.00     0.224 C 
HETATM   46  C17 UNL     1      12.809  23.737  15.551  1.00  0.00     0.195 C 
BRANCH  43  47
HETATM   47  O1  UNL     1      10.531  21.772  17.669  1.00  0.00    -0.342 OA
HETATM   48  C1  UNL     1       9.254  21.430  17.142  1.00  0.00     0.211 C 
ENDBRANCH  43  47
BRANCH  45  49
HETATM   49  O13 UNL     1      10.652  24.397  16.329  1.00  0.00    -0.385 OA
ATOM     50  H13 UNL     1      10.652  25.137  15.734  1.00  0.00     0.210 HD
ENDBRANCH  45  49
BRANCH  46  51
HETATM   51  O11 UNL     1      13.151  24.698  16.533  1.00  0.00    -0.311 OA
BRANCH  51  52
HETATM   52  C18 UNL     1      13.541  25.996  16.226  1.00  0.00     0.255 C 
HETATM   53  C19 UNL     1      14.945  26.344  15.884  1.00  0.00     0.126 C 
HETATM   54  O12 UNL     1      12.647  26.878  16.250  1.00  0.00    -0.266 OA
ENDBRANCH  51  52
ENDBRANCH  46  51
ENDBRANCH   1  41
TORSDOF 21
ENDMDL
MODEL 4
REMARK VINA RESULT: -7.935401331      0.787      1.113
REMARK  21 active torsions:
REMARK  status: ('A' for Active; 'I' for Inactive)
REMARK    1  A    between atoms: O1_2  and  C2_3 
REMARK    2  A    between atoms: C3_6  and  C4_7 
REMARK    3  A    between atoms: C6_9  and  N2_10 
REMARK    4  A    between atoms: N2_10  and  O2_12 
REMARK    5  A    between atoms: N4_21  and  O3_22 
REMARK    6  A    between atoms: C11_24  and  C12_25 
REMARK    7  A    between atoms: C12_25  and  O4_26 
REMARK    8  A    between atoms: C12_25  and  N5_28 
REMARK    9  A    between atoms: N5_28  and  C13_30 
REMARK   10  A    between atoms: C13_30  and  O5_31 
REMARK   11  A    between atoms: C13_30  and  C14_33 
REMARK   12  A    between atoms: C14_33  and  O6_34 
REMARK   13  A    between atoms: C14_33  and  C15_36 
REMARK   14  A    between atoms: C15_36  and  O7_37 
REMARK   15  A    between atoms: C15_36  and  C16_39 
REMARK   16  A    between atoms: C16_39  and  O8_40 
REMARK   17  A    between atoms: C16_39  and  O9_42 
REMARK   18  A    between atoms: N6_44  and  O10_45 
REMARK   19  A    between atoms: C17_47  and  O11_48 
REMARK   20  A    between atoms: O11_48  and  C18_49 
REMARK   21  A    between atoms: C20_52  and  O13_53 
ROOT
HETATM    1  C4  UNL     1      13.391  21.350  15.333  1.00  0.00    -0.030 A 
HETATM    2  C5  UNL     1      13.734  20.058  15.710  1.00  0.00     0.043 A 
HETATM    3  C6  UNL     1      14.219  19.127  14.821  1.00  0.00     0.085 A 
HETATM    4  C7  UNL     1      14.381  19.463  13.493  1.00  0.00     0.107 A 
HETATM    5  C8  UNL     1      14.049  20.747  13.072  1.00  0.00     0.042 A 
HETATM    6  C9  UNL     1      13.560  21.664  14.003  1.00  0.00     0.027 A 
HETATM    7  C10 UNL     1      14.213  21.066  11.758  1.00  0.00     0.141 A 
HETATM    8  N3  UNL     1      13.914  22.248  11.338  1.00  0.00    -0.383 N 
ATOM      9  H31 UNL     1      14.038  22.488  10.355  1.00  0.00     0.157 HD
ATOM     10  H32 UNL     1      13.553  22.952  11.983  1.00  0.00     0.157 HD
HETATM   11  N4  UNL     1      14.696  20.125  10.895  1.00  0.00    -0.188 N 
HETATM   12  C11 UNL     1      15.016  18.898  11.290  1.00  0.00     0.188 A 
HETATM   13  N6  UNL     1      14.852  18.583  12.587  1.00  0.00    -0.202 N 
ENDROOT
BRANCH  12  14
HETATM   14  C12 UNL     1      15.560  17.874  10.328  1.00  0.00     0.289 C 
BRANCH  14  15
HETATM   15  O4  UNL     1      14.573  17.652   9.411  1.00  0.00    -0.370 OA
ATOM     16  H4  UNL     1      14.491  16.709   9.334  1.00  0.00     0.212 HD
ENDBRANCH  14  15
BRANCH  14  17
HETATM   17  N5  UNL     1      16.865  18.177   9.890  1.00  0.00    -0.363 N 
ATOM     18  H5  UNL     1      17.640  18.329  10.536  1.00  0.00     0.158 HD
BRANCH  17  19
HETATM   19  C13 UNL     1      17.019  18.255   8.487  1.00  0.00     0.247 C 
BRANCH  19  20
HETATM   20  O5  UNL     1      17.424  17.011   7.937  1.00  0.00    -0.374 OA
ATOM     21  H5  UNL     1      17.161  16.929   7.028  1.00  0.00     0.212 HD
ENDBRANCH  19  20
BRANCH  19  22
HETATM   22  C14 UNL     1      17.773  19.381   7.891  1.00  0.00     0.200 C 
BRANCH  22  23
HETATM   23  O6  UNL     1      16.793  20.296   7.319  1.00  0.00    -0.388 OA
ATOM     24  H6  UNL     1      17.040  20.436   6.413  1.00  0.00     0.210 HD
ENDBRANCH  22  23
BRANCH  22  25
HETATM   25  C15 UNL     1      18.661  19.052   6.728  1.00  0.00     0.205 C 
BRANCH  25  26
HETATM   26  O7  UNL     1      19.845  18.401   7.081  1.00  0.00    -0.388 OA
ATOM     27  H7  UNL     1      20.554  18.524   6.460  1.00  0.00     0.210 HD
ENDBRANCH  25  26
BRANCH  25  28
HETATM   28  C16 UNL     1      18.834  20.106   5.726  1.00  0.00     0.285 C 
BRANCH  28  29
HETATM   29  O8  UNL     1      20.122  20.561   5.560  1.00  0.00    -0.369 OA
ATOM     30  H8  UNL     1      20.208  21.396   5.115  1.00  0.00     0.212 HD
ENDBRANCH  28  29
BRANCH  28  31
HETATM   31  O9  UNL     1      18.334  19.620   4.493  1.00  0.00    -0.369 OA
ATOM     32  H9  UNL     1      18.090  20.369   3.962  1.00  0.00     0.212 HD
ENDBRANCH  28  31
ENDBRANCH  25  28
ENDBRANCH  22  25
ENDBRANCH  19  22
ENDBRANCH  17  19
ENDBRANCH  14  17
ENDBRANCH  12  14
BRANCH  11  33
HETATM   33  O3  UNL     1      14.825  20.502   9.589  1.00  0.00    -0.280 OA
ATOM     34  H3  UNL     1      14.316  20.014   8.953  1.00  0.00     0.245 HD
ENDBRANCH  11  33
BRANCH  13  35
HETATM   35  O10 UNL     1      15.181  17.317  12.993  1.00  0.00    -0.281 OA
ATOM     36  H10 UNL     1      15.610  16.730  12.381  1.00  0.00     0.245 HD
ENDBRANCH  13  35
BRANCH   3  37
HETATM   37  N2  UNL     1      14.569  17.801  15.217  1.00  0.00    -0.267 N 
ATOM     38  H2  UNL     1      13.952  17.019  14.999  1.00  0.00     0.194 HD
BRANCH  37  39
HETATM   39  O2  UNL     1      15.639  17.608  15.835  1.00  0.00    -0.289 OA
ATOM     40  H2  UNL     1      16.413  18.103  15.593  1.00  0.00     0.244 HD
ENDBRANCH  37  39
ENDBRANCH   3  37
BRANCH   1  41
HETATM   41  C3  UNL     1      12.883  22.277  16.343  1.00  0.00     0.149 C 
HETATM   42  N1  UNL     1      11.968  21.664  17.286  1.00  0.00    -0.361 N 
HETATM   43  C2  UNL     1      10.760  22.048  17.077  1.00  0.00     0.146 C 
ATOM     44  H1  UNL     1      12.248  21.013  18.020  1.00  0.00     0.162 HD
HETATM   45  C20 UNL     1      10.686  22.996  15.940  1.00  0.00     0.224 C 
HETATM   46  C17 UNL     1      12.123  23.449  15.806  1.00  0.00     0.195 C 
BRANCH  43  47
HETATM   47  O1  UNL     1       9.654  21.623  17.834  1.00  0.00    -0.342 OA
HETATM   48  C1  UNL     1       8.497  21.098  17.194  1.00  0.00     0.211 C 
ENDBRANCH  43  47
BRANCH  45  49
HETATM   49  O13 UNL     1       9.861  24.083  16.219  1.00  0.00    -0.385 OA
ATOM     50  H13 UNL     1       9.789  24.245  17.153  1.00  0.00     0.210 HD
ENDBRANCH  45  49
BRANCH  46  51
HETATM   51  O11 UNL     1      12.298  24.530  16.702  1.00  0.00    -0.311 OA
BRANCH  51  52
HETATM   52  C18 UNL     1      12.680  25.804  16.297  1.00  0.00     0.255 C 
HETATM   53  C19 UNL     1      14.098  26.160  16.030  1.00  0.00     0.126 C 
HETATM   54  O12 UNL     1      11.766  26.655  16.163  1.00  0.00    -0.266 OA
ENDBRANCH  51  52
ENDBRANCH  46  51
ENDBRANCH   1  41
TORSDOF 21
ENDMDL
MODEL 5
REMARK VINA RESULT: -7.830695416      2.681      4.401
REMARK  21 active torsions:
REMARK  status: ('A' for Active; 'I' for Inactive)
REMARK    1  A    between atoms: O1_2  and  C2_3 
REMARK    2  A    between atoms: C3_6  and  C4_7 
REMARK    3  A    between atoms: C6_9  and  N2_10 
REMARK    4  A    between atoms: N2_10  and  O2_12 
REMARK    5  A    between atoms: N4_21  and  O3_22 
REMARK    6  A    between atoms: C11_24  and  C12_25 
REMARK    7  A    between atoms: C12_25  and  O4_26 
REMARK    8  A    between atoms: C12_25  and  N5_28 
REMARK    9  A    between atoms: N5_28  and  C13_30 
REMARK   10  A    between atoms: C13_30  and  O5_31 
REMARK   11  A    between atoms: C13_30  and  C14_33 
REMARK   12  A    between atoms: C14_33  and  O6_34 
REMARK   13  A    between atoms: C14_33  and  C15_36 
REMARK   14  A    between atoms: C15_36  and  O7_37 
REMARK   15  A    between atoms: C15_36  and  C16_39 
REMARK   16  A    between atoms: C16_39  and  O8_40 
REMARK   17  A    between atoms: C16_39  and  O9_42 
REMARK   18  A    between atoms: N6_44  and  O10_45 
REMARK   19  A    between atoms: C17_47  and  O11_48 
REMARK   20  A    between atoms: O11_48  and  C18_49 
REMARK   21  A    between atoms: C20_52  and  O13_53 
ROOT
HETATM    1  C4  UNL     1      15.504  21.352  14.686  1.00  0.00    -0.030 A 
HETATM    2  C5  UNL     1      15.061  21.992  13.536  1.00  0.00     0.043 A 
HETATM    3  C6  UNL     1      14.879  21.333  12.342  1.00  0.00     0.085 A 
HETATM    4  C7  UNL     1      15.140  19.982  12.253  1.00  0.00     0.107 A 
HETATM    5  C8  UNL     1      15.586  19.302  13.383  1.00  0.00     0.042 A 
HETATM    6  C9  UNL     1      15.758  20.003  14.577  1.00  0.00     0.027 A 
HETATM    7  C10 UNL     1      15.840  17.968  13.284  1.00  0.00     0.141 A 
HETATM    8  N3  UNL     1      16.254  17.310  14.313  1.00  0.00    -0.383 N 
ATOM      9  H31 UNL     1      16.444  16.311  14.239  1.00  0.00     0.157 HD
ATOM     10  H32 UNL     1      16.395  17.781  15.207  1.00  0.00     0.157 HD
HETATM   11  N4  UNL     1      15.652  17.337  12.087  1.00  0.00    -0.188 N 
HETATM   12  C11 UNL     1      15.226  17.980  11.006  1.00  0.00     0.188 A 
HETATM   13  N6  UNL     1      14.976  19.297  11.105  1.00  0.00    -0.202 N 
ENDROOT
BRANCH  12  14
HETATM   14  C12 UNL     1      15.010  17.267   9.697  1.00  0.00     0.289 C 
BRANCH  14  15
HETATM   15  O4  UNL     1      13.768  16.705   9.770  1.00  0.00    -0.370 OA
ATOM     16  H4  UNL     1      13.882  15.784   9.566  1.00  0.00     0.212 HD
ENDBRANCH  14  15
BRANCH  14  17
HETATM   17  N5  UNL     1      15.354  18.058   8.582  1.00  0.00    -0.363 N 
ATOM     18  H5  UNL     1      14.745  18.793   8.221  1.00  0.00     0.158 HD
BRANCH  17  19
HETATM   19  C13 UNL     1      16.606  17.755   8.000  1.00  0.00     0.247 C 
BRANCH  19  20
HETATM   20  O5  UNL     1      17.146  16.551   8.521  1.00  0.00    -0.374 OA
ATOM     21  H5  UNL     1      17.515  16.008   7.834  1.00  0.00     0.212 HD
ENDBRANCH  19  20
BRANCH  19  22
HETATM   22  C14 UNL     1      17.641  18.808   7.894  1.00  0.00     0.200 C 
BRANCH  22  23
HETATM   23  O6  UNL     1      16.942  20.087   7.836  1.00  0.00    -0.388 OA
ATOM     24  H6  UNL     1      16.608  20.261   8.708  1.00  0.00     0.210 HD
ENDBRANCH  22  23
BRANCH  22  25
HETATM   25  C15 UNL     1      18.470  18.810   6.644  1.00  0.00     0.205 C 
BRANCH  25  26
HETATM   26  O7  UNL     1      18.493  17.585   5.974  1.00  0.00    -0.388 OA
ATOM     27  H7  UNL     1      18.970  17.602   5.152  1.00  0.00     0.210 HD
ENDBRANCH  25  26
BRANCH  25  28
HETATM   28  C16 UNL     1      19.776  19.467   6.732  1.00  0.00     0.285 C 
BRANCH  28  29
HETATM   29  O8  UNL     1      20.810  18.817   6.100  1.00  0.00    -0.369 OA
ATOM     30  H8  UNL     1      21.052  19.163   5.248  1.00  0.00     0.212 HD
ENDBRANCH  28  29
BRANCH  28  31
HETATM   31  O9  UNL     1      19.640  20.776   6.209  1.00  0.00    -0.369 OA
ATOM     32  H9  UNL     1      18.760  20.861   5.860  1.00  0.00     0.212 HD
ENDBRANCH  28  31
ENDBRANCH  25  28
ENDBRANCH  22  25
ENDBRANCH  19  22
ENDBRANCH  17  19
ENDBRANCH  14  17
ENDBRANCH  12  14
BRANCH  11  33
HETATM   33  O3  UNL     1      15.937  16.002  12.049  1.00  0.00    -0.280 OA
ATOM     34  H3  UNL     1      16.134  15.634  11.196  1.00  0.00     0.245 HD
ENDBRANCH  11  33
BRANCH  13  35
HETATM   35  O10 UNL     1      14.538  19.959   9.989  1.00  0.00    -0.281 OA
ATOM     36  H10 UNL     1      15.156  20.161   9.296  1.00  0.00     0.245 HD
ENDBRANCH  13  35
BRANCH   3  37
HETATM   37  N2  UNL     1      14.424  21.999  11.164  1.00  0.00    -0.267 N 
ATOM     38  H2  UNL     1      15.072  22.197  10.401  1.00  0.00     0.194 HD
BRANCH  37  39
HETATM   39  O2  UNL     1      13.224  22.339  11.076  1.00  0.00    -0.289 OA
ATOM     40  H2  UNL     1      12.552  21.669  11.035  1.00  0.00     0.244 HD
ENDBRANCH  37  39
ENDBRANCH   3  37
BRANCH   1  41
HETATM   41  C3  UNL     1      15.670  22.128  15.915  1.00  0.00     0.149 C 
HETATM   42  N1  UNL     1      15.047  23.436  15.865  1.00  0.00    -0.361 N 
HETATM   43  C2  UNL     1      15.928  24.367  15.776  1.00  0.00     0.146 C 
ATOM     44  H1  UNL     1      14.040  23.596  15.897  1.00  0.00     0.162 HD
HETATM   45  C20 UNL     1      17.300  23.807  15.754  1.00  0.00     0.224 C 
HETATM   46  C17 UNL     1      17.088  22.413  16.300  1.00  0.00     0.195 C 
BRANCH  43  47
HETATM   47  O1  UNL     1      15.624  25.737  15.711  1.00  0.00    -0.342 OA
HETATM   48  C1  UNL     1      15.628  26.422  14.463  1.00  0.00     0.211 C 
ENDBRANCH  43  47
BRANCH  45  49
HETATM   49  O13 UNL     1      18.169  24.522  16.577  1.00  0.00    -0.385 OA
ATOM     50  H13 UNL     1      19.079  24.365  16.354  1.00  0.00     0.210 HD
ENDBRANCH  45  49
BRANCH  46  51
HETATM   51  O11 UNL     1      17.145  22.511  17.711  1.00  0.00    -0.311 OA
BRANCH  51  52
HETATM   52  C18 UNL     1      17.944  21.693  18.501  1.00  0.00     0.255 C 
HETATM   53  C19 UNL     1      18.978  22.240  19.418  1.00  0.00     0.126 C 
HETATM   54  O12 UNL     1      17.755  20.455  18.409  1.00  0.00    -0.266 OA
ENDBRANCH  51  52
ENDBRANCH  46  51
ENDBRANCH   1  41
TORSDOF 21
ENDMDL
