MODEL 1
REMARK VINA RESULT: -8.169075790      0.000      0.000
REMARK  17 active torsions:
REMARK  status: ('A' for Active; 'I' for Inactive)
REMARK    1  A    between atoms: O1_2  and  C2_3 
REMARK    2  A    between atoms: C3_5  and  C4_6 
REMARK    3  A    between atoms: C5_8  and  C6_9 
REMARK    4  A    between atoms: C6_9  and  O4_10 
REMARK    5  A    between atoms: C6_9  and  N1_12 
REMARK    6  A    between atoms: N1_12  and  O5_13 
REMARK    7  A    between atoms: N1_12  and  C7_17 
REMARK    8  A    between atoms: O5_13  and  S1_14 
REMARK    9  A    between atoms: C7_17  and  O8_18 
REMARK   10  A    between atoms: C7_17  and  O9_20 
REMARK   11  A    between atoms: C8_22  and  O10_23 
REMARK   12  A    between atoms: C10_27  and  O12_28 
REMARK   13  A    between atoms: C11_30  and  O13_31 
REMARK   14  A    between atoms: C11_30  and  C12_33 
REMARK   15  A    between atoms: C14_38  and  C15_39 
REMARK   16  A    between atoms: C15_39  and  O17_40 
REMARK   17  A    between atoms: C15_39  and  O18_42 
ROOT
HETATM    1  C4  UNL     1     -24.122  15.111 -23.090  1.00  0.00     0.123 A 
HETATM    2  O3  UNL     1     -24.937  14.175 -22.729  1.00  0.00    -0.306 OA
HETATM    3  C5  UNL     1     -24.634  13.104 -22.020  1.00  0.00     0.136 A 
HETATM    4  C8  UNL     1     -23.325  12.989 -21.638  1.00  0.00     0.153 A 
HETATM    5  C9  UNL     1     -22.390  13.949 -21.985  1.00  0.00     0.243 A 
HETATM    6  O11 UNL     1     -21.171  13.864 -21.643  1.00  0.00    -0.282 OA
HETATM    7  C10 UNL     1     -22.793  15.051 -22.736  1.00  0.00     0.152 A 
ENDROOT
BRANCH   1   8
HETATM    8  C3  UNL     1     -24.640  16.259 -23.897  1.00  0.00     0.237 C 
HETATM    9  O2  UNL     1     -25.298  15.784 -25.052  1.00  0.00    -0.339 OA
HETATM   10  C2  UNL     1     -25.282  16.807 -25.974  1.00  0.00     0.314 C 
HETATM   11  C16 UNL     1     -26.013  17.970 -25.412  1.00  0.00     0.100 A 
HETATM   12  C13 UNL     1     -26.213  18.092 -24.061  1.00  0.00     0.131 A 
HETATM   13  N2  UNL     1     -26.591  19.065 -25.970  1.00  0.00    -0.333 N 
HETATM   14  C11 UNL     1     -25.689  17.030 -23.134  1.00  0.00     0.230 C 
HETATM   15  O16 UNL     1     -26.876  19.207 -23.861  1.00  0.00    -0.291 OA
HETATM   16  C14 UNL     1     -27.117  19.811 -24.987  1.00  0.00     0.180 A 
ATOM     17  H2  UNL     1     -26.621  19.282 -26.966  1.00  0.00     0.168 HD
BRANCH  10  18
HETATM   18  O1  UNL     1     -25.819  16.450 -27.202  1.00  0.00    -0.360 OA
HETATM   19  C1  UNL     1     -27.197  16.275 -27.153  1.00  0.00     0.205 C 
ENDBRANCH  10  18
BRANCH  14  20
HETATM   20  O13 UNL     1     -25.194  17.701 -22.032  1.00  0.00    -0.370 OA
ATOM     21  H13 UNL     1     -25.862  18.145 -21.523  1.00  0.00     0.212 HD
ENDBRANCH  14  20
BRANCH  14  22
HETATM   22  C12 UNL     1     -26.868  16.176 -22.822  1.00  0.00     0.219 C 
HETATM   23  O14 UNL     1     -27.747  15.954 -23.672  1.00  0.00    -0.645 OA
HETATM   24  O15 UNL     1     -26.982  15.625 -21.567  1.00  0.00    -0.645 OA
ENDBRANCH  14  22
BRANCH  16  25
HETATM   25  C15 UNL     1     -27.857  21.114 -25.133  1.00  0.00     0.331 C 
BRANCH  25  26
HETATM   26  O17 UNL     1     -29.218  20.891 -25.309  1.00  0.00    -0.364 OA
ATOM     27  H17 UNL     1     -29.658  20.818 -24.470  1.00  0.00     0.213 HD
ENDBRANCH  25  26
BRANCH  25  28
HETATM   28  O18 UNL     1     -27.303  21.879 -26.140  1.00  0.00    -0.364 OA
ATOM     29  H18 UNL     1     -27.960  22.440 -26.535  1.00  0.00     0.213 HD
ENDBRANCH  25  28
ENDBRANCH  16  25
ENDBRANCH   1   8
BRANCH   7  30
HETATM   30  O12 UNL     1     -21.857  16.022 -23.086  1.00  0.00    -0.355 OA
ATOM     31  H12 UNL     1     -21.834  16.892 -22.704  1.00  0.00     0.218 HD
ENDBRANCH   7  30
BRANCH   3  32
HETATM   32  C6  UNL     1     -25.691  12.127 -21.697  1.00  0.00     0.285 C 
BRANCH  32  33
HETATM   33  O4  UNL     1     -26.893  12.434 -22.355  1.00  0.00    -0.372 OA
ATOM     34  H4  UNL     1     -27.621  12.482 -21.745  1.00  0.00     0.212 HD
ENDBRANCH  32  33
BRANCH  32  35
HETATM   35  N1  UNL     1     -25.318  10.772 -22.072  1.00  0.00    -0.090 NA
BRANCH  35  36
HETATM   36  O5  UNL     1     -25.509  10.686 -23.402  1.00  0.00    -0.156 OA
BRANCH  36  37
HETATM   37  S1  UNL     1     -24.093  10.355 -24.257  1.00  0.00     0.418 S 
HETATM   38  O6  UNL     1     -23.588  11.516 -25.068  1.00  0.00    -0.178 OA
HETATM   39  O7  UNL     1     -22.855   9.760 -23.247  1.00  0.00    -0.178 OA
ENDBRANCH  36  37
ENDBRANCH  35  36
BRANCH  35  40
HETATM   40  C7  UNL     1     -26.147   9.856 -21.327  1.00  0.00     0.367 C 
BRANCH  40  41
HETATM   41  O8  UNL     1     -27.340   9.573 -21.936  1.00  0.00    -0.357 OA
ATOM     42  H8  UNL     1     -27.248   9.215 -22.811  1.00  0.00     0.214 HD
ENDBRANCH  40  41
BRANCH  40  43
HETATM   43  O9  UNL     1     -25.505   8.675 -21.013  1.00  0.00    -0.357 OA
ATOM     44  H9  UNL     1     -25.426   8.084 -21.753  1.00  0.00     0.214 HD
ENDBRANCH  40  43
ENDBRANCH  35  40
ENDBRANCH  32  35
ENDBRANCH   3  32
BRANCH   4  45
HETATM   45  O10 UNL     1     -22.899  11.919 -20.896  1.00  0.00    -0.355 OA
ATOM     46  H10 UNL     1     -22.546  12.039 -20.023  1.00  0.00     0.218 HD
ENDBRANCH   4  45
TORSDOF 17
ENDMDL
MODEL 2
REMARK VINA RESULT: -7.973910844      6.178      9.347
REMARK  17 active torsions:
REMARK  status: ('A' for Active; 'I' for Inactive)
REMARK    1  A    between atoms: O1_2  and  C2_3 
REMARK    2  A    between atoms: C3_5  and  C4_6 
REMARK    3  A    between atoms: C5_8  and  C6_9 
REMARK    4  A    between atoms: C6_9  and  O4_10 
REMARK    5  A    between atoms: C6_9  and  N1_12 
REMARK    6  A    between atoms: N1_12  and  O5_13 
REMARK    7  A    between atoms: N1_12  and  C7_17 
REMARK    8  A    between atoms: O5_13  and  S1_14 
REMARK    9  A    between atoms: C7_17  and  O8_18 
REMARK   10  A    between atoms: C7_17  and  O9_20 
REMARK   11  A    between atoms: C8_22  and  O10_23 
REMARK   12  A    between atoms: C10_27  and  O12_28 
REMARK   13  A    between atoms: C11_30  and  O13_31 
REMARK   14  A    between atoms: C11_30  and  C12_33 
REMARK   15  A    between atoms: C14_38  and  C15_39 
REMARK   16  A    between atoms: C15_39  and  O17_40 
REMARK   17  A    between atoms: C15_39  and  O18_42 
ROOT
HETATM    1  C4  UNL     1     -21.520   9.630 -22.288  1.00  0.00     0.123 A 
HETATM    2  O3  UNL     1     -22.784   9.719 -22.036  1.00  0.00    -0.306 OA
HETATM    3  C5  UNL     1     -23.752   9.842 -22.924  1.00  0.00     0.136 A 
HETATM    4  C8  UNL     1     -23.363   9.874 -24.235  1.00  0.00     0.153 A 
HETATM    5  C9  UNL     1     -22.027   9.784 -24.588  1.00  0.00     0.243 A 
HETATM    6  O11 UNL     1     -21.641   9.813 -25.796  1.00  0.00    -0.282 OA
HETATM    7  C10 UNL     1     -21.065   9.657 -23.588  1.00  0.00     0.152 A 
ENDROOT
BRANCH   1   8
HETATM    8  C3  UNL     1     -20.556   9.497 -21.152  1.00  0.00     0.237 C 
HETATM    9  O2  UNL     1     -19.304   9.048 -21.624  1.00  0.00    -0.339 OA
HETATM   10  C2  UNL     1     -18.659   8.460 -20.560  1.00  0.00     0.314 C 
HETATM   11  C16 UNL     1     -18.467   9.475 -19.495  1.00  0.00     0.100 A 
HETATM   12  C13 UNL     1     -19.233  10.613 -19.458  1.00  0.00     0.131 A 
HETATM   13  N2  UNL     1     -17.630   9.562 -18.429  1.00  0.00    -0.333 N 
HETATM   14  C11 UNL     1     -20.280  10.838 -20.515  1.00  0.00     0.230 C 
HETATM   15  O16 UNL     1     -18.847  11.313 -18.418  1.00  0.00    -0.291 OA
HETATM   16  C14 UNL     1     -17.887  10.708 -17.782  1.00  0.00     0.180 A 
ATOM     17  H2  UNL     1     -16.926   8.873 -18.166  1.00  0.00     0.168 HD
BRANCH  10  18
HETATM   18  O1  UNL     1     -17.443   7.887 -20.902  1.00  0.00    -0.360 OA
HETATM   19  C1  UNL     1     -16.880   8.463 -22.035  1.00  0.00     0.205 C 
ENDBRANCH  10  18
BRANCH  14  20
HETATM   20  O13 UNL     1     -21.369  11.376 -19.858  1.00  0.00    -0.370 OA
ATOM     21  H13 UNL     1     -21.300  12.311 -19.706  1.00  0.00     0.212 HD
ENDBRANCH  14  20
BRANCH  14  22
HETATM   22  C12 UNL     1     -19.653  11.777 -21.484  1.00  0.00     0.219 C 
HETATM   23  O14 UNL     1     -18.469  11.645 -21.837  1.00  0.00    -0.645 OA
HETATM   24  O15 UNL     1     -20.403  12.812 -21.994  1.00  0.00    -0.645 OA
ENDBRANCH  14  22
BRANCH  16  25
HETATM   25  C15 UNL     1     -17.205  11.224 -16.544  1.00  0.00     0.331 C 
BRANCH  25  26
HETATM   26  O17 UNL     1     -17.123  10.230 -15.576  1.00  0.00    -0.364 OA
ATOM     27  H17 UNL     1     -16.973  10.607 -14.717  1.00  0.00     0.213 HD
ENDBRANCH  25  26
BRANCH  25  28
HETATM   28  O18 UNL     1     -17.825  12.370 -16.086  1.00  0.00    -0.364 OA
ATOM     29  H18 UNL     1     -17.312  12.777 -15.398  1.00  0.00     0.213 HD
ENDBRANCH  25  28
ENDBRANCH  16  25
ENDBRANCH   1   8
BRANCH   7  30
HETATM   30  O12 UNL     1     -19.721   9.563 -23.937  1.00  0.00    -0.355 OA
ATOM     31  H12 UNL     1     -19.336  10.018 -24.677  1.00  0.00     0.218 HD
ENDBRANCH   7  30
BRANCH   3  32
HETATM   32  C6  UNL     1     -25.150   9.936 -22.462  1.00  0.00     0.285 C 
BRANCH  32  33
HETATM   33  O4  UNL     1     -25.859  10.923 -23.166  1.00  0.00    -0.372 OA
ATOM     34  H4  UNL     1     -26.384  10.545 -23.862  1.00  0.00     0.212 HD
ENDBRANCH  32  33
BRANCH  32  35
HETATM   35  N1  UNL     1     -25.867   8.680 -22.626  1.00  0.00    -0.090 NA
BRANCH  35  36
HETATM   36  O5  UNL     1     -26.669   8.843 -23.695  1.00  0.00    -0.156 OA
BRANCH  36  37
HETATM   37  S1  UNL     1     -26.814   7.450 -24.634  1.00  0.00     0.418 S 
HETATM   38  O6  UNL     1     -28.229   6.970 -24.795  1.00  0.00    -0.178 OA
HETATM   39  O7  UNL     1     -26.075   7.623 -26.161  1.00  0.00    -0.178 OA
ENDBRANCH  36  37
ENDBRANCH  35  36
BRANCH  35  40
HETATM   40  C7  UNL     1     -26.600   8.421 -21.410  1.00  0.00     0.367 C 
BRANCH  40  41
HETATM   41  O8  UNL     1     -25.842   8.533 -20.275  1.00  0.00    -0.357 OA
ATOM     42  H8  UNL     1     -25.992   7.838 -19.645  1.00  0.00     0.214 HD
ENDBRANCH  40  41
BRANCH  40  43
HETATM   43  O9  UNL     1     -27.731   9.201 -21.281  1.00  0.00    -0.357 OA
ATOM     44  H9  UNL     1     -27.557  10.130 -21.370  1.00  0.00     0.214 HD
ENDBRANCH  40  43
ENDBRANCH  35  40
ENDBRANCH  32  35
ENDBRANCH   3  32
BRANCH   4  45
HETATM   45  O10 UNL     1     -24.284   9.995 -25.242  1.00  0.00    -0.355 OA
ATOM     46  H10 UNL     1     -24.817   9.255 -25.508  1.00  0.00     0.218 HD
ENDBRANCH   4  45
TORSDOF 17
ENDMDL
MODEL 3
REMARK VINA RESULT: -7.943767621      3.878      8.427
REMARK  17 active torsions:
REMARK  status: ('A' for Active; 'I' for Inactive)
REMARK    1  A    between atoms: O1_2  and  C2_3 
REMARK    2  A    between atoms: C3_5  and  C4_6 
REMARK    3  A    between atoms: C5_8  and  C6_9 
REMARK    4  A    between atoms: C6_9  and  O4_10 
REMARK    5  A    between atoms: C6_9  and  N1_12 
REMARK    6  A    between atoms: N1_12  and  O5_13 
REMARK    7  A    between atoms: N1_12  and  C7_17 
REMARK    8  A    between atoms: O5_13  and  S1_14 
REMARK    9  A    between atoms: C7_17  and  O8_18 
REMARK   10  A    between atoms: C7_17  and  O9_20 
REMARK   11  A    between atoms: C8_22  and  O10_23 
REMARK   12  A    between atoms: C10_27  and  O12_28 
REMARK   13  A    between atoms: C11_30  and  O13_31 
REMARK   14  A    between atoms: C11_30  and  C12_33 
REMARK   15  A    between atoms: C14_38  and  C15_39 
REMARK   16  A    between atoms: C15_39  and  O17_40 
REMARK   17  A    between atoms: C15_39  and  O18_42 
ROOT
HETATM    1  C4  UNL     1     -23.266  12.363 -23.142  1.00  0.00     0.123 A 
HETATM    2  O3  UNL     1     -24.125  13.199 -23.626  1.00  0.00    -0.306 OA
HETATM    3  C5  UNL     1     -25.031  13.872 -22.943  1.00  0.00     0.136 A 
HETATM    4  C8  UNL     1     -25.048  13.655 -21.592  1.00  0.00     0.153 A 
HETATM    5  C9  UNL     1     -24.161  12.775 -20.997  1.00  0.00     0.243 A 
HETATM    6  O11 UNL     1     -24.157  12.555 -19.748  1.00  0.00    -0.282 OA
HETATM    7  C10 UNL     1     -23.234  12.102 -21.790  1.00  0.00     0.152 A 
ENDROOT
BRANCH   1   8
HETATM    8  C3  UNL     1     -22.308  11.684 -24.068  1.00  0.00     0.237 C 
HETATM    9  O2  UNL     1     -21.381  10.914 -23.332  1.00  0.00    -0.339 OA
HETATM   10  C2  UNL     1     -20.268  10.756 -24.125  1.00  0.00     0.314 C 
HETATM   11  C16 UNL     1     -20.658  10.037 -25.363  1.00  0.00     0.100 A 
HETATM   12  C13 UNL     1     -21.966  10.000 -25.775  1.00  0.00     0.131 A 
HETATM   13  N2  UNL     1     -19.961   9.331 -26.290  1.00  0.00    -0.333 N 
HETATM   14  C11 UNL     1     -23.021  10.696 -24.959  1.00  0.00     0.230 C 
HETATM   15  O16 UNL     1     -22.009   9.304 -26.886  1.00  0.00    -0.291 OA
HETATM   16  C14 UNL     1     -20.822   8.890 -27.220  1.00  0.00     0.180 A 
ATOM     17  H2  UNL     1     -18.955   9.165 -26.282  1.00  0.00     0.168 HD
BRANCH  10  18
HETATM   18  O1  UNL     1     -19.229  10.092 -23.491  1.00  0.00    -0.360 OA
HETATM   19  C1  UNL     1     -19.678   9.119 -22.606  1.00  0.00     0.205 C 
ENDBRANCH  10  18
BRANCH  14  20
HETATM   20  O13 UNL     1     -23.876  11.286 -25.871  1.00  0.00    -0.370 OA
ATOM     21  H13 UNL     1     -23.777  12.228 -25.932  1.00  0.00     0.212 HD
ENDBRANCH  14  20
BRANCH  14  22
HETATM   22  C12 UNL     1     -23.665   9.616 -24.162  1.00  0.00     0.219 C 
HETATM   23  O14 UNL     1     -23.144   9.187 -23.119  1.00  0.00    -0.645 OA
HETATM   24  O15 UNL     1     -24.860   9.087 -24.594  1.00  0.00    -0.645 OA
ENDBRANCH  14  22
BRANCH  16  25
HETATM   25  C15 UNL     1     -20.500   8.065 -28.437  1.00  0.00     0.331 C 
BRANCH  25  26
HETATM   26  O17 UNL     1     -20.203   8.883 -29.522  1.00  0.00    -0.364 OA
ATOM     27  H17 UNL     1     -19.504   8.507 -30.045  1.00  0.00     0.213 HD
ENDBRANCH  25  26
BRANCH  25  28
HETATM   28  O18 UNL     1     -21.516   7.169 -28.702  1.00  0.00    -0.364 OA
ATOM     29  H18 UNL     1     -21.918   7.356 -29.542  1.00  0.00     0.213 HD
ENDBRANCH  25  28
ENDBRANCH  16  25
ENDBRANCH   1   8
BRANCH   7  30
HETATM   30  O12 UNL     1     -22.336  11.217 -21.198  1.00  0.00    -0.355 OA
ATOM     31  H12 UNL     1     -21.830  11.424 -20.420  1.00  0.00     0.218 HD
ENDBRANCH   7  30
BRANCH   3  32
HETATM   32  C6  UNL     1     -25.942  14.788 -23.656  1.00  0.00     0.285 C 
BRANCH  32  33
HETATM   33  O4  UNL     1     -27.243  14.731 -23.130  1.00  0.00    -0.372 OA
ATOM     34  H4  UNL     1     -27.895  14.934 -23.791  1.00  0.00     0.212 HD
ENDBRANCH  32  33
BRANCH  32  35
HETATM   35  N1  UNL     1     -25.499  16.171 -23.581  1.00  0.00    -0.090 NA
BRANCH  35  36
HETATM   36  O5  UNL     1     -26.594  16.927 -23.784  1.00  0.00    -0.156 OA
BRANCH  36  37
HETATM   37  S1  UNL     1     -26.567  18.378 -22.923  1.00  0.00     0.418 S 
HETATM   38  O6  UNL     1     -25.920  18.271 -21.571  1.00  0.00    -0.178 OA
HETATM   39  O7  UNL     1     -25.856  19.644 -23.817  1.00  0.00    -0.178 OA
ENDBRANCH  36  37
ENDBRANCH  35  36
BRANCH  35  40
HETATM   40  C7  UNL     1     -24.485  16.372 -24.589  1.00  0.00     0.367 C 
BRANCH  40  41
HETATM   41  O8  UNL     1     -24.976  16.389 -25.868  1.00  0.00    -0.357 OA
ATOM     42  H8  UNL     1     -24.490  16.955 -26.456  1.00  0.00     0.214 HD
ENDBRANCH  40  41
BRANCH  40  43
HETATM   43  O9  UNL     1     -23.727  17.505 -24.378  1.00  0.00    -0.357 OA
ATOM     44  H9  UNL     1     -23.806  18.143 -25.077  1.00  0.00     0.214 HD
ENDBRANCH  40  43
ENDBRANCH  35  40
ENDBRANCH  32  35
ENDBRANCH   3  32
BRANCH   4  45
HETATM   45  O10 UNL     1     -25.945  14.303 -20.785  1.00  0.00    -0.355 OA
ATOM     46  H10 UNL     1     -26.704  13.852 -20.435  1.00  0.00     0.218 HD
ENDBRANCH   4  45
TORSDOF 17
ENDMDL
MODEL 4
REMARK VINA RESULT: -7.884542477      1.095      1.812
REMARK  17 active torsions:
REMARK  status: ('A' for Active; 'I' for Inactive)
REMARK    1  A    between atoms: O1_2  and  C2_3 
REMARK    2  A    between atoms: C3_5  and  C4_6 
REMARK    3  A    between atoms: C5_8  and  C6_9 
REMARK    4  A    between atoms: C6_9  and  O4_10 
REMARK    5  A    between atoms: C6_9  and  N1_12 
REMARK    6  A    between atoms: N1_12  and  O5_13 
REMARK    7  A    between atoms: N1_12  and  C7_17 
REMARK    8  A    between atoms: O5_13  and  S1_14 
REMARK    9  A    between atoms: C7_17  and  O8_18 
REMARK   10  A    between atoms: C7_17  and  O9_20 
REMARK   11  A    between atoms: C8_22  and  O10_23 
REMARK   12  A    between atoms: C10_27  and  O12_28 
REMARK   13  A    between atoms: C11_30  and  O13_31 
REMARK   14  A    between atoms: C11_30  and  C12_33 
REMARK   15  A    between atoms: C14_38  and  C15_39 
REMARK   16  A    between atoms: C15_39  and  O17_40 
REMARK   17  A    between atoms: C15_39  and  O18_42 
ROOT
HETATM    1  C4  UNL     1     -23.913  15.229 -23.766  1.00  0.00     0.123 A 
HETATM    2  O3  UNL     1     -24.500  14.078 -23.794  1.00  0.00    -0.306 OA
HETATM    3  C5  UNL     1     -24.054  12.960 -23.255  1.00  0.00     0.136 A 
HETATM    4  C8  UNL     1     -22.851  13.044 -22.607  1.00  0.00     0.153 A 
HETATM    5  C9  UNL     1     -22.160  14.241 -22.533  1.00  0.00     0.243 A 
HETATM    6  O11 UNL     1     -21.044  14.344 -21.939  1.00  0.00    -0.282 OA
HETATM    7  C10 UNL     1     -22.702  15.378 -23.129  1.00  0.00     0.152 A 
ENDROOT
BRANCH   1   8
HETATM    8  C3  UNL     1     -24.566  16.398 -24.434  1.00  0.00     0.237 C 
HETATM    9  O2  UNL     1     -25.381  15.958 -25.499  1.00  0.00    -0.339 OA
HETATM   10  C2  UNL     1     -25.520  17.018 -26.365  1.00  0.00     0.314 C 
HETATM   11  C16 UNL     1     -26.179  18.139 -25.649  1.00  0.00     0.100 A 
HETATM   12  C13 UNL     1     -26.178  18.198 -24.278  1.00  0.00     0.131 A 
HETATM   13  N2  UNL     1     -26.854  19.242 -26.063  1.00  0.00    -0.333 N 
HETATM   14  C11 UNL     1     -25.503  17.110 -23.489  1.00  0.00     0.230 C 
HETATM   15  O16 UNL     1     -26.824  19.286 -23.931  1.00  0.00    -0.291 OA
HETATM   16  C14 UNL     1     -27.241  19.932 -24.980  1.00  0.00     0.180 A 
ATOM     17  H2  UNL     1     -27.035  19.501 -27.033  1.00  0.00     0.168 HD
BRANCH  10  18
HETATM   18  O1  UNL     1     -26.227  16.702 -27.515  1.00  0.00    -0.360 OA
HETATM   19  C1  UNL     1     -27.507  16.230 -27.243  1.00  0.00     0.205 C 
ENDBRANCH  10  18
BRANCH  14  20
HETATM   20  O13 UNL     1     -24.861  17.745 -22.443  1.00  0.00    -0.370 OA
ATOM     21  H13 UNL     1     -25.429  17.935 -21.705  1.00  0.00     0.212 HD
ENDBRANCH  14  20
BRANCH  14  22
HETATM   22  C12 UNL     1     -26.607  16.215 -23.046  1.00  0.00     0.219 C 
HETATM   23  O14 UNL     1     -27.534  15.906 -23.812  1.00  0.00    -0.645 OA
HETATM   24  O15 UNL     1     -26.595  15.724 -21.760  1.00  0.00    -0.645 OA
ENDBRANCH  14  22
BRANCH  16  25
HETATM   25  C15 UNL     1     -28.016  21.222 -24.955  1.00  0.00     0.331 C 
BRANCH  25  26
HETATM   26  O17 UNL     1     -29.352  21.000 -25.273  1.00  0.00    -0.364 OA
ATOM     27  H17 UNL     1     -29.814  20.618 -24.536  1.00  0.00     0.213 HD
ENDBRANCH  25  26
BRANCH  25  28
HETATM   28  O18 UNL     1     -27.420  22.165 -25.767  1.00  0.00    -0.364 OA
ATOM     29  H18 UNL     1     -28.077  22.693 -26.206  1.00  0.00     0.213 HD
ENDBRANCH  25  28
ENDBRANCH  16  25
ENDBRANCH   1   8
BRANCH   7  30
HETATM   30  O12 UNL     1     -22.012  16.586 -23.056  1.00  0.00    -0.355 OA
ATOM     31  H12 UNL     1     -21.196  16.698 -22.582  1.00  0.00     0.218 HD
ENDBRANCH   7  30
BRANCH   3  32
HETATM   32  C6  UNL     1     -24.852  11.725 -23.383  1.00  0.00     0.285 C 
BRANCH  32  33
HETATM   33  O4  UNL     1     -24.342  10.886 -24.387  1.00  0.00    -0.372 OA
ATOM     34  H4  UNL     1     -25.023  10.339 -24.763  1.00  0.00     0.212 HD
ENDBRANCH  32  33
BRANCH  32  35
HETATM   35  N1  UNL     1     -24.883  10.962 -22.146  1.00  0.00    -0.090 NA
BRANCH  35  36
HETATM   36  O5  UNL     1     -24.957   9.667 -22.507  1.00  0.00    -0.156 OA
BRANCH  36  37
HETATM   37  S1  UNL     1     -26.423   8.944 -22.088  1.00  0.00     0.418 S 
HETATM   38  O6  UNL     1     -26.864   7.868 -23.040  1.00  0.00    -0.178 OA
HETATM   39  O7  UNL     1     -26.414   8.348 -20.491  1.00  0.00    -0.178 OA
ENDBRANCH  36  37
ENDBRANCH  35  36
BRANCH  35  40
HETATM   40  C7  UNL     1     -26.026  11.395 -21.380  1.00  0.00     0.367 C 
BRANCH  40  41
HETATM   41  O8  UNL     1     -25.772  11.533 -20.041  1.00  0.00    -0.357 OA
ATOM     42  H8  UNL     1     -26.556  11.611 -19.509  1.00  0.00     0.214 HD
ENDBRANCH  40  41
BRANCH  40  43
HETATM   43  O9  UNL     1     -26.590  12.560 -21.857  1.00  0.00    -0.357 OA
ATOM     44  H9  UNL     1     -27.185  12.417 -22.584  1.00  0.00     0.214 HD
ENDBRANCH  40  43
ENDBRANCH  35  40
ENDBRANCH  32  35
ENDBRANCH   3  32
BRANCH   4  45
HETATM   45  O10 UNL     1     -22.295  11.945 -22.008  1.00  0.00    -0.355 OA
ATOM     46  H10 UNL     1     -22.729  11.100 -22.037  1.00  0.00     0.218 HD
ENDBRANCH   4  45
TORSDOF 17
ENDMDL
MODEL 5
REMARK VINA RESULT: -7.799229422      5.161      9.445
REMARK  17 active torsions:
REMARK  status: ('A' for Active; 'I' for Inactive)
REMARK    1  A    between atoms: O1_2  and  C2_3 
REMARK    2  A    between atoms: C3_5  and  C4_6 
REMARK    3  A    between atoms: C5_8  and  C6_9 
REMARK    4  A    between atoms: C6_9  and  O4_10 
REMARK    5  A    between atoms: C6_9  and  N1_12 
REMARK    6  A    between atoms: N1_12  and  O5_13 
REMARK    7  A    between atoms: N1_12  and  C7_17 
REMARK    8  A    between atoms: O5_13  and  S1_14 
REMARK    9  A    between atoms: C7_17  and  O8_18 
REMARK   10  A    between atoms: C7_17  and  O9_20 
REMARK   11  A    between atoms: C8_22  and  O10_23 
REMARK   12  A    between atoms: C10_27  and  O12_28 
REMARK   13  A    between atoms: C11_30  and  O13_31 
REMARK   14  A    between atoms: C11_30  and  C12_33 
REMARK   15  A    between atoms: C14_38  and  C15_39 
REMARK   16  A    between atoms: C15_39  and  O17_40 
REMARK   17  A    between atoms: C15_39  and  O18_42 
ROOT
HETATM    1  C4  UNL     1     -26.226  23.380 -25.839  1.00  0.00     0.123 A 
HETATM    2  O3  UNL     1     -25.804  22.187 -26.100  1.00  0.00    -0.306 OA
HETATM    3  C5  UNL     1     -26.489  21.068 -25.965  1.00  0.00     0.136 A 
HETATM    4  C8  UNL     1     -27.771  21.201 -25.504  1.00  0.00     0.153 A 
HETATM    5  C9  UNL     1     -28.297  22.445 -25.201  1.00  0.00     0.243 A 
HETATM    6  O11 UNL     1     -29.481  22.595 -24.772  1.00  0.00    -0.282 OA
HETATM    7  C10 UNL     1     -27.506  23.579 -25.372  1.00  0.00     0.152 A 
ENDROOT
BRANCH   1   8
HETATM    8  C3  UNL     1     -25.307  24.542 -26.050  1.00  0.00     0.237 C 
HETATM    9  O2  UNL     1     -24.842  25.027 -24.809  1.00  0.00    -0.339 OA
HETATM   10  C2  UNL     1     -24.464  26.336 -25.004  1.00  0.00     0.314 C 
HETATM   11  C16 UNL     1     -23.372  26.376 -26.008  1.00  0.00     0.100 A 
HETATM   12  C13 UNL     1     -23.170  25.330 -26.872  1.00  0.00     0.131 A 
HETATM   13  N2  UNL     1     -22.422  27.295 -26.316  1.00  0.00    -0.333 N 
HETATM   14  C11 UNL     1     -24.066  24.123 -26.800  1.00  0.00     0.230 C 
HETATM   15  O16 UNL     1     -22.151  25.643 -27.637  1.00  0.00    -0.291 OA
HETATM   16  C14 UNL     1     -21.682  26.815 -27.326  1.00  0.00     0.180 A 
ATOM     17  H2  UNL     1     -22.294  28.197 -25.858  1.00  0.00     0.168 HD
BRANCH  10  18
HETATM   18  O1  UNL     1     -24.068  26.975 -23.839  1.00  0.00    -0.360 OA
HETATM   19  C1  UNL     1     -23.418  26.121 -22.955  1.00  0.00     0.205 C 
ENDBRANCH  10  18
BRANCH  14  20
HETATM   20  O13 UNL     1     -24.306  23.752 -28.109  1.00  0.00    -0.370 OA
ATOM     21  H13 UNL     1     -23.558  23.872 -28.684  1.00  0.00     0.212 HD
ENDBRANCH  14  20
BRANCH  14  22
HETATM   22  C12 UNL     1     -23.287  23.112 -26.035  1.00  0.00     0.219 C 
HETATM   23  O14 UNL     1     -23.038  23.268 -24.828  1.00  0.00    -0.645 OA
HETATM   24  O15 UNL     1     -22.835  21.984 -26.682  1.00  0.00    -0.645 OA
ENDBRANCH  14  22
BRANCH  16  25
HETATM   25  C15 UNL     1     -20.514  27.489 -27.997  1.00  0.00     0.331 C 
BRANCH  25  26
HETATM   26  O17 UNL     1     -20.147  26.806 -29.151  1.00  0.00    -0.364 OA
ATOM     27  H17 UNL     1     -19.922  27.414 -29.845  1.00  0.00     0.213 HD
ENDBRANCH  25  26
BRANCH  25  28
HETATM   28  O18 UNL     1     -19.469  27.649 -27.111  1.00  0.00    -0.364 OA
ATOM     29  H18 UNL     1     -19.720  27.364 -26.241  1.00  0.00     0.213 HD
ENDBRANCH  25  28
ENDBRANCH  16  25
ENDBRANCH   1   8
BRANCH   7  30
HETATM   30  O12 UNL     1     -28.030  24.834 -25.072  1.00  0.00    -0.355 OA
ATOM     31  H12 UNL     1     -27.601  25.651 -25.297  1.00  0.00     0.218 HD
ENDBRANCH   7  30
BRANCH   3  32
HETATM   32  C6  UNL     1     -25.851  19.782 -26.306  1.00  0.00     0.285 C 
BRANCH  32  33
HETATM   33  O4  UNL     1     -24.463  19.826 -26.099  1.00  0.00    -0.372 OA
ATOM     34  H4  UNL     1     -23.986  19.556 -26.876  1.00  0.00     0.212 HD
ENDBRANCH  32  33
BRANCH  32  35
HETATM   35  N1  UNL     1     -26.378  18.682 -25.515  1.00  0.00    -0.090 NA
BRANCH  35  36
HETATM   36  O5  UNL     1     -25.736  18.729 -24.333  1.00  0.00    -0.156 OA
BRANCH  36  37
HETATM   37  S1  UNL     1     -26.684  18.203 -23.040  1.00  0.00     0.418 S 
HETATM   38  O6  UNL     1     -27.251  16.823 -23.224  1.00  0.00    -0.178 OA
HETATM   39  O7  UNL     1     -25.858  18.307 -21.552  1.00  0.00    -0.178 OA
ENDBRANCH  36  37
ENDBRANCH  35  36
BRANCH  35  40
HETATM   40  C7  UNL     1     -26.135  17.455 -26.235  1.00  0.00     0.367 C 
BRANCH  40  41
HETATM   41  O8  UNL     1     -25.092  16.720 -25.736  1.00  0.00    -0.357 OA
ATOM     42  H8  UNL     1     -24.622  16.226 -26.397  1.00  0.00     0.214 HD
ENDBRANCH  40  41
BRANCH  40  43
HETATM   43  O9  UNL     1     -27.253  16.650 -26.330  1.00  0.00    -0.357 OA
ATOM     44  H9  UNL     1     -27.160  15.825 -25.869  1.00  0.00     0.214 HD
ENDBRANCH  40  43
ENDBRANCH  35  40
ENDBRANCH  32  35
ENDBRANCH   3  32
BRANCH   4  45
HETATM   45  O10 UNL     1     -28.575  20.106 -25.329  1.00  0.00    -0.355 OA
ATOM     46  H10 UNL     1     -29.315  20.133 -24.735  1.00  0.00     0.218 HD
ENDBRANCH   4  45
TORSDOF 17
ENDMDL
