MODEL 1
REMARK VINA RESULT: -6.829373430      0.000      0.000
REMARK  20 active torsions:
REMARK  status: ('A' for Active; 'I' for Inactive)
REMARK    1  A    between atoms: O1_2  and  C2_3 
REMARK    2  A    between atoms: C4_5  and  O2_6 
REMARK    3  A    between atoms: C5_8  and  O3_9 
REMARK    4  A    between atoms: C5_8  and  C6_11 
REMARK    5  A    between atoms: C8_16  and  O7_17 
REMARK    6  A    between atoms: C9_19  and  N1_20 
REMARK    7  A    between atoms: N1_20  and  C10_22 
REMARK    8  A    between atoms: C10_22  and  C11_23 
REMARK    9  A    between atoms: C11_23  and  C12_24 
REMARK   10  A    between atoms: C13_25  and  O8_26 
REMARK   11  A    between atoms: C14_28  and  N2_29 
REMARK   12  A    between atoms: N2_29  and  O9_31 
REMARK   13  A    between atoms: C16_34  and  O10_35 
REMARK   14  A    between atoms: C17_37  and  C18_38 
REMARK   15  A    between atoms: C18_38  and  O11_39 
REMARK   16  A    between atoms: C18_38  and  O12_41 
REMARK   17  A    between atoms: O12_41  and  N3_42 
REMARK   18  A    between atoms: C19_45  and  O13_46 
REMARK   19  A    between atoms: C19_45  and  C20_48 
REMARK   20  A    between atoms: C20_48  and  O14_49 
ROOT
HETATM    1  C2  UNL     1      -4.101 -17.862   6.606  1.00  0.00     0.097 A 
HETATM    2  C3  UNL     1      -3.428 -17.463   5.592  1.00  0.00     0.033 A 
HETATM    3  C4  UNL     1      -3.392 -17.162   4.141  1.00  0.00     0.207 C 
HETATM    4  C5  UNL     1      -2.799 -15.737   4.212  1.00  0.00     0.240 C 
HETATM    5  C7  UNL     1      -1.999 -15.748   5.510  1.00  0.00     0.219 C 
HETATM    6  O6  UNL     1      -1.519 -14.756   5.978  1.00  0.00    -0.290 OA
HETATM    7  C8  UNL     1      -1.986 -17.141   5.968  1.00  0.00     0.193 A 
HETATM    8  C9  UNL     1      -1.915 -17.463   7.359  1.00  0.00     0.076 A 
HETATM    9  C19 UNL     1      -3.298 -17.855   7.817  1.00  0.00     0.169 A 
ENDROOT
BRANCH   8  10
HETATM   10  N1  UNL     1      -0.960 -17.515   8.221  1.00  0.00    -0.370 N 
ATOM     11  H1  UNL     1      -0.623 -16.639   8.622  1.00  0.00     0.164 HD
BRANCH  10  12
HETATM   12  C10 UNL     1      -0.363 -18.697   8.632  1.00  0.00     0.065 C 
BRANCH  12  13
HETATM   13  C11 UNL     1       0.688 -19.253   7.693  1.00  0.00     0.086 C 
BRANCH  13  14
HETATM   14  C12 UNL     1       1.737 -20.007   8.368  1.00  0.00    -0.004 A 
HETATM   15  C13 UNL     1       2.950 -19.330   8.593  1.00  0.00     0.101 A 
HETATM   16  C14 UNL     1       4.002 -19.925   9.262  1.00  0.00     0.090 A 
HETATM   17  C15 UNL     1       3.847 -21.216   9.712  1.00  0.00     0.071 A 
HETATM   18  C16 UNL     1       2.678 -21.898   9.505  1.00  0.00     0.079 A 
HETATM   19  C17 UNL     1       1.604 -21.300   8.826  1.00  0.00     0.041 A 
BRANCH  15  20
HETATM   20  O8  UNL     1       3.154 -18.032   8.152  1.00  0.00    -0.358 OA
ATOM     21  H8  UNL     1       3.079 -17.798   7.234  1.00  0.00     0.217 HD
ENDBRANCH  15  20
BRANCH  16  22
HETATM   22  N2  UNL     1       5.227 -19.234   9.488  1.00  0.00    -0.267 N 
ATOM     23  H2  UNL     1       5.688 -19.316  10.394  1.00  0.00     0.194 HD
BRANCH  22  24
HETATM   24  O9  UNL     1       5.783 -18.479   8.535  1.00  0.00    -0.289 OA
ATOM     25  H9  UNL     1       6.726 -18.382   8.471  1.00  0.00     0.244 HD
ENDBRANCH  22  24
ENDBRANCH  16  22
BRANCH  18  26
HETATM   26  O10 UNL     1       2.534 -23.189   9.959  1.00  0.00    -0.360 OA
ATOM     27  H10 UNL     1       1.765 -23.441  10.458  1.00  0.00     0.217 HD
ENDBRANCH  18  26
BRANCH  19  28
HETATM   28  C18 UNL     1       0.387 -22.084   8.615  1.00  0.00     0.322 C 
BRANCH  28  29
HETATM   29  O11 UNL     1      -0.342 -22.380   9.761  1.00  0.00    -0.365 OA
ATOM     30  H11 UNL     1       0.152 -22.775  10.470  1.00  0.00     0.213 HD
ENDBRANCH  28  29
BRANCH  28  31
HETATM   31  O12 UNL     1       0.543 -23.197   7.805  1.00  0.00    -0.250 OA
BRANCH  31  32
HETATM   32  N3  UNL     1       0.153 -24.326   8.425  1.00  0.00    -0.308 N 
ATOM     33  H32 UNL     1       0.103 -24.418   9.439  1.00  0.00     0.184 HD
ATOM     34  H31 UNL     1      -0.081 -25.062   7.759  1.00  0.00     0.184 HD
ENDBRANCH  31  32
ENDBRANCH  28  31
ENDBRANCH  19  28
ENDBRANCH  13  14
ENDBRANCH  12  13
ENDBRANCH  10  12
ENDBRANCH   8  10
BRANCH   7  35
HETATM   35  O7  UNL     1      -1.158 -17.942   5.156  1.00  0.00    -0.372 OA
ATOM     36  H7  UNL     1      -0.310 -17.515   5.115  1.00  0.00     0.212 HD
ENDBRANCH   7  35
BRANCH   9  37
HETATM   37  O13 UNL     1      -3.301 -19.133   8.374  1.00  0.00    -0.375 OA
ATOM     38  H13 UNL     1      -3.791 -19.116   9.187  1.00  0.00     0.211 HD
ENDBRANCH   9  37
BRANCH   9  39
HETATM   39  C20 UNL     1      -3.800 -16.887   8.865  1.00  0.00     0.215 C 
BRANCH  39  40
HETATM   40  O14 UNL     1      -3.248 -15.623   8.691  1.00  0.00    -0.397 OA
ATOM     41  H14 UNL     1      -3.906 -14.943   8.781  1.00  0.00     0.209 HD
ENDBRANCH  39  40
ENDBRANCH   9  39
BRANCH   1  42
HETATM   42  O1  UNL     1      -5.448 -18.261   6.602  1.00  0.00    -0.356 OA
HETATM   43  C1  UNL     1      -5.879 -19.445   5.971  1.00  0.00     0.209 C 
ENDBRANCH   1  42
BRANCH   3  44
HETATM   44  O2  UNL     1      -4.633 -17.154   3.557  1.00  0.00    -0.387 OA
ATOM     45  H2  UNL     1      -4.657 -16.689   2.729  1.00  0.00     0.210 HD
ENDBRANCH   3  44
BRANCH   4  46
HETATM   46  O3  UNL     1      -3.870 -14.867   4.339  1.00  0.00    -0.370 OA
ATOM     47  H3  UNL     1      -3.530 -13.993   4.192  1.00  0.00     0.212 HD
ENDBRANCH   4  46
BRANCH   4  48
HETATM   48  C6  UNL     1      -1.960 -15.438   3.055  1.00  0.00     0.220 C 
HETATM   49  O4  UNL     1      -1.170 -16.282   2.581  1.00  0.00    -0.645 OA
HETATM   50  O5  UNL     1      -2.006 -14.194   2.428  1.00  0.00    -0.645 OA
ENDBRANCH   4  48
TORSDOF 20
ENDMDL
MODEL 2
REMARK VINA RESULT: -6.366966350      1.042      2.962
REMARK  20 active torsions:
REMARK  status: ('A' for Active; 'I' for Inactive)
REMARK    1  A    between atoms: O1_2  and  C2_3 
REMARK    2  A    between atoms: C4_5  and  O2_6 
REMARK    3  A    between atoms: C5_8  and  O3_9 
REMARK    4  A    between atoms: C5_8  and  C6_11 
REMARK    5  A    between atoms: C8_16  and  O7_17 
REMARK    6  A    between atoms: C9_19  and  N1_20 
REMARK    7  A    between atoms: N1_20  and  C10_22 
REMARK    8  A    between atoms: C10_22  and  C11_23 
REMARK    9  A    between atoms: C11_23  and  C12_24 
REMARK   10  A    between atoms: C13_25  and  O8_26 
REMARK   11  A    between atoms: C14_28  and  N2_29 
REMARK   12  A    between atoms: N2_29  and  O9_31 
REMARK   13  A    between atoms: C16_34  and  O10_35 
REMARK   14  A    between atoms: C17_37  and  C18_38 
REMARK   15  A    between atoms: C18_38  and  O11_39 
REMARK   16  A    between atoms: C18_38  and  O12_41 
REMARK   17  A    between atoms: O12_41  and  N3_42 
REMARK   18  A    between atoms: C19_45  and  O13_46 
REMARK   19  A    between atoms: C19_45  and  C20_48 
REMARK   20  A    between atoms: C20_48  and  O14_49 
ROOT
HETATM    1  C2  UNL     1      -4.211 -17.801   6.504  1.00  0.00     0.097 A 
HETATM    2  C3  UNL     1      -3.511 -17.410   5.505  1.00  0.00     0.033 A 
HETATM    3  C4  UNL     1      -3.441 -17.097   4.058  1.00  0.00     0.207 C 
HETATM    4  C5  UNL     1      -2.812 -15.688   4.154  1.00  0.00     0.240 C 
HETATM    5  C7  UNL     1      -2.037 -15.731   5.466  1.00  0.00     0.219 C 
HETATM    6  O6  UNL     1      -1.540 -14.757   5.951  1.00  0.00    -0.290 OA
HETATM    7  C8  UNL     1      -2.067 -17.129   5.910  1.00  0.00     0.193 A 
HETATM    8  C9  UNL     1      -2.030 -17.465   7.300  1.00  0.00     0.076 A 
HETATM    9  C19 UNL     1      -3.431 -17.826   7.728  1.00  0.00     0.169 A 
ENDROOT
BRANCH   8  10
HETATM   10  N1  UNL     1      -1.092 -17.549   8.178  1.00  0.00    -0.370 N 
ATOM     11  H1  UNL     1      -0.729 -16.685   8.581  1.00  0.00     0.164 HD
BRANCH  10  12
HETATM   12  C10 UNL     1      -0.549 -18.751   8.604  1.00  0.00     0.065 C 
BRANCH  12  13
HETATM   13  C11 UNL     1       0.543 -19.319   7.719  1.00  0.00     0.086 C 
BRANCH  13  14
HETATM   14  C12 UNL     1       1.379 -20.311   8.383  1.00  0.00    -0.004 A 
HETATM   15  C13 UNL     1       0.887 -21.629   8.407  1.00  0.00     0.101 A 
HETATM   16  C14 UNL     1       1.609 -22.665   8.969  1.00  0.00     0.090 A 
HETATM   17  C15 UNL     1       2.839 -22.385   9.518  1.00  0.00     0.071 A 
HETATM   18  C16 UNL     1       3.340 -21.111   9.509  1.00  0.00     0.079 A 
HETATM   19  C17 UNL     1       2.613 -20.053   8.940  1.00  0.00     0.041 A 
BRANCH  15  20
HETATM   20  O8  UNL     1      -0.348 -21.958   7.873  1.00  0.00    -0.358 OA
ATOM     21  H8  UNL     1      -0.571 -22.852   7.640  1.00  0.00     0.217 HD
ENDBRANCH  15  20
BRANCH  16  22
HETATM   22  N2  UNL     1       1.107 -23.998   8.989  1.00  0.00    -0.267 N 
ATOM     23  H2  UNL     1       0.953 -24.461   9.885  1.00  0.00     0.194 HD
BRANCH  22  24
HETATM   24  O9  UNL     1       0.832 -24.652   7.856  1.00  0.00    -0.289 OA
ATOM     25  H9  UNL     1       0.162 -25.325   7.826  1.00  0.00     0.244 HD
ENDBRANCH  22  24
ENDBRANCH  16  22
BRANCH  18  26
HETATM   26  O10 UNL     1       4.572 -20.842  10.061  1.00  0.00    -0.360 OA
ATOM     27  H10 UNL     1       4.641 -20.326  10.857  1.00  0.00     0.217 HD
ENDBRANCH  18  26
BRANCH  19  28
HETATM   28  C18 UNL     1       3.189 -18.709   8.979  1.00  0.00     0.322 C 
BRANCH  28  29
HETATM   29  O11 UNL     1       4.446 -18.578   8.401  1.00  0.00    -0.365 OA
ATOM     30  H11 UNL     1       4.640 -19.189   7.700  1.00  0.00     0.213 HD
ENDBRANCH  28  29
BRANCH  28  31
HETATM   31  O12 UNL     1       3.124 -18.082  10.211  1.00  0.00    -0.250 OA
BRANCH  31  32
HETATM   32  N3  UNL     1       2.080 -17.236  10.288  1.00  0.00    -0.308 N 
ATOM     33  H32 UNL     1       1.624 -16.835   9.469  1.00  0.00     0.184 HD
ATOM     34  H31 UNL     1       1.811 -17.052  11.255  1.00  0.00     0.184 HD
ENDBRANCH  31  32
ENDBRANCH  28  31
ENDBRANCH  19  28
ENDBRANCH  13  14
ENDBRANCH  12  13
ENDBRANCH  10  12
ENDBRANCH   8  10
BRANCH   7  35
HETATM   35  O7  UNL     1      -1.245 -17.943   5.106  1.00  0.00    -0.372 OA
ATOM     36  H7  UNL     1      -1.513 -17.805   4.205  1.00  0.00     0.212 HD
ENDBRANCH   7  35
BRANCH   9  37
HETATM   37  O13 UNL     1      -3.476 -19.108   8.273  1.00  0.00    -0.375 OA
ATOM     38  H13 UNL     1      -2.788 -19.195   8.922  1.00  0.00     0.211 HD
ENDBRANCH   9  37
BRANCH   9  39
HETATM   39  C20 UNL     1      -3.927 -16.854   8.777  1.00  0.00     0.215 C 
BRANCH  39  40
HETATM   40  O14 UNL     1      -3.364 -15.595   8.605  1.00  0.00    -0.397 OA
ATOM     41  H14 UNL     1      -3.239 -15.156   9.439  1.00  0.00     0.209 HD
ENDBRANCH  39  40
ENDBRANCH   9  39
BRANCH   1  42
HETATM   42  O1  UNL     1      -5.568 -18.166   6.471  1.00  0.00    -0.356 OA
HETATM   43  C1  UNL     1      -6.018 -19.331   5.820  1.00  0.00     0.209 C 
ENDBRANCH   1  42
BRANCH   3  44
HETATM   44  O2  UNL     1      -4.670 -17.052   3.452  1.00  0.00    -0.387 OA
ATOM     45  H2  UNL     1      -4.764 -16.327   2.845  1.00  0.00     0.210 HD
ENDBRANCH   3  44
BRANCH   4  46
HETATM   46  O3  UNL     1      -3.864 -14.792   4.270  1.00  0.00    -0.370 OA
ATOM     47  H3  UNL     1      -4.598 -15.280   4.624  1.00  0.00     0.212 HD
ENDBRANCH   4  46
BRANCH   4  48
HETATM   48  C6  UNL     1      -1.945 -15.400   3.015  1.00  0.00     0.220 C 
HETATM   49  O4  UNL     1      -1.160 -16.256   2.554  1.00  0.00    -0.645 OA
HETATM   50  O5  UNL     1      -1.958 -14.154   2.391  1.00  0.00    -0.645 OA
ENDBRANCH   4  48
TORSDOF 20
ENDMDL
MODEL 3
REMARK VINA RESULT: -6.231835325      1.500      1.730
REMARK  20 active torsions:
REMARK  status: ('A' for Active; 'I' for Inactive)
REMARK    1  A    between atoms: O1_2  and  C2_3 
REMARK    2  A    between atoms: C4_5  and  O2_6 
REMARK    3  A    between atoms: C5_8  and  O3_9 
REMARK    4  A    between atoms: C5_8  and  C6_11 
REMARK    5  A    between atoms: C8_16  and  O7_17 
REMARK    6  A    between atoms: C9_19  and  N1_20 
REMARK    7  A    between atoms: N1_20  and  C10_22 
REMARK    8  A    between atoms: C10_22  and  C11_23 
REMARK    9  A    between atoms: C11_23  and  C12_24 
REMARK   10  A    between atoms: C13_25  and  O8_26 
REMARK   11  A    between atoms: C14_28  and  N2_29 
REMARK   12  A    between atoms: N2_29  and  O9_31 
REMARK   13  A    between atoms: C16_34  and  O10_35 
REMARK   14  A    between atoms: C17_37  and  C18_38 
REMARK   15  A    between atoms: C18_38  and  O11_39 
REMARK   16  A    between atoms: C18_38  and  O12_41 
REMARK   17  A    between atoms: O12_41  and  N3_42 
REMARK   18  A    between atoms: C19_45  and  O13_46 
REMARK   19  A    between atoms: C19_45  and  C20_48 
REMARK   20  A    between atoms: C20_48  and  O14_49 
ROOT
HETATM    1  C2  UNL     1      -4.305 -18.007   6.242  1.00  0.00     0.097 A 
HETATM    2  C3  UNL     1      -3.617 -17.502   5.286  1.00  0.00     0.033 A 
HETATM    3  C4  UNL     1      -3.581 -16.963   3.906  1.00  0.00     0.207 C 
HETATM    4  C5  UNL     1      -2.857 -15.628   4.195  1.00  0.00     0.240 C 
HETATM    5  C7  UNL     1      -2.037 -15.930   5.444  1.00  0.00     0.219 C 
HETATM    6  O6  UNL     1      -1.459 -15.079   6.055  1.00  0.00    -0.290 OA
HETATM    7  C8  UNL     1      -2.144 -17.377   5.661  1.00  0.00     0.193 A 
HETATM    8  C9  UNL     1      -2.078 -17.936   6.976  1.00  0.00     0.076 A 
HETATM    9  C19 UNL     1      -3.482 -18.277   7.408  1.00  0.00     0.169 A 
ENDROOT
BRANCH   8  10
HETATM   10  N1  UNL     1      -1.115 -18.218   7.783  1.00  0.00    -0.370 N 
ATOM     11  H1  UNL     1      -1.208 -19.042   8.377  1.00  0.00     0.164 HD
BRANCH  10  12
HETATM   12  C10 UNL     1       0.041 -17.460   7.888  1.00  0.00     0.065 C 
BRANCH  12  13
HETATM   13  C11 UNL     1       0.691 -17.455   9.258  1.00  0.00     0.086 C 
BRANCH  13  14
HETATM   14  C12 UNL     1       1.384 -18.695   9.583  1.00  0.00    -0.004 A 
HETATM   15  C13 UNL     1       2.742 -18.766   9.225  1.00  0.00     0.101 A 
HETATM   16  C14 UNL     1       3.515 -19.872   9.519  1.00  0.00     0.090 A 
HETATM   17  C15 UNL     1       2.927 -20.927  10.180  1.00  0.00     0.071 A 
HETATM   18  C16 UNL     1       1.607 -20.884  10.538  1.00  0.00     0.079 A 
HETATM   19  C17 UNL     1       0.814 -19.763  10.243  1.00  0.00     0.041 A 
BRANCH  15  20
HETATM   20  O8  UNL     1       3.375 -17.732   8.553  1.00  0.00    -0.358 OA
ATOM     21  H8  UNL     1       4.118 -17.273   8.928  1.00  0.00     0.217 HD
ENDBRANCH  15  20
BRANCH  16  22
HETATM   22  N2  UNL     1       4.891 -19.938   9.155  1.00  0.00    -0.267 N 
ATOM     23  H2  UNL     1       5.262 -20.800   8.756  1.00  0.00     0.194 HD
BRANCH  22  24
HETATM   24  O9  UNL     1       5.704 -18.890   9.326  1.00  0.00    -0.289 OA
ATOM     25  H9  UNL     1       6.300 -18.612   8.641  1.00  0.00     0.244 HD
ENDBRANCH  22  24
ENDBRANCH  16  22
BRANCH  18  26
HETATM   26  O10 UNL     1       1.029 -21.944  11.198  1.00  0.00    -0.360 OA
ATOM     27  H10 UNL     1       0.128 -21.893  11.496  1.00  0.00     0.217 HD
ENDBRANCH  18  26
BRANCH  19  28
HETATM   28  C18 UNL     1      -0.596 -19.782  10.631  1.00  0.00     0.322 C 
BRANCH  28  29
HETATM   29  O11 UNL     1      -0.848 -20.107  11.959  1.00  0.00    -0.365 OA
ATOM     30  H11 UNL     1      -1.488 -19.562  12.400  1.00  0.00     0.213 HD
ENDBRANCH  28  29
BRANCH  28  31
HETATM   31  O12 UNL     1      -1.430 -20.472   9.768  1.00  0.00    -0.250 OA
BRANCH  31  32
HETATM   32  N3  UNL     1      -2.595 -20.803  10.354  1.00  0.00    -0.308 N 
ATOM     33  H32 UNL     1      -3.146 -20.149  10.909  1.00  0.00     0.184 HD
ATOM     34  H31 UNL     1      -2.848 -21.774  10.172  1.00  0.00     0.184 HD
ENDBRANCH  31  32
ENDBRANCH  28  31
ENDBRANCH  19  28
ENDBRANCH  13  14
ENDBRANCH  12  13
ENDBRANCH  10  12
ENDBRANCH   8  10
BRANCH   7  35
HETATM   35  O7  UNL     1      -1.409 -18.098   4.698  1.00  0.00    -0.372 OA
ATOM     36  H7  UNL     1      -0.544 -17.709   4.660  1.00  0.00     0.212 HD
ENDBRANCH   7  35
BRANCH   9  37
HETATM   37  O13 UNL     1      -3.593 -19.626   7.743  1.00  0.00    -0.375 OA
ATOM     38  H13 UNL     1      -2.731 -19.965   7.955  1.00  0.00     0.211 HD
ENDBRANCH   9  37
BRANCH   9  39
HETATM   39  C20 UNL     1      -3.872 -17.460   8.620  1.00  0.00     0.215 C 
BRANCH  39  40
HETATM   40  O14 UNL     1      -3.504 -18.098   9.799  1.00  0.00    -0.397 OA
ATOM     41  H14 UNL     1      -4.250 -18.216  10.376  1.00  0.00     0.209 HD
ENDBRANCH  39  40
ENDBRANCH   9  39
BRANCH   1  42
HETATM   42  O1  UNL     1      -5.683 -18.279   6.217  1.00  0.00    -0.356 OA
HETATM   43  C1  UNL     1      -6.244 -19.238   5.350  1.00  0.00     0.209 C 
ENDBRANCH   1  42
BRANCH   3  44
HETATM   44  O2  UNL     1      -4.827 -16.746   3.374  1.00  0.00    -0.387 OA
ATOM     45  H2  UNL     1      -4.992 -17.247   2.584  1.00  0.00     0.210 HD
ENDBRANCH   3  44
BRANCH   4  46
HETATM   46  O3  UNL     1      -3.841 -14.702   4.503  1.00  0.00    -0.370 OA
ATOM     47  H3  UNL     1      -3.659 -13.929   3.981  1.00  0.00     0.212 HD
ENDBRANCH   4  46
BRANCH   4  48
HETATM   48  C6  UNL     1      -2.016 -15.212   3.076  1.00  0.00     0.220 C 
HETATM   49  O4  UNL     1      -2.007 -14.031   2.666  1.00  0.00    -0.645 OA
HETATM   50  O5  UNL     1      -1.185 -16.115   2.418  1.00  0.00    -0.645 OA
ENDBRANCH   4  48
TORSDOF 20
ENDMDL
MODEL 4
REMARK VINA RESULT: -6.206656981      1.198      3.099
REMARK  20 active torsions:
REMARK  status: ('A' for Active; 'I' for Inactive)
REMARK    1  A    between atoms: O1_2  and  C2_3 
REMARK    2  A    between atoms: C4_5  and  O2_6 
REMARK    3  A    between atoms: C5_8  and  O3_9 
REMARK    4  A    between atoms: C5_8  and  C6_11 
REMARK    5  A    between atoms: C8_16  and  O7_17 
REMARK    6  A    between atoms: C9_19  and  N1_20 
REMARK    7  A    between atoms: N1_20  and  C10_22 
REMARK    8  A    between atoms: C10_22  and  C11_23 
REMARK    9  A    between atoms: C11_23  and  C12_24 
REMARK   10  A    between atoms: C13_25  and  O8_26 
REMARK   11  A    between atoms: C14_28  and  N2_29 
REMARK   12  A    between atoms: N2_29  and  O9_31 
REMARK   13  A    between atoms: C16_34  and  O10_35 
REMARK   14  A    between atoms: C17_37  and  C18_38 
REMARK   15  A    between atoms: C18_38  and  O11_39 
REMARK   16  A    between atoms: C18_38  and  O12_41 
REMARK   17  A    between atoms: O12_41  and  N3_42 
REMARK   18  A    between atoms: C19_45  and  O13_46 
REMARK   19  A    between atoms: C19_45  and  C20_48 
REMARK   20  A    between atoms: C20_48  and  O14_49 
ROOT
HETATM    1  C2  UNL     1      -3.895 -17.139   6.873  1.00  0.00     0.097 A 
HETATM    2  C3  UNL     1      -3.421 -17.092   5.684  1.00  0.00     0.033 A 
HETATM    3  C4  UNL     1      -3.671 -17.125   4.223  1.00  0.00     0.207 C 
HETATM    4  C5  UNL     1      -2.907 -15.841   3.825  1.00  0.00     0.240 C 
HETATM    5  C7  UNL     1      -1.847 -15.706   4.913  1.00  0.00     0.219 C 
HETATM    6  O6  UNL     1      -1.158 -14.733   5.021  1.00  0.00    -0.290 OA
HETATM    7  C8  UNL     1      -1.903 -16.947   5.692  1.00  0.00     0.193 A 
HETATM    8  C9  UNL     1      -1.565 -16.965   7.082  1.00  0.00     0.076 A 
HETATM    9  C19 UNL     1      -2.849 -17.005   7.872  1.00  0.00     0.169 A 
ENDROOT
BRANCH   8  10
HETATM   10  N1  UNL     1      -0.455 -16.990   7.735  1.00  0.00    -0.370 N 
ATOM     11  H1  UNL     1      -0.173 -16.150   8.240  1.00  0.00     0.164 HD
BRANCH  10  12
HETATM   12  C10 UNL     1       0.375 -18.099   7.789  1.00  0.00     0.065 C 
BRANCH  12  13
HETATM   13  C11 UNL     1       0.539 -18.721   9.161  1.00  0.00     0.086 C 
BRANCH  13  14
HETATM   14  C12 UNL     1       1.227 -20.005   9.145  1.00  0.00    -0.004 A 
HETATM   15  C13 UNL     1       0.441 -21.134   8.854  1.00  0.00     0.101 A 
HETATM   16  C14 UNL     1       0.989 -22.399   8.767  1.00  0.00     0.090 A 
HETATM   17  C15 UNL     1       2.342 -22.544   8.975  1.00  0.00     0.071 A 
HETATM   18  C16 UNL     1       3.129 -21.462   9.262  1.00  0.00     0.079 A 
HETATM   19  C17 UNL     1       2.580 -20.173   9.351  1.00  0.00     0.041 A 
BRANCH  15  20
HETATM   20  O8  UNL     1      -0.925 -21.038   8.643  1.00  0.00    -0.358 OA
ATOM     21  H8  UNL     1      -1.320 -21.264   7.809  1.00  0.00     0.217 HD
ENDBRANCH  15  20
BRANCH  16  22
HETATM   22  N2  UNL     1       0.188 -23.539   8.470  1.00  0.00    -0.267 N 
ATOM     23  H2  UNL     1       0.023 -24.238   9.195  1.00  0.00     0.194 HD
BRANCH  22  24
HETATM   24  O9  UNL     1      -0.353 -23.710   7.259  1.00  0.00    -0.289 OA
ATOM     25  H9  UNL     1      -0.843 -24.495   7.045  1.00  0.00     0.244 HD
ENDBRANCH  22  24
ENDBRANCH  16  22
BRANCH  18  26
HETATM   26  O10 UNL     1       4.481 -21.618   9.469  1.00  0.00    -0.360 OA
ATOM     27  H10 UNL     1       5.088 -21.577   8.739  1.00  0.00     0.217 HD
ENDBRANCH  18  26
BRANCH  19  28
HETATM   28  C18 UNL     1       3.467 -19.057   9.682  1.00  0.00     0.322 C 
BRANCH  28  29
HETATM   29  O11 UNL     1       2.852 -17.955  10.265  1.00  0.00    -0.365 OA
ATOM     30  H11 UNL     1       3.437 -17.320  10.659  1.00  0.00     0.213 HD
ENDBRANCH  28  29
BRANCH  28  31
HETATM   31  O12 UNL     1       4.335 -18.683   8.671  1.00  0.00    -0.250 OA
BRANCH  31  32
HETATM   32  N3  UNL     1       5.615 -18.959   8.983  1.00  0.00    -0.308 N 
ATOM     33  H32 UNL     1       5.883 -19.619   9.713  1.00  0.00     0.184 HD
ATOM     34  H31 UNL     1       6.269 -18.431   8.404  1.00  0.00     0.184 HD
ENDBRANCH  31  32
ENDBRANCH  28  31
ENDBRANCH  19  28
ENDBRANCH  13  14
ENDBRANCH  12  13
ENDBRANCH  10  12
ENDBRANCH   8  10
BRANCH   7  35
HETATM   35  O7  UNL     1      -1.379 -18.035   4.965  1.00  0.00    -0.372 OA
ATOM     36  H7  UNL     1      -1.441 -17.811   4.045  1.00  0.00     0.212 HD
ENDBRANCH   7  35
BRANCH   9  37
HETATM   37  O13 UNL     1      -2.884 -18.111   8.720  1.00  0.00    -0.375 OA
ATOM     38  H13 UNL     1      -3.218 -17.842   9.567  1.00  0.00     0.211 HD
ENDBRANCH   9  37
BRANCH   9  39
HETATM   39  C20 UNL     1      -2.984 -15.760   8.721  1.00  0.00     0.215 C 
BRANCH  39  40
HETATM   40  O14 UNL     1      -2.271 -14.698   8.177  1.00  0.00    -0.397 OA
ATOM     41  H14 UNL     1      -2.771 -13.891   8.216  1.00  0.00     0.209 HD
ENDBRANCH  39  40
ENDBRANCH   9  39
BRANCH   1  42
HETATM   42  O1  UNL     1      -5.248 -17.293   7.220  1.00  0.00    -0.356 OA
HETATM   43  C1  UNL     1      -6.177 -16.240   7.104  1.00  0.00     0.209 C 
ENDBRANCH   1  42
BRANCH   3  44
HETATM   44  O2  UNL     1      -5.000 -17.032   3.898  1.00  0.00    -0.387 OA
ATOM     45  H2  UNL     1      -5.207 -17.405   3.049  1.00  0.00     0.210 HD
ENDBRANCH   3  44
BRANCH   4  46
HETATM   46  O3  UNL     1      -3.810 -14.795   3.930  1.00  0.00    -0.370 OA
ATOM     47  H3  UNL     1      -4.245 -14.726   3.088  1.00  0.00     0.212 HD
ENDBRANCH   4  46
BRANCH   4  48
HETATM   48  C6  UNL     1      -2.316 -15.950   2.495  1.00  0.00     0.220 C 
HETATM   49  O4  UNL     1      -1.089 -16.124   2.334  1.00  0.00    -0.645 OA
HETATM   50  O5  UNL     1      -3.098 -15.864   1.345  1.00  0.00    -0.645 OA
ENDBRANCH   4  48
TORSDOF 20
ENDMDL
MODEL 5
REMARK VINA RESULT: -6.177138902      1.954      2.421
REMARK  20 active torsions:
REMARK  status: ('A' for Active; 'I' for Inactive)
REMARK    1  A    between atoms: O1_2  and  C2_3 
REMARK    2  A    between atoms: C4_5  and  O2_6 
REMARK    3  A    between atoms: C5_8  and  O3_9 
REMARK    4  A    between atoms: C5_8  and  C6_11 
REMARK    5  A    between atoms: C8_16  and  O7_17 
REMARK    6  A    between atoms: C9_19  and  N1_20 
REMARK    7  A    between atoms: N1_20  and  C10_22 
REMARK    8  A    between atoms: C10_22  and  C11_23 
REMARK    9  A    between atoms: C11_23  and  C12_24 
REMARK   10  A    between atoms: C13_25  and  O8_26 
REMARK   11  A    between atoms: C14_28  and  N2_29 
REMARK   12  A    between atoms: N2_29  and  O9_31 
REMARK   13  A    between atoms: C16_34  and  O10_35 
REMARK   14  A    between atoms: C17_37  and  C18_38 
REMARK   15  A    between atoms: C18_38  and  O11_39 
REMARK   16  A    between atoms: C18_38  and  O12_41 
REMARK   17  A    between atoms: O12_41  and  N3_42 
REMARK   18  A    between atoms: C19_45  and  O13_46 
REMARK   19  A    between atoms: C19_45  and  C20_48 
REMARK   20  A    between atoms: C20_48  and  O14_49 
ROOT
HETATM    1  C2  UNL     1      -3.753 -17.680   6.810  1.00  0.00     0.097 A 
HETATM    2  C3  UNL     1      -3.253 -17.331   5.684  1.00  0.00     0.033 A 
HETATM    3  C4  UNL     1      -3.461 -17.047   4.244  1.00  0.00     0.207 C 
HETATM    4  C5  UNL     1      -2.788 -15.657   4.179  1.00  0.00     0.240 C 
HETATM    5  C7  UNL     1      -1.770 -15.700   5.314  1.00  0.00     0.219 C 
HETATM    6  O6  UNL     1      -1.162 -14.732   5.668  1.00  0.00    -0.290 OA
HETATM    7  C8  UNL     1      -1.751 -17.087   5.790  1.00  0.00     0.193 A 
HETATM    8  C9  UNL     1      -1.450 -17.398   7.153  1.00  0.00     0.076 A 
HETATM    9  C19 UNL     1      -2.747 -17.706   7.858  1.00  0.00     0.169 A 
ENDROOT
BRANCH   8  10
HETATM   10  N1  UNL     1      -0.359 -17.495   7.831  1.00  0.00    -0.370 N 
ATOM     11  H1  UNL     1      -0.200 -16.830   8.588  1.00  0.00     0.164 HD
BRANCH  10  12
HETATM   12  C10 UNL     1       0.610 -18.456   7.587  1.00  0.00     0.065 C 
BRANCH  12  13
HETATM   13  C11 UNL     1       1.868 -18.334   8.424  1.00  0.00     0.086 C 
BRANCH  13  14
HETATM   14  C12 UNL     1       1.762 -18.958   9.736  1.00  0.00    -0.004 A 
HETATM   15  C13 UNL     1       1.406 -18.115  10.805  1.00  0.00     0.101 A 
HETATM   16  C14 UNL     1       1.232 -18.600  12.087  1.00  0.00     0.090 A 
HETATM   17  C15 UNL     1       1.417 -19.944  12.311  1.00  0.00     0.071 A 
HETATM   18  C16 UNL     1       1.766 -20.787  11.289  1.00  0.00     0.079 A 
HETATM   19  C17 UNL     1       1.944 -20.302   9.984  1.00  0.00     0.041 A 
BRANCH  15  20
HETATM   20  O8  UNL     1       1.216 -16.754  10.628  1.00  0.00    -0.358 OA
ATOM     21  H8  UNL     1       1.428 -16.321   9.810  1.00  0.00     0.217 HD
ENDBRANCH  15  20
BRANCH  16  22
HETATM   22  N2  UNL     1       0.870 -17.741  13.164  1.00  0.00    -0.267 N 
ATOM     23  H2  UNL     1      -0.014 -17.894  13.651  1.00  0.00     0.194 HD
BRANCH  22  24
HETATM   24  O9  UNL     1       1.666 -16.738  13.549  1.00  0.00    -0.289 OA
ATOM     25  H9  UNL     1       2.610 -16.800  13.469  1.00  0.00     0.244 HD
ENDBRANCH  22  24
ENDBRANCH  16  22
BRANCH  18  26
HETATM   26  O10 UNL     1       1.949 -22.130  11.525  1.00  0.00    -0.360 OA
ATOM     27  H10 UNL     1       2.806 -22.465  11.760  1.00  0.00     0.217 HD
ENDBRANCH  18  26
BRANCH  19  28
HETATM   28  C18 UNL     1       2.337 -21.245   8.936  1.00  0.00     0.322 C 
BRANCH  28  29
HETATM   29  O11 UNL     1       1.304 -21.994   8.385  1.00  0.00    -0.365 OA
ATOM     30  H11 UNL     1       0.918 -21.639   7.594  1.00  0.00     0.213 HD
ENDBRANCH  28  29
BRANCH  28  31
HETATM   31  O12 UNL     1       3.435 -22.032   9.242  1.00  0.00    -0.250 OA
BRANCH  31  32
HETATM   32  N3  UNL     1       4.514 -21.289   9.548  1.00  0.00    -0.308 N 
ATOM     33  H32 UNL     1       4.492 -20.520  10.217  1.00  0.00     0.184 HD
ATOM     34  H31 UNL     1       5.341 -21.591   9.032  1.00  0.00     0.184 HD
ENDBRANCH  31  32
ENDBRANCH  28  31
ENDBRANCH  19  28
ENDBRANCH  13  14
ENDBRANCH  12  13
ENDBRANCH  10  12
ENDBRANCH   8  10
BRANCH   7  35
HETATM   35  O7  UNL     1      -1.126 -17.942   4.860  1.00  0.00    -0.372 OA
ATOM     36  H7  UNL     1      -0.805 -18.693   5.344  1.00  0.00     0.212 HD
ENDBRANCH   7  35
BRANCH   9  37
HETATM   37  O13 UNL     1      -2.719 -18.976   8.432  1.00  0.00    -0.375 OA
ATOM     38  H13 UNL     1      -2.883 -18.899   9.365  1.00  0.00     0.211 HD
ENDBRANCH   9  37
BRANCH   9  39
HETATM   39  C20 UNL     1      -3.000 -16.700   8.959  1.00  0.00     0.215 C 
BRANCH  39  40
HETATM   40  O14 UNL     1      -2.363 -15.493   8.696  1.00  0.00    -0.397 OA
ATOM     41  H14 UNL     1      -2.963 -14.760   8.781  1.00  0.00     0.209 HD
ENDBRANCH  39  40
ENDBRANCH   9  39
BRANCH   1  42
HETATM   42  O1  UNL     1      -5.099 -18.002   7.054  1.00  0.00    -0.356 OA
HETATM   43  C1  UNL     1      -5.689 -19.186   6.568  1.00  0.00     0.209 C 
ENDBRANCH   1  42
BRANCH   3  44
HETATM   44  O2  UNL     1      -4.784 -16.975   3.891  1.00  0.00    -0.387 OA
ATOM     45  H2  UNL     1      -4.919 -16.753   2.977  1.00  0.00     0.210 HD
ENDBRANCH   3  44
BRANCH   4  46
HETATM   46  O3  UNL     1      -3.771 -14.726   4.478  1.00  0.00    -0.370 OA
ATOM     47  H3  UNL     1      -4.358 -14.703   3.732  1.00  0.00     0.212 HD
ENDBRANCH   4  46
BRANCH   4  48
HETATM   48  C6  UNL     1      -2.156 -15.418   2.886  1.00  0.00     0.220 C 
HETATM   49  O4  UNL     1      -2.526 -14.490   2.135  1.00  0.00    -0.645 OA
HETATM   50  O5  UNL     1      -1.108 -16.217   2.432  1.00  0.00    -0.645 OA
ENDBRANCH   4  48
TORSDOF 20
ENDMDL
