MODEL 1
REMARK VINA RESULT: -6.992638048      0.000      0.000
REMARK  16 active torsions:
REMARK  status: ('A' for Active; 'I' for Inactive)
REMARK    1  A    between atoms: N1_1  and  C1_4 
REMARK    2  A    between atoms: N3_8  and  C3_9 
REMARK    3  A    between atoms: C3_9  and  C4_10 
REMARK    4  A    between atoms: C4_10  and  O1_11 
REMARK    5  A    between atoms: C4_10  and  C5_13 
REMARK    6  A    between atoms: C5_13  and  C6_14 
REMARK    7  A    between atoms: C5_13  and  C7_17 
REMARK    8  A    between atoms: C6_14  and  O2_15 
REMARK    9  A    between atoms: C7_17  and  O3_18 
REMARK   10  A    between atoms: C7_17  and  N4_20 
REMARK   11  A    between atoms: N4_20  and  C8_21 
REMARK   12  A    between atoms: C8_21  and  C9_22 
REMARK   13  A    between atoms: C12_31  and  N8_32 
REMARK   14  A    between atoms: N10_38  and  N11_40 
REMARK   15  A    between atoms: C17_48  and  O4_49 
REMARK   16  A    between atoms: C19_55  and  N15_56 
ROOT
HETATM    1  N4  UNL     1      -3.397 -16.341   4.981  1.00  0.00    -0.395 NA
ENDROOT
BRANCH   1   2
HETATM    2  C7  UNL     1      -3.629 -16.285   3.634  1.00  0.00     0.198 C 
BRANCH   2   3
HETATM    3  C5  UNL     1      -3.407 -15.215   2.645  1.00  0.00     0.129 C 
BRANCH   3   4
HETATM    4  C4  UNL     1      -3.997 -15.351   1.320  1.00  0.00     0.152 C 
BRANCH   4   5
HETATM    5  C3  UNL     1      -4.754 -14.249   0.682  1.00  0.00     0.181 C 
BRANCH   5   6
HETATM    6  N3  UNL     1      -5.522 -14.756  -0.467  1.00  0.00    -0.173 N 
HETATM    7  C2  UNL     1      -5.164 -15.062  -1.713  1.00  0.00     0.736 A 
HETATM    8  N2  UNL     1      -3.950 -15.046  -2.310  1.00  0.00    -0.019 N 
HETATM    9  N14 UNL     1      -6.232 -15.467  -2.436  1.00  0.00     0.092 N 
HETATM   10  C1  UNL     1      -3.841 -15.426  -3.596  1.00  0.00     0.705 A 
ATOM     11  H2  UNL     1      -3.124 -14.748  -1.789  1.00  0.00     0.203 HD
HETATM   12  N16 UNL     1      -4.939 -15.820  -4.275  1.00  0.00    -0.020 N 
HETATM   13  C19 UNL     1      -6.160 -15.853  -3.723  1.00  0.00     0.727 A 
ATOM     14  H16 UNL     1      -4.835 -16.105  -5.248  1.00  0.00     0.203 HD
HETATM   15  N13 UNL     1      -7.268 -15.413  -1.621  1.00  0.00    -0.260 N 
HETATM   16  C18 UNL     1      -6.873 -14.984  -0.420  1.00  0.00     0.219 A 
ATOM     17  H13 UNL     1      -8.225 -15.661  -1.872  1.00  0.00     0.189 HD
BRANCH  10  18
HETATM   18  N1  UNL     1      -2.694 -15.418  -4.185  1.00  0.00    -0.234 N 
ATOM     19  H12 UNL     1      -1.842 -15.526  -3.634  1.00  0.00     0.174 HD
ATOM     20  H11 UNL     1      -2.633 -15.304  -5.196  1.00  0.00     0.174 HD
ENDBRANCH  10  18
BRANCH  13  21
HETATM   21  N15 UNL     1      -7.193 -16.220  -4.386  1.00  0.00    -0.232 N 
ATOM     22 2H15 UNL     1      -7.813 -16.958  -4.053  1.00  0.00     0.174 HD
ATOM     23 1H15 UNL     1      -7.443 -15.799  -5.281  1.00  0.00     0.174 HD
ENDBRANCH  13  21
ENDBRANCH   5   6
ENDBRANCH   4   5
BRANCH   4  24
HETATM   24  O1  UNL     1      -3.412 -16.219   0.422  1.00  0.00    -0.393 OA
ATOM     25  H1  UNL     1      -2.512 -16.440   0.631  1.00  0.00     0.210 HD
ENDBRANCH   4  24
ENDBRANCH   3   4
BRANCH   3  26
HETATM   26  C6  UNL     1      -1.867 -15.041   2.558  1.00  0.00     0.180 C 
BRANCH  26  27
HETATM   27  O2  UNL     1      -1.182 -16.201   2.413  1.00  0.00    -0.400 OA
ATOM     28  H2  UNL     1      -1.120 -16.721   3.206  1.00  0.00     0.209 HD
ENDBRANCH  26  27
ENDBRANCH   3  26
ENDBRANCH   2   3
BRANCH   2  29
HETATM   29  O3  UNL     1      -4.141 -17.370   3.076  1.00  0.00    -0.339 OA
ATOM     30  H3  UNL     1      -3.463 -17.961   2.769  1.00  0.00     0.220 HD
ENDBRANCH   2  29
ENDBRANCH   1   2
BRANCH   1  31
HETATM   31  C8  UNL     1      -3.171 -16.395   6.325  1.00  0.00     0.217 C 
BRANCH  31  32
HETATM   32  C9  UNL     1      -2.242 -17.534   6.713  1.00  0.00     0.096 A 
HETATM   33  N5  UNL     1      -0.932 -17.244   6.907  1.00  0.00    -0.336 N 
HETATM   34  C10 UNL     1      -0.109 -18.220   7.387  1.00  0.00     0.134 A 
ATOM     35  H5  UNL     1      -0.568 -16.314   6.699  1.00  0.00     0.168 HD
HETATM   36  N6  UNL     1       1.201 -17.889   7.635  1.00  0.00    -0.324 N 
HETATM   37  C15 UNL     1      -0.589 -19.464   7.662  1.00  0.00     0.080 A 
HETATM   38  C11 UNL     1       2.001 -18.821   8.154  1.00  0.00     0.153 A 
ATOM     39  H6  UNL     1       1.553 -16.954   7.428  1.00  0.00     0.169 HD
HETATM   40  N7  UNL     1       3.300 -18.546   8.477  1.00  0.00    -0.174 N 
HETATM   41  C14 UNL     1       1.509 -20.094   8.423  1.00  0.00     0.124 A 
HETATM   42  C12 UNL     1       4.073 -19.513   9.043  1.00  0.00     0.679 A 
ATOM     43  H7  UNL     1       3.688 -17.620   8.293  1.00  0.00     0.186 HD
HETATM   44  N9  UNL     1       3.569 -20.744   9.290  1.00  0.00    -0.173 N 
HETATM   45  C13 UNL     1       2.307 -21.067   8.996  1.00  0.00     0.166 A 
ATOM     46  H9  UNL     1       4.172 -21.447   9.714  1.00  0.00     0.186 HD
HETATM   47  N10 UNL     1       1.875 -22.240   9.204  1.00  0.00    -0.290 N 
ATOM     48  H10 UNL     1       2.551 -22.894   9.601  1.00  0.00     0.188 HD
HETATM   49  N12 UNL     1       0.240 -20.426   8.186  1.00  0.00    -0.347 N 
ATOM     50  H12 UNL     1      -0.105 -21.365   8.387  1.00  0.00     0.166 HD
HETATM   51  C16 UNL     1      -1.934 -19.797   7.468  1.00  0.00     0.072 A 
HETATM   52  C17 UNL     1      -2.751 -18.768   6.979  1.00  0.00     0.097 A 
BRANCH  42  53
HETATM   53  N8  UNL     1       5.296 -19.243   9.361  1.00  0.00    -0.234 N 
ATOM     54  H82 UNL     1       5.911 -18.794   8.682  1.00  0.00     0.174 HD
ATOM     55  H81 UNL     1       5.640 -19.495  10.287  1.00  0.00     0.174 HD
ENDBRANCH  42  53
BRANCH  47  56
HETATM   56  N11 UNL     1       0.628 -22.749   8.968  1.00  0.00    -0.344 N 
ATOM     57 2H11 UNL     1      -0.101 -22.044   8.863  1.00  0.00     0.176 HD
ATOM     58 1H11 UNL     1       0.341 -23.724   8.886  1.00  0.00     0.176 HD
ENDBRANCH  47  56
BRANCH  52  59
HETATM   59  O4  UNL     1      -4.070 -19.078   6.788  1.00  0.00    -0.358 OA
ATOM     60  H4  UNL     1      -4.498 -19.796   7.239  1.00  0.00     0.217 HD
ENDBRANCH  52  59
ENDBRANCH  31  32
ENDBRANCH   1  31
TORSDOF 16
ENDMDL
MODEL 2
REMARK VINA RESULT: -6.933140430      1.528      2.087
REMARK  16 active torsions:
REMARK  status: ('A' for Active; 'I' for Inactive)
REMARK    1  A    between atoms: N1_1  and  C1_4 
REMARK    2  A    between atoms: N3_8  and  C3_9 
REMARK    3  A    between atoms: C3_9  and  C4_10 
REMARK    4  A    between atoms: C4_10  and  O1_11 
REMARK    5  A    between atoms: C4_10  and  C5_13 
REMARK    6  A    between atoms: C5_13  and  C6_14 
REMARK    7  A    between atoms: C5_13  and  C7_17 
REMARK    8  A    between atoms: C6_14  and  O2_15 
REMARK    9  A    between atoms: C7_17  and  O3_18 
REMARK   10  A    between atoms: C7_17  and  N4_20 
REMARK   11  A    between atoms: N4_20  and  C8_21 
REMARK   12  A    between atoms: C8_21  and  C9_22 
REMARK   13  A    between atoms: C12_31  and  N8_32 
REMARK   14  A    between atoms: N10_38  and  N11_40 
REMARK   15  A    between atoms: C17_48  and  O4_49 
REMARK   16  A    between atoms: C19_55  and  N15_56 
ROOT
HETATM    1  N4  UNL     1      -3.979 -16.953   4.029  1.00  0.00    -0.395 NA
ENDROOT
BRANCH   1   2
HETATM    2  C7  UNL     1      -4.344 -15.727   3.545  1.00  0.00     0.198 C 
BRANCH   2   3
HETATM    3  C5  UNL     1      -3.844 -14.933   2.408  1.00  0.00     0.129 C 
BRANCH   3   4
HETATM    4  C4  UNL     1      -4.239 -15.313   1.059  1.00  0.00     0.152 C 
BRANCH   4   5
HETATM    5  C3  UNL     1      -4.183 -14.359  -0.073  1.00  0.00     0.181 C 
BRANCH   5   6
HETATM    6  N3  UNL     1      -5.053 -14.816  -1.169  1.00  0.00    -0.173 N 
HETATM    7  C2  UNL     1      -4.792 -15.160  -2.429  1.00  0.00     0.736 A 
HETATM    8  N2  UNL     1      -3.616 -15.242  -3.094  1.00  0.00    -0.019 N 
HETATM    9  N14 UNL     1      -5.928 -15.488  -3.085  1.00  0.00     0.092 N 
HETATM   10  C1  UNL     1      -3.611 -15.640  -4.380  1.00  0.00     0.705 A 
ATOM     11  H2  UNL     1      -2.742 -15.003  -2.626  1.00  0.00     0.203 HD
HETATM   12  N16 UNL     1      -4.773 -15.955  -4.989  1.00  0.00    -0.020 N 
HETATM   13  C19 UNL     1      -5.960 -15.889  -4.368  1.00  0.00     0.727 A 
ATOM     14  H16 UNL     1      -4.748 -16.256  -5.963  1.00  0.00     0.203 HD
HETATM   15  N13 UNL     1      -6.908 -15.347  -2.213  1.00  0.00    -0.260 N 
HETATM   16  C18 UNL     1      -6.412 -14.939  -1.041  1.00  0.00     0.219 A 
ATOM     17  H13 UNL     1      -7.894 -15.524  -2.405  1.00  0.00     0.189 HD
BRANCH  10  18
HETATM   18  N1  UNL     1      -2.503 -15.726  -5.033  1.00  0.00    -0.234 N 
ATOM     19  H12 UNL     1      -2.092 -16.642  -5.214  1.00  0.00     0.174 HD
ATOM     20  H11 UNL     1      -2.035 -14.884  -5.369  1.00  0.00     0.174 HD
ENDBRANCH  10  18
BRANCH  13  21
HETATM   21  N15 UNL     1      -7.054 -16.181  -4.967  1.00  0.00    -0.232 N 
ATOM     22 2H15 UNL     1      -7.961 -15.878  -4.611  1.00  0.00     0.174 HD
ATOM     23 1H15 UNL     1      -7.076 -16.737  -5.822  1.00  0.00     0.174 HD
ENDBRANCH  13  21
ENDBRANCH   5   6
ENDBRANCH   4   5
BRANCH   4  24
HETATM   24  O1  UNL     1      -4.116 -16.634   0.681  1.00  0.00    -0.393 OA
ATOM     25  H1  UNL     1      -3.467 -16.782   0.004  1.00  0.00     0.210 HD
ENDBRANCH   4  24
ENDBRANCH   3   4
BRANCH   3  26
HETATM   26  C6  UNL     1      -2.298 -14.921   2.557  1.00  0.00     0.180 C 
BRANCH  26  27
HETATM   27  O2  UNL     1      -1.692 -16.071   2.176  1.00  0.00    -0.400 OA
ATOM     28  H2  UNL     1      -0.912 -16.285   2.674  1.00  0.00     0.209 HD
ENDBRANCH  26  27
ENDBRANCH   3  26
ENDBRANCH   2   3
BRANCH   2  29
HETATM   29  O3  UNL     1      -5.325 -15.107   4.182  1.00  0.00    -0.339 OA
ATOM     30  H3  UNL     1      -6.178 -15.366   3.852  1.00  0.00     0.220 HD
ENDBRANCH   2  29
ENDBRANCH   1   2
BRANCH   1  31
HETATM   31  C8  UNL     1      -3.614 -18.174   4.516  1.00  0.00     0.217 C 
BRANCH  31  32
HETATM   32  C9  UNL     1      -2.812 -18.069   5.804  1.00  0.00     0.096 A 
HETATM   33  N5  UNL     1      -1.559 -18.587   5.813  1.00  0.00    -0.336 N 
HETATM   34  C10 UNL     1      -0.774 -18.384   6.909  1.00  0.00     0.134 A 
ATOM     35  H5  UNL     1      -1.210 -19.119   5.015  1.00  0.00     0.168 HD
HETATM   36  N6  UNL     1       0.512 -18.864   6.874  1.00  0.00    -0.324 N 
HETATM   37  C15 UNL     1      -1.238 -17.680   7.978  1.00  0.00     0.080 A 
HETATM   38  C11 UNL     1       1.305 -18.625   7.919  1.00  0.00     0.153 A 
ATOM     39  H6  UNL     1       0.853 -19.390   6.069  1.00  0.00     0.169 HD
HETATM   40  N7  UNL     1       2.611 -19.025   7.929  1.00  0.00    -0.174 N 
HETATM   41  C14 UNL     1       0.824 -17.914   9.015  1.00  0.00     0.124 A 
HETATM   42  C12 UNL     1       3.400 -18.726   8.998  1.00  0.00     0.679 A 
ATOM     43  H7  UNL     1       2.993 -19.546   7.139  1.00  0.00     0.186 HD
HETATM   44  N9  UNL     1       2.903 -18.037  10.051  1.00  0.00    -0.173 N 
HETATM   45  C13 UNL     1       1.635 -17.620  10.094  1.00  0.00     0.166 A 
ATOM     46  H9  UNL     1       3.517 -17.828  10.837  1.00  0.00     0.186 HD
HETATM   47  N10 UNL     1       1.189 -17.010  11.111  1.00  0.00    -0.290 N 
ATOM     48  H10 UNL     1       1.859 -16.869  11.868  1.00  0.00     0.188 HD
HETATM   49  N12 UNL     1      -0.424 -17.445   9.059  1.00  0.00    -0.347 N 
ATOM     50  H12 UNL     1      -0.762 -16.927   9.870  1.00  0.00     0.166 HD
HETATM   51  C16 UNL     1      -2.527 -17.136   8.002  1.00  0.00     0.072 A 
HETATM   52  C17 UNL     1      -3.304 -17.360   6.856  1.00  0.00     0.097 A 
BRANCH  42  53
HETATM   53  N8  UNL     1       4.639 -19.092   8.996  1.00  0.00    -0.234 N 
ATOM     54  H82 UNL     1       4.982 -19.718   8.268  1.00  0.00     0.174 HD
ATOM     55  H81 UNL     1       5.261 -18.761   9.733  1.00  0.00     0.174 HD
ENDBRANCH  42  53
BRANCH  47  56
HETATM   56  N11 UNL     1      -0.066 -16.515  11.332  1.00  0.00    -0.344 N 
ATOM     57 2H11 UNL     1      -0.085 -15.570  11.713  1.00  0.00     0.176 HD
ATOM     58 1H11 UNL     1      -0.968 -16.963  11.169  1.00  0.00     0.176 HD
ENDBRANCH  47  56
BRANCH  52  59
HETATM   59  O4  UNL     1      -4.566 -16.831   6.864  1.00  0.00    -0.358 OA
ATOM     60  H4  UNL     1      -4.912 -16.343   7.602  1.00  0.00     0.217 HD
ENDBRANCH  52  59
ENDBRANCH  31  32
ENDBRANCH   1  31
TORSDOF 16
ENDMDL
MODEL 3
REMARK VINA RESULT: -6.807161754      2.245      3.101
REMARK  16 active torsions:
REMARK  status: ('A' for Active; 'I' for Inactive)
REMARK    1  A    between atoms: N1_1  and  C1_4 
REMARK    2  A    between atoms: N3_8  and  C3_9 
REMARK    3  A    between atoms: C3_9  and  C4_10 
REMARK    4  A    between atoms: C4_10  and  O1_11 
REMARK    5  A    between atoms: C4_10  and  C5_13 
REMARK    6  A    between atoms: C5_13  and  C6_14 
REMARK    7  A    between atoms: C5_13  and  C7_17 
REMARK    8  A    between atoms: C6_14  and  O2_15 
REMARK    9  A    between atoms: C7_17  and  O3_18 
REMARK   10  A    between atoms: C7_17  and  N4_20 
REMARK   11  A    between atoms: N4_20  and  C8_21 
REMARK   12  A    between atoms: C8_21  and  C9_22 
REMARK   13  A    between atoms: C12_31  and  N8_32 
REMARK   14  A    between atoms: N10_38  and  N11_40 
REMARK   15  A    between atoms: C17_48  and  O4_49 
REMARK   16  A    between atoms: C19_55  and  N15_56 
ROOT
HETATM    1  N4  UNL     1      -3.066 -16.634   5.509  1.00  0.00    -0.395 NA
ENDROOT
BRANCH   1   2
HETATM    2  C7  UNL     1      -2.619 -15.766   4.551  1.00  0.00     0.198 C 
BRANCH   2   3
HETATM    3  C5  UNL     1      -3.178 -15.376   3.244  1.00  0.00     0.129 C 
BRANCH   3   4
HETATM    4  C4  UNL     1      -4.099 -16.285   2.575  1.00  0.00     0.152 C 
BRANCH   4   5
HETATM    5  C3  UNL     1      -4.399 -16.172   1.129  1.00  0.00     0.181 C 
BRANCH   5   6
HETATM    6  N3  UNL     1      -5.370 -15.090   0.892  1.00  0.00    -0.173 N 
HETATM    7  C2  UNL     1      -6.693 -15.036   1.032  1.00  0.00     0.736 A 
HETATM    8  N2  UNL     1      -7.570 -15.960   1.487  1.00  0.00    -0.019 N 
HETATM    9  N14 UNL     1      -7.167 -13.825   0.660  1.00  0.00     0.092 N 
HETATM   10  C1  UNL     1      -8.879 -15.652   1.553  1.00  0.00     0.705 A 
ATOM     11  H2  UNL     1      -7.243 -16.881   1.778  1.00  0.00     0.203 HD
HETATM   12  N16 UNL     1      -9.301 -14.430   1.168  1.00  0.00    -0.020 N 
HETATM   13  C19 UNL     1      -8.467 -13.484   0.712  1.00  0.00     0.727 A 
ATOM     14  H16 UNL     1     -10.297 -14.216   1.227  1.00  0.00     0.203 HD
HETATM   15  N13 UNL     1      -6.117 -13.119   0.288  1.00  0.00    -0.260 N 
HETATM   16  C18 UNL     1      -5.011 -13.857   0.414  1.00  0.00     0.219 A 
ATOM     17  H13 UNL     1      -6.146 -12.155  -0.047  1.00  0.00     0.189 HD
BRANCH  10  18
HETATM   18  N1  UNL     1      -9.733 -16.517   1.984  1.00  0.00    -0.234 N 
ATOM     19  H12 UNL     1     -10.705 -16.242   2.122  1.00  0.00     0.174 HD
ATOM     20  H11 UNL     1      -9.442 -17.473   2.187  1.00  0.00     0.174 HD
ENDBRANCH  10  18
BRANCH  13  21
HETATM   21  N15 UNL     1      -8.888 -12.333   0.341  1.00  0.00    -0.232 N 
ATOM     22 2H15 UNL     1      -9.779 -12.215  -0.144  1.00  0.00     0.174 HD
ATOM     23 1H15 UNL     1      -8.354 -11.479   0.502  1.00  0.00     0.174 HD
ENDBRANCH  13  21
ENDBRANCH   5   6
ENDBRANCH   4   5
BRANCH   4  24
HETATM   24  O1  UNL     1      -4.253 -17.559   3.079  1.00  0.00    -0.393 OA
ATOM     25  H1  UNL     1      -3.618 -17.788   3.747  1.00  0.00     0.210 HD
ENDBRANCH   4  24
ENDBRANCH   3   4
BRANCH   3  26
HETATM   26  C6  UNL     1      -1.952 -15.058   2.346  1.00  0.00     0.180 C 
BRANCH  26  27
HETATM   27  O2  UNL     1      -1.095 -16.095   2.184  1.00  0.00    -0.400 OA
ATOM     28  H2  UNL     1      -1.493 -16.951   2.290  1.00  0.00     0.209 HD
ENDBRANCH  26  27
ENDBRANCH   3  26
ENDBRANCH   2   3
BRANCH   2  29
HETATM   29  O3  UNL     1      -1.483 -15.136   4.806  1.00  0.00    -0.339 OA
ATOM     30  H3  UNL     1      -0.732 -15.712   4.710  1.00  0.00     0.220 HD
ENDBRANCH   2  29
ENDBRANCH   1   2
BRANCH   1  31
HETATM   31  C8  UNL     1      -3.506 -17.501   6.465  1.00  0.00     0.217 C 
BRANCH  31  32
HETATM   32  C9  UNL     1      -2.432 -18.487   6.895  1.00  0.00     0.096 A 
HETATM   33  N5  UNL     1      -1.157 -18.036   6.983  1.00  0.00    -0.336 N 
HETATM   34  C10 UNL     1      -0.203 -18.864   7.496  1.00  0.00     0.134 A 
ATOM     35  H5  UNL     1      -0.915 -17.095   6.671  1.00  0.00     0.168 HD
HETATM   36  N6  UNL     1       1.071 -18.367   7.634  1.00  0.00    -0.324 N 
HETATM   37  C15 UNL     1      -0.520 -20.123   7.908  1.00  0.00     0.080 A 
HETATM   38  C11 UNL     1       1.999 -19.151   8.184  1.00  0.00     0.153 A 
ATOM     39  H6  UNL     1       1.300 -17.423   7.324  1.00  0.00     0.169 HD
HETATM   40  N7  UNL     1       3.271 -18.703   8.401  1.00  0.00    -0.174 N 
HETATM   41  C14 UNL     1       1.674 -20.440   8.593  1.00  0.00     0.124 A 
HETATM   42  C12 UNL     1       4.180 -19.520   9.002  1.00  0.00     0.679 A 
ATOM     43  H7  UNL     1       3.539 -17.761   8.113  1.00  0.00     0.186 HD
HETATM   44  N9  UNL     1       3.835 -20.770   9.387  1.00  0.00    -0.173 N 
HETATM   45  C13 UNL     1       2.607 -21.259   9.200  1.00  0.00     0.166 A 
ATOM     46  H9  UNL     1       4.537 -21.359   9.834  1.00  0.00     0.186 HD
HETATM   47  N10 UNL     1       2.326 -22.448   9.537  1.00  0.00    -0.290 N 
ATOM     48  H10 UNL     1       3.092 -22.981   9.948  1.00  0.00     0.188 HD
HETATM   49  N12 UNL     1       0.441 -20.932   8.464  1.00  0.00    -0.347 N 
ATOM     50  H12 UNL     1       0.218 -21.880   8.768  1.00  0.00     0.166 HD
HETATM   51  C16 UNL     1      -1.824 -20.620   7.827  1.00  0.00     0.072 A 
HETATM   52  C17 UNL     1      -2.780 -19.739   7.300  1.00  0.00     0.097 A 
BRANCH  42  53
HETATM   53  N8  UNL     1       5.378 -19.087   9.220  1.00  0.00    -0.234 N 
ATOM     54  H82 UNL     1       5.697 -18.937  10.177  1.00  0.00     0.174 HD
ATOM     55  H81 UNL     1       5.990 -18.887   8.430  1.00  0.00     0.174 HD
ENDBRANCH  42  53
BRANCH  47  56
HETATM   56  N11 UNL     1       1.137 -23.113   9.423  1.00  0.00    -0.344 N 
ATOM     57 2H11 UNL     1       0.502 -22.978  10.210  1.00  0.00     0.176 HD
ATOM     58 1H11 UNL     1       0.810 -23.714   8.667  1.00  0.00     0.176 HD
ENDBRANCH  47  56
BRANCH  52  59
HETATM   59  O4  UNL     1      -4.062 -20.211   7.217  1.00  0.00    -0.358 OA
ATOM     60  H4  UNL     1      -4.322 -20.881   6.596  1.00  0.00     0.217 HD
ENDBRANCH  52  59
ENDBRANCH  31  32
ENDBRANCH   1  31
TORSDOF 16
ENDMDL
MODEL 4
REMARK VINA RESULT: -6.793760521      1.133      2.236
REMARK  16 active torsions:
REMARK  status: ('A' for Active; 'I' for Inactive)
REMARK    1  A    between atoms: N1_1  and  C1_4 
REMARK    2  A    between atoms: N3_8  and  C3_9 
REMARK    3  A    between atoms: C3_9  and  C4_10 
REMARK    4  A    between atoms: C4_10  and  O1_11 
REMARK    5  A    between atoms: C4_10  and  C5_13 
REMARK    6  A    between atoms: C5_13  and  C6_14 
REMARK    7  A    between atoms: C5_13  and  C7_17 
REMARK    8  A    between atoms: C6_14  and  O2_15 
REMARK    9  A    between atoms: C7_17  and  O3_18 
REMARK   10  A    between atoms: C7_17  and  N4_20 
REMARK   11  A    between atoms: N4_20  and  C8_21 
REMARK   12  A    between atoms: C8_21  and  C9_22 
REMARK   13  A    between atoms: C12_31  and  N8_32 
REMARK   14  A    between atoms: N10_38  and  N11_40 
REMARK   15  A    between atoms: C17_48  and  O4_49 
REMARK   16  A    between atoms: C19_55  and  N15_56 
ROOT
HETATM    1  N4  UNL     1      -3.983 -16.680   4.951  1.00  0.00    -0.395 NA
ENDROOT
BRANCH   1   2
HETATM    2  C7  UNL     1      -3.892 -16.528   3.595  1.00  0.00     0.198 C 
BRANCH   2   3
HETATM    3  C5  UNL     1      -3.548 -15.363   2.760  1.00  0.00     0.129 C 
BRANCH   3   4
HETATM    4  C4  UNL     1      -3.930 -15.370   1.353  1.00  0.00     0.152 C 
BRANCH   4   5
HETATM    5  C3  UNL     1      -4.577 -14.203   0.712  1.00  0.00     0.181 C 
BRANCH   5   6
HETATM    6  N3  UNL     1      -5.428 -14.642  -0.407  1.00  0.00    -0.173 N 
HETATM    7  C2  UNL     1      -5.144 -14.974  -1.665  1.00  0.00     0.736 A 
HETATM    8  N2  UNL     1      -3.956 -15.057  -2.308  1.00  0.00    -0.019 N 
HETATM    9  N14 UNL     1      -6.269 -15.288  -2.346  1.00  0.00     0.092 N 
HETATM   10  C1  UNL     1      -3.929 -15.442  -3.597  1.00  0.00     0.705 A 
ATOM     11  H2  UNL     1      -3.090 -14.829  -1.819  1.00  0.00     0.203 HD
HETATM   12  N16 UNL     1      -5.080 -15.743  -4.233  1.00  0.00    -0.020 N 
HETATM   13  C19 UNL     1      -6.278 -15.676  -3.634  1.00  0.00     0.727 A 
ATOM     14  H16 UNL     1      -5.037 -16.033  -5.209  1.00  0.00     0.203 HD
HETATM   15  N13 UNL     1      -7.265 -15.151  -1.493  1.00  0.00    -0.260 N 
HETATM   16  C18 UNL     1      -6.790 -14.758  -0.307  1.00  0.00     0.219 A 
ATOM     17  H13 UNL     1      -8.248 -15.319  -1.706  1.00  0.00     0.189 HD
BRANCH  10  18
HETATM   18  N1  UNL     1      -2.808 -15.528  -4.229  1.00  0.00    -0.234 N 
ATOM     19  H12 UNL     1      -2.774 -15.321  -5.228  1.00  0.00     0.174 HD
ATOM     20  H11 UNL     1      -1.957 -15.801  -3.739  1.00  0.00     0.174 HD
ENDBRANCH  10  18
BRANCH  13  21
HETATM   21  N15 UNL     1      -7.362 -15.955  -4.257  1.00  0.00    -0.232 N 
ATOM     22 2H15 UNL     1      -8.114 -16.487  -3.819  1.00  0.00     0.174 HD
ATOM     23 1H15 UNL     1      -7.525 -15.667  -5.222  1.00  0.00     0.174 HD
ENDBRANCH  13  21
ENDBRANCH   5   6
ENDBRANCH   4   5
BRANCH   4  24
HETATM   24  O1  UNL     1      -3.218 -16.164   0.479  1.00  0.00    -0.393 OA
ATOM     25  H1  UNL     1      -3.550 -17.051   0.407  1.00  0.00     0.210 HD
ENDBRANCH   4  24
ENDBRANCH   3   4
BRANCH   3  26
HETATM   26  C6  UNL     1      -2.016 -15.171   2.924  1.00  0.00     0.180 C 
BRANCH  26  27
HETATM   27  O2  UNL     1      -1.267 -16.145   2.354  1.00  0.00    -0.400 OA
ATOM     28  H2  UNL     1      -0.974 -15.948   1.472  1.00  0.00     0.209 HD
ENDBRANCH  26  27
ENDBRANCH   3  26
ENDBRANCH   2   3
BRANCH   2  29
HETATM   29  O3  UNL     1      -4.146 -17.600   2.860  1.00  0.00    -0.339 OA
ATOM     30  H3  UNL     1      -4.851 -17.443   2.241  1.00  0.00     0.220 HD
ENDBRANCH   2  29
ENDBRANCH   1   2
BRANCH   1  31
HETATM   31  C8  UNL     1      -4.071 -16.827   6.304  1.00  0.00     0.217 C 
BRANCH  31  32
HETATM   32  C9  UNL     1      -2.771 -17.319   6.921  1.00  0.00     0.096 A 
HETATM   33  N5  UNL     1      -2.693 -18.625   7.275  1.00  0.00    -0.336 N 
HETATM   34  C10 UNL     1      -1.495 -19.117   7.702  1.00  0.00     0.134 A 
ATOM     35  H5  UNL     1      -3.514 -19.228   7.224  1.00  0.00     0.168 HD
HETATM   36  N6  UNL     1      -1.421 -20.456   7.998  1.00  0.00    -0.324 N 
HETATM   37  C15 UNL     1      -0.398 -18.314   7.778  1.00  0.00     0.080 A 
HETATM   38  C11 UNL     1      -0.242 -20.958   8.366  1.00  0.00     0.153 A 
ATOM     39  H6  UNL     1      -2.247 -21.052   7.938  1.00  0.00     0.169 HD
HETATM   40  N7  UNL     1      -0.084 -22.291   8.622  1.00  0.00    -0.174 N 
HETATM   41  C14 UNL     1       0.874 -20.132   8.453  1.00  0.00     0.124 A 
HETATM   42  C12 UNL     1       1.146 -22.772   8.955  1.00  0.00     0.679 A 
ATOM     43  H7  UNL     1      -0.883 -22.923   8.564  1.00  0.00     0.186 HD
HETATM   44  N9  UNL     1       2.213 -21.944   9.035  1.00  0.00    -0.173 N 
HETATM   45  C13 UNL     1       2.116 -20.634   8.794  1.00  0.00     0.166 A 
ATOM     46  H9  UNL     1       3.121 -22.333   9.287  1.00  0.00     0.186 HD
HETATM   47  N10 UNL     1       3.126 -19.879   8.915  1.00  0.00    -0.290 N 
ATOM     48  H10 UNL     1       3.989 -20.340   9.202  1.00  0.00     0.188 HD
HETATM   49  N12 UNL     1       0.813 -18.831   8.168  1.00  0.00    -0.347 N 
ATOM     50  H12 UNL     1       1.641 -18.238   8.238  1.00  0.00     0.166 HD
HETATM   51  C16 UNL     1      -0.446 -16.961   7.425  1.00  0.00     0.072 A 
HETATM   52  C17 UNL     1      -1.692 -16.491   6.985  1.00  0.00     0.097 A 
BRANCH  42  53
HETATM   53  N8  UNL     1       1.294 -24.036   9.181  1.00  0.00    -0.234 N 
ATOM     54  H82 UNL     1       1.115 -24.709   8.436  1.00  0.00     0.174 HD
ATOM     55  H81 UNL     1       1.579 -24.350  10.108  1.00  0.00     0.174 HD
ENDBRANCH  42  53
BRANCH  47  56
HETATM   56  N11 UNL     1       3.216 -18.529   8.714  1.00  0.00    -0.344 N 
ATOM     57 2H11 UNL     1       3.285 -18.253   7.735  1.00  0.00     0.176 HD
ATOM     58 1H11 UNL     1       3.222 -17.778   9.404  1.00  0.00     0.176 HD
ENDBRANCH  47  56
BRANCH  52  59
HETATM   59  O4  UNL     1      -1.754 -15.170   6.632  1.00  0.00    -0.358 OA
ATOM     60  H4  UNL     1      -1.141 -14.774   6.024  1.00  0.00     0.217 HD
ENDBRANCH  52  59
ENDBRANCH  31  32
ENDBRANCH   1  31
TORSDOF 16
ENDMDL
MODEL 5
REMARK VINA RESULT: -6.777176824      1.585     12.194
REMARK  16 active torsions:
REMARK  status: ('A' for Active; 'I' for Inactive)
REMARK    1  A    between atoms: N1_1  and  C1_4 
REMARK    2  A    between atoms: N3_8  and  C3_9 
REMARK    3  A    between atoms: C3_9  and  C4_10 
REMARK    4  A    between atoms: C4_10  and  O1_11 
REMARK    5  A    between atoms: C4_10  and  C5_13 
REMARK    6  A    between atoms: C5_13  and  C6_14 
REMARK    7  A    between atoms: C5_13  and  C7_17 
REMARK    8  A    between atoms: C6_14  and  O2_15 
REMARK    9  A    between atoms: C7_17  and  O3_18 
REMARK   10  A    between atoms: C7_17  and  N4_20 
REMARK   11  A    between atoms: N4_20  and  C8_21 
REMARK   12  A    between atoms: C8_21  and  C9_22 
REMARK   13  A    between atoms: C12_31  and  N8_32 
REMARK   14  A    between atoms: N10_38  and  N11_40 
REMARK   15  A    between atoms: C17_48  and  O4_49 
REMARK   16  A    between atoms: C19_55  and  N15_56 
ROOT
HETATM    1  N4  UNL     1      -2.724 -16.822   5.572  1.00  0.00    -0.395 NA
ENDROOT
BRANCH   1   2
HETATM    2  C7  UNL     1      -2.018 -17.950   5.888  1.00  0.00     0.198 C 
BRANCH   2   3
HETATM    3  C5  UNL     1      -2.245 -18.996   6.902  1.00  0.00     0.129 C 
BRANCH   3   4
HETATM    4  C4  UNL     1      -1.208 -19.997   7.122  1.00  0.00     0.152 C 
BRANCH   4   5
HETATM    5  C3  UNL     1      -0.613 -20.227   8.458  1.00  0.00     0.181 C 
BRANCH   5   6
HETATM    6  N3  UNL     1       0.798 -19.808   8.467  1.00  0.00    -0.173 N 
HETATM    7  C2  UNL     1       1.880 -20.333   9.040  1.00  0.00     0.736 A 
HETATM    8  N2  UNL     1       2.030 -21.463   9.770  1.00  0.00    -0.019 N 
HETATM    9  N14 UNL     1       2.972 -19.574   8.796  1.00  0.00     0.092 N 
HETATM   10  C1  UNL     1       3.250 -21.795  10.230  1.00  0.00     0.705 A 
ATOM     11  H2  UNL     1       1.225 -22.058   9.969  1.00  0.00     0.203 HD
HETATM   12  N16 UNL     1       4.308 -21.002   9.959  1.00  0.00    -0.020 N 
HETATM   13  C19 UNL     1       4.205 -19.875   9.240  1.00  0.00     0.727 A 
ATOM     14  H16 UNL     1       5.224 -21.272  10.317  1.00  0.00     0.203 HD
HETATM   15  N13 UNL     1       2.558 -18.564   8.055  1.00  0.00    -0.260 N 
HETATM   16  C18 UNL     1       1.244 -18.674   7.839  1.00  0.00     0.219 A 
ATOM     17  H13 UNL     1       3.151 -17.813   7.702  1.00  0.00     0.189 HD
BRANCH  10  18
HETATM   18  N1  UNL     1       3.416 -22.867  10.927  1.00  0.00    -0.234 N 
ATOM     19  H12 UNL     1       2.953 -23.731  10.645  1.00  0.00     0.174 HD
ATOM     20  H11 UNL     1       4.006 -22.856  11.759  1.00  0.00     0.174 HD
ENDBRANCH  10  18
BRANCH  13  21
HETATM   21  N15 UNL     1       5.219 -19.129   9.003  1.00  0.00    -0.232 N 
ATOM     22 2H15 UNL     1       6.154 -19.517   8.871  1.00  0.00     0.174 HD
ATOM     23 1H15 UNL     1       5.146 -18.113   8.941  1.00  0.00     0.174 HD
ENDBRANCH  13  21
ENDBRANCH   5   6
ENDBRANCH   4   5
BRANCH   4  24
HETATM   24  O1  UNL     1      -1.168 -21.100   6.295  1.00  0.00    -0.393 OA
ATOM     25  H1  UNL     1      -0.857 -21.889   6.721  1.00  0.00     0.210 HD
ENDBRANCH   4  24
ENDBRANCH   3   4
BRANCH   3  26
HETATM   26  C6  UNL     1      -3.594 -19.662   6.518  1.00  0.00     0.180 C 
BRANCH  26  27
HETATM   27  O2  UNL     1      -3.790 -19.797   5.184  1.00  0.00    -0.400 OA
ATOM     28  H2  UNL     1      -4.501 -20.382   4.950  1.00  0.00     0.209 HD
ENDBRANCH  26  27
ENDBRANCH   3  26
ENDBRANCH   2   3
BRANCH   2  29
HETATM   29  O3  UNL     1      -0.927 -18.185   5.177  1.00  0.00    -0.339 OA
ATOM     30  H3  UNL     1      -0.862 -17.603   4.428  1.00  0.00     0.220 HD
ENDBRANCH   2  29
ENDBRANCH   1   2
BRANCH   1  31
HETATM   31  C8  UNL     1      -3.429 -15.700   5.250  1.00  0.00     0.217 C 
BRANCH  31  32
HETATM   32  C9  UNL     1      -3.829 -15.665   3.783  1.00  0.00     0.096 A 
HETATM   33  N5  UNL     1      -5.120 -15.376   3.486  1.00  0.00    -0.336 N 
HETATM   34  C10 UNL     1      -5.469 -15.205   2.179  1.00  0.00     0.134 A 
ATOM     35  H5  UNL     1      -5.817 -15.288   4.226  1.00  0.00     0.168 HD
HETATM   36  N6  UNL     1      -6.768 -14.853   1.903  1.00  0.00    -0.324 N 
HETATM   37  C15 UNL     1      -4.543 -15.328   1.188  1.00  0.00     0.080 A 
HETATM   38  C11 UNL     1      -7.106 -14.632   0.633  1.00  0.00     0.153 A 
ATOM     39  H6  UNL     1      -7.455 -14.762   2.651  1.00  0.00     0.169 HD
HETATM   40  N7  UNL     1      -8.365 -14.225   0.291  1.00  0.00    -0.174 N 
HETATM   41  C14 UNL     1      -6.160 -14.769  -0.378  1.00  0.00     0.124 A 
HETATM   42  C12 UNL     1      -8.661 -13.971  -1.013  1.00  0.00     0.679 A 
ATOM     43  H7  UNL     1      -9.080 -14.114   1.011  1.00  0.00     0.186 HD
HETATM   44  N9  UNL     1      -7.720 -14.116  -1.975  1.00  0.00    -0.173 N 
HETATM   45  C13 UNL     1      -6.475 -14.509  -1.698  1.00  0.00     0.166 A 
ATOM     46  H9  UNL     1      -7.971 -13.918  -2.943  1.00  0.00     0.186 HD
HETATM   47  N10 UNL     1      -5.628 -14.672  -2.626  1.00  0.00    -0.290 N 
ATOM     48  H10 UNL     1      -5.967 -14.485  -3.570  1.00  0.00     0.188 HD
HETATM   49  N12 UNL     1      -4.897 -15.111  -0.121  1.00  0.00    -0.347 N 
ATOM     50  H12 UNL     1      -4.215 -15.209  -0.873  1.00  0.00     0.166 HD
HETATM   51  C16 UNL     1      -3.205 -15.629   1.461  1.00  0.00     0.072 A 
HETATM   52  C17 UNL     1      -2.881 -15.792   2.816  1.00  0.00     0.097 A 
BRANCH  42  53
HETATM   53  N8  UNL     1      -9.848 -13.571  -1.330  1.00  0.00    -0.234 N 
ATOM     54  H82 UNL     1     -10.177 -13.667  -2.290  1.00  0.00     0.174 HD
ATOM     55  H81 UNL     1     -10.442 -13.150  -0.616  1.00  0.00     0.174 HD
ENDBRANCH  42  53
BRANCH  47  56
HETATM   56  N11 UNL     1      -4.321 -15.067  -2.535  1.00  0.00    -0.344 N 
ATOM     57 2H11 UNL     1      -4.149 -15.794  -1.841  1.00  0.00     0.176 HD
ATOM     58 1H11 UNL     1      -3.514 -14.733  -3.061  1.00  0.00     0.176 HD
ENDBRANCH  47  56
BRANCH  52  59
HETATM   59  O4  UNL     1      -1.574 -16.085   3.098  1.00  0.00    -0.358 OA
ATOM     60  H4  UNL     1      -0.926 -15.413   3.276  1.00  0.00     0.217 HD
ENDBRANCH  52  59
ENDBRANCH  31  32
ENDBRANCH   1  31
TORSDOF 16
ENDMDL
