MODEL 1
REMARK VINA RESULT: -9.222929079      0.000      0.000
REMARK  14 active torsions:
REMARK  status: ('A' for Active; 'I' for Inactive)
REMARK    1  A    between atoms: C4_5  and  C5_6 
REMARK    2  A    between atoms: C5_6  and  C6_7 
REMARK    3  A    between atoms: C6_7  and  C7_8 
REMARK    4  A    between atoms: C7_8  and  C8_9 
REMARK    5  A    between atoms: C11_12  and  C12_13 
REMARK       I    between atoms: C12_13  and  N1_15 
REMARK    6  A    between atoms: C17_21  and  C18_22 
REMARK    7  A    between atoms: C18_22  and  O4_23 
REMARK    8  A    between atoms: O4_23  and  C19_24 
REMARK    9  A    between atoms: C19_24  and  C20_25 
REMARK   10  A    between atoms: N2_27  and  C22_28 
REMARK   11  A    between atoms: C22_28  and  C23_29 
REMARK       I    between atoms: C23_29  and  N3_31 
REMARK   12  A    between atoms: N3_31  and  C24_33 
REMARK   13  A    between atoms: C24_33  and  C25_34 
REMARK   14  A    between atoms: C25_34  and  C26_35 
ROOT
HETATM    1  C8  UNL     1      14.302  20.018  19.780  1.00  0.00    -0.058 A 
HETATM    2  C9  UNL     1      14.781  19.131  18.801  1.00  0.00     0.008 A 
HETATM    3  C10 UNL     1      15.281  19.546  17.626  1.00  0.00     0.018 A 
HETATM    4  C11 UNL     1      15.328  20.942  17.368  1.00  0.00     0.040 A 
HETATM    5  C17 UNL     1      14.879  21.795  18.308  1.00  0.00    -0.018 A 
HETATM    6  C30 UNL     1      14.347  21.384  19.541  1.00  0.00     0.017 A 
ENDROOT
BRANCH   5   7
HETATM    7  C18 UNL     1      15.062  23.298  18.087  1.00  0.00     0.207 C 
BRANCH   7   8
HETATM    8  O4  UNL     1      16.190  23.662  18.632  1.00  0.00    -0.382 OA
BRANCH   8   9
HETATM    9  C19 UNL     1      17.397  23.953  18.320  1.00  0.00     0.212 C 
BRANCH   9  10
HETATM   10  C20 UNL     1      18.560  23.606  19.227  1.00  0.00     0.040 A 
HETATM   11  C21 UNL     1      19.381  24.558  19.757  1.00  0.00     0.113 A 
HETATM   12  N2  UNL     1      20.477  24.155  20.355  1.00  0.00    -0.316 N 
HETATM   13  S1  UNL     1      20.443  22.482  20.233  1.00  0.00     0.032 SA
HETATM   14  C29 UNL     1      18.986  22.308  19.385  1.00  0.00     0.238 A 
HETATM   15  O6  UNL     1      18.388  21.246  18.976  1.00  0.00    -0.278 OA
BRANCH  12  16
HETATM   16  C22 UNL     1      21.669  24.924  20.818  1.00  0.00     0.239 C 
BRANCH  16  17
HETATM   17  C23 UNL     1      22.586  24.947  19.666  1.00  0.00     0.236 C 
HETATM   18  O5  UNL     1      23.529  24.104  19.668  1.00  0.00    -0.272 OA
HETATM   19  N3  UNL     1      22.468  25.844  18.592  1.00  0.00    -0.359 N 
ATOM     20  H3  UNL     1      21.700  26.515  18.569  1.00  0.00     0.162 HD
BRANCH  19  21
HETATM   21  C24 UNL     1      23.460  25.817  17.493  1.00  0.00     0.130 C 
BRANCH  21  22
HETATM   22  C25 UNL     1      23.464  27.112  16.723  1.00  0.00     0.096 C 
BRANCH  22  23
HETATM   23  C26 UNL     1      22.301  27.285  15.825  1.00  0.00     0.082 A 
HETATM   24  N4  UNL     1      21.912  26.309  14.953  1.00  0.00    -0.354 N 
HETATM   25  C27 UNL     1      20.834  26.715  14.320  1.00  0.00     0.106 A 
ATOM     26  H4  UNL     1      22.380  25.414  14.815  1.00  0.00     0.166 HD
HETATM   27  C28 UNL     1      20.488  27.990  14.770  1.00  0.00     0.106 A 
HETATM   28  N5  UNL     1      21.437  28.252  15.681  1.00  0.00    -0.354 N 
ATOM     29  H5  UNL     1      21.480  29.123  16.211  1.00  0.00     0.166 HD
ENDBRANCH  22  23
ENDBRANCH  21  22
ENDBRANCH  19  21
ENDBRANCH  16  17
ENDBRANCH  12  16
ENDBRANCH   9  10
ENDBRANCH   8   9
ENDBRANCH   7   8
ENDBRANCH   5   7
BRANCH   4  30
HETATM   30  C12 UNL     1      15.800  21.319  16.067  1.00  0.00     0.254 C 
HETATM   31  O2  UNL     1      16.998  21.590  15.868  1.00  0.00    -0.267 OA
HETATM   32  N1  UNL     1      14.885  21.364  14.947  1.00  0.00    -0.344 N 
HETATM   33  C13 UNL     1      15.464  21.645  13.656  1.00  0.00     0.152 C 
HETATM   34  C16 UNL     1      13.489  21.140  15.131  1.00  0.00     0.152 C 
HETATM   35  C14 UNL     1      14.488  21.902  12.580  1.00  0.00     0.187 C 
HETATM   36  O3  UNL     1      13.235  21.366  12.781  1.00  0.00    -0.388 OA
HETATM   37  C15 UNL     1      12.714  21.810  14.011  1.00  0.00     0.187 C 
ENDBRANCH   4  30
BRANCH   1  38
HETATM   38  C7  UNL     1      13.823  19.435  21.038  1.00  0.00     0.039 C 
BRANCH  38  39
HETATM   39  C6  UNL     1      12.901  18.248  20.913  1.00  0.00     0.010 C 
BRANCH  39  40
HETATM   40  C5  UNL     1      11.605  18.555  20.292  1.00  0.00     0.053 C 
BRANCH  40  41
HETATM   41  C4  UNL     1      11.229  17.966  19.007  1.00  0.00    -0.010 C 
HETATM   42  C3  UNL     1      12.071  16.847  18.419  1.00  0.00     0.062 C 
HETATM   43  C2  UNL     1      11.003  16.102  17.582  1.00  0.00     0.108 C 
HETATM   44  C1  UNL     1      10.280  17.269  17.097  1.00  0.00     0.222 C 
HETATM   45  O1  UNL     1       9.768  17.549  15.964  1.00  0.00    -0.273 OA
HETATM   46  N6  UNL     1      10.230  18.163  18.215  1.00  0.00    -0.334 N 
ATOM     47  H6  UNL     1       9.503  18.863  18.364  1.00  0.00     0.168 HD
ENDBRANCH  40  41
ENDBRANCH  39  40
ENDBRANCH  38  39
ENDBRANCH   1  38
TORSDOF 14
ENDMDL
MODEL 2
REMARK VINA RESULT: -9.212523195      2.704     10.823
REMARK  14 active torsions:
REMARK  status: ('A' for Active; 'I' for Inactive)
REMARK    1  A    between atoms: C4_5  and  C5_6 
REMARK    2  A    between atoms: C5_6  and  C6_7 
REMARK    3  A    between atoms: C6_7  and  C7_8 
REMARK    4  A    between atoms: C7_8  and  C8_9 
REMARK    5  A    between atoms: C11_12  and  C12_13 
REMARK       I    between atoms: C12_13  and  N1_15 
REMARK    6  A    between atoms: C17_21  and  C18_22 
REMARK    7  A    between atoms: C18_22  and  O4_23 
REMARK    8  A    between atoms: O4_23  and  C19_24 
REMARK    9  A    between atoms: C19_24  and  C20_25 
REMARK   10  A    between atoms: N2_27  and  C22_28 
REMARK   11  A    between atoms: C22_28  and  C23_29 
REMARK       I    between atoms: C23_29  and  N3_31 
REMARK   12  A    between atoms: N3_31  and  C24_33 
REMARK   13  A    between atoms: C24_33  and  C25_34 
REMARK   14  A    between atoms: C25_34  and  C26_35 
ROOT
HETATM    1  C8  UNL     1      18.332  25.813  14.949  1.00  0.00    -0.058 A 
HETATM    2  C9  UNL     1      19.480  25.065  15.260  1.00  0.00     0.008 A 
HETATM    3  C10 UNL     1      19.441  23.948  16.005  1.00  0.00     0.018 A 
HETATM    4  C11 UNL     1      18.183  23.507  16.495  1.00  0.00     0.040 A 
HETATM    5  C17 UNL     1      17.079  24.216  16.189  1.00  0.00    -0.018 A 
HETATM    6  C30 UNL     1      17.096  25.389  15.417  1.00  0.00     0.017 A 
ENDROOT
BRANCH   5   7
HETATM    7  C18 UNL     1      15.712  23.661  16.596  1.00  0.00     0.207 C 
BRANCH   7   8
HETATM    8  O4  UNL     1      15.230  22.975  15.596  1.00  0.00    -0.382 OA
BRANCH   8   9
HETATM    9  C19 UNL     1      14.733  21.827  15.326  1.00  0.00     0.212 C 
BRANCH   9  10
HETATM   10  C20 UNL     1      13.236  21.595  15.290  1.00  0.00     0.040 A 
HETATM   11  C21 UNL     1      12.638  20.587  15.988  1.00  0.00     0.113 A 
HETATM   12  N2  UNL     1      11.375  20.335  15.733  1.00  0.00    -0.316 N 
HETATM   13  S1  UNL     1      10.944  21.445  14.552  1.00  0.00     0.032 SA
HETATM   14  C29 UNL     1      12.431  22.242  14.382  1.00  0.00     0.238 A 
HETATM   15  O6  UNL     1      12.764  23.217  13.613  1.00  0.00    -0.278 OA
BRANCH  12  16
HETATM   16  C22 UNL     1      10.516  19.183  16.136  1.00  0.00     0.239 C 
BRANCH  16  17
HETATM   17  C23 UNL     1      11.107  18.679  17.386  1.00  0.00     0.236 C 
HETATM   18  O5  UNL     1      10.874  19.344  18.438  1.00  0.00    -0.272 OA
HETATM   19  N3  UNL     1      11.903  17.525  17.464  1.00  0.00    -0.359 N 
ATOM     20  H3  UNL     1      12.080  16.970  16.627  1.00  0.00     0.162 HD
BRANCH  19  21
HETATM   21  C24 UNL     1      12.485  17.114  18.762  1.00  0.00     0.130 C 
BRANCH  21  22
HETATM   22  C25 UNL     1      13.964  17.399  18.817  1.00  0.00     0.096 C 
BRANCH  22  23
HETATM   23  C26 UNL     1      14.297  18.834  18.964  1.00  0.00     0.082 A 
HETATM   24  N4  UNL     1      13.750  19.604  19.949  1.00  0.00    -0.354 N 
HETATM   25  C27 UNL     1      14.256  20.814  19.867  1.00  0.00     0.106 A 
ATOM     26  H4  UNL     1      13.064  19.292  20.636  1.00  0.00     0.166 HD
HETATM   27  C28 UNL     1      15.159  20.866  18.805  1.00  0.00     0.106 A 
HETATM   28  N5  UNL     1      15.116  19.616  18.317  1.00  0.00    -0.354 N 
ATOM     29  H5  UNL     1      15.669  19.309  17.517  1.00  0.00     0.166 HD
ENDBRANCH  22  23
ENDBRANCH  21  22
ENDBRANCH  19  21
ENDBRANCH  16  17
ENDBRANCH  12  16
ENDBRANCH   9  10
ENDBRANCH   8   9
ENDBRANCH   7   8
ENDBRANCH   5   7
BRANCH   4  30
HETATM   30  C12 UNL     1      18.216  22.354  17.348  1.00  0.00     0.254 C 
HETATM   31  O2  UNL     1      17.817  21.245  16.949  1.00  0.00    -0.267 OA
HETATM   32  N1  UNL     1      18.745  22.458  18.690  1.00  0.00    -0.344 N 
HETATM   33  C13 UNL     1      18.843  21.229  19.439  1.00  0.00     0.152 C 
HETATM   34  C16 UNL     1      19.143  23.718  19.226  1.00  0.00     0.152 C 
HETATM   35  C14 UNL     1      19.173  21.396  20.866  1.00  0.00     0.187 C 
HETATM   36  O3  UNL     1      19.824  22.567  21.187  1.00  0.00    -0.388 OA
HETATM   37  C15 UNL     1      19.075  23.671  20.742  1.00  0.00     0.187 C 
ENDBRANCH   4  30
BRANCH   1  38
HETATM   38  C7  UNL     1      18.507  26.988  14.089  1.00  0.00     0.039 C 
BRANCH  38  39
HETATM   39  C6  UNL     1      19.551  27.984  14.528  1.00  0.00     0.010 C 
BRANCH  39  40
HETATM   40  C5  UNL     1      20.878  27.767  13.936  1.00  0.00     0.053 C 
BRANCH  40  41
HETATM   41  C4  UNL     1      22.046  27.517  14.780  1.00  0.00    -0.010 C 
HETATM   42  C3  UNL     1      22.687  28.669  15.535  1.00  0.00     0.062 C 
HETATM   43  C2  UNL     1      23.294  27.911  16.741  1.00  0.00     0.108 C 
HETATM   44  C1  UNL     1      23.733  26.720  16.028  1.00  0.00     0.222 C 
HETATM   45  O1  UNL     1      24.786  26.008  16.117  1.00  0.00    -0.273 OA
HETATM   46  N6  UNL     1      22.681  26.439  15.096  1.00  0.00    -0.334 N 
ATOM     47  H6  UNL     1      22.464  25.512  14.731  1.00  0.00     0.168 HD
ENDBRANCH  40  41
ENDBRANCH  39  40
ENDBRANCH  38  39
ENDBRANCH   1  38
TORSDOF 14
ENDMDL
MODEL 3
REMARK VINA RESULT: -9.089720716      2.579     10.796
REMARK  14 active torsions:
REMARK  status: ('A' for Active; 'I' for Inactive)
REMARK    1  A    between atoms: C4_5  and  C5_6 
REMARK    2  A    between atoms: C5_6  and  C6_7 
REMARK    3  A    between atoms: C6_7  and  C7_8 
REMARK    4  A    between atoms: C7_8  and  C8_9 
REMARK    5  A    between atoms: C11_12  and  C12_13 
REMARK       I    between atoms: C12_13  and  N1_15 
REMARK    6  A    between atoms: C17_21  and  C18_22 
REMARK    7  A    between atoms: C18_22  and  O4_23 
REMARK    8  A    between atoms: O4_23  and  C19_24 
REMARK    9  A    between atoms: C19_24  and  C20_25 
REMARK   10  A    between atoms: N2_27  and  C22_28 
REMARK   11  A    between atoms: C22_28  and  C23_29 
REMARK       I    between atoms: C23_29  and  N3_31 
REMARK   12  A    between atoms: N3_31  and  C24_33 
REMARK   13  A    between atoms: C24_33  and  C25_34 
REMARK   14  A    between atoms: C25_34  and  C26_35 
ROOT
HETATM    1  C8  UNL     1      18.155  25.605  15.166  1.00  0.00    -0.058 A 
HETATM    2  C9  UNL     1      19.230  24.701  15.227  1.00  0.00     0.008 A 
HETATM    3  C10 UNL     1      19.235  23.631  16.038  1.00  0.00     0.018 A 
HETATM    4  C11 UNL     1      18.103  23.405  16.865  1.00  0.00     0.040 A 
HETATM    5  C17 UNL     1      17.066  24.263  16.801  1.00  0.00    -0.018 A 
HETATM    6  C30 UNL     1      17.041  25.392  15.965  1.00  0.00     0.017 A 
ENDROOT
BRANCH   5   7
HETATM    7  C18 UNL     1      15.793  23.939  17.584  1.00  0.00     0.207 C 
BRANCH   7   8
HETATM    8  O4  UNL     1      15.009  23.226  16.824  1.00  0.00    -0.382 OA
BRANCH   8   9
HETATM    9  C19 UNL     1      14.069  23.358  15.964  1.00  0.00     0.212 C 
BRANCH   9  10
HETATM   10  C20 UNL     1      13.752  22.269  14.959  1.00  0.00     0.040 A 
HETATM   11  C21 UNL     1      12.500  21.746  14.821  1.00  0.00     0.113 A 
HETATM   12  N2  UNL     1      12.365  20.671  14.080  1.00  0.00    -0.316 N 
HETATM   13  S1  UNL     1      13.914  20.327  13.536  1.00  0.00     0.032 SA
HETATM   14  C29 UNL     1      14.748  21.595  14.291  1.00  0.00     0.238 A 
HETATM   15  O6  UNL     1      15.998  21.894  14.268  1.00  0.00    -0.278 OA
BRANCH  12  16
HETATM   16  C22 UNL     1      11.209  19.740  13.921  1.00  0.00     0.239 C 
BRANCH  16  17
HETATM   17  C23 UNL     1      10.944  19.219  15.272  1.00  0.00     0.236 C 
HETATM   18  O5  UNL     1       9.734  19.171  15.639  1.00  0.00    -0.272 OA
HETATM   19  N3  UNL     1      11.948  18.790  16.154  1.00  0.00    -0.359 N 
ATOM     20  H3  UNL     1      12.926  18.805  15.862  1.00  0.00     0.162 HD
BRANCH  19  21
HETATM   21  C24 UNL     1      11.589  18.314  17.509  1.00  0.00     0.130 C 
BRANCH  21  22
HETATM   22  C25 UNL     1      11.457  19.461  18.478  1.00  0.00     0.096 C 
BRANCH  22  23
HETATM   23  C26 UNL     1      12.735  19.876  19.099  1.00  0.00     0.082 A 
HETATM   24  N4  UNL     1      13.444  20.950  18.642  1.00  0.00    -0.354 N 
HETATM   25  C27 UNL     1      14.504  21.109  19.404  1.00  0.00     0.106 A 
ATOM     26  H4  UNL     1      13.193  21.531  17.844  1.00  0.00     0.166 HD
HETATM   27  C28 UNL     1      14.515  20.124  20.392  1.00  0.00     0.106 A 
HETATM   28  N5  UNL     1      13.402  19.422  20.125  1.00  0.00    -0.354 N 
ATOM     29  H5  UNL     1      13.107  18.613  20.670  1.00  0.00     0.166 HD
ENDBRANCH  22  23
ENDBRANCH  21  22
ENDBRANCH  19  21
ENDBRANCH  16  17
ENDBRANCH  12  16
ENDBRANCH   9  10
ENDBRANCH   8   9
ENDBRANCH   7   8
ENDBRANCH   5   7
BRANCH   4  30
HETATM   30  C12 UNL     1      18.200  22.292  17.764  1.00  0.00     0.254 C 
HETATM   31  O2  UNL     1      17.666  21.200  17.499  1.00  0.00    -0.267 OA
HETATM   32  N1  UNL     1      18.952  22.414  18.994  1.00  0.00    -0.344 N 
HETATM   33  C13 UNL     1      19.091  21.215  19.783  1.00  0.00     0.152 C 
HETATM   34  C16 UNL     1      19.519  23.663  19.386  1.00  0.00     0.152 C 
HETATM   35  C14 UNL     1      19.666  21.419  21.126  1.00  0.00     0.187 C 
HETATM   36  O3  UNL     1      20.440  22.550  21.270  1.00  0.00    -0.388 OA
HETATM   37  C15 UNL     1      19.703  23.688  20.892  1.00  0.00     0.187 C 
ENDBRANCH   4  30
BRANCH   1  38
HETATM   38  C7  UNL     1      18.258  26.708  14.205  1.00  0.00     0.039 C 
BRANCH  38  39
HETATM   39  C6  UNL     1      19.291  27.763  14.511  1.00  0.00     0.010 C 
BRANCH  39  40
HETATM   40  C5  UNL     1      20.598  27.525  13.883  1.00  0.00     0.053 C 
BRANCH  40  41
HETATM   41  C4  UNL     1      21.803  27.360  14.696  1.00  0.00    -0.010 C 
HETATM   42  C3  UNL     1      22.467  28.579  15.313  1.00  0.00     0.062 C 
HETATM   43  C2  UNL     1      23.131  27.938  16.556  1.00  0.00     0.108 C 
HETATM   44  C1  UNL     1      23.548  26.687  15.938  1.00  0.00     0.222 C 
HETATM   45  O1  UNL     1      24.609  25.991  16.047  1.00  0.00    -0.273 OA
HETATM   46  N6  UNL     1      22.460  26.318  15.082  1.00  0.00    -0.334 N 
ATOM     47  H6  UNL     1      22.234  25.360  14.814  1.00  0.00     0.168 HD
ENDBRANCH  40  41
ENDBRANCH  39  40
ENDBRANCH  38  39
ENDBRANCH   1  38
TORSDOF 14
ENDMDL
MODEL 4
REMARK VINA RESULT: -9.046243691      1.720      3.205
REMARK  14 active torsions:
REMARK  status: ('A' for Active; 'I' for Inactive)
REMARK    1  A    between atoms: C4_5  and  C5_6 
REMARK    2  A    between atoms: C5_6  and  C6_7 
REMARK    3  A    between atoms: C6_7  and  C7_8 
REMARK    4  A    between atoms: C7_8  and  C8_9 
REMARK    5  A    between atoms: C11_12  and  C12_13 
REMARK       I    between atoms: C12_13  and  N1_15 
REMARK    6  A    between atoms: C17_21  and  C18_22 
REMARK    7  A    between atoms: C18_22  and  O4_23 
REMARK    8  A    between atoms: O4_23  and  C19_24 
REMARK    9  A    between atoms: C19_24  and  C20_25 
REMARK   10  A    between atoms: N2_27  and  C22_28 
REMARK   11  A    between atoms: C22_28  and  C23_29 
REMARK       I    between atoms: C23_29  and  N3_31 
REMARK   12  A    between atoms: N3_31  and  C24_33 
REMARK   13  A    between atoms: C24_33  and  C25_34 
REMARK   14  A    between atoms: C25_34  and  C26_35 
ROOT
HETATM    1  C8  UNL     1      14.343  19.996  19.801  1.00  0.00    -0.058 A 
HETATM    2  C9  UNL     1      14.947  19.138  18.866  1.00  0.00     0.008 A 
HETATM    3  C10 UNL     1      15.409  19.565  17.680  1.00  0.00     0.018 A 
HETATM    4  C11 UNL     1      15.282  20.943  17.362  1.00  0.00     0.040 A 
HETATM    5  C17 UNL     1      14.713  21.770  18.261  1.00  0.00    -0.018 A 
HETATM    6  C30 UNL     1      14.218  21.346  19.504  1.00  0.00     0.017 A 
ENDROOT
BRANCH   5   7
HETATM    7  C18 UNL     1      14.707  23.274  17.977  1.00  0.00     0.207 C 
BRANCH   7   8
HETATM    8  O4  UNL     1      15.894  23.749  18.237  1.00  0.00    -0.382 OA
BRANCH   8   9
HETATM    9  C19 UNL     1      16.538  24.854  18.265  1.00  0.00     0.212 C 
BRANCH   9  10
HETATM   10  C20 UNL     1      17.629  25.166  17.260  1.00  0.00     0.040 A 
HETATM   11  C21 UNL     1      18.846  25.655  17.633  1.00  0.00     0.113 A 
HETATM   12  N2  UNL     1      19.646  26.089  16.687  1.00  0.00    -0.316 N 
HETATM   13  S1  UNL     1      18.794  25.851  15.261  1.00  0.00     0.032 SA
HETATM   14  C29 UNL     1      17.375  25.185  15.908  1.00  0.00     0.238 A 
HETATM   15  O6  UNL     1      16.308  24.780  15.318  1.00  0.00    -0.278 OA
BRANCH  12  16
HETATM   16  C22 UNL     1      20.909  26.878  16.771  1.00  0.00     0.239 C 
BRANCH  16  17
HETATM   17  C23 UNL     1      21.661  26.286  17.889  1.00  0.00     0.236 C 
HETATM   18  O5  UNL     1      21.676  26.934  18.976  1.00  0.00    -0.272 OA
HETATM   19  N3  UNL     1      22.353  25.066  17.806  1.00  0.00    -0.359 N 
ATOM     20  H3  UNL     1      22.331  24.526  16.941  1.00  0.00     0.162 HD
BRANCH  19  21
HETATM   21  C24 UNL     1      23.113  24.566  18.973  1.00  0.00     0.130 C 
BRANCH  21  22
HETATM   22  C25 UNL     1      22.550  23.263  19.479  1.00  0.00     0.096 C 
BRANCH  22  23
HETATM   23  C26 UNL     1      21.148  23.352  19.947  1.00  0.00     0.082 A 
HETATM   24  N4  UNL     1      20.709  24.391  20.715  1.00  0.00    -0.354 N 
HETATM   25  C27 UNL     1      19.424  24.233  20.942  1.00  0.00     0.106 A 
ATOM     26  H4  UNL     1      21.282  25.163  21.056  1.00  0.00     0.166 HD
HETATM   27  C28 UNL     1      18.986  23.064  20.319  1.00  0.00     0.106 A 
HETATM   28  N5  UNL     1      20.104  22.598  19.741  1.00  0.00    -0.354 N 
ATOM     29  H5  UNL     1      20.134  21.737  19.194  1.00  0.00     0.166 HD
ENDBRANCH  22  23
ENDBRANCH  21  22
ENDBRANCH  19  21
ENDBRANCH  16  17
ENDBRANCH  12  16
ENDBRANCH   9  10
ENDBRANCH   8   9
ENDBRANCH   7   8
ENDBRANCH   5   7
BRANCH   4  30
HETATM   30  C12 UNL     1      15.722  21.324  16.051  1.00  0.00     0.254 C 
HETATM   31  O2  UNL     1      16.896  21.680  15.843  1.00  0.00    -0.267 OA
HETATM   32  N1  UNL     1      14.806  21.273  14.933  1.00  0.00    -0.344 N 
HETATM   33  C13 UNL     1      15.361  21.566  13.634  1.00  0.00     0.152 C 
HETATM   34  C16 UNL     1      13.431  20.949  15.126  1.00  0.00     0.152 C 
HETATM   35  C14 UNL     1      14.368  21.723  12.556  1.00  0.00     0.187 C 
HETATM   36  O3  UNL     1      13.158  21.099  12.773  1.00  0.00    -0.388 OA
HETATM   37  C15 UNL     1      12.606  21.531  13.993  1.00  0.00     0.187 C 
ENDBRANCH   4  30
BRANCH   1  38
HETATM   38  C7  UNL     1      13.922  19.409  21.077  1.00  0.00     0.039 C 
BRANCH  38  39
HETATM   39  C6  UNL     1      12.509  18.886  21.135  1.00  0.00     0.010 C 
BRANCH  39  40
HETATM   40  C5  UNL     1      12.316  17.597  20.456  1.00  0.00     0.053 C 
BRANCH  40  41
HETATM   41  C4  UNL     1      11.540  17.508  19.219  1.00  0.00    -0.010 C 
HETATM   42  C3  UNL     1      11.192  18.776  18.458  1.00  0.00     0.062 C 
HETATM   43  C2  UNL     1      11.081  18.217  17.019  1.00  0.00     0.108 C 
HETATM   44  C1  UNL     1      10.440  16.951  17.344  1.00  0.00     0.222 C 
HETATM   45  O1  UNL     1       9.507  16.294  16.778  1.00  0.00    -0.273 OA
HETATM   46  N6  UNL     1      11.087  16.507  18.543  1.00  0.00    -0.334 N 
ATOM     47  H6  UNL     1      11.177  15.531  18.823  1.00  0.00     0.168 HD
ENDBRANCH  40  41
ENDBRANCH  39  40
ENDBRANCH  38  39
ENDBRANCH   1  38
TORSDOF 14
ENDMDL
MODEL 5
REMARK VINA RESULT: -9.027417578      2.955      8.006
REMARK  14 active torsions:
REMARK  status: ('A' for Active; 'I' for Inactive)
REMARK    1  A    between atoms: C4_5  and  C5_6 
REMARK    2  A    between atoms: C5_6  and  C6_7 
REMARK    3  A    between atoms: C6_7  and  C7_8 
REMARK    4  A    between atoms: C7_8  and  C8_9 
REMARK    5  A    between atoms: C11_12  and  C12_13 
REMARK       I    between atoms: C12_13  and  N1_15 
REMARK    6  A    between atoms: C17_21  and  C18_22 
REMARK    7  A    between atoms: C18_22  and  O4_23 
REMARK    8  A    between atoms: O4_23  and  C19_24 
REMARK    9  A    between atoms: C19_24  and  C20_25 
REMARK   10  A    between atoms: N2_27  and  C22_28 
REMARK   11  A    between atoms: C22_28  and  C23_29 
REMARK       I    between atoms: C23_29  and  N3_31 
REMARK   12  A    between atoms: N3_31  and  C24_33 
REMARK   13  A    between atoms: C24_33  and  C25_34 
REMARK   14  A    between atoms: C25_34  and  C26_35 
ROOT
HETATM    1  C8  UNL     1      18.488  24.601  15.810  1.00  0.00    -0.058 A 
HETATM    2  C9  UNL     1      17.210  25.181  15.724  1.00  0.00     0.008 A 
HETATM    3  C10 UNL     1      16.084  24.506  16.010  1.00  0.00     0.018 A 
HETATM    4  C11 UNL     1      16.195  23.151  16.418  1.00  0.00     0.040 A 
HETATM    5  C17 UNL     1      17.419  22.595  16.512  1.00  0.00    -0.018 A 
HETATM    6  C30 UNL     1      18.609  23.279  16.213  1.00  0.00     0.017 A 
ENDROOT
BRANCH   5   7
HETATM    7  C18 UNL     1      17.544  21.183  17.089  1.00  0.00     0.207 C 
BRANCH   7   8
HETATM    8  O4  UNL     1      18.379  21.217  18.090  1.00  0.00    -0.382 OA
BRANCH   8   9
HETATM    9  C19 UNL     1      18.449  21.583  19.315  1.00  0.00     0.212 C 
BRANCH   9  10
HETATM   10  C20 UNL     1      19.223  22.817  19.734  1.00  0.00     0.040 A 
HETATM   11  C21 UNL     1      20.508  22.752  20.188  1.00  0.00     0.113 A 
HETATM   12  N2  UNL     1      21.022  23.836  20.722  1.00  0.00    -0.316 N 
HETATM   13  S1  UNL     1      19.801  24.982  20.628  1.00  0.00     0.032 SA
HETATM   14  C29 UNL     1      18.603  24.035  19.891  1.00  0.00     0.238 A 
HETATM   15  O6  UNL     1      17.404  24.340  19.544  1.00  0.00    -0.278 OA
BRANCH  12  16
HETATM   16  C22 UNL     1      22.277  24.029  21.505  1.00  0.00     0.239 C 
BRANCH  16  17
HETATM   17  C23 UNL     1      23.307  24.365  20.508  1.00  0.00     0.236 C 
HETATM   18  O5  UNL     1      23.123  25.416  19.827  1.00  0.00    -0.272 OA
HETATM   19  N3  UNL     1      24.453  23.587  20.277  1.00  0.00    -0.359 N 
ATOM     20  H3  UNL     1      24.622  22.749  20.833  1.00  0.00     0.162 HD
BRANCH  19  21
HETATM   21  C24 UNL     1      25.417  23.985  19.226  1.00  0.00     0.130 C 
BRANCH  21  22
HETATM   22  C25 UNL     1      25.478  22.964  18.120  1.00  0.00     0.096 C 
BRANCH  22  23
HETATM   23  C26 UNL     1      25.834  21.601  18.575  1.00  0.00     0.082 A 
HETATM   24  N4  UNL     1      25.201  20.491  18.097  1.00  0.00    -0.354 N 
HETATM   25  C27 UNL     1      25.749  19.427  18.639  1.00  0.00     0.106 A 
ATOM     26  H4  UNL     1      24.430  20.488  17.429  1.00  0.00     0.166 HD
HETATM   27  C28 UNL     1      26.770  19.823  19.502  1.00  0.00     0.106 A 
HETATM   28  N5  UNL     1      26.746  21.161  19.398  1.00  0.00    -0.354 N 
ATOM     29  H5  UNL     1      27.379  21.774  19.912  1.00  0.00     0.166 HD
ENDBRANCH  22  23
ENDBRANCH  21  22
ENDBRANCH  19  21
ENDBRANCH  16  17
ENDBRANCH  12  16
ENDBRANCH   9  10
ENDBRANCH   8   9
ENDBRANCH   7   8
ENDBRANCH   5   7
BRANCH   4  30
HETATM   30  C12 UNL     1      14.956  22.461  16.634  1.00  0.00     0.254 C 
HETATM   31  O2  UNL     1      14.419  22.436  17.756  1.00  0.00    -0.267 OA
HETATM   32  N1  UNL     1      14.289  21.803  15.533  1.00  0.00    -0.344 N 
HETATM   33  C13 UNL     1      12.995  21.230  15.814  1.00  0.00     0.152 C 
HETATM   34  C16 UNL     1      14.896  21.733  14.244  1.00  0.00     0.152 C 
HETATM   35  C14 UNL     1      12.445  20.381  14.742  1.00  0.00     0.187 C 
HETATM   36  O3  UNL     1      12.935  20.634  13.480  1.00  0.00    -0.388 OA
HETATM   37  C15 UNL     1      14.340  20.544  13.482  1.00  0.00     0.187 C 
ENDBRANCH   4  30
BRANCH   1  38
HETATM   38  C7  UNL     1      19.637  25.461  15.513  1.00  0.00     0.039 C 
BRANCH  38  39
HETATM   39  C6  UNL     1      19.370  26.641  14.613  1.00  0.00     0.010 C 
BRANCH  39  40
HETATM   40  C5  UNL     1      20.583  27.329  14.147  1.00  0.00     0.053 C 
BRANCH  40  41
HETATM   41  C4  UNL     1      21.836  27.230  14.894  1.00  0.00    -0.010 C 
HETATM   42  C3  UNL     1      22.333  28.424  15.691  1.00  0.00     0.062 C 
HETATM   43  C2  UNL     1      23.146  27.706  16.795  1.00  0.00     0.108 C 
HETATM   44  C1  UNL     1      23.722  26.656  15.967  1.00  0.00     0.222 C 
HETATM   45  O1  UNL     1      24.882  26.131  15.936  1.00  0.00    -0.273 OA
HETATM   46  N6  UNL     1      22.664  26.259  15.086  1.00  0.00    -0.334 N 
ATOM     47  H6  UNL     1      22.577  25.333  14.667  1.00  0.00     0.168 HD
ENDBRANCH  40  41
ENDBRANCH  39  40
ENDBRANCH  38  39
ENDBRANCH   1  38
TORSDOF 14
ENDMDL
