MODEL 1
REMARK VINA RESULT: -8.877141518      0.000      0.000
REMARK  16 active torsions:
REMARK  status: ('A' for Active; 'I' for Inactive)
REMARK    1  A    between atoms: C2_2  and  C3_3 
REMARK    2  A    between atoms: C3_3  and  C4_4 
REMARK    3  A    between atoms: C4_4  and  C5_5 
REMARK    4  A    between atoms: C5_5  and  O1_6 
REMARK    5  A    between atoms: O1_6  and  C6_7 
REMARK       I    between atoms: C6_7  and  N1_9 
REMARK       I    between atoms: N2_12  and  C9_13 
REMARK    6  A    between atoms: C9_13  and  C10_15 
REMARK    7  A    between atoms: C10_15  and  C11_16 
REMARK    8  A    between atoms: C10_15  and  N4_27 
REMARK    9  A    between atoms: C11_16  and  C12_17 
REMARK   10  A    between atoms: C12_17  and  N3_20 
REMARK       I    between atoms: N3_20  and  C15_22 
REMARK   11  A    between atoms: C15_22  and  C16_24 
REMARK       I    between atoms: N4_27  and  C19_29 
REMARK   12  A    between atoms: C19_29  and  C20_31 
REMARK   13  A    between atoms: C20_31  and  O6_32 
REMARK   14  A    between atoms: O6_32  and  C21_33 
REMARK   15  A    between atoms: C21_33  and  C22_35 
REMARK   16  A    between atoms: C23_36  and  C24_37 
ROOT
HETATM    1  C10 UNL     1      15.830  23.027  15.968  1.00  0.00     0.179 C 
ENDROOT
BRANCH   1   2
HETATM    2  C9  UNL     1      15.302  22.068  14.930  1.00  0.00     0.242 C 
HETATM    3  N2  UNL     1      14.114  21.331  15.110  1.00  0.00    -0.347 N 
HETATM    4  C8  UNL     1      13.727  20.458  13.986  1.00  0.00     0.146 C 
HETATM    5  C27 UNL     1      13.274  21.322  16.267  1.00  0.00     0.146 C 
HETATM    6  C7  UNL     1      12.221  20.380  13.973  1.00  0.00     0.148 C 
HETATM    7  N1  UNL     1      11.838  19.686  15.209  1.00  0.00    -0.325 N 
HETATM    8  C6  UNL     1      10.715  18.841  15.171  1.00  0.00     0.362 C 
HETATM    9  C28 UNL     1      12.648  19.916  16.420  1.00  0.00     0.148 C 
HETATM   10  O2  UNL     1      10.027  18.650  14.148  1.00  0.00    -0.238 OA
HETATM   11  O3  UNL     1      15.983  21.950  13.877  1.00  0.00    -0.271 OA
BRANCH   8  12
HETATM   12  O1  UNL     1      10.364  18.193  16.343  1.00  0.00    -0.304 OA
BRANCH  12  13
HETATM   13  C5  UNL     1      10.361  16.815  16.529  1.00  0.00     0.180 C 
BRANCH  13  14
HETATM   14  C4  UNL     1      11.174  16.346  17.673  1.00  0.00     0.027 C 
BRANCH  14  15
HETATM   15  C3  UNL     1      11.357  17.284  18.808  1.00  0.00     0.002 C 
BRANCH  15  16
HETATM   16  C2  UNL     1      12.695  17.322  19.457  1.00  0.00    -0.004 C 
HETATM   17  C1  UNL     1      12.447  17.892  20.872  1.00  0.00     0.005 C 
ENDBRANCH  15  16
ENDBRANCH  14  15
ENDBRANCH  13  14
ENDBRANCH  12  13
ENDBRANCH   8  12
ENDBRANCH   1   2
BRANCH   1  18
HETATM   18  C11 UNL     1      16.804  23.913  15.249  1.00  0.00     0.065 C 
BRANCH  18  19
HETATM   19  C12 UNL     1      17.805  24.633  16.076  1.00  0.00     0.028 C 
HETATM   20  C13 UNL     1      18.934  23.798  16.598  1.00  0.00     0.038 C 
HETATM   21  C14 UNL     1      17.136  25.291  17.295  1.00  0.00     0.038 C 
BRANCH  19  22
HETATM   22  N3  UNL     1      18.378  25.708  15.255  1.00  0.00    -0.352 N 
HETATM   23  C15 UNL     1      19.390  26.582  15.665  1.00  0.00     0.222 C 
HETATM   24  O4  UNL     1      19.926  26.538  16.789  1.00  0.00    -0.273 OA
ATOM     25  H3  UNL     1      18.009  25.826  14.312  1.00  0.00     0.163 HD
BRANCH  23  26
HETATM   26  C16 UNL     1      19.865  27.629  14.720  1.00  0.00     0.078 A 
HETATM   27  C17 UNL     1      21.136  28.317  15.062  1.00  0.00     0.015 A 
HETATM   28  C18 UNL     1      21.112  27.358  13.921  1.00  0.00     0.015 A 
ENDBRANCH  23  26
ENDBRANCH  19  22
ENDBRANCH  18  19
ENDBRANCH   1  18
BRANCH   1  29
HETATM   29  N4  UNL     1      16.500  22.194  16.954  1.00  0.00    -0.346 N 
HETATM   30  C19 UNL     1      16.023  22.126  18.276  1.00  0.00     0.242 C 
HETATM   31  O5  UNL     1      15.008  22.798  18.595  1.00  0.00    -0.271 OA
ATOM     32  H4  UNL     1      17.323  21.655  16.684  1.00  0.00     0.163 HD
BRANCH  30  33
HETATM   33  C20 UNL     1      16.705  21.271  19.302  1.00  0.00     0.281 C 
BRANCH  33  34
HETATM   34  O6  UNL     1      18.056  21.196  18.955  1.00  0.00    -0.309 OA
BRANCH  34  35
HETATM   35  C21 UNL     1      19.035  21.802  19.802  1.00  0.00     0.283 C 
HETATM   36  O7  UNL     1      19.984  21.037  20.054  1.00  0.00    -0.260 OA
BRANCH  35  37
HETATM   37  C22 UNL     1      18.853  23.156  20.260  1.00  0.00     0.083 C 
HETATM   38  C23 UNL     1      19.685  24.115  20.399  1.00  0.00     0.026 C 
BRANCH  38  39
HETATM   39  C24 UNL     1      21.097  24.185  20.148  1.00  0.00     0.021 A 
HETATM   40  C25 UNL     1      21.714  24.083  18.880  1.00  0.00     0.106 A 
HETATM   41  N5  UNL     1      22.990  24.170  18.846  1.00  0.00    -0.368 N 
HETATM   42  C26 UNL     1      23.702  24.348  19.936  1.00  0.00     0.138 A 
ATOM     43  H5  UNL     1      23.467  24.099  17.948  1.00  0.00     0.165 HD
HETATM   44  S1  UNL     1      22.494  24.400  21.121  1.00  0.00    -0.084 SA
ENDBRANCH  38  39
ENDBRANCH  35  37
ENDBRANCH  34  35
ENDBRANCH  33  34
ENDBRANCH  30  33
ENDBRANCH   1  29
TORSDOF 16
ENDMDL
MODEL 2
REMARK VINA RESULT: -8.863543490      2.959      6.394
REMARK  16 active torsions:
REMARK  status: ('A' for Active; 'I' for Inactive)
REMARK    1  A    between atoms: C2_2  and  C3_3 
REMARK    2  A    between atoms: C3_3  and  C4_4 
REMARK    3  A    between atoms: C4_4  and  C5_5 
REMARK    4  A    between atoms: C5_5  and  O1_6 
REMARK    5  A    between atoms: O1_6  and  C6_7 
REMARK       I    between atoms: C6_7  and  N1_9 
REMARK       I    between atoms: N2_12  and  C9_13 
REMARK    6  A    between atoms: C9_13  and  C10_15 
REMARK    7  A    between atoms: C10_15  and  C11_16 
REMARK    8  A    between atoms: C10_15  and  N4_27 
REMARK    9  A    between atoms: C11_16  and  C12_17 
REMARK   10  A    between atoms: C12_17  and  N3_20 
REMARK       I    between atoms: N3_20  and  C15_22 
REMARK   11  A    between atoms: C15_22  and  C16_24 
REMARK       I    between atoms: N4_27  and  C19_29 
REMARK   12  A    between atoms: C19_29  and  C20_31 
REMARK   13  A    between atoms: C20_31  and  O6_32 
REMARK   14  A    between atoms: O6_32  and  C21_33 
REMARK   15  A    between atoms: C21_33  and  C22_35 
REMARK   16  A    between atoms: C23_36  and  C24_37 
ROOT
HETATM    1  C10 UNL     1      15.106  22.670  16.343  1.00  0.00     0.179 C 
ENDROOT
BRANCH   1   2
HETATM    2  C9  UNL     1      13.740  22.683  15.704  1.00  0.00     0.242 C 
HETATM    3  N2  UNL     1      13.184  21.551  15.073  1.00  0.00    -0.347 N 
HETATM    4  C8  UNL     1      11.827  21.728  14.522  1.00  0.00     0.146 C 
HETATM    5  C27 UNL     1      13.805  20.276  14.891  1.00  0.00     0.146 C 
HETATM    6  C7  UNL     1      11.129  20.395  14.607  1.00  0.00     0.148 C 
HETATM    7  N1  UNL     1      11.850  19.497  13.696  1.00  0.00    -0.325 N 
HETATM    8  C6  UNL     1      11.109  18.523  13.004  1.00  0.00     0.362 C 
HETATM    9  C28 UNL     1      13.309  19.664  13.560  1.00  0.00     0.148 C 
HETATM   10  O2  UNL     1       9.875  18.379  13.122  1.00  0.00    -0.238 OA
HETATM   11  O3  UNL     1      13.106  23.770  15.756  1.00  0.00    -0.271 OA
BRANCH   8  12
HETATM   12  O1  UNL     1      11.801  17.683  12.148  1.00  0.00    -0.304 OA
BRANCH  12  13
HETATM   13  C5  UNL     1      12.043  16.332  12.371  1.00  0.00     0.180 C 
BRANCH  13  14
HETATM   14  C4  UNL     1      13.337  15.843  11.843  1.00  0.00     0.027 C 
BRANCH  14  15
HETATM   15  C3  UNL     1      13.337  15.249  10.483  1.00  0.00     0.002 C 
BRANCH  15  16
HETATM   16  C2  UNL     1      14.656  14.913   9.882  1.00  0.00    -0.004 C 
HETATM   17  C1  UNL     1      15.667  14.988  11.049  1.00  0.00     0.005 C 
ENDBRANCH  15  16
ENDBRANCH  14  15
ENDBRANCH  13  14
ENDBRANCH  12  13
ENDBRANCH   8  12
ENDBRANCH   1   2
BRANCH   1  18
HETATM   18  C11 UNL     1      14.869  22.461  17.810  1.00  0.00     0.065 C 
BRANCH  18  19
HETATM   19  C12 UNL     1      15.845  21.615  18.542  1.00  0.00     0.028 C 
HETATM   20  C13 UNL     1      16.955  22.353  19.225  1.00  0.00     0.038 C 
HETATM   21  C14 UNL     1      16.502  20.594  17.596  1.00  0.00     0.038 C 
BRANCH  19  22
HETATM   22  N3  UNL     1      15.108  20.858  19.563  1.00  0.00    -0.352 N 
HETATM   23  C15 UNL     1      13.907  20.174  19.348  1.00  0.00     0.222 C 
HETATM   24  O4  UNL     1      13.327  20.128  18.245  1.00  0.00    -0.273 OA
ATOM     25  H3  UNL     1      15.503  20.829  20.502  1.00  0.00     0.163 HD
BRANCH  23  26
HETATM   26  C16 UNL     1      13.273  19.455  20.486  1.00  0.00     0.078 A 
HETATM   27  C17 UNL     1      12.029  18.697  20.194  1.00  0.00     0.015 A 
HETATM   28  C18 UNL     1      13.288  17.949  20.478  1.00  0.00     0.015 A 
ENDBRANCH  23  26
ENDBRANCH  19  22
ENDBRANCH  18  19
ENDBRANCH   1  18
BRANCH   1  29
HETATM   29  N4  UNL     1      15.666  23.985  16.079  1.00  0.00    -0.346 N 
HETATM   30  C19 UNL     1      17.009  24.125  15.681  1.00  0.00     0.242 C 
HETATM   31  O5  UNL     1      17.720  23.093  15.558  1.00  0.00    -0.271 OA
ATOM     32  H4  UNL     1      15.081  24.814  16.184  1.00  0.00     0.163 HD
BRANCH  30  33
HETATM   33  C20 UNL     1      17.598  25.475  15.407  1.00  0.00     0.281 C 
BRANCH  33  34
HETATM   34  O6  UNL     1      18.431  25.797  16.482  1.00  0.00    -0.309 OA
BRANCH  34  35
HETATM   35  C21 UNL     1      19.666  26.474  16.238  1.00  0.00     0.283 C 
HETATM   36  O7  UNL     1      20.088  27.068  17.247  1.00  0.00    -0.260 OA
BRANCH  35  37
HETATM   37  C22 UNL     1      20.276  26.414  14.935  1.00  0.00     0.083 C 
HETATM   38  C23 UNL     1      21.425  26.792  14.527  1.00  0.00     0.026 C 
BRANCH  38  39
HETATM   39  C24 UNL     1      22.519  27.411  15.222  1.00  0.00     0.021 A 
HETATM   40  C25 UNL     1      22.674  28.799  15.439  1.00  0.00     0.106 A 
HETATM   41  N5  UNL     1      23.715  29.173  16.082  1.00  0.00    -0.368 N 
HETATM   42  C26 UNL     1      24.604  28.312  16.524  1.00  0.00     0.138 A 
ATOM     43  H5  UNL     1      23.860  30.167  16.257  1.00  0.00     0.165 HD
HETATM   44  S1  UNL     1      23.938  26.846  16.002  1.00  0.00    -0.084 SA
ENDBRANCH  38  39
ENDBRANCH  35  37
ENDBRANCH  34  35
ENDBRANCH  33  34
ENDBRANCH  30  33
ENDBRANCH   1  29
TORSDOF 16
ENDMDL
MODEL 3
REMARK VINA RESULT: -8.778730339      2.816      5.325
REMARK  16 active torsions:
REMARK  status: ('A' for Active; 'I' for Inactive)
REMARK    1  A    between atoms: C2_2  and  C3_3 
REMARK    2  A    between atoms: C3_3  and  C4_4 
REMARK    3  A    between atoms: C4_4  and  C5_5 
REMARK    4  A    between atoms: C5_5  and  O1_6 
REMARK    5  A    between atoms: O1_6  and  C6_7 
REMARK       I    between atoms: C6_7  and  N1_9 
REMARK       I    between atoms: N2_12  and  C9_13 
REMARK    6  A    between atoms: C9_13  and  C10_15 
REMARK    7  A    between atoms: C10_15  and  C11_16 
REMARK    8  A    between atoms: C10_15  and  N4_27 
REMARK    9  A    between atoms: C11_16  and  C12_17 
REMARK   10  A    between atoms: C12_17  and  N3_20 
REMARK       I    between atoms: N3_20  and  C15_22 
REMARK   11  A    between atoms: C15_22  and  C16_24 
REMARK       I    between atoms: N4_27  and  C19_29 
REMARK   12  A    between atoms: C19_29  and  C20_31 
REMARK   13  A    between atoms: C20_31  and  O6_32 
REMARK   14  A    between atoms: O6_32  and  C21_33 
REMARK   15  A    between atoms: C21_33  and  C22_35 
REMARK   16  A    between atoms: C23_36  and  C24_37 
ROOT
HETATM    1  C10 UNL     1      15.203  22.860  16.158  1.00  0.00     0.179 C 
ENDROOT
BRANCH   1   2
HETATM    2  C9  UNL     1      13.828  22.822  15.540  1.00  0.00     0.242 C 
HETATM    3  N2  UNL     1      13.276  21.650  14.983  1.00  0.00    -0.347 N 
HETATM    4  C8  UNL     1      11.910  21.780  14.443  1.00  0.00     0.146 C 
HETATM    5  C27 UNL     1      13.909  20.373  14.865  1.00  0.00     0.146 C 
HETATM    6  C7  UNL     1      11.228  20.447  14.615  1.00  0.00     0.148 C 
HETATM    7  N1  UNL     1      11.947  19.506  13.746  1.00  0.00    -0.325 N 
HETATM    8  C6  UNL     1      11.207  18.486  13.122  1.00  0.00     0.362 C 
HETATM    9  C28 UNL     1      13.401  19.680  13.580  1.00  0.00     0.148 C 
HETATM   10  O2  UNL     1       9.977  18.336  13.266  1.00  0.00    -0.238 OA
HETATM   11  O3  UNL     1      13.182  23.904  15.539  1.00  0.00    -0.271 OA
BRANCH   8  12
HETATM   12  O1  UNL     1      11.896  17.606  12.305  1.00  0.00    -0.304 OA
BRANCH  12  13
HETATM   13  C5  UNL     1      11.974  16.230  12.492  1.00  0.00     0.180 C 
BRANCH  13  14
HETATM   14  C4  UNL     1      12.057  15.443  11.242  1.00  0.00     0.027 C 
BRANCH  14  15
HETATM   15  C3  UNL     1      13.397  15.287  10.623  1.00  0.00     0.002 C 
BRANCH  15  16
HETATM   16  C2  UNL     1      14.583  15.468  11.503  1.00  0.00    -0.004 C 
HETATM   17  C1  UNL     1      15.782  14.938  10.685  1.00  0.00     0.005 C 
ENDBRANCH  15  16
ENDBRANCH  14  15
ENDBRANCH  13  14
ENDBRANCH  12  13
ENDBRANCH   8  12
ENDBRANCH   1   2
BRANCH   1  18
HETATM   18  C11 UNL     1      14.993  22.684  17.634  1.00  0.00     0.065 C 
BRANCH  18  19
HETATM   19  C12 UNL     1      15.972  21.839  18.363  1.00  0.00     0.028 C 
HETATM   20  C13 UNL     1      16.444  20.619  17.632  1.00  0.00     0.038 C 
HETATM   21  C14 UNL     1      15.390  21.360  19.704  1.00  0.00     0.038 C 
BRANCH  19  22
HETATM   22  N3  UNL     1      17.146  22.669  18.665  1.00  0.00    -0.352 N 
HETATM   23  C15 UNL     1      18.381  22.186  19.111  1.00  0.00     0.222 C 
HETATM   24  O4  UNL     1      18.621  20.978  19.298  1.00  0.00    -0.273 OA
ATOM     25  H3  UNL     1      17.054  23.677  18.539  1.00  0.00     0.163 HD
BRANCH  23  26
HETATM   26  C16 UNL     1      19.478  23.154  19.382  1.00  0.00     0.078 A 
HETATM   27  C17 UNL     1      19.104  24.589  19.465  1.00  0.00     0.015 A 
HETATM   28  C18 UNL     1      19.493  23.864  20.709  1.00  0.00     0.015 A 
ENDBRANCH  23  26
ENDBRANCH  19  22
ENDBRANCH  18  19
ENDBRANCH   1  18
BRANCH   1  29
HETATM   29  N4  UNL     1      15.725  24.182  15.852  1.00  0.00    -0.346 N 
HETATM   30  C19 UNL     1      17.103  24.375  15.639  1.00  0.00     0.242 C 
HETATM   31  O5  UNL     1      17.879  23.387  15.719  1.00  0.00    -0.271 OA
ATOM     32  H4  UNL     1      15.088  24.976  15.791  1.00  0.00     0.163 HD
BRANCH  30  33
HETATM   33  C20 UNL     1      17.655  25.732  15.323  1.00  0.00     0.281 C 
BRANCH  33  34
HETATM   34  O6  UNL     1      19.040  25.602  15.187  1.00  0.00    -0.309 OA
BRANCH  34  35
HETATM   35  C21 UNL     1      19.886  26.709  15.508  1.00  0.00     0.283 C 
HETATM   36  O7  UNL     1      19.963  26.907  16.734  1.00  0.00    -0.260 OA
BRANCH  35  37
HETATM   37  C22 UNL     1      20.534  27.449  14.457  1.00  0.00     0.083 C 
HETATM   38  C23 UNL     1      21.711  27.939  14.377  1.00  0.00     0.026 C 
BRANCH  38  39
HETATM   39  C24 UNL     1      22.806  27.926  15.305  1.00  0.00     0.021 A 
HETATM   40  C25 UNL     1      23.406  29.067  15.885  1.00  0.00     0.106 A 
HETATM   41  N5  UNL     1      24.374  28.865  16.696  1.00  0.00    -0.368 N 
HETATM   42  C26 UNL     1      24.797  27.655  16.983  1.00  0.00     0.138 A 
ATOM     43  H5  UNL     1      24.831  29.666  17.132  1.00  0.00     0.165 HD
HETATM   44  S1  UNL     1      23.758  26.705  16.043  1.00  0.00    -0.084 SA
ENDBRANCH  38  39
ENDBRANCH  35  37
ENDBRANCH  34  35
ENDBRANCH  33  34
ENDBRANCH  30  33
ENDBRANCH   1  29
TORSDOF 16
ENDMDL
MODEL 4
REMARK VINA RESULT: -8.764511796      3.292     10.096
REMARK  16 active torsions:
REMARK  status: ('A' for Active; 'I' for Inactive)
REMARK    1  A    between atoms: C2_2  and  C3_3 
REMARK    2  A    between atoms: C3_3  and  C4_4 
REMARK    3  A    between atoms: C4_4  and  C5_5 
REMARK    4  A    between atoms: C5_5  and  O1_6 
REMARK    5  A    between atoms: O1_6  and  C6_7 
REMARK       I    between atoms: C6_7  and  N1_9 
REMARK       I    between atoms: N2_12  and  C9_13 
REMARK    6  A    between atoms: C9_13  and  C10_15 
REMARK    7  A    between atoms: C10_15  and  C11_16 
REMARK    8  A    between atoms: C10_15  and  N4_27 
REMARK    9  A    between atoms: C11_16  and  C12_17 
REMARK   10  A    between atoms: C12_17  and  N3_20 
REMARK       I    between atoms: N3_20  and  C15_22 
REMARK   11  A    between atoms: C15_22  and  C16_24 
REMARK       I    between atoms: N4_27  and  C19_29 
REMARK   12  A    between atoms: C19_29  and  C20_31 
REMARK   13  A    between atoms: C20_31  and  O6_32 
REMARK   14  A    between atoms: O6_32  and  C21_33 
REMARK   15  A    between atoms: C21_33  and  C22_35 
REMARK   16  A    between atoms: C23_36  and  C24_37 
ROOT
HETATM    1  C10 UNL     1      17.383  23.484  18.756  1.00  0.00     0.179 C 
ENDROOT
BRANCH   1   2
HETATM    2  C9  UNL     1      18.177  24.135  19.860  1.00  0.00     0.242 C 
HETATM    3  N2  UNL     1      19.587  24.182  19.857  1.00  0.00    -0.347 N 
HETATM    4  C8  UNL     1      20.205  24.879  21.001  1.00  0.00     0.146 C 
HETATM    5  C27 UNL     1      20.465  23.607  18.887  1.00  0.00     0.146 C 
HETATM    6  C7  UNL     1      21.492  25.494  20.512  1.00  0.00     0.148 C 
HETATM    7  N1  UNL     1      22.373  24.372  20.162  1.00  0.00    -0.325 N 
HETATM    8  C6  UNL     1      23.753  24.522  20.387  1.00  0.00     0.362 C 
HETATM    9  C28 UNL     1      21.765  23.156  19.593  1.00  0.00     0.148 C 
HETATM   10  O2  UNL     1      24.269  25.553  20.864  1.00  0.00    -0.238 OA
HETATM   11  O3  UNL     1      17.516  24.641  20.805  1.00  0.00    -0.271 OA
BRANCH   8  12
HETATM   12  O1  UNL     1      24.573  23.457  20.053  1.00  0.00    -0.304 OA
BRANCH  12  13
HETATM   13  C5  UNL     1      25.183  23.271  18.818  1.00  0.00     0.180 C 
BRANCH  13  14
HETATM   14  C4  UNL     1      25.551  21.868  18.518  1.00  0.00     0.027 C 
BRANCH  14  15
HETATM   15  C3  UNL     1      26.557  21.225  19.399  1.00  0.00     0.002 C 
BRANCH  15  16
HETATM   16  C2  UNL     1      26.671  19.743  19.341  1.00  0.00    -0.004 C 
HETATM   17  C1  UNL     1      25.652  19.297  18.268  1.00  0.00     0.005 C 
ENDBRANCH  15  16
ENDBRANCH  14  15
ENDBRANCH  13  14
ENDBRANCH  12  13
ENDBRANCH   8  12
ENDBRANCH   1   2
BRANCH   1  18
HETATM   18  C11 UNL     1      17.047  24.584  17.792  1.00  0.00     0.065 C 
BRANCH  18  19
HETATM   19  C12 UNL     1      17.012  24.234  16.349  1.00  0.00     0.028 C 
HETATM   20  C13 UNL     1      17.989  23.184  15.915  1.00  0.00     0.038 C 
HETATM   21  C14 UNL     1      17.275  25.476  15.479  1.00  0.00     0.038 C 
BRANCH  19  22
HETATM   22  N3  UNL     1      15.661  23.754  16.034  1.00  0.00    -0.352 N 
HETATM   23  C15 UNL     1      15.354  22.486  15.529  1.00  0.00     0.222 C 
HETATM   24  O4  UNL     1      16.211  21.612  15.294  1.00  0.00    -0.273 OA
ATOM     25  H3  UNL     1      14.884  24.395  16.196  1.00  0.00     0.163 HD
BRANCH  23  26
HETATM   26  C16 UNL     1      13.932  22.144  15.252  1.00  0.00     0.078 A 
HETATM   27  C17 UNL     1      13.040  23.260  14.844  1.00  0.00     0.015 A 
HETATM   28  C18 UNL     1      13.438  22.239  13.833  1.00  0.00     0.015 A 
ENDBRANCH  23  26
ENDBRANCH  19  22
ENDBRANCH  18  19
ENDBRANCH   1  18
BRANCH   1  29
HETATM   29  N4  UNL     1      16.189  22.960  19.399  1.00  0.00    -0.346 N 
HETATM   30  C19 UNL     1      15.831  21.607  19.252  1.00  0.00     0.242 C 
HETATM   31  O5  UNL     1      16.561  20.855  18.554  1.00  0.00    -0.271 OA
ATOM     32  H4  UNL     1      15.604  23.580  19.961  1.00  0.00     0.163 HD
BRANCH  30  33
HETATM   33  C20 UNL     1      14.603  21.055  19.909  1.00  0.00     0.281 C 
BRANCH  33  34
HETATM   34  O6  UNL     1      14.360  19.795  19.356  1.00  0.00    -0.309 OA
BRANCH  34  35
HETATM   35  C21 UNL     1      13.657  18.813  20.121  1.00  0.00     0.283 C 
HETATM   36  O7  UNL     1      13.369  19.218  21.262  1.00  0.00    -0.260 OA
BRANCH  35  37
HETATM   37  C22 UNL     1      13.360  17.527  19.544  1.00  0.00     0.083 C 
HETATM   38  C23 UNL     1      12.556  17.190  18.612  1.00  0.00     0.026 C 
BRANCH  38  39
HETATM   39  C24 UNL     1      11.661  17.973  17.805  1.00  0.00     0.021 A 
HETATM   40  C25 UNL     1      10.470  17.504  17.206  1.00  0.00     0.106 A 
HETATM   41  N5  UNL     1       9.795  18.346  16.519  1.00  0.00    -0.368 N 
HETATM   42  C26 UNL     1      10.183  19.592  16.374  1.00  0.00     0.138 A 
ATOM     43  H5  UNL     1       8.930  18.041  16.072  1.00  0.00     0.165 HD
HETATM   44  S1  UNL     1      11.619  19.603  17.272  1.00  0.00    -0.084 SA
ENDBRANCH  38  39
ENDBRANCH  35  37
ENDBRANCH  34  35
ENDBRANCH  33  34
ENDBRANCH  30  33
ENDBRANCH   1  29
TORSDOF 16
ENDMDL
MODEL 5
REMARK VINA RESULT: -8.754625375      2.618      5.966
REMARK  16 active torsions:
REMARK  status: ('A' for Active; 'I' for Inactive)
REMARK    1  A    between atoms: C2_2  and  C3_3 
REMARK    2  A    between atoms: C3_3  and  C4_4 
REMARK    3  A    between atoms: C4_4  and  C5_5 
REMARK    4  A    between atoms: C5_5  and  O1_6 
REMARK    5  A    between atoms: O1_6  and  C6_7 
REMARK       I    between atoms: C6_7  and  N1_9 
REMARK       I    between atoms: N2_12  and  C9_13 
REMARK    6  A    between atoms: C9_13  and  C10_15 
REMARK    7  A    between atoms: C10_15  and  C11_16 
REMARK    8  A    between atoms: C10_15  and  N4_27 
REMARK    9  A    between atoms: C11_16  and  C12_17 
REMARK   10  A    between atoms: C12_17  and  N3_20 
REMARK       I    between atoms: N3_20  and  C15_22 
REMARK   11  A    between atoms: C15_22  and  C16_24 
REMARK       I    between atoms: N4_27  and  C19_29 
REMARK   12  A    between atoms: C19_29  and  C20_31 
REMARK   13  A    between atoms: C20_31  and  O6_32 
REMARK   14  A    between atoms: O6_32  and  C21_33 
REMARK   15  A    between atoms: C21_33  and  C22_35 
REMARK   16  A    between atoms: C23_36  and  C24_37 
ROOT
HETATM    1  C10 UNL     1      15.068  22.650  16.364  1.00  0.00     0.179 C 
ENDROOT
BRANCH   1   2
HETATM    2  C9  UNL     1      13.715  22.676  15.700  1.00  0.00     0.242 C 
HETATM    3  N2  UNL     1      13.138  21.534  15.106  1.00  0.00    -0.347 N 
HETATM    4  C8  UNL     1      11.797  21.725  14.522  1.00  0.00     0.146 C 
HETATM    5  C27 UNL     1      13.725  20.235  14.989  1.00  0.00     0.146 C 
HETATM    6  C7  UNL     1      11.058  20.417  14.650  1.00  0.00     0.148 C 
HETATM    7  N1  UNL     1      11.770  19.462  13.790  1.00  0.00    -0.325 N 
HETATM    8  C6  UNL     1      11.013  18.480  13.126  1.00  0.00     0.362 C 
HETATM    9  C28 UNL     1      13.235  19.581  13.676  1.00  0.00     0.148 C 
HETATM   10  O2  UNL     1       9.774  18.376  13.227  1.00  0.00    -0.238 OA
HETATM   11  O3  UNL     1      13.112  23.781  15.694  1.00  0.00    -0.271 OA
BRANCH   8  12
HETATM   12  O1  UNL     1      11.696  17.586  12.319  1.00  0.00    -0.304 OA
BRANCH  12  13
HETATM   13  C5  UNL     1      11.918  16.246  12.615  1.00  0.00     0.180 C 
BRANCH  13  14
HETATM   14  C4  UNL     1      12.055  15.368  11.430  1.00  0.00     0.027 C 
BRANCH  14  15
HETATM   15  C3  UNL     1      13.366  15.363  10.736  1.00  0.00     0.002 C 
BRANCH  15  16
HETATM   16  C2  UNL     1      14.590  15.385  11.581  1.00  0.00    -0.004 C 
HETATM   17  C1  UNL     1      15.746  14.987  10.636  1.00  0.00     0.005 C 
ENDBRANCH  15  16
ENDBRANCH  14  15
ENDBRANCH  13  14
ENDBRANCH  12  13
ENDBRANCH   8  12
ENDBRANCH   1   2
BRANCH   1  18
HETATM   18  C11 UNL     1      14.805  22.395  17.819  1.00  0.00     0.065 C 
BRANCH  18  19
HETATM   19  C12 UNL     1      15.806  21.584  18.558  1.00  0.00     0.028 C 
HETATM   20  C13 UNL     1      16.909  22.359  19.212  1.00  0.00     0.038 C 
HETATM   21  C14 UNL     1      16.473  20.556  17.628  1.00  0.00     0.038 C 
BRANCH  19  22
HETATM   22  N3  UNL     1      15.096  20.836  19.603  1.00  0.00    -0.352 N 
HETATM   23  C15 UNL     1      13.915  20.110  19.414  1.00  0.00     0.222 C 
HETATM   24  O4  UNL     1      13.332  20.016  18.316  1.00  0.00    -0.273 OA
ATOM     25  H3  UNL     1      15.495  20.846  20.542  1.00  0.00     0.163 HD
BRANCH  23  26
HETATM   26  C16 UNL     1      13.307  19.406  20.575  1.00  0.00     0.078 A 
HETATM   27  C17 UNL     1      12.031  18.684  20.331  1.00  0.00     0.015 A 
HETATM   28  C18 UNL     1      13.279  17.900  20.563  1.00  0.00     0.015 A 
ENDBRANCH  23  26
ENDBRANCH  19  22
ENDBRANCH  18  19
ENDBRANCH   1  18
BRANCH   1  29
HETATM   29  N4  UNL     1      15.624  23.977  16.152  1.00  0.00    -0.346 N 
HETATM   30  C19 UNL     1      16.966  24.136  15.757  1.00  0.00     0.242 C 
HETATM   31  O5  UNL     1      17.680  23.113  15.590  1.00  0.00    -0.271 OA
ATOM     32  H4  UNL     1      15.037  24.799  16.291  1.00  0.00     0.163 HD
BRANCH  30  33
HETATM   33  C20 UNL     1      17.552  25.498  15.536  1.00  0.00     0.281 C 
BRANCH  33  34
HETATM   34  O6  UNL     1      18.435  25.752  16.588  1.00  0.00    -0.309 OA
BRANCH  34  35
HETATM   35  C21 UNL     1      19.768  26.183  16.300  1.00  0.00     0.283 C 
HETATM   36  O7  UNL     1      20.141  25.844  15.163  1.00  0.00    -0.260 OA
BRANCH  35  37
HETATM   37  C22 UNL     1      20.513  26.924  17.285  1.00  0.00     0.083 C 
HETATM   38  C23 UNL     1      21.021  26.565  18.400  1.00  0.00     0.026 C 
BRANCH  38  39
HETATM   39  C24 UNL     1      21.030  25.295  19.069  1.00  0.00     0.021 A 
HETATM   40  C25 UNL     1      21.991  24.274  18.885  1.00  0.00     0.106 A 
HETATM   41  N5  UNL     1      21.840  23.205  19.570  1.00  0.00    -0.368 N 
HETATM   42  C26 UNL     1      20.841  23.053  20.410  1.00  0.00     0.138 A 
ATOM     43  H5  UNL     1      22.515  22.448  19.462  1.00  0.00     0.165 HD
HETATM   44  S1  UNL     1      20.032  24.530  20.236  1.00  0.00    -0.084 SA
ENDBRANCH  38  39
ENDBRANCH  35  37
ENDBRANCH  34  35
ENDBRANCH  33  34
ENDBRANCH  30  33
ENDBRANCH   1  29
TORSDOF 16
ENDMDL
