MODEL 1
REMARK VINA RESULT: -5.132016244      0.000      0.000
REMARK  4 active torsions:
REMARK  status: ('A' for Active; 'I' for Inactive)
REMARK    1  A    between atoms: C4_4  and  O1_5 
REMARK    2  A    between atoms: C5_7  and  O2_8 
REMARK    3  A    between atoms: C6_10  and  O3_12 
REMARK    4  A    between atoms: C8_14  and  O4_15 
ROOT
HETATM    1  C1  UNL     1       0.193  -0.189  11.650  1.00  0.00     0.012 C 
HETATM    2  C2  UNL     1       1.386  -0.096  12.594  1.00  0.00     0.016 C 
HETATM    3  C3  UNL     1       1.581  -1.500  13.143  1.00  0.00     0.041 C 
HETATM    4  C4  UNL     1       2.139  -1.404  14.564  1.00  0.00     0.150 C 
HETATM    5  C5  UNL     1       2.984  -0.162  14.586  1.00  0.00     0.183 C 
HETATM    6  C6  UNL     1       2.051   1.057  14.645  1.00  0.00     0.108 C 
HETATM    7  C7  UNL     1       1.785   1.365  16.059  1.00  0.00     0.051 C 
HETATM    8  C8  UNL     1       0.940   0.852  13.724  1.00  0.00     0.158 C 
ENDROOT
BRANCH   6   9
HETATM    9  O3  UNL     1       2.868   2.105  14.147  1.00  0.00    -0.385 OA
ATOM     10  H3  UNL     1       2.559   2.863  14.629  1.00  0.00     0.210 HD
ENDBRANCH   6   9
BRANCH   5  11
HETATM   11  O2  UNL     1       3.923  -0.138  15.586  1.00  0.00    -0.390 OA
ATOM     12  H2  UNL     1       4.821  -0.168  15.278  1.00  0.00     0.210 HD
ENDBRANCH   5  11
BRANCH   8  13
HETATM   13  O4  UNL     1      -0.231   0.362  14.156  1.00  0.00    -0.392 OA
ATOM     14  H4  UNL     1      -0.135  -0.583  14.126  1.00  0.00     0.210 HD
ENDBRANCH   8  13
BRANCH   4  15
HETATM   15  O1  UNL     1       2.957  -2.507  14.799  1.00  0.00    -0.393 OA
ATOM     16  H1  UNL     1       3.170  -2.538  15.725  1.00  0.00     0.210 HD
ENDBRANCH   4  15
TORSDOF 4
ENDMDL
MODEL 2
REMARK VINA RESULT: -4.711906204      1.316      1.906
REMARK  4 active torsions:
REMARK  status: ('A' for Active; 'I' for Inactive)
REMARK    1  A    between atoms: C4_4  and  O1_5 
REMARK    2  A    between atoms: C5_7  and  O2_8 
REMARK    3  A    between atoms: C6_10  and  O3_12 
REMARK    4  A    between atoms: C8_14  and  O4_15 
ROOT
HETATM    1  C1  UNL     1       1.076   2.346  12.656  1.00  0.00     0.012 C 
HETATM    2  C2  UNL     1       1.793   1.164  13.297  1.00  0.00     0.016 C 
HETATM    3  C3  UNL     1       1.455  -0.036  12.428  1.00  0.00     0.041 C 
HETATM    4  C4  UNL     1       1.418  -1.289  13.306  1.00  0.00     0.150 C 
HETATM    5  C5  UNL     1       2.429  -1.055  14.392  1.00  0.00     0.183 C 
HETATM    6  C6  UNL     1       1.829  -0.070  15.407  1.00  0.00     0.108 C 
HETATM    7  C7  UNL     1       1.102  -0.845  16.425  1.00  0.00     0.051 C 
HETATM    8  C8  UNL     1       1.152   1.001  14.689  1.00  0.00     0.158 C 
ENDROOT
BRANCH   6   9
HETATM    9  O3  UNL     1       2.978   0.464  16.047  1.00  0.00    -0.385 OA
ATOM     10  H3  UNL     1       3.674   0.274  15.428  1.00  0.00     0.210 HD
ENDBRANCH   6   9
BRANCH   5  11
HETATM   11  O2  UNL     1       2.882  -2.201  14.995  1.00  0.00    -0.390 OA
ATOM     12  H2  UNL     1       3.752  -2.126  15.368  1.00  0.00     0.210 HD
ENDBRANCH   5  11
BRANCH   8  13
HETATM   13  O4  UNL     1      -0.170   0.955  14.467  1.00  0.00    -0.392 OA
ATOM     14  H4  UNL     1      -0.534   1.678  14.965  1.00  0.00     0.210 HD
ENDBRANCH   8  13
BRANCH   4  15
HETATM   15  O1  UNL     1       1.824  -2.382  12.544  1.00  0.00    -0.393 OA
ATOM     16  H1  UNL     1       1.872  -2.119  11.633  1.00  0.00     0.210 HD
ENDBRANCH   4  15
TORSDOF 4
ENDMDL
MODEL 3
REMARK VINA RESULT: -4.549930420      1.430      3.274
REMARK  4 active torsions:
REMARK  status: ('A' for Active; 'I' for Inactive)
REMARK    1  A    between atoms: C4_4  and  O1_5 
REMARK    2  A    between atoms: C5_7  and  O2_8 
REMARK    3  A    between atoms: C6_10  and  O3_12 
REMARK    4  A    between atoms: C8_14  and  O4_15 
ROOT
HETATM    1  C1  UNL     1       2.723  -2.693  13.842  1.00  0.00     0.012 C 
HETATM    2  C2  UNL     1       1.688  -1.632  14.196  1.00  0.00     0.016 C 
HETATM    3  C3  UNL     1       1.532  -0.782  12.945  1.00  0.00     0.041 C 
HETATM    4  C4  UNL     1       1.195   0.652  13.359  1.00  0.00     0.150 C 
HETATM    5  C5  UNL     1       0.403   0.534  14.630  1.00  0.00     0.183 C 
HETATM    6  C6  UNL     1       1.373   0.208  15.775  1.00  0.00     0.108 C 
HETATM    7  C7  UNL     1       1.857   1.477  16.343  1.00  0.00     0.051 C 
HETATM    8  C8  UNL     1       2.327  -0.795  15.321  1.00  0.00     0.158 C 
ENDROOT
BRANCH   6   9
HETATM    9  O3  UNL     1       0.525  -0.377  16.752  1.00  0.00    -0.385 OA
ATOM     10  H3  UNL     1       0.178   0.378  17.212  1.00  0.00     0.210 HD
ENDBRANCH   6   9
BRANCH   5  11
HETATM   11  O2  UNL     1      -0.374   1.628  14.911  1.00  0.00    -0.390 OA
ATOM     12  H2  UNL     1      -1.003   1.844  14.233  1.00  0.00     0.210 HD
ENDBRANCH   5  11
BRANCH   8  13
HETATM   13  O4  UNL     1       3.534  -0.439  14.856  1.00  0.00    -0.392 OA
ATOM     14  H4  UNL     1       3.747   0.371  15.305  1.00  0.00     0.210 HD
ENDBRANCH   8  13
BRANCH   4  15
HETATM   15  O1  UNL     1       0.386   1.222  12.378  1.00  0.00    -0.393 OA
ATOM     16  H1  UNL     1      -0.521   1.152  12.651  1.00  0.00     0.210 HD
ENDBRANCH   4  15
TORSDOF 4
ENDMDL
MODEL 4
REMARK VINA RESULT: -4.179379493      2.293      3.699
REMARK  4 active torsions:
REMARK  status: ('A' for Active; 'I' for Inactive)
REMARK    1  A    between atoms: C4_4  and  O1_5 
REMARK    2  A    between atoms: C5_7  and  O2_8 
REMARK    3  A    between atoms: C6_10  and  O3_12 
REMARK    4  A    between atoms: C8_14  and  O4_15 
ROOT
HETATM    1  C1  UNL     1       1.463  -0.613  14.039  1.00  0.00     0.012 C 
HETATM    2  C2  UNL     1       1.988   0.594  13.272  1.00  0.00     0.016 C 
HETATM    3  C3  UNL     1       3.056   1.209  14.162  1.00  0.00     0.041 C 
HETATM    4  C4  UNL     1       3.084   2.721  13.931  1.00  0.00     0.150 C 
HETATM    5  C5  UNL     1       2.701   2.921  12.493  1.00  0.00     0.183 C 
HETATM    6  C6  UNL     1       1.184   2.717  12.364  1.00  0.00     0.108 C 
HETATM    7  C7  UNL     1       0.525   4.013  12.588  1.00  0.00     0.051 C 
HETATM    8  C8  UNL     1       0.790   1.556  13.151  1.00  0.00     0.158 C 
ENDROOT
BRANCH   6   9
HETATM    9  O3  UNL     1       1.022   2.411  10.987  1.00  0.00    -0.385 OA
ATOM     10  H3  UNL     1       0.081   2.468  10.866  1.00  0.00     0.210 HD
ENDBRANCH   6   9
BRANCH   5  11
HETATM   11  O2  UNL     1       3.104   4.121  11.965  1.00  0.00    -0.390 OA
ATOM     12  H2  UNL     1       3.136   4.138  11.016  1.00  0.00     0.210 HD
ENDBRANCH   5  11
BRANCH   8  13
HETATM   13  O4  UNL     1       0.321   1.696  14.400  1.00  0.00    -0.392 OA
ATOM     14  H4  UNL     1      -0.395   2.317  14.330  1.00  0.00     0.210 HD
ENDBRANCH   8  13
BRANCH   4  15
HETATM   15  O1  UNL     1       4.387   3.179  14.116  1.00  0.00    -0.393 OA
ATOM     16  H1  UNL     1       4.645   3.681  13.353  1.00  0.00     0.210 HD
ENDBRANCH   4  15
TORSDOF 4
ENDMDL
MODEL 5
REMARK VINA RESULT: -4.158999421      2.363      3.734
REMARK  4 active torsions:
REMARK  status: ('A' for Active; 'I' for Inactive)
REMARK    1  A    between atoms: C4_4  and  O1_5 
REMARK    2  A    between atoms: C5_7  and  O2_8 
REMARK    3  A    between atoms: C6_10  and  O3_12 
REMARK    4  A    between atoms: C8_14  and  O4_15 
ROOT
HETATM    1  C1  UNL     1       0.688   0.767  15.414  1.00  0.00     0.012 C 
HETATM    2  C2  UNL     1       0.629   1.189  13.951  1.00  0.00     0.016 C 
HETATM    3  C3  UNL     1       0.491  -0.101  13.159  1.00  0.00     0.041 C 
HETATM    4  C4  UNL     1       1.177   0.073  11.803  1.00  0.00     0.150 C 
HETATM    5  C5  UNL     1       1.014   1.523  11.447  1.00  0.00     0.183 C 
HETATM    6  C6  UNL     1       2.003   2.342  12.289  1.00  0.00     0.108 C 
HETATM    7  C7  UNL     1       3.271   2.434  11.549  1.00  0.00     0.051 C 
HETATM    8  C8  UNL     1       1.994   1.840  13.657  1.00  0.00     0.158 C 
ENDROOT
BRANCH   6   9
HETATM    9  O3  UNL     1       1.430   3.641  12.276  1.00  0.00    -0.385 OA
ATOM     10  H3  UNL     1       1.189   3.777  13.186  1.00  0.00     0.210 HD
ENDBRANCH   6   9
BRANCH   5  11
HETATM   11  O2  UNL     1       1.136   1.790  10.107  1.00  0.00    -0.390 OA
ATOM     12  H2  UNL     1       0.452   1.410   9.570  1.00  0.00     0.210 HD
ENDBRANCH   5  11
BRANCH   8  13
HETATM   13  O4  UNL     1       2.908   0.949  14.070  1.00  0.00    -0.392 OA
ATOM     14  H4  UNL     1       3.508   0.848  13.340  1.00  0.00     0.210 HD
ENDBRANCH   8  13
BRANCH   4  15
HETATM   15  O1  UNL     1       0.505  -0.699  10.858  1.00  0.00    -0.393 OA
ATOM     16  H1  UNL     1       0.151  -1.469  11.288  1.00  0.00     0.210 HD
ENDBRANCH   4  15
TORSDOF 4
ENDMDL
