MODEL 1
REMARK VINA RESULT: -4.609386915      0.000      0.000
REMARK  3 active torsions:
REMARK  status: ('A' for Active; 'I' for Inactive)
REMARK    1  A    between atoms: C3_4  and  O1_5 
REMARK    2  A    between atoms: C4_7  and  O2_8 
REMARK    3  A    between atoms: C4_7  and  O3_10 
ROOT
HETATM    1  C1  UNL     1       1.217   3.548  12.656  1.00  0.00     0.310 C 
HETATM    2  N1  UNL     1       0.730   2.165  12.514  1.00  0.00     0.094 N 
HETATM    3  C2  UNL     1       0.554   1.900  11.146  1.00  0.00     0.309 C 
HETATM    4  C3  UNL     1       1.129   0.602  10.655  1.00  0.00     0.209 C 
HETATM    5  C4  UNL     1       0.762  -0.431  11.730  1.00  0.00     0.195 C 
HETATM    6  C5  UNL     1       1.695  -0.076  12.879  1.00  0.00     0.110 C 
HETATM    7  C6  UNL     1       1.414  -0.901  14.103  1.00  0.00     0.180 C 
HETATM    8  O4  UNL     1       1.204  -0.048  15.147  1.00  0.00    -0.388 OA
HETATM    9  C7  UNL     1       0.902   1.198  14.683  1.00  0.00     0.204 C 
HETATM   10  C8  UNL     1       1.534   1.326  13.290  1.00  0.00     0.257 C 
ENDROOT
BRANCH   5  11
HETATM   11  O2  UNL     1       0.898  -1.716  11.293  1.00  0.00    -0.363 OA
ATOM     12  H2  UNL     1       1.687  -2.133  11.621  1.00  0.00     0.213 HD
ENDBRANCH   5  11
BRANCH   5  13
HETATM   13  O3  UNL     1      -0.531  -0.121  12.174  1.00  0.00    -0.363 OA
ATOM     14  H3  UNL     1      -1.138  -0.497  11.547  1.00  0.00     0.213 HD
ENDBRANCH   5  13
BRANCH   4  15
HETATM   15  O1  UNL     1       0.655   0.251   9.417  1.00  0.00    -0.388 OA
ATOM     16  H1  UNL     1       0.341  -0.645   9.386  1.00  0.00     0.210 HD
ENDBRANCH   4  15
TORSDOF 3
ENDMDL
MODEL 2
REMARK VINA RESULT: -4.315665796      1.842      4.227
REMARK  3 active torsions:
REMARK  status: ('A' for Active; 'I' for Inactive)
REMARK    1  A    between atoms: C3_4  and  O1_5 
REMARK    2  A    between atoms: C4_7  and  O2_8 
REMARK    3  A    between atoms: C4_7  and  O3_10 
ROOT
HETATM    1  C1  UNL     1       2.651  -2.325  14.312  1.00  0.00     0.310 C 
HETATM    2  N1  UNL     1       1.637  -1.272  14.131  1.00  0.00     0.094 N 
HETATM    3  C2  UNL     1       1.605  -0.487  15.295  1.00  0.00     0.309 C 
HETATM    4  C3  UNL     1       1.623   0.999  15.080  1.00  0.00     0.209 C 
HETATM    5  C4  UNL     1       0.655   1.247  13.914  1.00  0.00     0.195 C 
HETATM    6  C5  UNL     1       1.431   0.734  12.709  1.00  0.00     0.110 C 
HETATM    7  C6  UNL     1       0.603   0.769  11.455  1.00  0.00     0.180 C 
HETATM    8  O4  UNL     1       0.612  -0.481  10.909  1.00  0.00    -0.388 OA
HETATM    9  C7  UNL     1       0.979  -1.401  11.846  1.00  0.00     0.204 C 
HETATM   10  C8  UNL     1       1.836  -0.668  12.887  1.00  0.00     0.257 C 
ENDROOT
BRANCH   5  11
HETATM   11  O2  UNL     1       0.284   2.555  13.808  1.00  0.00    -0.363 OA
ATOM     12  H2  UNL     1      -0.340   2.703  13.106  1.00  0.00     0.213 HD
ENDBRANCH   5  11
BRANCH   5  13
HETATM   13  O3  UNL     1      -0.424   0.367  14.082  1.00  0.00    -0.363 OA
ATOM     14  H3  UNL     1      -0.991   0.475  13.327  1.00  0.00     0.213 HD
ENDBRANCH   5  13
BRANCH   4  15
HETATM   15  O1  UNL     1       1.269   1.699  16.205  1.00  0.00    -0.388 OA
ATOM     16  H1  UNL     1       0.954   2.573  16.007  1.00  0.00     0.210 HD
ENDBRANCH   4  15
TORSDOF 3
ENDMDL
MODEL 3
REMARK VINA RESULT: -4.283034059      2.020      4.010
REMARK  3 active torsions:
REMARK  status: ('A' for Active; 'I' for Inactive)
REMARK    1  A    between atoms: C3_4  and  O1_5 
REMARK    2  A    between atoms: C4_7  and  O2_8 
REMARK    3  A    between atoms: C4_7  and  O3_10 
ROOT
HETATM    1  C1  UNL     1       1.839  -1.768  13.401  1.00  0.00     0.310 C 
HETATM    2  N1  UNL     1       1.345  -0.400  13.170  1.00  0.00     0.094 N 
HETATM    3  C2  UNL     1       2.054   0.472  14.013  1.00  0.00     0.309 C 
HETATM    4  C3  UNL     1       2.592   1.713  13.362  1.00  0.00     0.209 C 
HETATM    5  C4  UNL     1       1.459   2.214  12.455  1.00  0.00     0.195 C 
HETATM    6  C5  UNL     1       1.471   1.215  11.308  1.00  0.00     0.110 C 
HETATM    7  C6  UNL     1       0.339   1.451  10.348  1.00  0.00     0.180 C 
HETATM    8  O4  UNL     1      -0.355   0.284  10.220  1.00  0.00    -0.388 OA
HETATM    9  C7  UNL     1      -0.081  -0.544  11.269  1.00  0.00     0.204 C 
HETATM   10  C8  UNL     1       1.310  -0.163  11.793  1.00  0.00     0.257 C 
ENDROOT
BRANCH   5  11
HETATM   11  O2  UNL     1       1.637   3.506  12.056  1.00  0.00    -0.363 OA
ATOM     12  H2  UNL     1       1.400   3.645  11.146  1.00  0.00     0.213 HD
ENDBRANCH   5  11
BRANCH   5  13
HETATM   13  O3  UNL     1       0.257   1.998  13.143  1.00  0.00    -0.363 OA
ATOM     14  H3  UNL     1      -0.054   2.847  13.435  1.00  0.00     0.213 HD
ENDBRANCH   5  13
BRANCH   4  15
HETATM   15  O1  UNL     1       2.982   2.660  14.275  1.00  0.00    -0.388 OA
ATOM     16  H1  UNL     1       2.864   2.373  15.173  1.00  0.00     0.210 HD
ENDBRANCH   4  15
TORSDOF 3
ENDMDL
MODEL 4
REMARK VINA RESULT: -4.270865812      2.444      3.857
REMARK  3 active torsions:
REMARK  status: ('A' for Active; 'I' for Inactive)
REMARK    1  A    between atoms: C3_4  and  O1_5 
REMARK    2  A    between atoms: C4_7  and  O2_8 
REMARK    3  A    between atoms: C4_7  and  O3_10 
ROOT
HETATM    1  C1  UNL     1       0.758  -0.342  11.336  1.00  0.00     0.310 C 
HETATM    2  N1  UNL     1       0.998  -0.067  12.764  1.00  0.00     0.094 N 
HETATM    3  C2  UNL     1       1.405  -1.262  13.379  1.00  0.00     0.309 C 
HETATM    4  C3  UNL     1       2.611  -1.161  14.267  1.00  0.00     0.209 C 
HETATM    5  C4  UNL     1       2.409   0.132  15.071  1.00  0.00     0.195 C 
HETATM    6  C5  UNL     1       2.670   1.221  14.041  1.00  0.00     0.110 C 
HETATM    7  C6  UNL     1       2.402   2.592  14.596  1.00  0.00     0.180 C 
HETATM    8  O4  UNL     1       1.518   3.216  13.765  1.00  0.00    -0.388 OA
HETATM    9  C7  UNL     1       0.870   2.299  12.992  1.00  0.00     0.204 C 
HETATM   10  C8  UNL     1       1.791   1.078  12.872  1.00  0.00     0.257 C 
ENDROOT
BRANCH   5  11
HETATM   11  O2  UNL     1       3.225   0.205  16.162  1.00  0.00    -0.363 OA
ATOM     12  H2  UNL     1       2.830   0.682  16.883  1.00  0.00     0.213 HD
ENDBRANCH   5  11
BRANCH   5  13
HETATM   13  O3  UNL     1       1.045   0.214  15.381  1.00  0.00    -0.363 OA
ATOM     14  H3  UNL     1       0.981   0.419  16.307  1.00  0.00     0.213 HD
ENDBRANCH   5  13
BRANCH   4  15
HETATM   15  O1  UNL     1       2.764  -2.256  15.078  1.00  0.00    -0.388 OA
ATOM     16  H1  UNL     1       2.517  -3.067  14.647  1.00  0.00     0.210 HD
ENDBRANCH   4  15
TORSDOF 3
ENDMDL
MODEL 5
REMARK VINA RESULT: -4.211964611      2.026      3.083
REMARK  3 active torsions:
REMARK  status: ('A' for Active; 'I' for Inactive)
REMARK    1  A    between atoms: C3_4  and  O1_5 
REMARK    2  A    between atoms: C4_7  and  O2_8 
REMARK    3  A    between atoms: C4_7  and  O3_10 
ROOT
HETATM    1  C1  UNL     1       3.300   1.121  16.217  1.00  0.00     0.310 C 
HETATM    2  N1  UNL     1       2.154   0.764  15.363  1.00  0.00     0.094 N 
HETATM    3  C2  UNL     1       1.497   1.949  14.992  1.00  0.00     0.309 C 
HETATM    4  C3  UNL     1       1.160   2.078  13.535  1.00  0.00     0.209 C 
HETATM    5  C4  UNL     1       0.627   0.698  13.122  1.00  0.00     0.195 C 
HETATM    6  C5  UNL     1       1.884  -0.160  13.091  1.00  0.00     0.110 C 
HETATM    7  C6  UNL     1       1.569  -1.605  12.825  1.00  0.00     0.180 C 
HETATM    8  O4  UNL     1       2.126  -2.348  13.824  1.00  0.00    -0.388 OA
HETATM    9  C7  UNL     1       2.394  -1.560  14.904  1.00  0.00     0.204 C 
HETATM   10  C8  UNL     1       2.588  -0.130  14.381  1.00  0.00     0.257 C 
ENDROOT
BRANCH   5  11
HETATM   11  O2  UNL     1      -0.044   0.726  11.935  1.00  0.00    -0.363 OA
ATOM     12  H2  UNL     1       0.208   0.017  11.355  1.00  0.00     0.213 HD
ENDBRANCH   5  11
BRANCH   5  13
HETATM   13  O3  UNL     1      -0.141   0.217  14.192  1.00  0.00    -0.363 OA
ATOM     14  H3  UNL     1      -1.015   0.056  13.857  1.00  0.00     0.213 HD
ENDBRANCH   5  13
BRANCH   4  15
HETATM   15  O1  UNL     1       0.253   3.077  13.289  1.00  0.00    -0.388 OA
ATOM     16  H1  UNL     1      -0.553   2.753  12.905  1.00  0.00     0.210 HD
ENDBRANCH   4  15
TORSDOF 3
ENDMDL
