MODEL 1
REMARK VINA RESULT: -4.309081014      0.000      0.000
REMARK  4 active torsions:
REMARK  status: ('A' for Active; 'I' for Inactive)
REMARK    1  A    between atoms: C4_5  and  O2_6 
REMARK    2  A    between atoms: C5_8  and  O3_9 
REMARK    3  A    between atoms: C6_11  and  O4_12 
REMARK    4  A    between atoms: C7_14  and  O5_15 
ROOT
HETATM    1  C1  UNL     1       3.096  -1.124  14.698  1.00  0.00     0.048 C 
HETATM    2  C2  UNL     1       1.817  -0.413  14.236  1.00  0.00     0.085 C 
HETATM    3  C3  UNL     1       0.972  -0.158  15.476  1.00  0.00     0.048 C 
HETATM    4  O1  UNL     1       1.133  -1.313  13.447  1.00  0.00    -0.346 OA
HETATM    5  C4  UNL     1       1.489  -1.163  12.126  1.00  0.00     0.289 C 
HETATM    6  C5  UNL     1       0.801   0.101  11.606  1.00  0.00     0.204 C 
HETATM    7  C6  UNL     1       1.324   1.246  12.414  1.00  0.00     0.183 C 
HETATM    8  C7  UNL     1       2.217   0.838  13.547  1.00  0.00     0.183 C 
ENDROOT
BRANCH   8   9
HETATM    9  O5  UNL     1       2.183   1.880  14.497  1.00  0.00    -0.390 OA
ATOM     10  H5  UNL     1       2.826   2.528  14.236  1.00  0.00     0.210 HD
ENDBRANCH   8   9
BRANCH   5  11
HETATM   11  O2  UNL     1       1.128  -2.285  11.416  1.00  0.00    -0.368 OA
ATOM     12  H2  UNL     1       1.086  -3.034  11.999  1.00  0.00     0.212 HD
ENDBRANCH   5  11
BRANCH   7  13
HETATM   13  O4  UNL     1       0.309   2.122  12.835  1.00  0.00    -0.390 OA
ATOM     14  H4  UNL     1       0.106   2.031  13.759  1.00  0.00     0.210 HD
ENDBRANCH   7  13
BRANCH   6  15
HETATM   15  O3  UNL     1      -0.586  -0.022  11.655  1.00  0.00    -0.388 OA
ATOM     16  H3  UNL     1      -1.008   0.595  11.069  1.00  0.00     0.210 HD
ENDBRANCH   6  15
TORSDOF 4
ENDMDL
MODEL 2
REMARK VINA RESULT: -4.223747612      3.090      4.980
REMARK  4 active torsions:
REMARK  status: ('A' for Active; 'I' for Inactive)
REMARK    1  A    between atoms: C4_5  and  O2_6 
REMARK    2  A    between atoms: C5_8  and  O3_9 
REMARK    3  A    between atoms: C6_11  and  O4_12 
REMARK    4  A    between atoms: C7_14  and  O5_15 
ROOT
HETATM    1  C1  UNL     1       0.328   0.360  14.596  1.00  0.00     0.048 C 
HETATM    2  C2  UNL     1       1.347  -0.039  15.672  1.00  0.00     0.085 C 
HETATM    3  C3  UNL     1       2.411  -0.887  14.989  1.00  0.00     0.048 C 
HETATM    4  O1  UNL     1       0.677  -0.853  16.560  1.00  0.00    -0.346 OA
HETATM    5  C4  UNL     1       0.143  -0.108  17.587  1.00  0.00     0.289 C 
HETATM    6  C5  UNL     1       1.292   0.280  18.519  1.00  0.00     0.204 C 
HETATM    7  C6  UNL     1       2.242   1.113  17.718  1.00  0.00     0.183 C 
HETATM    8  C7  UNL     1       1.896   1.206  16.262  1.00  0.00     0.183 C 
ENDROOT
BRANCH   8   9
HETATM    9  O5  UNL     1       3.085   1.518  15.572  1.00  0.00    -0.390 OA
ATOM     10  H5  UNL     1       2.863   2.123  14.875  1.00  0.00     0.210 HD
ENDBRANCH   8   9
BRANCH   5  11
HETATM   11  O2  UNL     1      -0.831  -0.835  18.231  1.00  0.00    -0.368 OA
ATOM     12  H2  UNL     1      -1.084  -0.394  19.033  1.00  0.00     0.212 HD
ENDBRANCH   5  11
BRANCH   7  13
HETATM   13  O4  UNL     1       3.584   0.748  17.915  1.00  0.00    -0.390 OA
ATOM     14  H4  UNL     1       3.993   0.408  17.127  1.00  0.00     0.210 HD
ENDBRANCH   7  13
BRANCH   6  15
HETATM   15  O3  UNL     1       1.887  -0.847  19.084  1.00  0.00    -0.388 OA
ATOM     16  H3  UNL     1       2.016  -0.737  20.018  1.00  0.00     0.210 HD
ENDBRANCH   6  15
TORSDOF 4
ENDMDL
MODEL 3
REMARK VINA RESULT: -4.127757921      1.384      2.190
REMARK  4 active torsions:
REMARK  status: ('A' for Active; 'I' for Inactive)
REMARK    1  A    between atoms: C4_5  and  O2_6 
REMARK    2  A    between atoms: C5_8  and  O3_9 
REMARK    3  A    between atoms: C6_11  and  O4_12 
REMARK    4  A    between atoms: C7_14  and  O5_15 
ROOT
HETATM    1  C1  UNL     1       2.269  -1.972  13.975  1.00  0.00     0.048 C 
HETATM    2  C2  UNL     1       1.797  -0.617  14.520  1.00  0.00     0.085 C 
HETATM    3  C3  UNL     1       1.324  -0.848  15.948  1.00  0.00     0.048 C 
HETATM    4  O1  UNL     1       0.695  -0.259  13.773  1.00  0.00    -0.346 OA
HETATM    5  C4  UNL     1       1.074   0.502  12.691  1.00  0.00     0.289 C 
HETATM    6  C5  UNL     1       1.412   1.901  13.209  1.00  0.00     0.204 C 
HETATM    7  C6  UNL     1       2.557   1.751  14.160  1.00  0.00     0.183 C 
HETATM    8  C7  UNL     1       2.937   0.327  14.437  1.00  0.00     0.183 C 
ENDROOT
BRANCH   8   9
HETATM    9  O5  UNL     1       3.597   0.310  15.684  1.00  0.00    -0.390 OA
ATOM     10  H5  UNL     1       3.076   0.821  16.291  1.00  0.00     0.210 HD
ENDBRANCH   8   9
BRANCH   5  11
HETATM   11  O2  UNL     1       0.064   0.519  11.757  1.00  0.00    -0.368 OA
ATOM     12  H2  UNL     1      -0.406   1.343  11.807  1.00  0.00     0.212 HD
ENDBRANCH   5  11
BRANCH   7  13
HETATM   13  O4  UNL     1       2.382   2.487  15.343  1.00  0.00    -0.390 OA
ATOM     14  H4  UNL     1       2.714   2.035  16.110  1.00  0.00     0.210 HD
ENDBRANCH   7  13
BRANCH   6  15
HETATM   15  O3  UNL     1       0.296   2.511  13.781  1.00  0.00    -0.388 OA
ATOM     16  H3  UNL     1       0.097   3.336  13.353  1.00  0.00     0.210 HD
ENDBRANCH   6  15
TORSDOF 4
ENDMDL
MODEL 4
REMARK VINA RESULT: -4.098932561      1.708      3.442
REMARK  4 active torsions:
REMARK  status: ('A' for Active; 'I' for Inactive)
REMARK    1  A    between atoms: C4_5  and  O2_6 
REMARK    2  A    between atoms: C5_8  and  O3_9 
REMARK    3  A    between atoms: C6_11  and  O4_12 
REMARK    4  A    between atoms: C7_14  and  O5_15 
ROOT
HETATM    1  C1  UNL     1       0.757  -0.341  12.186  1.00  0.00     0.048 C 
HETATM    2  C2  UNL     1       1.484   0.456  13.278  1.00  0.00     0.085 C 
HETATM    3  C3  UNL     1       2.247   1.575  12.584  1.00  0.00     0.048 C 
HETATM    4  O1  UNL     1       2.415  -0.399  13.830  1.00  0.00    -0.346 OA
HETATM    5  C4  UNL     1       1.878  -1.061  14.910  1.00  0.00     0.289 C 
HETATM    6  C5  UNL     1       1.821  -0.070  16.074  1.00  0.00     0.204 C 
HETATM    7  C6  UNL     1       0.918   1.046  15.654  1.00  0.00     0.183 C 
HETATM    8  C7  UNL     1       0.463   0.959  14.228  1.00  0.00     0.183 C 
ENDROOT
BRANCH   8   9
HETATM    9  O5  UNL     1       0.111   2.265  13.826  1.00  0.00    -0.390 OA
ATOM     10  H5  UNL     1      -0.833   2.292  13.732  1.00  0.00     0.210 HD
ENDBRANCH   8   9
BRANCH   5  11
HETATM   11  O2  UNL     1       2.641  -2.169  15.203  1.00  0.00    -0.368 OA
ATOM     12  H2  UNL     1       2.192  -2.708  15.842  1.00  0.00     0.212 HD
ENDBRANCH   5  11
BRANCH   7  13
HETATM   13  O4  UNL     1       1.440   2.313  15.963  1.00  0.00    -0.390 OA
ATOM     14  H4  UNL     1       1.647   2.823  15.188  1.00  0.00     0.210 HD
ENDBRANCH   7  13
BRANCH   6  15
HETATM   15  O3  UNL     1       3.097   0.359  16.436  1.00  0.00    -0.388 OA
ATOM     16  H3  UNL     1       3.520  -0.266  17.013  1.00  0.00     0.210 HD
ENDBRANCH   6  15
TORSDOF 4
ENDMDL
MODEL 5
REMARK VINA RESULT: -3.997673305      2.853      4.536
REMARK  4 active torsions:
REMARK  status: ('A' for Active; 'I' for Inactive)
REMARK    1  A    between atoms: C4_5  and  O2_6 
REMARK    2  A    between atoms: C5_8  and  O3_9 
REMARK    3  A    between atoms: C6_11  and  O4_12 
REMARK    4  A    between atoms: C7_14  and  O5_15 
ROOT
HETATM    1  C1  UNL     1       1.494   1.419  14.207  1.00  0.00     0.048 C 
HETATM    2  C2  UNL     1       1.258   0.343  15.276  1.00  0.00     0.085 C 
HETATM    3  C3  UNL     1       1.992  -0.911  14.821  1.00  0.00     0.048 C 
HETATM    4  O1  UNL     1      -0.092   0.062  15.254  1.00  0.00    -0.346 OA
HETATM    5  C4  UNL     1      -0.764   0.858  16.153  1.00  0.00     0.289 C 
HETATM    6  C5  UNL     1      -0.481   0.310  17.553  1.00  0.00     0.204 C 
HETATM    7  C6  UNL     1       0.995   0.415  17.774  1.00  0.00     0.183 C 
HETATM    8  C7  UNL     1       1.762   0.867  16.568  1.00  0.00     0.183 C 
ENDROOT
BRANCH   8   9
HETATM    9  O5  UNL     1       3.088   0.412  16.726  1.00  0.00    -0.390 OA
ATOM     10  H5  UNL     1       3.265   0.361  17.657  1.00  0.00     0.210 HD
ENDBRANCH   8   9
BRANCH   5  11
HETATM   11  O2  UNL     1      -2.107   0.866  15.855  1.00  0.00    -0.368 OA
ATOM     12  H2  UNL     1      -2.464   1.733  16.005  1.00  0.00     0.212 HD
ENDBRANCH   5  11
BRANCH   7  13
HETATM   13  O4  UNL     1       1.544  -0.747  18.340  1.00  0.00    -0.390 OA
ATOM     14  H4  UNL     1       1.063  -1.533  18.106  1.00  0.00     0.210 HD
ENDBRANCH   7  13
BRANCH   6  15
HETATM   15  O3  UNL     1      -0.970  -0.988  17.695  1.00  0.00    -0.388 OA
ATOM     16  H3  UNL     1      -1.027  -1.236  18.610  1.00  0.00     0.210 HD
ENDBRANCH   6  15
TORSDOF 4
ENDMDL
