MODEL 1
REMARK VINA RESULT: -4.667134369      0.000      0.000
REMARK  4 active torsions:
REMARK  status: ('A' for Active; 'I' for Inactive)
REMARK    1  A    between atoms: C3_3  and  O1_4 
REMARK    2  A    between atoms: C4_6  and  O2_7 
REMARK    3  A    between atoms: C5_9  and  O3_10 
REMARK    4  A    between atoms: C7_13  and  O4_15 
ROOT
HETATM    1  C1  UNL     1       1.716  -1.541  13.456  1.00  0.00     0.016 C 
HETATM    2  C2  UNL     1       1.019  -0.188  13.359  1.00  0.00     0.047 C 
HETATM    3  C3  UNL     1       0.700   0.100  11.948  1.00  0.00     0.156 C 
HETATM    4  C4  UNL     1       1.294   1.426  11.454  1.00  0.00     0.176 C 
HETATM    5  C5  UNL     1       0.775   2.437  12.487  1.00  0.00     0.152 C 
HETATM    6  C6  UNL     1       1.639   2.233  13.696  1.00  0.00     0.072 C 
HETATM    7  C7  UNL     1       1.855   0.812  14.070  1.00  0.00     0.062 C 
HETATM    8  C8  UNL     1       1.553   0.694  15.573  1.00  0.00     0.046 C 
ENDROOT
BRANCH   7   9
HETATM    9  O4  UNL     1       3.235   0.529  13.956  1.00  0.00    -0.390 OA
ATOM     10  H4  UNL     1       3.674   1.125  13.361  1.00  0.00     0.210 HD
ENDBRANCH   7   9
BRANCH   3  11
HETATM   11  O1  UNL     1       1.083  -0.867  11.042  1.00  0.00    -0.392 OA
ATOM     12  H1  UNL     1       0.488  -1.602  10.949  1.00  0.00     0.210 HD
ENDBRANCH   3  11
BRANCH   5  13
HETATM   13  O3  UNL     1       0.838   3.725  12.034  1.00  0.00    -0.393 OA
ATOM     14  H3  UNL     1       1.665   4.143  12.244  1.00  0.00     0.210 HD
ENDBRANCH   5  13
BRANCH   4  15
HETATM   15  O2  UNL     1       0.863   1.708  10.187  1.00  0.00    -0.390 OA
ATOM     16  H2  UNL     1       1.196   2.549   9.897  1.00  0.00     0.210 HD
ENDBRANCH   4  15
TORSDOF 4
ENDMDL
MODEL 2
REMARK VINA RESULT: -4.652407796      1.517      3.146
REMARK  4 active torsions:
REMARK  status: ('A' for Active; 'I' for Inactive)
REMARK    1  A    between atoms: C3_3  and  O1_4 
REMARK    2  A    between atoms: C4_6  and  O2_7 
REMARK    3  A    between atoms: C5_9  and  O3_10 
REMARK    4  A    between atoms: C7_13  and  O4_15 
ROOT
HETATM    1  C1  UNL     1       1.896   1.955  14.721  1.00  0.00     0.016 C 
HETATM    2  C2  UNL     1       2.132   0.920  13.626  1.00  0.00     0.047 C 
HETATM    3  C3  UNL     1       1.187   1.154  12.518  1.00  0.00     0.156 C 
HETATM    4  C4  UNL     1       0.326  -0.074  12.189  1.00  0.00     0.176 C 
HETATM    5  C5  UNL     1       1.375  -1.175  11.968  1.00  0.00     0.152 C 
HETATM    6  C6  UNL     1       1.821  -1.567  13.345  1.00  0.00     0.072 C 
HETATM    7  C7  UNL     1       2.102  -0.426  14.253  1.00  0.00     0.062 C 
HETATM    8  C8  UNL     1       3.483  -0.683  14.879  1.00  0.00     0.046 C 
ENDROOT
BRANCH   7   9
HETATM    9  O4  UNL     1       1.197  -0.489  15.336  1.00  0.00    -0.390 OA
ATOM     10  H4  UNL     1       1.515  -1.047  16.036  1.00  0.00     0.210 HD
ENDBRANCH   7   9
BRANCH   3  11
HETATM   11  O1  UNL     1       0.318   2.211  12.689  1.00  0.00    -0.392 OA
ATOM     12  H1  UNL     1      -0.505   2.146  12.218  1.00  0.00     0.210 HD
ENDBRANCH   3  11
BRANCH   5  13
HETATM   13  O3  UNL     1       0.872  -2.242  11.277  1.00  0.00    -0.393 OA
ATOM     14  H3  UNL     1       0.980  -2.150  10.338  1.00  0.00     0.210 HD
ENDBRANCH   5  13
BRANCH   4  15
HETATM   15  O2  UNL     1      -0.436   0.152  11.077  1.00  0.00    -0.390 OA
ATOM     16  H2  UNL     1      -0.992  -0.596  10.891  1.00  0.00     0.210 HD
ENDBRANCH   4  15
TORSDOF 4
ENDMDL
MODEL 3
REMARK VINA RESULT: -4.647146689      1.382      3.094
REMARK  4 active torsions:
REMARK  status: ('A' for Active; 'I' for Inactive)
REMARK    1  A    between atoms: C3_3  and  O1_4 
REMARK    2  A    between atoms: C4_6  and  O2_7 
REMARK    3  A    between atoms: C5_9  and  O3_10 
REMARK    4  A    between atoms: C7_13  and  O4_15 
ROOT
HETATM    1  C1  UNL     1       1.254   2.761  13.433  1.00  0.00     0.016 C 
HETATM    2  C2  UNL     1       1.749   1.412  12.923  1.00  0.00     0.047 C 
HETATM    3  C3  UNL     1       1.410   1.273  11.494  1.00  0.00     0.156 C 
HETATM    4  C4  UNL     1       0.573   0.023  11.191  1.00  0.00     0.176 C 
HETATM    5  C5  UNL     1       1.416  -1.107  11.802  1.00  0.00     0.152 C 
HETATM    6  C6  UNL     1       1.171  -1.017  13.279  1.00  0.00     0.072 C 
HETATM    7  C7  UNL     1       1.233   0.359  13.835  1.00  0.00     0.062 C 
HETATM    8  C8  UNL     1       2.159   0.305  15.060  1.00  0.00     0.046 C 
ENDROOT
BRANCH   7   9
HETATM    9  O4  UNL     1      -0.039   0.683  14.357  1.00  0.00    -0.390 OA
ATOM     10  H4  UNL     1       0.021   1.233  15.129  1.00  0.00     0.210 HD
ENDBRANCH   7   9
BRANCH   3  11
HETATM   11  O1  UNL     1       0.741   2.341  10.934  1.00  0.00    -0.392 OA
ATOM     12  H1  UNL     1       0.110   2.122  10.258  1.00  0.00     0.210 HD
ENDBRANCH   3  11
BRANCH   5  13
HETATM   13  O3  UNL     1       1.077  -2.336  11.308  1.00  0.00    -0.393 OA
ATOM     14  H3  UNL     1       1.753  -2.986  11.457  1.00  0.00     0.210 HD
ENDBRANCH   5  13
BRANCH   4  15
HETATM   15  O2  UNL     1       0.397  -0.129   9.843  1.00  0.00    -0.390 OA
ATOM     16  H2  UNL     1       0.250  -1.041   9.623  1.00  0.00     0.210 HD
ENDBRANCH   4  15
TORSDOF 4
ENDMDL
MODEL 4
REMARK VINA RESULT: -4.596789787      1.388      2.884
REMARK  4 active torsions:
REMARK  status: ('A' for Active; 'I' for Inactive)
REMARK    1  A    between atoms: C3_3  and  O1_4 
REMARK    2  A    between atoms: C4_6  and  O2_7 
REMARK    3  A    between atoms: C5_9  and  O3_10 
REMARK    4  A    between atoms: C7_13  and  O4_15 
ROOT
HETATM    1  C1  UNL     1       2.160   2.369  14.514  1.00  0.00     0.016 C 
HETATM    2  C2  UNL     1       2.159   1.323  13.403  1.00  0.00     0.047 C 
HETATM    3  C3  UNL     1       2.010   1.995  12.098  1.00  0.00     0.156 C 
HETATM    4  C4  UNL     1       0.807   1.486  11.292  1.00  0.00     0.176 C 
HETATM    5  C5  UNL     1       1.041  -0.032  11.252  1.00  0.00     0.152 C 
HETATM    6  C6  UNL     1       0.633  -0.522  12.610  1.00  0.00     0.072 C 
HETATM    7  C7  UNL     1       1.144   0.294  13.742  1.00  0.00     0.062 C 
HETATM    8  C8  UNL     1       1.781  -0.682  14.744  1.00  0.00     0.046 C 
ENDROOT
BRANCH   7   9
HETATM    9  O4  UNL     1       0.037   0.843  14.427  1.00  0.00    -0.390 OA
ATOM     10  H4  UNL     1      -0.199   0.333  15.193  1.00  0.00     0.210 HD
ENDBRANCH   7   9
BRANCH   3  11
HETATM   11  O1  UNL     1       1.903   3.369  12.143  1.00  0.00    -0.392 OA
ATOM     12  H1  UNL     1       1.055   3.706  12.410  1.00  0.00     0.210 HD
ENDBRANCH   3  11
BRANCH   5  13
HETATM   13  O3  UNL     1       0.327  -0.644  10.260  1.00  0.00    -0.393 OA
ATOM     14  H3  UNL     1      -0.329  -0.071   9.880  1.00  0.00     0.210 HD
ENDBRANCH   5  13
BRANCH   4  15
HETATM   15  O2  UNL     1       0.789   2.044  10.043  1.00  0.00    -0.390 OA
ATOM     16  H2  UNL     1       0.254   2.829  10.032  1.00  0.00     0.210 HD
ENDBRANCH   4  15
TORSDOF 4
ENDMDL
MODEL 5
REMARK VINA RESULT: -4.492730096      1.411      2.784
REMARK  4 active torsions:
REMARK  status: ('A' for Active; 'I' for Inactive)
REMARK    1  A    between atoms: C3_3  and  O1_4 
REMARK    2  A    between atoms: C4_6  and  O2_7 
REMARK    3  A    between atoms: C5_9  and  O3_10 
REMARK    4  A    between atoms: C7_13  and  O4_15 
ROOT
HETATM    1  C1  UNL     1       2.091   0.812  14.710  1.00  0.00     0.016 C 
HETATM    2  C2  UNL     1       1.053   0.749  13.594  1.00  0.00     0.047 C 
HETATM    3  C3  UNL     1       0.944  -0.637  13.102  1.00  0.00     0.156 C 
HETATM    4  C4  UNL     1       1.197  -0.764  11.594  1.00  0.00     0.176 C 
HETATM    5  C5  UNL     1       0.209   0.248  10.996  1.00  0.00     0.152 C 
HETATM    6  C6  UNL     1       0.842   1.589  11.225  1.00  0.00     0.072 C 
HETATM    7  C7  UNL     1       1.397   1.787  12.588  1.00  0.00     0.062 C 
HETATM    8  C8  UNL     1       0.857   3.133  13.099  1.00  0.00     0.046 C 
ENDROOT
BRANCH   7   9
HETATM    9  O4  UNL     1       2.792   1.977  12.475  1.00  0.00    -0.390 OA
ATOM     10  H4  UNL     1       3.024   2.896  12.412  1.00  0.00     0.210 HD
ENDBRANCH   7   9
BRANCH   3  11
HETATM   11  O1  UNL     1       1.767  -1.555  13.720  1.00  0.00    -0.392 OA
ATOM     12  H1  UNL     1       1.666  -2.455  13.434  1.00  0.00     0.210 HD
ENDBRANCH   3  11
BRANCH   5  13
HETATM   13  O3  UNL     1      -0.030   0.023   9.669  1.00  0.00    -0.393 OA
ATOM     14  H3  UNL     1      -0.018   0.823   9.158  1.00  0.00     0.210 HD
ENDBRANCH   5  13
BRANCH   4  15
HETATM   15  O2  UNL     1       0.957  -2.041  11.168  1.00  0.00    -0.390 OA
ATOM     16  H2  UNL     1       0.148  -2.085  10.672  1.00  0.00     0.210 HD
ENDBRANCH   4  15
TORSDOF 4
ENDMDL
