MODEL 1
REMARK VINA RESULT: -7.863749070      0.000      0.000
REMARK  4 active torsions:
REMARK  status: ('A' for Active; 'I' for Inactive)
REMARK    1  A    between atoms: N1_2  and  N2_4 
REMARK    2  A    between atoms: N2_4  and  C1_6 
REMARK    3  A    between atoms: C3_11  and  C4_12 
REMARK    4  A    between atoms: C9_18  and  N4_19 
ROOT
HETATM    1  C1  UNL     1      -0.392  33.835  23.839  1.00  0.00     0.165 C 
HETATM    2  N3  UNL     1      -0.321  34.944  24.422  1.00  0.00    -0.340 N 
ATOM      3  H3  UNL     1       0.628  35.211  24.686  1.00  0.00     0.167 HD
HETATM    4  C2  UNL     1      -1.302  35.890  24.781  1.00  0.00     0.137 C 
HETATM    5  S1  UNL     1      -2.927  35.126  25.117  1.00  0.00    -0.104 SA
HETATM    6  C3  UNL     1      -3.304  34.200  23.545  1.00  0.00     0.157 C 
HETATM    7  S2  UNL     1      -1.896  33.131  23.274  1.00  0.00    -0.072 SA
ENDROOT
BRANCH   6   8
HETATM    8  C4  UNL     1      -4.541  33.442  23.874  1.00  0.00    -0.001 A 
HETATM    9  C5  UNL     1      -4.391  32.158  24.403  1.00  0.00     0.015 A 
HETATM   10  C6  UNL     1      -5.484  31.418  24.782  1.00  0.00     0.043 A 
HETATM   11  C7  UNL     1      -6.755  31.943  24.640  1.00  0.00     0.118 A 
HETATM   12  F1  UNL     1      -7.857  31.220  25.012  1.00  0.00    -0.206 F 
HETATM   13  C8  UNL     1      -6.927  33.193  24.127  1.00  0.00     0.079 A 
HETATM   14  C9  UNL     1      -5.795  33.943  23.740  1.00  0.00     0.114 A 
BRANCH  14  15
HETATM   15  N4  UNL     1      -6.037  35.230  23.198  1.00  0.00    -0.115 N 
HETATM   16  O3  UNL     1      -6.161  36.243  23.936  1.00  0.00    -0.532 OA
HETATM   17  O4  UNL     1      -6.145  35.446  21.859  1.00  0.00    -0.532 OA
ENDBRANCH  14  15
ENDBRANCH   6   8
BRANCH   1  18
HETATM   18  N2  UNL     1       0.817  33.126  23.634  1.00  0.00    -0.219 N 
ATOM     19  H2  UNL     1       0.848  32.114  23.760  1.00  0.00     0.195 HD
BRANCH  18  20
HETATM   20  N1  UNL     1       1.953  33.816  23.261  1.00  0.00    -0.037 N 
HETATM   21  O1  UNL     1       2.496  33.535  22.181  1.00  0.00    -0.516 OA
HETATM   22  O2  UNL     1       2.511  34.801  24.033  1.00  0.00    -0.516 OA
ENDBRANCH  18  20
ENDBRANCH   1  18
TORSDOF 4
ENDMDL
MODEL 2
REMARK VINA RESULT: -7.857205113      0.104      1.004
REMARK  4 active torsions:
REMARK  status: ('A' for Active; 'I' for Inactive)
REMARK    1  A    between atoms: N1_2  and  N2_4 
REMARK    2  A    between atoms: N2_4  and  C1_6 
REMARK    3  A    between atoms: C3_11  and  C4_12 
REMARK    4  A    between atoms: C9_18  and  N4_19 
ROOT
HETATM    1  C1  UNL     1      -0.354  33.877  23.998  1.00  0.00     0.165 C 
HETATM    2  N3  UNL     1      -0.316  35.003  24.549  1.00  0.00    -0.340 N 
ATOM      3  H3  UNL     1       0.618  35.288  24.842  1.00  0.00     0.167 HD
HETATM    4  C2  UNL     1      -1.319  35.950  24.840  1.00  0.00     0.137 C 
HETATM    5  S1  UNL     1      -2.950  35.180  25.135  1.00  0.00    -0.104 SA
HETATM    6  C3  UNL     1      -3.256  34.203  23.579  1.00  0.00     0.157 C 
HETATM    7  S2  UNL     1      -1.829  33.141  23.396  1.00  0.00    -0.072 SA
ENDROOT
BRANCH   6   8
HETATM    8  C4  UNL     1      -4.498  33.443  23.882  1.00  0.00    -0.001 A 
HETATM    9  C5  UNL     1      -4.356  32.166  24.431  1.00  0.00     0.015 A 
HETATM   10  C6  UNL     1      -5.456  31.425  24.788  1.00  0.00     0.043 A 
HETATM   11  C7  UNL     1      -6.725  31.942  24.604  1.00  0.00     0.118 A 
HETATM   12  F1  UNL     1      -7.834  31.218  24.953  1.00  0.00    -0.206 F 
HETATM   13  C8  UNL     1      -6.889  33.185  24.071  1.00  0.00     0.079 A 
HETATM   14  C9  UNL     1      -5.750  33.935  23.707  1.00  0.00     0.114 A 
BRANCH  14  15
HETATM   15  N4  UNL     1      -5.982  35.215  23.143  1.00  0.00    -0.115 N 
HETATM   16  O3  UNL     1      -6.122  35.372  21.901  1.00  0.00    -0.532 OA
HETATM   17  O4  UNL     1      -6.069  36.339  23.904  1.00  0.00    -0.532 OA
ENDBRANCH  14  15
ENDBRANCH   6   8
BRANCH   1  18
HETATM   18  N2  UNL     1       0.868  33.174  23.863  1.00  0.00    -0.219 N 
ATOM     19  H2  UNL     1       0.941  32.204  24.170  1.00  0.00     0.195 HD
BRANCH  18  20
HETATM   20  N1  UNL     1       1.960  33.814  23.311  1.00  0.00    -0.037 N 
HETATM   21  O1  UNL     1       2.487  34.747  23.939  1.00  0.00    -0.516 OA
HETATM   22  O2  UNL     1       2.490  33.466  22.097  1.00  0.00    -0.516 OA
ENDBRANCH  18  20
ENDBRANCH   1  18
TORSDOF 4
ENDMDL
MODEL 3
REMARK VINA RESULT: -7.504221375      1.286      1.514
REMARK  4 active torsions:
REMARK  status: ('A' for Active; 'I' for Inactive)
REMARK    1  A    between atoms: N1_2  and  N2_4 
REMARK    2  A    between atoms: N2_4  and  C1_6 
REMARK    3  A    between atoms: C3_11  and  C4_12 
REMARK    4  A    between atoms: C9_18  and  N4_19 
ROOT
HETATM    1  C1  UNL     1       0.680  33.647  23.921  1.00  0.00     0.165 C 
HETATM    2  N3  UNL     1       0.884  34.739  24.505  1.00  0.00    -0.340 N 
ATOM      3  H3  UNL     1       1.838  34.852  24.847  1.00  0.00     0.167 HD
HETATM    4  C2  UNL     1       0.045  35.838  24.777  1.00  0.00     0.137 C 
HETATM    5  S1  UNL     1      -1.706  35.355  24.977  1.00  0.00    -0.104 SA
HETATM    6  C3  UNL     1      -2.099  34.477  23.382  1.00  0.00     0.157 C 
HETATM    7  S2  UNL     1      -0.868  33.189  23.233  1.00  0.00    -0.072 SA
ENDROOT
BRANCH   6   8
HETATM    8  C4  UNL     1      -3.466  33.938  23.608  1.00  0.00    -0.001 A 
HETATM    9  C5  UNL     1      -3.573  32.670  24.185  1.00  0.00     0.015 A 
HETATM   10  C6  UNL     1      -4.801  32.127  24.474  1.00  0.00     0.043 A 
HETATM   11  C7  UNL     1      -5.952  32.838  24.192  1.00  0.00     0.118 A 
HETATM   12  F1  UNL     1      -7.186  32.312  24.472  1.00  0.00    -0.206 F 
HETATM   13  C8  UNL     1      -5.874  34.075  23.629  1.00  0.00     0.079 A 
HETATM   14  C9  UNL     1      -4.606  34.622  23.336  1.00  0.00     0.114 A 
BRANCH  14  15
HETATM   15  N4  UNL     1      -4.587  35.906  22.737  1.00  0.00    -0.115 N 
HETATM   16  O3  UNL     1      -4.740  36.954  23.419  1.00  0.00    -0.532 OA
HETATM   17  O4  UNL     1      -4.401  36.082  21.400  1.00  0.00    -0.532 OA
ENDBRANCH  14  15
ENDBRANCH   6   8
BRANCH   1  18
HETATM   18  N2  UNL     1       1.769  32.747  23.820  1.00  0.00    -0.219 N 
ATOM     19  H2  UNL     1       2.022  32.155  24.611  1.00  0.00     0.195 HD
BRANCH  18  20
HETATM   20  N1  UNL     1       2.484  32.678  22.641  1.00  0.00    -0.037 N 
HETATM   21  O1  UNL     1       2.345  33.585  21.804  1.00  0.00    -0.516 OA
HETATM   22  O2  UNL     1       3.343  31.651  22.351  1.00  0.00    -0.516 OA
ENDBRANCH  18  20
ENDBRANCH   1  18
TORSDOF 4
ENDMDL
MODEL 4
REMARK VINA RESULT: -7.486058830      2.301      2.910
REMARK  4 active torsions:
REMARK  status: ('A' for Active; 'I' for Inactive)
REMARK    1  A    between atoms: N1_2  and  N2_4 
REMARK    2  A    between atoms: N2_4  and  C1_6 
REMARK    3  A    between atoms: C3_11  and  C4_12 
REMARK    4  A    between atoms: C9_18  and  N4_19 
ROOT
HETATM    1  C1  UNL     1       1.666  33.376  22.423  1.00  0.00     0.165 C 
HETATM    2  N3  UNL     1       2.192  33.913  23.427  1.00  0.00    -0.340 N 
ATOM      3  H3  UNL     1       3.203  34.027  23.352  1.00  0.00     0.167 HD
HETATM    4  C2  UNL     1       1.653  34.388  24.640  1.00  0.00     0.137 C 
HETATM    5  S1  UNL     1       0.155  33.474  25.151  1.00  0.00    -0.104 SA
HETATM    6  C3  UNL     1      -0.985  33.658  23.688  1.00  0.00     0.157 C 
HETATM    7  S2  UNL     1      -0.055  33.059  22.283  1.00  0.00    -0.072 SA
ENDROOT
BRANCH   6   8
HETATM    8  C4  UNL     1      -2.134  32.778  24.029  1.00  0.00    -0.001 A 
HETATM    9  C5  UNL     1      -1.855  31.450  24.362  1.00  0.00     0.015 A 
HETATM   10  C6  UNL     1      -2.858  30.592  24.740  1.00  0.00     0.043 A 
HETATM   11  C7  UNL     1      -4.165  31.040  24.795  1.00  0.00     0.118 A 
HETATM   12  F1  UNL     1      -5.179  30.198  25.169  1.00  0.00    -0.206 F 
HETATM   13  C8  UNL     1      -4.462  32.330  24.474  1.00  0.00     0.079 A 
HETATM   14  C9  UNL     1      -3.422  33.202  24.086  1.00  0.00     0.114 A 
BRANCH  14  15
HETATM   15  N4  UNL     1      -3.793  34.528  23.750  1.00  0.00    -0.115 N 
HETATM   16  O3  UNL     1      -4.150  35.356  24.630  1.00  0.00    -0.532 OA
HETATM   17  O4  UNL     1      -3.782  34.982  22.467  1.00  0.00    -0.532 OA
ENDBRANCH  14  15
ENDBRANCH   6   8
BRANCH   1  18
HETATM   18  N2  UNL     1       2.519  33.011  21.354  1.00  0.00    -0.219 N 
ATOM     19  H2  UNL     1       2.799  33.704  20.659  1.00  0.00     0.195 HD
BRANCH  18  20
HETATM   20  N1  UNL     1       2.969  31.709  21.260  1.00  0.00    -0.037 N 
HETATM   21  O1  UNL     1       3.737  31.277  22.135  1.00  0.00    -0.516 OA
HETATM   22  O2  UNL     1       2.606  30.868  20.241  1.00  0.00    -0.516 OA
ENDBRANCH  18  20
ENDBRANCH   1  18
TORSDOF 4
ENDMDL
MODEL 5
REMARK VINA RESULT: -7.451576848      0.814      1.184
REMARK  4 active torsions:
REMARK  status: ('A' for Active; 'I' for Inactive)
REMARK    1  A    between atoms: N1_2  and  N2_4 
REMARK    2  A    between atoms: N2_4  and  C1_6 
REMARK    3  A    between atoms: C3_11  and  C4_12 
REMARK    4  A    between atoms: C9_18  and  N4_19 
ROOT
HETATM    1  C1  UNL     1      -0.567  34.056  24.084  1.00  0.00     0.165 C 
HETATM    2  N3  UNL     1      -0.706  35.239  24.476  1.00  0.00    -0.340 N 
ATOM      3  H3  UNL     1       0.170  35.695  24.732  1.00  0.00     0.167 HD
HETATM    4  C2  UNL     1      -1.843  36.058  24.632  1.00  0.00     0.137 C 
HETATM    5  S1  UNL     1      -3.351  35.102  25.023  1.00  0.00    -0.104 SA
HETATM    6  C3  UNL     1      -3.474  33.891  23.613  1.00  0.00     0.157 C 
HETATM    7  S2  UNL     1      -1.904  33.036  23.582  1.00  0.00    -0.072 SA
ENDROOT
BRANCH   6   8
HETATM    8  C4  UNL     1      -4.600  33.004  24.012  1.00  0.00    -0.001 A 
HETATM    9  C5  UNL     1      -4.278  31.767  24.577  1.00  0.00     0.015 A 
HETATM   10  C6  UNL     1      -5.261  30.917  25.019  1.00  0.00     0.043 A 
HETATM   11  C7  UNL     1      -6.590  31.282  24.908  1.00  0.00     0.118 A 
HETATM   12  F1  UNL     1      -7.585  30.446  25.344  1.00  0.00    -0.206 F 
HETATM   13  C8  UNL     1      -6.928  32.482  24.361  1.00  0.00     0.079 A 
HETATM   14  C9  UNL     1      -5.909  33.347  23.909  1.00  0.00     0.114 A 
BRANCH  14  15
HETATM   15  N4  UNL     1      -6.321  34.576  23.335  1.00  0.00    -0.115 N 
HETATM   16  O3  UNL     1      -6.440  34.715  22.089  1.00  0.00    -0.532 OA
HETATM   17  O4  UNL     1      -6.613  35.668  24.092  1.00  0.00    -0.532 OA
ENDBRANCH  14  15
ENDBRANCH   6   8
BRANCH   1  18
HETATM   18  N2  UNL     1       0.747  33.529  24.050  1.00  0.00    -0.219 N 
ATOM     19  H2  UNL     1       0.939  32.654  23.561  1.00  0.00     0.195 HD
BRANCH  18  20
HETATM   20  N1  UNL     1       1.767  34.210  24.684  1.00  0.00    -0.037 N 
HETATM   21  O1  UNL     1       2.600  34.818  23.993  1.00  0.00    -0.516 OA
HETATM   22  O2  UNL     1       1.903  34.245  26.047  1.00  0.00    -0.516 OA
ENDBRANCH  18  20
ENDBRANCH   1  18
TORSDOF 4
ENDMDL
