MODEL 1
REMARK VINA RESULT: -9.123850743      0.000      0.000
REMARK  4 active torsions:
REMARK  status: ('A' for Active; 'I' for Inactive)
REMARK    1  A    between atoms: C6_7  and  C7_8 
REMARK    2  A    between atoms: N2_9  and  N3_11 
REMARK    3  A    between atoms: C9_17  and  C10_18 
REMARK    4  A    between atoms: N5_25  and  O2_26 
ROOT
HETATM    1  N1  UNL     1      -8.671  30.688  25.150  1.00  0.00    -0.191 NA
HETATM    2  C1  UNL     1      -7.516  30.729  25.103  1.00  0.00     0.099 C 
HETATM    3  C2  UNL     1      -6.063  30.805  25.040  1.00  0.00     0.045 A 
HETATM    4  C3  UNL     1      -5.290  29.776  25.547  1.00  0.00     0.023 A 
HETATM    5  C4  UNL     1      -3.914  29.869  25.476  1.00  0.00     0.002 A 
HETATM    6  C5  UNL     1      -3.276  30.966  24.911  1.00  0.00     0.013 A 
HETATM    7  C6  UNL     1      -4.049  31.995  24.404  1.00  0.00    -0.018 A 
HETATM    8  C16 UNL     1      -5.421  31.881  24.485  1.00  0.00     0.035 A 
ENDROOT
BRANCH   7   9
HETATM    9  C7  UNL     1      -3.416  33.163  23.801  1.00  0.00     0.118 C 
HETATM   10  N2  UNL     1      -3.653  34.321  24.314  1.00  0.00    -0.308 N 
ATOM     11  H2  UNL     1      -4.275  34.378  25.122  1.00  0.00     0.186 HD
BRANCH  10  12
HETATM   12  N3  UNL     1      -3.100  35.501  23.816  1.00  0.00    -0.262 N 
HETATM   13  C8  UNL     1      -3.792  36.407  23.242  1.00  0.00     0.290 A 
HETATM   14  O1  UNL     1      -5.071  36.460  22.996  1.00  0.00    -0.195 OA
HETATM   15  N5  UNL     1      -3.237  37.570  22.753  1.00  0.00    -0.164 N 
HETATM   16  N4  UNL     1      -5.347  37.549  22.400  1.00  0.00    -0.238 N 
HETATM   17  C9  UNL     1      -4.206  38.295  22.220  1.00  0.00     0.170 A 
ATOM     18  H4  UNL     1      -6.280  37.828  22.099  1.00  0.00     0.196 HD
ATOM     19  H3  UNL     1      -2.096  35.646  23.916  1.00  0.00     0.190 HD
BRANCH  17  20
HETATM   20  C10 UNL     1      -4.228  39.608  21.603  1.00  0.00     0.051 A 
HETATM   21  C11 UNL     1      -3.582  39.792  20.366  1.00  0.00     0.018 A 
HETATM   22  C12 UNL     1      -3.518  40.994  19.717  1.00  0.00     0.001 A 
HETATM   23  C13 UNL     1      -4.105  42.112  20.270  1.00  0.00     0.003 A 
HETATM   24  C14 UNL     1      -4.735  41.975  21.459  1.00  0.00     0.043 A 
HETATM   25  C15 UNL     1      -4.796  40.725  22.125  1.00  0.00     0.130 A 
HETATM   26  F1  UNL     1      -5.417  40.732  23.303  1.00  0.00    -0.205 F 
ENDBRANCH  17  20
BRANCH  15  27
HETATM   27  O2  UNL     1      -1.918  37.876  22.856  1.00  0.00    -0.278 OA
ATOM     28  H2  UNL     1      -1.345  37.994  22.108  1.00  0.00     0.245 HD
ENDBRANCH  15  27
ENDBRANCH  10  12
ENDBRANCH   7   9
TORSDOF 4
ENDMDL
MODEL 2
REMARK VINA RESULT: -9.100122979      5.377      8.835
REMARK  4 active torsions:
REMARK  status: ('A' for Active; 'I' for Inactive)
REMARK    1  A    between atoms: C6_7  and  C7_8 
REMARK    2  A    between atoms: N2_9  and  N3_11 
REMARK    3  A    between atoms: C9_17  and  C10_18 
REMARK    4  A    between atoms: N5_25  and  O2_26 
ROOT
HETATM    1  N1  UNL     1       2.409  32.210  21.031  1.00  0.00    -0.191 NA
HETATM    2  C1  UNL     1       1.942  32.735  21.950  1.00  0.00     0.099 C 
HETATM    3  C2  UNL     1       1.335  33.385  23.102  1.00  0.00     0.045 A 
HETATM    4  C3  UNL     1       2.130  33.941  24.088  1.00  0.00     0.023 A 
HETATM    5  C4  UNL     1       1.531  34.552  25.172  1.00  0.00     0.002 A 
HETATM    6  C5  UNL     1       0.151  34.629  25.308  1.00  0.00     0.013 A 
HETATM    7  C6  UNL     1      -0.645  34.072  24.323  1.00  0.00    -0.018 A 
HETATM    8  C16 UNL     1      -0.026  33.467  23.249  1.00  0.00     0.035 A 
ENDROOT
BRANCH   7   9
HETATM    9  C7  UNL     1      -2.099  34.132  24.429  1.00  0.00     0.118 C 
HETATM   10  N2  UNL     1      -2.801  33.399  23.637  1.00  0.00    -0.308 N 
ATOM     11  H2  UNL     1      -2.316  32.805  22.964  1.00  0.00     0.186 HD
BRANCH  10  12
HETATM   12  N3  UNL     1      -4.196  33.380  23.655  1.00  0.00    -0.262 N 
HETATM   13  C8  UNL     1      -4.873  32.538  24.335  1.00  0.00     0.290 A 
HETATM   14  O1  UNL     1      -4.474  31.570  25.113  1.00  0.00    -0.195 OA
HETATM   15  N5  UNL     1      -6.250  32.526  24.349  1.00  0.00    -0.164 N 
HETATM   16  N4  UNL     1      -5.484  30.969  25.598  1.00  0.00    -0.238 N 
HETATM   17  C9  UNL     1      -6.646  31.542  25.140  1.00  0.00     0.170 A 
ATOM     18  H4  UNL     1      -5.438  30.174  26.236  1.00  0.00     0.196 HD
ATOM     19  H3  UNL     1      -4.698  34.072  23.100  1.00  0.00     0.190 HD
BRANCH  17  20
HETATM   20  C10 UNL     1      -7.956  31.086  25.562  1.00  0.00     0.051 A 
HETATM   21  C11 UNL     1      -8.519  31.617  26.738  1.00  0.00     0.018 A 
HETATM   22  C12 UNL     1      -9.732  31.231  27.238  1.00  0.00     0.001 A 
HETATM   23  C13 UNL     1     -10.477  30.271  26.585  1.00  0.00     0.003 A 
HETATM   24  C14 UNL     1      -9.968  29.736  25.452  1.00  0.00     0.043 A 
HETATM   25  C15 UNL     1      -8.709  30.142  24.942  1.00  0.00     0.130 A 
HETATM   26  F1  UNL     1      -8.309  29.515  23.837  1.00  0.00    -0.205 F 
ENDBRANCH  17  20
BRANCH  15  27
HETATM   27  O2  UNL     1      -7.017  33.418  23.669  1.00  0.00    -0.278 OA
ATOM     28  H2  UNL     1      -7.234  33.330  22.748  1.00  0.00     0.245 HD
ENDBRANCH  15  27
ENDBRANCH  10  12
ENDBRANCH   7   9
TORSDOF 4
ENDMDL
MODEL 3
REMARK VINA RESULT: -9.085979783      1.125      1.427
REMARK  4 active torsions:
REMARK  status: ('A' for Active; 'I' for Inactive)
REMARK    1  A    between atoms: C6_7  and  C7_8 
REMARK    2  A    between atoms: N2_9  and  N3_11 
REMARK    3  A    between atoms: C9_17  and  C10_18 
REMARK    4  A    between atoms: N5_25  and  O2_26 
ROOT
HETATM    1  N1  UNL     1      -8.652  30.865  25.149  1.00  0.00    -0.191 NA
HETATM    2  C1  UNL     1      -7.497  30.856  25.090  1.00  0.00     0.099 C 
HETATM    3  C2  UNL     1      -6.043  30.867  25.014  1.00  0.00     0.045 A 
HETATM    4  C3  UNL     1      -5.315  29.768  25.432  1.00  0.00     0.023 A 
HETATM    5  C4  UNL     1      -3.937  29.802  25.351  1.00  0.00     0.002 A 
HETATM    6  C5  UNL     1      -3.252  30.907  24.862  1.00  0.00     0.013 A 
HETATM    7  C6  UNL     1      -3.980  32.007  24.444  1.00  0.00    -0.018 A 
HETATM    8  C16 UNL     1      -5.355  31.951  24.534  1.00  0.00     0.035 A 
ENDROOT
BRANCH   7   9
HETATM    9  C7  UNL     1      -3.298  33.187  23.924  1.00  0.00     0.118 C 
HETATM   10  N2  UNL     1      -3.645  34.343  24.373  1.00  0.00    -0.308 N 
ATOM     11  H2  UNL     1      -4.384  34.391  25.076  1.00  0.00     0.186 HD
BRANCH  10  12
HETATM   12  N3  UNL     1      -3.057  35.533  23.944  1.00  0.00    -0.262 N 
HETATM   13  C8  UNL     1      -3.630  36.343  23.141  1.00  0.00     0.290 A 
HETATM   14  O1  UNL     1      -4.799  36.274  22.569  1.00  0.00    -0.195 OA
HETATM   15  N5  UNL     1      -3.043  37.517  22.721  1.00  0.00    -0.164 N 
HETATM   16  N4  UNL     1      -4.978  37.300  21.838  1.00  0.00    -0.238 N 
HETATM   17  C9  UNL     1      -3.882  38.126  21.900  1.00  0.00     0.170 A 
ATOM     18  H4  UNL     1      -5.815  37.482  21.284  1.00  0.00     0.196 HD
ATOM     19  H3  UNL     1      -2.126  35.767  24.288  1.00  0.00     0.190 HD
BRANCH  17  20
HETATM   20  C10 UNL     1      -3.824  39.393  21.197  1.00  0.00     0.051 A 
HETATM   21  C11 UNL     1      -3.798  40.588  21.940  1.00  0.00     0.018 A 
HETATM   22  C12 UNL     1      -3.775  41.832  21.373  1.00  0.00     0.001 A 
HETATM   23  C13 UNL     1      -3.777  41.969  20.000  1.00  0.00     0.003 A 
HETATM   24  C14 UNL     1      -3.803  40.842  19.252  1.00  0.00     0.043 A 
HETATM   25  C15 UNL     1      -3.827  39.557  19.849  1.00  0.00     0.130 A 
HETATM   26  F1  UNL     1      -3.884  38.531  19.000  1.00  0.00    -0.205 F 
ENDBRANCH  17  20
BRANCH  15  27
HETATM   27  O2  UNL     1      -1.820  37.937  23.138  1.00  0.00    -0.278 OA
ATOM     28  H2  UNL     1      -1.078  38.055  22.557  1.00  0.00     0.245 HD
ENDBRANCH  15  27
ENDBRANCH  10  12
ENDBRANCH   7   9
TORSDOF 4
ENDMDL
MODEL 4
REMARK VINA RESULT: -8.965193638      5.455      8.916
REMARK  4 active torsions:
REMARK  status: ('A' for Active; 'I' for Inactive)
REMARK    1  A    between atoms: C6_7  and  C7_8 
REMARK    2  A    between atoms: N2_9  and  N3_11 
REMARK    3  A    between atoms: C9_17  and  C10_18 
REMARK    4  A    between atoms: N5_25  and  O2_26 
ROOT
HETATM    1  N1  UNL     1       2.532  34.603  26.244  1.00  0.00    -0.191 NA
HETATM    2  C1  UNL     1       1.973  34.180  25.323  1.00  0.00     0.099 C 
HETATM    3  C2  UNL     1       1.252  33.661  24.170  1.00  0.00     0.045 A 
HETATM    4  C3  UNL     1       1.936  33.030  23.147  1.00  0.00     0.023 A 
HETATM    5  C4  UNL     1       1.231  32.546  22.063  1.00  0.00     0.002 A 
HETATM    6  C5  UNL     1      -0.149  32.671  21.963  1.00  0.00     0.013 A 
HETATM    7  C6  UNL     1      -0.834  33.302  22.986  1.00  0.00    -0.018 A 
HETATM    8  C16 UNL     1      -0.109  33.778  24.059  1.00  0.00     0.035 A 
ENDROOT
BRANCH   7   9
HETATM    9  C7  UNL     1      -2.283  33.453  22.919  1.00  0.00     0.118 C 
HETATM   10  N2  UNL     1      -2.992  33.002  23.895  1.00  0.00    -0.308 N 
ATOM     11  H2  UNL     1      -2.514  32.555  24.678  1.00  0.00     0.186 HD
BRANCH  10  12
HETATM   12  N3  UNL     1      -4.383  33.095  23.931  1.00  0.00    -0.262 N 
HETATM   13  C8  UNL     1      -5.119  32.294  24.599  1.00  0.00     0.290 A 
HETATM   14  O1  UNL     1      -4.792  31.279  25.349  1.00  0.00    -0.195 OA
HETATM   15  N5  UNL     1      -6.493  32.393  24.629  1.00  0.00    -0.164 N 
HETATM   16  N4  UNL     1      -5.842  30.749  25.833  1.00  0.00    -0.238 N 
HETATM   17  C9  UNL     1      -6.958  31.426  25.402  1.00  0.00     0.170 A 
ATOM     18  H4  UNL     1      -5.854  29.939  26.451  1.00  0.00     0.196 HD
ATOM     19  H3  UNL     1      -4.834  33.839  23.398  1.00  0.00     0.190 HD
BRANCH  17  20
HETATM   20  C10 UNL     1      -8.297  31.066  25.830  1.00  0.00     0.051 A 
HETATM   21  C11 UNL     1      -8.823  31.654  26.995  1.00  0.00     0.018 A 
HETATM   22  C12 UNL     1     -10.059  31.359  27.500  1.00  0.00     0.001 A 
HETATM   23  C13 UNL     1     -10.868  30.442  26.862  1.00  0.00     0.003 A 
HETATM   24  C14 UNL     1     -10.396  29.855  25.738  1.00  0.00     0.043 A 
HETATM   25  C15 UNL     1      -9.112  30.166  25.224  1.00  0.00     0.130 A 
HETATM   26  F1  UNL     1      -8.755  29.495  24.129  1.00  0.00    -0.205 F 
ENDBRANCH  17  20
BRANCH  15  27
HETATM   27  O2  UNL     1      -7.192  33.360  23.979  1.00  0.00    -0.278 OA
ATOM     28  H2  UNL     1      -7.636  34.074  24.420  1.00  0.00     0.245 HD
ENDBRANCH  15  27
ENDBRANCH  10  12
ENDBRANCH   7   9
TORSDOF 4
ENDMDL
MODEL 5
REMARK VINA RESULT: -8.709207256      5.200      6.360
REMARK  4 active torsions:
REMARK  status: ('A' for Active; 'I' for Inactive)
REMARK    1  A    between atoms: C6_7  and  C7_8 
REMARK    2  A    between atoms: N2_9  and  N3_11 
REMARK    3  A    between atoms: C9_17  and  C10_18 
REMARK    4  A    between atoms: N5_25  and  O2_26 
ROOT
HETATM    1  N1  UNL     1     -10.701  32.382  28.889  1.00  0.00    -0.191 NA
HETATM    2  C1  UNL     1     -10.207  31.885  27.968  1.00  0.00     0.099 C 
HETATM    3  C2  UNL     1      -9.566  31.271  26.815  1.00  0.00     0.045 A 
HETATM    4  C3  UNL     1     -10.143  30.176  26.198  1.00  0.00     0.023 A 
HETATM    5  C4  UNL     1      -9.517  29.609  25.105  1.00  0.00     0.002 A 
HETATM    6  C5  UNL     1      -8.321  30.103  24.601  1.00  0.00     0.013 A 
HETATM    7  C6  UNL     1      -7.742  31.198  25.218  1.00  0.00    -0.018 A 
HETATM    8  C16 UNL     1      -8.385  31.747  26.307  1.00  0.00     0.035 A 
ENDROOT
BRANCH   7   9
HETATM    9  C7  UNL     1      -6.486  31.746  24.718  1.00  0.00     0.118 C 
HETATM   10  N2  UNL     1      -6.464  32.976  24.336  1.00  0.00    -0.308 N 
ATOM     11  H2  UNL     1      -7.325  33.520  24.395  1.00  0.00     0.186 HD
BRANCH  10  12
HETATM   12  N3  UNL     1      -5.316  33.598  23.843  1.00  0.00    -0.262 N 
HETATM   13  C8  UNL     1      -4.156  33.070  23.908  1.00  0.00     0.290 A 
HETATM   14  O1  UNL     1      -3.779  31.925  24.403  1.00  0.00    -0.195 OA
HETATM   15  N5  UNL     1      -3.027  33.691  23.419  1.00  0.00    -0.164 N 
HETATM   16  N4  UNL     1      -2.522  31.791  24.261  1.00  0.00    -0.238 N 
HETATM   17  C9  UNL     1      -1.993  32.895  23.636  1.00  0.00     0.170 A 
ATOM     18  H4  UNL     1      -1.984  30.981  24.567  1.00  0.00     0.196 HD
ATOM     19  H3  UNL     1      -5.409  34.517  23.411  1.00  0.00     0.190 HD
BRANCH  17  20
HETATM   20  C10 UNL     1      -0.584  33.000  23.307  1.00  0.00     0.051 A 
HETATM   21  C11 UNL     1      -0.153  32.623  22.021  1.00  0.00     0.018 A 
HETATM   22  C12 UNL     1       1.155  32.654  21.622  1.00  0.00     0.001 A 
HETATM   23  C13 UNL     1       2.137  33.072  22.497  1.00  0.00     0.003 A 
HETATM   24  C14 UNL     1       1.760  33.441  23.743  1.00  0.00     0.043 A 
HETATM   25  C15 UNL     1       0.402  33.405  24.147  1.00  0.00     0.130 A 
HETATM   26  F1  UNL     1       0.170  33.763  25.409  1.00  0.00    -0.205 F 
ENDBRANCH  17  20
BRANCH  15  27
HETATM   27  O2  UNL     1      -3.041  34.901  22.801  1.00  0.00    -0.278 OA
ATOM     28  H2  UNL     1      -3.517  35.076  21.999  1.00  0.00     0.245 HD
ENDBRANCH  15  27
ENDBRANCH  10  12
ENDBRANCH   7   9
TORSDOF 4
ENDMDL
