MODEL 1
REMARK VINA RESULT: -6.681839328      0.000      0.000
REMARK  4 active torsions:
REMARK  status: ('A' for Active; 'I' for Inactive)
REMARK    1  A    between atoms: C4_5  and  C5_6 
REMARK    2  A    between atoms: C7_9  and  C8_10 
REMARK    3  A    between atoms: N2_11  and  N3_13 
REMARK    4  A    between atoms: C9_14  and  O1_15 
ROOT
HETATM    1  C5  UNL     1      -0.780  33.469  23.274  1.00  0.00     0.067 A 
HETATM    2  C6  UNL     1       0.592  33.426  23.914  1.00  0.00     0.102 A 
HETATM    3 CL1  UNL     1       2.013  33.456  22.836  1.00  0.00    -0.123 Cl
HETATM    4  C7  UNL     1      -0.291  34.642  23.987  1.00  0.00     0.056 A 
ENDROOT
BRANCH   4   5
HETATM    5  C8  UNL     1      -0.729  35.094  25.306  1.00  0.00     0.087 C 
HETATM    6  N2  UNL     1      -1.287  36.222  25.522  1.00  0.00    -0.305 N 
ATOM      7  H2  UNL     1      -1.562  36.457  26.476  1.00  0.00     0.186 HD
BRANCH   6   8
HETATM    8  N3  UNL     1      -1.545  37.171  24.478  1.00  0.00    -0.216 N 
HETATM    9  C9  UNL     1      -0.663  38.047  24.093  1.00  0.00     0.170 A 
HETATM   10  C10 UNL     1      -1.016  38.908  23.084  1.00  0.00     0.110 A 
HETATM   11  S1  UNL     1      -2.612  38.414  22.737  1.00  0.00    -0.066 SA
HETATM   12  C11 UNL     1      -2.737  37.157  23.879  1.00  0.00     0.166 A 
HETATM   13  S2  UNL     1      -4.025  36.154  24.172  1.00  0.00    -0.050 SA
BRANCH   9  14
HETATM   14  O1  UNL     1       0.642  38.156  24.658  1.00  0.00    -0.344 OA
ATOM     15  H1  UNL     1       1.277  38.813  24.395  1.00  0.00     0.219 HD
ENDBRANCH   9  14
ENDBRANCH   6   8
ENDBRANCH   4   5
BRANCH   1  16
HETATM   16  C4  UNL     1      -1.758  32.499  23.832  1.00  0.00     0.033 A 
HETATM   17  C3  UNL     1      -1.482  31.227  24.276  1.00  0.00     0.045 A 
HETATM   18  C2  UNL     1      -2.678  30.681  24.714  1.00  0.00     0.111 A 
HETATM   19  N1  UNL     1      -3.648  31.591  24.541  1.00  0.00    -0.308 N 
HETATM   20  C1  UNL     1      -5.072  31.412  24.877  1.00  0.00     0.177 C 
HETATM   21  N4  UNL     1      -3.083  32.661  24.017  1.00  0.00    -0.303 N 
ATOM     22  H4  UNL     1      -3.590  33.514  23.780  1.00  0.00     0.186 HD
ENDBRANCH   1  16
TORSDOF 4
ENDMDL
MODEL 2
REMARK VINA RESULT: -6.511844699      1.528      1.961
REMARK  4 active torsions:
REMARK  status: ('A' for Active; 'I' for Inactive)
REMARK    1  A    between atoms: C4_5  and  C5_6 
REMARK    2  A    between atoms: C7_9  and  C8_10 
REMARK    3  A    between atoms: N2_11  and  N3_13 
REMARK    4  A    between atoms: C9_14  and  O1_15 
ROOT
HETATM    1  C5  UNL     1      -0.831  33.387  23.328  1.00  0.00     0.067 A 
HETATM    2  C6  UNL     1       0.552  33.289  23.938  1.00  0.00     0.102 A 
HETATM    3 CL1  UNL     1       1.952  33.319  22.832  1.00  0.00    -0.123 Cl
HETATM    4  C7  UNL     1      -0.299  34.524  24.067  1.00  0.00     0.056 A 
ENDROOT
BRANCH   4   5
HETATM    5  C8  UNL     1      -0.699  34.943  25.409  1.00  0.00     0.087 C 
HETATM    6  N2  UNL     1      -1.476  35.929  25.644  1.00  0.00    -0.305 N 
ATOM      7  H2  UNL     1      -1.704  36.152  26.613  1.00  0.00     0.186 HD
BRANCH   6   8
HETATM    8  N3  UNL     1      -2.043  36.734  24.601  1.00  0.00    -0.216 N 
HETATM    9  C9  UNL     1      -3.163  36.434  24.013  1.00  0.00     0.170 A 
HETATM   10  C10 UNL     1      -3.614  37.275  23.027  1.00  0.00     0.110 A 
HETATM   11  S1  UNL     1      -2.393  38.467  22.992  1.00  0.00    -0.066 SA
HETATM   12  C11 UNL     1      -1.394  37.835  24.219  1.00  0.00     0.166 A 
HETATM   13  S2  UNL     1       0.035  38.442  24.799  1.00  0.00    -0.050 SA
BRANCH   9  14
HETATM   14  O1  UNL     1      -3.944  35.284  24.337  1.00  0.00    -0.344 OA
ATOM     15  H1  UNL     1      -4.236  34.647  23.695  1.00  0.00     0.219 HD
ENDBRANCH   9  14
ENDBRANCH   6   8
ENDBRANCH   4   5
BRANCH   1  16
HETATM   16  C4  UNL     1      -1.822  32.424  23.875  1.00  0.00     0.033 A 
HETATM   17  C3  UNL     1      -1.564  31.143  24.301  1.00  0.00     0.045 A 
HETATM   18  C2  UNL     1      -2.767  30.608  24.734  1.00  0.00     0.111 A 
HETATM   19  N1  UNL     1      -3.724  31.534  24.573  1.00  0.00    -0.308 N 
HETATM   20  C1  UNL     1      -5.150  31.371  24.910  1.00  0.00     0.177 C 
HETATM   21  N4  UNL     1      -3.144  32.603  24.064  1.00  0.00    -0.303 N 
ATOM     22  H4  UNL     1      -3.640  33.466  23.838  1.00  0.00     0.186 HD
ENDBRANCH   1  16
TORSDOF 4
ENDMDL
MODEL 3
REMARK VINA RESULT: -6.463048402      0.870      1.147
REMARK  4 active torsions:
REMARK  status: ('A' for Active; 'I' for Inactive)
REMARK    1  A    between atoms: C4_5  and  C5_6 
REMARK    2  A    between atoms: C7_9  and  C8_10 
REMARK    3  A    between atoms: N2_11  and  N3_13 
REMARK    4  A    between atoms: C9_14  and  O1_15 
ROOT
HETATM    1  C5  UNL     1      -1.404  33.597  23.371  1.00  0.00     0.067 A 
HETATM    2  C6  UNL     1      -0.085  33.411  24.089  1.00  0.00     0.102 A 
HETATM    3 CL1  UNL     1       1.383  33.218  23.094  1.00  0.00    -0.123 Cl
HETATM    4  C7  UNL     1      -0.810  34.729  24.067  1.00  0.00     0.056 A 
ENDROOT
BRANCH   4   5
HETATM    5  C8  UNL     1      -1.255  35.288  25.342  1.00  0.00     0.087 C 
HETATM    6  N2  UNL     1      -1.666  36.489  25.487  1.00  0.00    -0.305 N 
ATOM      7  H2  UNL     1      -1.959  36.797  26.414  1.00  0.00     0.186 HD
BRANCH   6   8
HETATM    8  N3  UNL     1      -1.732  37.422  24.400  1.00  0.00    -0.216 N 
HETATM    9  C9  UNL     1      -0.706  38.118  24.008  1.00  0.00     0.170 A 
HETATM   10  C10 UNL     1      -0.882  38.981  22.957  1.00  0.00     0.110 A 
HETATM   11  S1  UNL     1      -2.530  38.749  22.579  1.00  0.00    -0.066 SA
HETATM   12  C11 UNL     1      -2.895  37.582  23.764  1.00  0.00     0.166 A 
HETATM   13  S2  UNL     1      -4.341  36.825  24.055  1.00  0.00    -0.050 SA
BRANCH   9  14
HETATM   14  O1  UNL     1       0.585  38.031  24.610  1.00  0.00    -0.344 OA
ATOM     15  H1  UNL     1       1.160  38.777  24.734  1.00  0.00     0.219 HD
ENDBRANCH   9  14
ENDBRANCH   6   8
ENDBRANCH   4   5
BRANCH   1  16
HETATM   16  C4  UNL     1      -2.526  32.781  23.906  1.00  0.00     0.033 A 
HETATM   17  C3  UNL     1      -3.852  33.140  23.939  1.00  0.00     0.045 A 
HETATM   18  C2  UNL     1      -4.545  32.087  24.514  1.00  0.00     0.111 A 
HETATM   19  N1  UNL     1      -3.667  31.120  24.821  1.00  0.00    -0.308 N 
HETATM   20  C1  UNL     1      -3.991  29.827  25.451  1.00  0.00     0.177 C 
HETATM   21  N4  UNL     1      -2.477  31.550  24.453  1.00  0.00    -0.303 N 
ATOM     22  H4  UNL     1      -1.617  31.013  24.569  1.00  0.00     0.186 HD
ENDBRANCH   1  16
TORSDOF 4
ENDMDL
MODEL 4
REMARK VINA RESULT: -6.447050796      2.315      2.785
REMARK  4 active torsions:
REMARK  status: ('A' for Active; 'I' for Inactive)
REMARK    1  A    between atoms: C4_5  and  C5_6 
REMARK    2  A    between atoms: C7_9  and  C8_10 
REMARK    3  A    between atoms: N2_11  and  N3_13 
REMARK    4  A    between atoms: C9_14  and  O1_15 
ROOT
HETATM    1  C5  UNL     1      -1.944  32.996  23.460  1.00  0.00     0.067 A 
HETATM    2  C6  UNL     1      -0.637  33.241  24.184  1.00  0.00     0.102 A 
HETATM    3 CL1  UNL     1       0.863  33.229  23.219  1.00  0.00    -0.123 Cl
HETATM    4  C7  UNL     1      -1.644  34.335  23.949  1.00  0.00     0.056 A 
ENDROOT
BRANCH   4   5
HETATM    5  C8  UNL     1      -2.241  34.980  25.117  1.00  0.00     0.087 C 
HETATM    6  N2  UNL     1      -3.210  35.810  25.053  1.00  0.00    -0.305 N 
ATOM      7  H2  UNL     1      -3.566  36.214  25.919  1.00  0.00     0.186 HD
BRANCH   6   8
HETATM    8  N3  UNL     1      -3.817  36.197  23.813  1.00  0.00    -0.216 N 
HETATM    9  C9  UNL     1      -4.895  35.632  23.352  1.00  0.00     0.170 A 
HETATM   10  C10 UNL     1      -5.391  36.082  22.155  1.00  0.00     0.110 A 
HETATM   11  S1  UNL     1      -4.274  37.304  21.744  1.00  0.00    -0.066 SA
HETATM   12  C11 UNL     1      -3.254  37.176  23.102  1.00  0.00     0.166 A 
HETATM   13  S2  UNL     1      -1.894  38.055  23.457  1.00  0.00    -0.050 SA
BRANCH   9  14
HETATM   14  O1  UNL     1      -5.584  34.579  24.024  1.00  0.00    -0.344 OA
ATOM     15  H1  UNL     1      -6.269  34.057  23.622  1.00  0.00     0.219 HD
ENDBRANCH   9  14
ENDBRANCH   6   8
ENDBRANCH   4   5
BRANCH   1  16
HETATM   16  C4  UNL     1      -2.863  32.044  24.138  1.00  0.00     0.033 A 
HETATM   17  C3  UNL     1      -2.518  30.837  24.697  1.00  0.00     0.045 A 
HETATM   18  C2  UNL     1      -3.676  30.285  25.220  1.00  0.00     0.111 A 
HETATM   19  N1  UNL     1      -4.691  31.130  24.984  1.00  0.00    -0.308 N 
HETATM   20  C1  UNL     1      -6.097  30.923  25.377  1.00  0.00     0.177 C 
HETATM   21  N4  UNL     1      -4.189  32.166  24.343  1.00  0.00    -0.303 N 
ATOM     22  H4  UNL     1      -4.741  32.968  24.037  1.00  0.00     0.186 HD
ENDBRANCH   1  16
TORSDOF 4
ENDMDL
MODEL 5
REMARK VINA RESULT: -6.321244856      2.002      2.182
REMARK  4 active torsions:
REMARK  status: ('A' for Active; 'I' for Inactive)
REMARK    1  A    between atoms: C4_5  and  C5_6 
REMARK    2  A    between atoms: C7_9  and  C8_10 
REMARK    3  A    between atoms: N2_11  and  N3_13 
REMARK    4  A    between atoms: C9_14  and  O1_15 
ROOT
HETATM    1  C5  UNL     1      -2.176  33.057  23.505  1.00  0.00     0.067 A 
HETATM    2  C6  UNL     1      -1.224  33.775  24.438  1.00  0.00     0.102 A 
HETATM    3 CL1  UNL     1       0.469  33.971  23.909  1.00  0.00    -0.123 Cl
HETATM    4  C7  UNL     1      -2.309  34.496  23.685  1.00  0.00     0.056 A 
ENDROOT
BRANCH   4   5
HETATM    5  C8  UNL     1      -3.345  35.177  24.459  1.00  0.00     0.087 C 
HETATM    6  N2  UNL     1      -3.268  36.395  24.834  1.00  0.00    -0.305 N 
ATOM      7  H2  UNL     1      -4.039  36.791  25.372  1.00  0.00     0.186 HD
BRANCH   6   8
HETATM    8  N3  UNL     1      -2.142  37.230  24.529  1.00  0.00    -0.216 N 
HETATM    9  C9  UNL     1      -2.022  37.862  23.399  1.00  0.00     0.170 A 
HETATM   10  C10 UNL     1      -0.903  38.633  23.213  1.00  0.00     0.110 A 
HETATM   11  S1  UNL     1      -0.069  38.410  24.685  1.00  0.00    -0.066 SA
HETATM   12  C11 UNL     1      -1.178  37.363  25.442  1.00  0.00     0.166 A 
HETATM   13  S2  UNL     1      -1.086  36.678  26.949  1.00  0.00    -0.050 SA
BRANCH   9  14
HETATM   14  O1  UNL     1      -2.987  37.796  22.350  1.00  0.00    -0.344 OA
ATOM     15  H1  UNL     1      -2.855  37.314  21.542  1.00  0.00     0.219 HD
ENDBRANCH   9  14
ENDBRANCH   6   8
ENDBRANCH   4   5
BRANCH   1  16
HETATM   16  C4  UNL     1      -3.048  32.048  24.161  1.00  0.00     0.033 A 
HETATM   17  C3  UNL     1      -2.640  30.868  24.735  1.00  0.00     0.045 A 
HETATM   18  C2  UNL     1      -3.774  30.241  25.228  1.00  0.00     0.111 A 
HETATM   19  N1  UNL     1      -4.835  31.016  24.960  1.00  0.00    -0.308 N 
HETATM   20  C1  UNL     1      -6.235  30.717  25.313  1.00  0.00     0.177 C 
HETATM   21  N4  UNL     1      -4.385  32.082  24.328  1.00  0.00    -0.303 N 
ATOM     22  H4  UNL     1      -4.980  32.844  24.003  1.00  0.00     0.186 HD
ENDBRANCH   1  16
TORSDOF 4
ENDMDL
