MODEL 1
REMARK VINA RESULT: -7.212213803      0.000      0.000
REMARK  5 active torsions:
REMARK  status: ('A' for Active; 'I' for Inactive)
REMARK    1  A    between atoms: C2_3  and  S1_4 
REMARK    2  A    between atoms: S1_4  and  C3_5 
REMARK    3  A    between atoms: C4_7  and  N2_8 
REMARK    4  A    between atoms: C9_16  and  C10_17 
REMARK    5  A    between atoms: C11_18  and  C12_19 
ROOT
HETATM    1  N1  UNL     1      -4.578  36.476  20.276  1.00  0.00    -0.197 NA
HETATM    2  C1  UNL     1      -5.334  36.035  21.029  1.00  0.00     0.069 C 
HETATM    3  C2  UNL     1      -6.306  35.490  21.986  1.00  0.00     0.203 C 
ENDROOT
BRANCH   3   4
HETATM    4  S1  UNL     1      -5.666  35.912  23.652  1.00  0.00    -0.105 SA
BRANCH   4   5
HETATM    5  C3  UNL     1      -4.105  35.015  23.793  1.00  0.00     0.081 A 
HETATM    6  S2  UNL     1      -2.491  35.581  23.659  1.00  0.00    -0.044 SA
HETATM    7  C4  UNL     1      -1.684  34.100  23.921  1.00  0.00     0.149 A 
HETATM    8  N3  UNL     1      -2.685  33.254  24.097  1.00  0.00    -0.328 N 
HETATM    9  C9  UNL     1      -3.910  33.678  24.039  1.00  0.00     0.112 A 
ATOM     10  H3  UNL     1      -2.494  32.268  24.279  1.00  0.00     0.168 HD
BRANCH   7  11
HETATM   11  N2  UNL     1      -0.278  33.892  23.936  1.00  0.00    -0.357 N 
HETATM   12  C5  UNL     1       0.605  34.981  24.306  1.00  0.00     0.151 C 
HETATM   13  C6  UNL     1       2.046  34.551  24.109  1.00  0.00     0.187 C 
HETATM   14  O1  UNL     1       2.282  33.936  22.906  1.00  0.00    -0.388 OA
HETATM   15  C7  UNL     1       1.407  32.941  22.555  1.00  0.00     0.187 C 
HETATM   16  C8  UNL     1       0.354  32.638  23.596  1.00  0.00     0.151 C 
ENDBRANCH   7  11
BRANCH   9  17
HETATM   17  C10 UNL     1      -5.064  32.781  24.226  1.00  0.00    -0.046 C 
HETATM   18  C11 UNL     1      -6.011  32.054  24.391  1.00  0.00    -0.085 C 
BRANCH  18  19
HETATM   19  C12 UNL     1      -7.135  31.156  24.586  1.00  0.00     0.208 C 
HETATM   20 CL1  UNL     1      -7.420  30.776  26.290  1.00  0.00    -0.117 Cl
ENDBRANCH  18  19
ENDBRANCH   9  17
ENDBRANCH   4   5
ENDBRANCH   3   4
TORSDOF 5
ENDMDL
MODEL 2
REMARK VINA RESULT: -6.827819857      3.709      6.156
REMARK  5 active torsions:
REMARK  status: ('A' for Active; 'I' for Inactive)
REMARK    1  A    between atoms: C2_3  and  S1_4 
REMARK    2  A    between atoms: S1_4  and  C3_5 
REMARK    3  A    between atoms: C4_7  and  N2_8 
REMARK    4  A    between atoms: C9_16  and  C10_17 
REMARK    5  A    between atoms: C11_18  and  C12_19 
ROOT
HETATM    1  N1  UNL     1      -4.598  36.484  19.949  1.00  0.00    -0.197 NA
HETATM    2  C1  UNL     1      -4.548  36.905  21.023  1.00  0.00     0.069 C 
HETATM    3  C2  UNL     1      -4.474  37.455  22.382  1.00  0.00     0.203 C 
ENDROOT
BRANCH   3   4
HETATM    4  S1  UNL     1      -2.968  36.732  23.140  1.00  0.00    -0.105 SA
BRANCH   4   5
HETATM    5  C3  UNL     1      -3.454  35.065  23.639  1.00  0.00     0.081 A 
HETATM    6  S2  UNL     1      -5.015  34.382  23.835  1.00  0.00    -0.044 SA
HETATM    7  C4  UNL     1      -4.544  32.812  24.310  1.00  0.00     0.149 A 
HETATM    8  N3  UNL     1      -3.223  32.890  24.294  1.00  0.00    -0.328 N 
HETATM    9  C9  UNL     1      -2.644  34.003  23.962  1.00  0.00     0.112 A 
ATOM     10  H3  UNL     1      -2.661  32.076  24.541  1.00  0.00     0.168 HD
BRANCH   7  11
HETATM   11  N2  UNL     1      -5.406  31.728  24.631  1.00  0.00    -0.357 N 
HETATM   12  C5  UNL     1      -6.836  31.869  24.439  1.00  0.00     0.151 C 
HETATM   13  C6  UNL     1      -7.541  30.640  24.982  1.00  0.00     0.187 C 
HETATM   14  O1  UNL     1      -7.111  30.258  26.227  1.00  0.00    -0.388 OA
HETATM   15  C7  UNL     1      -5.753  30.178  26.398  1.00  0.00     0.187 C 
HETATM   16  C8  UNL     1      -4.947  30.461  25.152  1.00  0.00     0.151 C 
ENDBRANCH   7  11
BRANCH   9  17
HETATM   17  C10 UNL     1      -1.179  34.149  23.928  1.00  0.00    -0.046 C 
HETATM   18  C11 UNL     1       0.020  34.278  23.909  1.00  0.00    -0.085 C 
BRANCH  18  19
HETATM   19  C12 UNL     1       1.462  34.438  23.860  1.00  0.00     0.208 C 
HETATM   20 CL1  UNL     1       2.234  33.334  22.714  1.00  0.00    -0.117 Cl
ENDBRANCH  18  19
ENDBRANCH   9  17
ENDBRANCH   4   5
ENDBRANCH   3   4
TORSDOF 5
ENDMDL
MODEL 3
REMARK VINA RESULT: -6.817910590      0.777      1.336
REMARK  5 active torsions:
REMARK  status: ('A' for Active; 'I' for Inactive)
REMARK    1  A    between atoms: C2_3  and  S1_4 
REMARK    2  A    between atoms: S1_4  and  C3_5 
REMARK    3  A    between atoms: C4_7  and  N2_8 
REMARK    4  A    between atoms: C9_16  and  C10_17 
REMARK    5  A    between atoms: C11_18  and  C12_19 
ROOT
HETATM    1  N1  UNL     1      -4.634  36.441  20.165  1.00  0.00    -0.197 NA
HETATM    2  C1  UNL     1      -5.458  36.048  20.873  1.00  0.00     0.069 C 
HETATM    3  C2  UNL     1      -6.515  35.565  21.770  1.00  0.00     0.203 C 
ENDROOT
BRANCH   3   4
HETATM    4  S1  UNL     1      -6.003  36.052  23.463  1.00  0.00    -0.105 SA
BRANCH   4   5
HETATM    5  C3  UNL     1      -4.369  35.316  23.685  1.00  0.00     0.081 A 
HETATM    6  S2  UNL     1      -2.812  36.026  23.561  1.00  0.00    -0.044 SA
HETATM    7  C4  UNL     1      -1.877  34.644  23.917  1.00  0.00     0.149 A 
HETATM    8  N3  UNL     1      -2.798  33.715  24.112  1.00  0.00    -0.328 N 
HETATM    9  C9  UNL     1      -4.056  34.017  24.004  1.00  0.00     0.112 A 
ATOM     10  H3  UNL     1      -2.521  32.762  24.347  1.00  0.00     0.168 HD
BRANCH   7  11
HETATM   11  N2  UNL     1      -0.458  34.571  23.975  1.00  0.00    -0.357 N 
HETATM   12  C5  UNL     1       0.226  33.438  23.382  1.00  0.00     0.151 C 
HETATM   13  C6  UNL     1       1.707  33.524  23.697  1.00  0.00     0.187 C 
HETATM   14  O1  UNL     1       1.980  33.802  25.012  1.00  0.00    -0.388 OA
HETATM   15  C7  UNL     1       1.287  34.848  25.564  1.00  0.00     0.187 C 
HETATM   16  C8  UNL     1       0.375  35.572  24.601  1.00  0.00     0.151 C 
ENDBRANCH   7  11
BRANCH   9  17
HETATM   17  C10 UNL     1      -5.125  33.024  24.208  1.00  0.00    -0.046 C 
HETATM   18  C11 UNL     1      -6.009  32.223  24.378  1.00  0.00    -0.085 C 
BRANCH  18  19
HETATM   19  C12 UNL     1      -7.059  31.245  24.601  1.00  0.00     0.208 C 
HETATM   20 CL1  UNL     1      -7.015  30.554  26.228  1.00  0.00    -0.117 Cl
ENDBRANCH  18  19
ENDBRANCH   9  17
ENDBRANCH   4   5
ENDBRANCH   3   4
TORSDOF 5
ENDMDL
MODEL 4
REMARK VINA RESULT: -6.631884816      4.199      6.742
REMARK  5 active torsions:
REMARK  status: ('A' for Active; 'I' for Inactive)
REMARK    1  A    between atoms: C2_3  and  S1_4 
REMARK    2  A    between atoms: S1_4  and  C3_5 
REMARK    3  A    between atoms: C4_7  and  N2_8 
REMARK    4  A    between atoms: C9_16  and  C10_17 
REMARK    5  A    between atoms: C11_18  and  C12_19 
ROOT
HETATM    1  N1  UNL     1       0.373  38.870  25.118  1.00  0.00    -0.197 NA
HETATM    2  C1  UNL     1      -0.026  37.787  25.154  1.00  0.00     0.069 C 
HETATM    3  C2  UNL     1      -0.518  36.405  25.190  1.00  0.00     0.203 C 
ENDROOT
BRANCH   3   4
HETATM    4  S1  UNL     1      -1.623  36.222  23.737  1.00  0.00    -0.105 SA
BRANCH   4   5
HETATM    5  C3  UNL     1      -2.418  34.615  23.956  1.00  0.00     0.081 A 
HETATM    6  S2  UNL     1      -4.018  34.233  24.442  1.00  0.00    -0.044 SA
HETATM    7  C4  UNL     1      -3.900  32.532  24.379  1.00  0.00     0.149 A 
HETATM    8  N3  UNL     1      -2.649  32.344  23.990  1.00  0.00    -0.328 N 
HETATM    9  C9  UNL     1      -1.879  33.365  23.770  1.00  0.00     0.112 A 
ATOM     10  H3  UNL     1      -2.290  31.398  23.864  1.00  0.00     0.168 HD
BRANCH   7  11
HETATM   11  N2  UNL     1      -4.928  31.598  24.680  1.00  0.00    -0.357 N 
HETATM   12  C5  UNL     1      -6.316  31.976  24.498  1.00  0.00     0.151 C 
HETATM   13  C6  UNL     1      -7.212  30.868  25.017  1.00  0.00     0.187 C 
HETATM   14  O1  UNL     1      -6.850  30.393  26.252  1.00  0.00    -0.388 OA
HETATM   15  C7  UNL     1      -5.524  30.086  26.415  1.00  0.00     0.187 C 
HETATM   16  C8  UNL     1      -4.684  30.261  25.171  1.00  0.00     0.151 C 
ENDBRANCH   7  11
BRANCH   9  17
HETATM   17  C10 UNL     1      -0.479  33.218  23.337  1.00  0.00    -0.046 C 
HETATM   18  C11 UNL     1       0.671  33.104  22.994  1.00  0.00    -0.085 C 
BRANCH  18  19
HETATM   19  C12 UNL     1       2.050  32.978  22.558  1.00  0.00     0.208 C 
HETATM   20 CL1  UNL     1       2.203  32.147  21.004  1.00  0.00    -0.117 Cl
ENDBRANCH  18  19
ENDBRANCH   9  17
ENDBRANCH   4   5
ENDBRANCH   3   4
TORSDOF 5
ENDMDL
MODEL 5
REMARK VINA RESULT: -6.623936814      2.075      2.526
REMARK  5 active torsions:
REMARK  status: ('A' for Active; 'I' for Inactive)
REMARK    1  A    between atoms: C2_3  and  S1_4 
REMARK    2  A    between atoms: S1_4  and  C3_5 
REMARK    3  A    between atoms: C4_7  and  N2_8 
REMARK    4  A    between atoms: C9_16  and  C10_17 
REMARK    5  A    between atoms: C11_18  and  C12_19 
ROOT
HETATM    1  N1  UNL     1      -8.337  34.961  23.652  1.00  0.00    -0.197 NA
HETATM    2  C1  UNL     1      -7.473  35.726  23.631  1.00  0.00     0.069 C 
HETATM    3  C2  UNL     1      -6.385  36.710  23.591  1.00  0.00     0.203 C 
ENDROOT
BRANCH   3   4
HETATM    4  S1  UNL     1      -5.193  36.097  22.338  1.00  0.00    -0.105 SA
BRANCH   4   5
HETATM    5  C3  UNL     1      -3.751  35.568  23.288  1.00  0.00     0.081 A 
HETATM    6  S2  UNL     1      -2.226  36.328  23.495  1.00  0.00    -0.044 SA
HETATM    7  C4  UNL     1      -1.503  35.165  24.513  1.00  0.00     0.149 A 
HETATM    8  N3  UNL     1      -2.460  34.260  24.642  1.00  0.00    -0.328 N 
HETATM    9  C9  UNL     1      -3.598  34.431  24.042  1.00  0.00     0.112 A 
ATOM     10  H3  UNL     1      -2.303  33.429  25.213  1.00  0.00     0.168 HD
BRANCH   7  11
HETATM   11  N2  UNL     1      -0.191  35.212  25.057  1.00  0.00    -0.357 N 
HETATM   12  C5  UNL     1       0.827  34.311  24.553  1.00  0.00     0.151 C 
HETATM   13  C6  UNL     1       2.087  34.459  25.383  1.00  0.00     0.187 C 
HETATM   14  O1  UNL     1       1.864  34.457  26.736  1.00  0.00    -0.388 OA
HETATM   15  C7  UNL     1       0.865  35.282  27.185  1.00  0.00     0.187 C 
HETATM   16  C8  UNL     1       0.213  36.117  26.108  1.00  0.00     0.151 C 
ENDBRANCH   7  11
BRANCH   9  17
HETATM   17  C10 UNL     1      -4.699  33.457  24.149  1.00  0.00    -0.046 C 
HETATM   18  C11 UNL     1      -5.596  32.658  24.249  1.00  0.00    -0.085 C 
BRANCH  18  19
HETATM   19  C12 UNL     1      -6.667  31.683  24.347  1.00  0.00     0.208 C 
HETATM   20 CL1  UNL     1      -6.150  30.174  25.112  1.00  0.00    -0.117 Cl
ENDBRANCH  18  19
ENDBRANCH   9  17
ENDBRANCH   4   5
ENDBRANCH   3   4
TORSDOF 5
ENDMDL
