MODEL 1
REMARK VINA RESULT: -7.079863691      0.000      0.000
REMARK  1 active torsions:
REMARK  status: ('A' for Active; 'I' for Inactive)
REMARK       I    between atoms: N1_1  and  C1_5 
REMARK       I    between atoms: C1_5  and  N2_6 
REMARK       I    between atoms: C1_5  and  N3_10 
REMARK    1  A    between atoms: N3_10  and  C2_12 
ROOT
HETATM    1  C2  UNL     1      12.603  42.957  83.345  1.00  0.00     0.689 A 
HETATM    2  N4  UNL     1      13.937  43.088  83.362  1.00  0.00    -0.141 N 
ATOM      3  H4  UNL     1      14.511  42.397  83.846  1.00  0.00     0.189 HD
HETATM    4  C3  UNL     1      14.530  44.146  82.732  1.00  0.00     0.342 A 
HETATM    5  O1  UNL     1      15.790  44.278  82.743  1.00  0.00    -0.246 OA
HETATM    6  N5  UNL     1      13.788  45.065  82.090  1.00  0.00    -0.260 N 
ATOM      7  H5  UNL     1      14.237  45.852  81.622  1.00  0.00     0.175 HD
HETATM    8  C4  UNL     1      12.449  44.939  82.070  1.00  0.00     0.342 A 
HETATM    9  O2  UNL     1      11.745  45.808  81.463  1.00  0.00    -0.246 OA
HETATM   10  N6  UNL     1      11.901  43.897  82.693  1.00  0.00    -0.141 N 
ATOM     11  H6  UNL     1      10.886  43.808  82.675  1.00  0.00     0.189 HD
ENDROOT
BRANCH   1  12
HETATM   12  N3  UNL     1      12.045  41.970  83.932  1.00  0.00    -0.173 N 
HETATM   13  C1  UNL     1      10.909  41.970  84.782  1.00  0.00     0.494 C 
HETATM   14  N1  UNL     1      11.057  42.761  85.991  1.00  0.00    -0.032 N 
HETATM   15  N2  UNL     1       9.738  42.405  84.005  1.00  0.00    -0.032 N 
ATOM     16  H13 UNL     1      11.093  43.759  85.784  1.00  0.00     0.278 HD
ATOM     17  H12 UNL     1      10.206  42.749  86.554  1.00  0.00     0.278 HD
ATOM     18  H11 UNL     1      11.868  42.459  86.530  1.00  0.00     0.278 HD
ATOM     19  H23 UNL     1       8.887  42.394  84.568  1.00  0.00     0.278 HD
ATOM     20  H22 UNL     1       9.774  43.403  83.798  1.00  0.00     0.278 HD
ATOM     21  H21 UNL     1       9.633  41.850  83.156  1.00  0.00     0.278 HD
ATOM     22  H3  UNL     1      12.474  41.059  83.767  1.00  0.00     0.181 HD
ENDBRANCH   1  12
TORSDOF 1
ENDMDL
MODEL 2
REMARK VINA RESULT: -7.038752043      1.579      2.343
REMARK  1 active torsions:
REMARK  status: ('A' for Active; 'I' for Inactive)
REMARK       I    between atoms: N1_1  and  C1_5 
REMARK       I    between atoms: C1_5  and  N2_6 
REMARK       I    between atoms: C1_5  and  N3_10 
REMARK    1  A    between atoms: N3_10  and  C2_12 
ROOT
HETATM    1  C2  UNL     1      13.027  42.673  83.613  1.00  0.00     0.689 A 
HETATM    2  N4  UNL     1      13.332  43.119  82.386  1.00  0.00    -0.141 N 
ATOM      3  H4  UNL     1      12.753  42.854  81.589  1.00  0.00     0.189 HD
HETATM    4  C3  UNL     1      14.417  43.930  82.201  1.00  0.00     0.342 A 
HETATM    5  O1  UNL     1      14.712  44.356  81.045  1.00  0.00    -0.246 OA
HETATM    6  N5  UNL     1      15.189  44.288  83.241  1.00  0.00    -0.260 N 
ATOM      7  H5  UNL     1      15.997  44.893  83.096  1.00  0.00     0.175 HD
HETATM    8  C4  UNL     1      14.889  43.843  84.475  1.00  0.00     0.342 A 
HETATM    9  O2  UNL     1      15.619  44.182  85.460  1.00  0.00    -0.246 OA
HETATM   10  N6  UNL     1      13.825  43.055  84.622  1.00  0.00    -0.141 N 
ATOM     11  H6  UNL     1      13.604  42.721  85.559  1.00  0.00     0.189 HD
ENDROOT
BRANCH   1  12
HETATM   12  N3  UNL     1      12.015  41.916  83.790  1.00  0.00    -0.173 N 
HETATM   13  C1  UNL     1      10.791  42.209  84.447  1.00  0.00     0.494 C 
HETATM   14  N1  UNL     1      10.926  42.561  85.850  1.00  0.00    -0.032 N 
HETATM   15  N2  UNL     1      10.096  43.269  83.700  1.00  0.00    -0.032 N 
ATOM     16  H13 UNL     1      11.383  43.465  85.968  1.00  0.00     0.278 HD
ATOM     17  H12 UNL     1      10.023  42.787  86.269  1.00  0.00     0.278 HD
ATOM     18  H11 UNL     1      11.407  41.827  86.368  1.00  0.00     0.278 HD
ATOM     19  H23 UNL     1       9.194  43.495  84.119  1.00  0.00     0.278 HD
ATOM     20  H22 UNL     1      10.553  44.173  83.818  1.00  0.00     0.278 HD
ATOM     21  H21 UNL     1      10.001  43.022  82.715  1.00  0.00     0.278 HD
ATOM     22  H3  UNL     1      12.096  40.974  83.409  1.00  0.00     0.181 HD
ENDBRANCH   1  12
TORSDOF 1
ENDMDL
MODEL 3
REMARK VINA RESULT: -6.985044649      1.585      1.761
REMARK  1 active torsions:
REMARK  status: ('A' for Active; 'I' for Inactive)
REMARK       I    between atoms: N1_1  and  C1_5 
REMARK       I    between atoms: C1_5  and  N2_6 
REMARK       I    between atoms: C1_5  and  N3_10 
REMARK    1  A    between atoms: N3_10  and  C2_12 
ROOT
HETATM    1  C2  UNL     1      13.046  42.668  83.644  1.00  0.00     0.689 A 
HETATM    2  N4  UNL     1      13.809  43.032  84.685  1.00  0.00    -0.141 N 
ATOM      3  H4  UNL     1      13.582  42.701  85.623  1.00  0.00     0.189 HD
HETATM    4  C3  UNL     1      14.890  43.844  84.491  1.00  0.00     0.342 A 
HETATM    5  O1  UNL     1      15.617  44.193  85.468  1.00  0.00    -0.246 OA
HETATM    6  N5  UNL     1      15.201  44.289  83.261  1.00  0.00    -0.260 N 
ATOM      7  H5  UNL     1      16.010  44.895  83.124  1.00  0.00     0.175 HD
HETATM    8  C4  UNL     1      14.440  43.928  82.213  1.00  0.00     0.342 A 
HETATM    9  O2  UNL     1      14.734  44.348  81.048  1.00  0.00    -0.246 OA
HETATM   10  N6  UNL     1      13.393  43.135  82.434  1.00  0.00    -0.141 N 
ATOM     11  H6  UNL     1      12.819  42.866  81.635  1.00  0.00     0.189 HD
ENDROOT
BRANCH   1  12
HETATM   12  N3  UNL     1      12.035  41.909  83.820  1.00  0.00    -0.173 N 
HETATM   13  C1  UNL     1      10.803  42.203  84.460  1.00  0.00     0.494 C 
HETATM   14  N1  UNL     1      10.922  42.572  85.860  1.00  0.00    -0.032 N 
HETATM   15  N2  UNL     1      10.112  43.252  83.694  1.00  0.00    -0.032 N 
ATOM     16  H13 UNL     1      11.374  43.479  85.972  1.00  0.00     0.278 HD
ATOM     17  H12 UNL     1      10.014  42.799  86.267  1.00  0.00     0.278 HD
ATOM     18  H11 UNL     1      11.401  41.846  86.392  1.00  0.00     0.278 HD
ATOM     19  H23 UNL     1       9.204  43.478  84.101  1.00  0.00     0.278 HD
ATOM     20  H22 UNL     1      10.564  44.159  83.806  1.00  0.00     0.278 HD
ATOM     21  H21 UNL     1      10.028  42.993  82.710  1.00  0.00     0.278 HD
ATOM     22  H3  UNL     1      12.125  40.962  83.450  1.00  0.00     0.181 HD
ENDBRANCH   1  12
TORSDOF 1
ENDMDL
MODEL 4
REMARK VINA RESULT: -6.888547402      1.578      1.897
REMARK  1 active torsions:
REMARK  status: ('A' for Active; 'I' for Inactive)
REMARK       I    between atoms: N1_1  and  C1_5 
REMARK       I    between atoms: C1_5  and  N2_6 
REMARK       I    between atoms: C1_5  and  N3_10 
REMARK    1  A    between atoms: N3_10  and  C2_12 
ROOT
HETATM    1  C2  UNL     1      12.248  43.402  84.841  1.00  0.00     0.689 A 
HETATM    2  N4  UNL     1      13.461  43.152  85.356  1.00  0.00    -0.141 N 
ATOM      3  H4  UNL     1      13.546  42.657  86.243  1.00  0.00     0.189 HD
HETATM    4  C3  UNL     1      14.584  43.561  84.693  1.00  0.00     0.342 A 
HETATM    5  O1  UNL     1      15.734  43.329  85.171  1.00  0.00    -0.246 OA
HETATM    6  N5  UNL     1      14.489  44.215  83.523  1.00  0.00    -0.260 N 
ATOM      7  H5  UNL     1      15.331  44.517  83.033  1.00  0.00     0.175 HD
HETATM    8  C4  UNL     1      13.275  44.469  83.001  1.00  0.00     0.342 A 
HETATM    9  O2  UNL     1      13.184  45.088  81.894  1.00  0.00    -0.246 OA
HETATM   10  N6  UNL     1      12.200  44.058  83.672  1.00  0.00    -0.141 N 
ATOM     11  H6  UNL     1      11.283  44.254  83.271  1.00  0.00     0.189 HD
ENDROOT
BRANCH   1  12
HETATM   12  N3  UNL     1      11.196  43.022  85.457  1.00  0.00    -0.173 N 
HETATM   13  C1  UNL     1      10.202  42.101  85.032  1.00  0.00     0.494 C 
HETATM   14  N1  UNL     1       9.501  42.484  83.820  1.00  0.00    -0.032 N 
HETATM   15  N2  UNL     1      10.820  40.773  84.891  1.00  0.00    -0.032 N 
ATOM     16  H13 UNL     1      10.111  42.438  83.003  1.00  0.00     0.278 HD
ATOM     17  H12 UNL     1       8.817  41.779  83.543  1.00  0.00     0.278 HD
ATOM     18  H11 UNL     1       9.073  43.404  83.918  1.00  0.00     0.278 HD
ATOM     19  H23 UNL     1      10.136  40.068  84.614  1.00  0.00     0.278 HD
ATOM     20  H22 UNL     1      11.429  40.728  84.074  1.00  0.00     0.278 HD
ATOM     21  H21 UNL     1      11.312  40.504  85.743  1.00  0.00     0.278 HD
ATOM     22  H3  UNL     1      11.050  43.436  86.377  1.00  0.00     0.181 HD
ENDBRANCH   1  12
TORSDOF 1
ENDMDL
MODEL 5
REMARK VINA RESULT: -6.869284993      1.591      2.838
REMARK  1 active torsions:
REMARK  status: ('A' for Active; 'I' for Inactive)
REMARK       I    between atoms: N1_1  and  C1_5 
REMARK       I    between atoms: C1_5  and  N2_6 
REMARK       I    between atoms: C1_5  and  N3_10 
REMARK    1  A    between atoms: N3_10  and  C2_12 
ROOT
HETATM    1  C2  UNL     1      12.264  43.383  84.872  1.00  0.00     0.689 A 
HETATM    2  N4  UNL     1      12.161  44.031  83.703  1.00  0.00    -0.141 N 
ATOM      3  H4  UNL     1      11.241  44.213  83.301  1.00  0.00     0.189 HD
HETATM    4  C3  UNL     1      13.285  44.447  83.048  1.00  0.00     0.342 A 
HETATM    5  O1  UNL     1      13.197  45.060  81.942  1.00  0.00    -0.246 OA
HETATM    6  N5  UNL     1      14.504  44.214  83.563  1.00  0.00    -0.260 N 
ATOM      7  H5  UNL     1      15.340  44.527  83.069  1.00  0.00     0.175 HD
HETATM    8  C4  UNL     1      14.615  43.564  84.736  1.00  0.00     0.342 A 
HETATM    9  O2  UNL     1      15.769  43.343  85.225  1.00  0.00    -0.246 OA
HETATM   10  N6  UNL     1      13.501  43.171  85.350  1.00  0.00    -0.141 N 
ATOM     11  H6  UNL     1      13.592  42.679  86.238  1.00  0.00     0.189 HD
ENDROOT
BRANCH   1  12
HETATM   12  N3  UNL     1      11.217  42.993  85.488  1.00  0.00    -0.173 N 
HETATM   13  C1  UNL     1      10.220  42.079  85.055  1.00  0.00     0.494 C 
HETATM   14  N1  UNL     1       9.511  42.482  83.854  1.00  0.00    -0.032 N 
HETATM   15  N2  UNL     1      10.837  40.754  84.887  1.00  0.00    -0.032 N 
ATOM     16  H13 UNL     1      10.115  42.450  83.033  1.00  0.00     0.278 HD
ATOM     17  H12 UNL     1       8.825  41.782  83.570  1.00  0.00     0.278 HD
ATOM     18  H11 UNL     1       9.083  43.400  83.970  1.00  0.00     0.278 HD
ATOM     19  H23 UNL     1      10.151  40.054  84.603  1.00  0.00     0.278 HD
ATOM     20  H22 UNL     1      11.441  40.722  84.066  1.00  0.00     0.278 HD
ATOM     21  H21 UNL     1      11.335  40.471  85.731  1.00  0.00     0.278 HD
ATOM     22  H3  UNL     1      11.077  43.391  86.416  1.00  0.00     0.181 HD
ENDBRANCH   1  12
TORSDOF 1
ENDMDL
