MODEL 1
REMARK VINA RESULT: -6.454035258      0.000      0.000
REMARK  3 active torsions:
REMARK  status: ('A' for Active; 'I' for Inactive)
REMARK    1  A    between atoms: N1_2  and  N2_3 
REMARK       I    between atoms: N1_2  and  C3_8 
REMARK       I    between atoms: C3_8  and  N5_10 
REMARK    2  A    between atoms: N5_10  and  N6_12 
REMARK    3  A    between atoms: N6_12  and  N7_13 
ROOT
HETATM    1  C1  UNL     1      11.706  43.304  84.535  1.00  0.00     0.183 C 
HETATM    2  N1  UNL     1      12.223  44.196  83.512  1.00  0.00    -0.244 N 
HETATM    3  C3  UNL     1      11.262  44.734  82.615  1.00  0.00     0.353 C 
HETATM    4  O1  UNL     1      11.687  45.518  81.711  1.00  0.00    -0.244 OA
HETATM    5  N5  UNL     1       9.878  44.434  82.686  1.00  0.00    -0.234 N 
ATOM      6  H5  UNL     1       9.531  43.805  83.410  1.00  0.00     0.189 HD
ENDROOT
BRANCH   2   7
HETATM    7  N2  UNL     1      13.539  44.536  83.370  1.00  0.00    -0.270 N 
HETATM    8  C2  UNL     1      14.509  43.912  82.888  1.00  0.00     0.215 C 
HETATM    9  N3  UNL     1      15.799  44.492  82.853  1.00  0.00    -0.065 NA
HETATM   10  N4  UNL     1      14.341  42.610  82.359  1.00  0.00    -0.065 NA
ATOM     11  H2  UNL     1      13.771  45.466  83.719  1.00  0.00     0.189 HD
ENDBRANCH   2   7
BRANCH   5  12
HETATM   12  N6  UNL     1       8.992  44.997  81.772  1.00  0.00    -0.026 NA
BRANCH  12  13
HETATM   13  N7  UNL     1       7.768  45.211  82.456  1.00  0.00    -0.329 N 
ATOM     14  H72 UNL     1       7.007  44.538  82.538  1.00  0.00     0.174 HD
ATOM     15  H71 UNL     1       7.801  46.155  82.841  1.00  0.00     0.174 HD
ENDBRANCH  12  13
ENDBRANCH   5  12
TORSDOF 3
ENDMDL
MODEL 2
REMARK VINA RESULT: -6.381688243      2.428      3.134
REMARK  3 active torsions:
REMARK  status: ('A' for Active; 'I' for Inactive)
REMARK    1  A    between atoms: N1_2  and  N2_3 
REMARK       I    between atoms: N1_2  and  C3_8 
REMARK       I    between atoms: C3_8  and  N5_10 
REMARK    2  A    between atoms: N5_10  and  N6_12 
REMARK    3  A    between atoms: N6_12  and  N7_13 
ROOT
HETATM    1  C1  UNL     1      11.247  44.502  82.670  1.00  0.00     0.183 C 
HETATM    2  N1  UNL     1      12.281  43.986  83.549  1.00  0.00    -0.244 N 
HETATM    3  C3  UNL     1      11.860  43.021  84.501  1.00  0.00     0.353 C 
HETATM    4  O1  UNL     1      12.744  42.550  85.282  1.00  0.00    -0.244 OA
HETATM    5  N5  UNL     1      10.519  42.572  84.614  1.00  0.00    -0.234 N 
ATOM      6  H5  UNL     1       9.804  42.946  83.990  1.00  0.00     0.189 HD
ENDROOT
BRANCH   2   7
HETATM    7  N2  UNL     1      13.594  44.363  83.511  1.00  0.00    -0.270 N 
HETATM    8  C2  UNL     1      14.570  43.903  82.878  1.00  0.00     0.215 C 
HETATM    9  N3  UNL     1      15.854  44.482  83.009  1.00  0.00    -0.065 NA
HETATM   10  N4  UNL     1      14.414  42.796  82.011  1.00  0.00    -0.065 NA
ATOM     11  H2  UNL     1      13.817  45.162  84.104  1.00  0.00     0.189 HD
ENDBRANCH   2   7
BRANCH   5  12
HETATM   12  N6  UNL     1      10.176  41.623  85.573  1.00  0.00    -0.026 NA
BRANCH  12  13
HETATM   13  N7  UNL     1      10.571  40.358  85.067  1.00  0.00    -0.329 N 
ATOM     14  H72 UNL     1      10.991  40.187  84.154  1.00  0.00     0.174 HD
ATOM     15  H71 UNL     1      10.355  39.667  85.785  1.00  0.00     0.174 HD
ENDBRANCH  12  13
ENDBRANCH   5  12
TORSDOF 3
ENDMDL
MODEL 3
REMARK VINA RESULT: -6.228815266      2.312      2.765
REMARK  3 active torsions:
REMARK  status: ('A' for Active; 'I' for Inactive)
REMARK    1  A    between atoms: N1_2  and  N2_3 
REMARK       I    between atoms: N1_2  and  C3_8 
REMARK       I    between atoms: C3_8  and  N5_10 
REMARK    2  A    between atoms: N5_10  and  N6_12 
REMARK    3  A    between atoms: N6_12  and  N7_13 
ROOT
HETATM    1  C1  UNL     1      13.360  42.952  84.991  1.00  0.00     0.183 C 
HETATM    2  N1  UNL     1      13.013  43.670  83.776  1.00  0.00    -0.244 N 
HETATM    3  C3  UNL     1      12.177  44.805  83.945  1.00  0.00     0.353 C 
HETATM    4  O1  UNL     1      11.858  45.453  82.900  1.00  0.00    -0.244 OA
HETATM    5  N5  UNL     1      11.692  45.233  85.207  1.00  0.00    -0.234 N 
ATOM      6  H5  UNL     1      11.943  44.717  86.050  1.00  0.00     0.189 HD
ENDROOT
BRANCH   2   7
HETATM    7  N2  UNL     1      13.434  43.326  82.523  1.00  0.00    -0.270 N 
HETATM    8  C2  UNL     1      14.504  43.552  81.917  1.00  0.00     0.215 C 
HETATM    9  N3  UNL     1      14.704  43.078  80.599  1.00  0.00    -0.065 NA
HETATM   10  N4  UNL     1      15.545  44.284  82.535  1.00  0.00    -0.065 NA
ATOM     11  H2  UNL     1      12.754  42.788  81.986  1.00  0.00     0.189 HD
ENDBRANCH   2   7
BRANCH   5  12
HETATM   12  N6  UNL     1      10.873  46.356  85.298  1.00  0.00    -0.026 NA
BRANCH  12  13
HETATM   13  N7  UNL     1      11.429  47.197  86.296  1.00  0.00    -0.329 N 
ATOM     14  H72 UNL     1      11.915  46.882  87.136  1.00  0.00     0.174 HD
ATOM     15  H71 UNL     1      11.249  48.159  86.012  1.00  0.00     0.174 HD
ENDBRANCH  12  13
ENDBRANCH   5  12
TORSDOF 3
ENDMDL
MODEL 4
REMARK VINA RESULT: -6.049284332      1.360      4.601
REMARK  3 active torsions:
REMARK  status: ('A' for Active; 'I' for Inactive)
REMARK    1  A    between atoms: N1_2  and  N2_3 
REMARK       I    between atoms: N1_2  and  C3_8 
REMARK       I    between atoms: C3_8  and  N5_10 
REMARK    2  A    between atoms: N5_10  and  N6_12 
REMARK    3  A    between atoms: N6_12  and  N7_13 
ROOT
HETATM    1  C1  UNL     1      11.532  43.005  84.209  1.00  0.00     0.183 C 
HETATM    2  N1  UNL     1      11.279  44.154  83.356  1.00  0.00    -0.244 N 
HETATM    3  C3  UNL     1      12.337  44.522  82.484  1.00  0.00     0.353 C 
HETATM    4  O1  UNL     1      12.143  45.522  81.724  1.00  0.00    -0.244 OA
HETATM    5  N5  UNL     1      13.576  43.835  82.430  1.00  0.00    -0.234 N 
ATOM      6  H5  UNL     1      13.739  43.032  83.036  1.00  0.00     0.189 HD
ENDROOT
BRANCH   2   7
HETATM    7  N2  UNL     1      10.118  44.873  83.344  1.00  0.00    -0.270 N 
HETATM    8  C2  UNL     1       9.068  44.743  82.677  1.00  0.00     0.215 C 
HETATM    9  N3  UNL     1       7.983  45.633  82.853  1.00  0.00    -0.065 NA
HETATM   10  N4  UNL     1       8.937  43.698  81.732  1.00  0.00    -0.065 NA
ATOM     11  H2  UNL     1      10.104  45.656  83.997  1.00  0.00     0.189 HD
ENDBRANCH   2   7
BRANCH   5  12
HETATM   12  N6  UNL     1      14.571  44.253  81.550  1.00  0.00    -0.026 NA
BRANCH  12  13
HETATM   13  N7  UNL     1      14.257  43.712  80.277  1.00  0.00    -0.329 N 
ATOM     14  H72 UNL     1      13.532  43.020  80.087  1.00  0.00     0.174 HD
ATOM     15  H71 UNL     1      14.888  44.143  79.603  1.00  0.00     0.174 HD
ENDBRANCH  12  13
ENDBRANCH   5  12
TORSDOF 3
ENDMDL
MODEL 5
REMARK VINA RESULT: -6.013617080      2.796      5.064
REMARK  3 active torsions:
REMARK  status: ('A' for Active; 'I' for Inactive)
REMARK    1  A    between atoms: N1_2  and  N2_3 
REMARK       I    between atoms: N1_2  and  C3_8 
REMARK       I    between atoms: C3_8  and  N5_10 
REMARK    2  A    between atoms: N5_10  and  N6_12 
REMARK    3  A    between atoms: N6_12  and  N7_13 
ROOT
HETATM    1  C1  UNL     1      11.849  44.428  82.650  1.00  0.00     0.183 C 
HETATM    2  N1  UNL     1      12.520  43.302  83.278  1.00  0.00    -0.244 N 
HETATM    3  C3  UNL     1      13.927  43.422  83.422  1.00  0.00     0.353 C 
HETATM    4  O1  UNL     1      14.540  42.453  83.969  1.00  0.00    -0.244 OA
HETATM    5  N5  UNL     1      14.661  44.554  82.986  1.00  0.00    -0.234 N 
ATOM      6  H5  UNL     1      14.176  45.336  82.546  1.00  0.00     0.189 HD
ENDROOT
BRANCH   2   7
HETATM    7  N2  UNL     1      11.893  42.174  83.723  1.00  0.00    -0.270 N 
HETATM    8  C2  UNL     1      11.358  41.901  84.821  1.00  0.00     0.215 C 
HETATM    9  N3  UNL     1      10.761  40.637  85.041  1.00  0.00    -0.065 NA
HETATM   10  N4  UNL     1      11.332  42.852  85.869  1.00  0.00    -0.065 NA
ATOM     11  H2  UNL     1      11.852  41.419  83.039  1.00  0.00     0.189 HD
ENDBRANCH   2   7
BRANCH   5  12
HETATM   12  N6  UNL     1      16.042  44.604  83.159  1.00  0.00    -0.026 NA
BRANCH  12  13
HETATM   13  N7  UNL     1      16.281  44.905  84.525  1.00  0.00    -0.329 N 
ATOM     14  H72 UNL     1      15.705  45.510  85.109  1.00  0.00     0.174 HD
ATOM     15  H71 UNL     1      17.126  44.406  84.798  1.00  0.00     0.174 HD
ENDBRANCH  12  13
ENDBRANCH   5  12
TORSDOF 3
ENDMDL
