MODEL 1
REMARK VINA RESULT: -7.368066978      0.000      0.000
REMARK  3 active torsions:
REMARK  status: ('A' for Active; 'I' for Inactive)
REMARK    1  A    between atoms: C13_13  and  O1_14 
REMARK    2  A    between atoms: C13_13  and  C14_16 
REMARK    3  A    between atoms: C14_16  and  N1_17 
ROOT
HETATM    1  C1  UNL     1      38.566  50.911  17.643  1.00  0.00     0.013 C 
HETATM    2  C2  UNL     1      39.342  50.936  16.333  1.00  0.00     0.022 C 
HETATM    3  C3  UNL     1      38.418  50.713  15.193  1.00  0.00     0.012 C 
HETATM    4  C4  UNL     1      38.698  51.771  14.148  1.00  0.00    -0.006 C 
HETATM    5  C5  UNL     1      38.764  51.226  12.790  1.00  0.00     0.010 C 
HETATM    6  C6  UNL     1      39.862  51.623  11.899  1.00  0.00    -0.014 C 
HETATM    7  C7  UNL     1      40.716  50.423  11.458  1.00  0.00     0.005 C 
HETATM    8  C8  UNL     1      41.882  50.290  12.412  1.00  0.00     0.001 C 
HETATM    9  C9  UNL     1      41.482  50.741  13.820  1.00  0.00     0.005 C 
HETATM   10  C10 UNL     1      41.125  52.164  13.895  1.00  0.00    -0.006 C 
HETATM   11  C11 UNL     1      40.840  52.627  12.450  1.00  0.00     0.010 C 
HETATM   12  C12 UNL     1      39.889  52.551  14.634  1.00  0.00     0.034 C 
HETATM   13  C13 UNL     1      39.849  52.380  16.088  1.00  0.00     0.098 C 
ENDROOT
BRANCH  13  14
HETATM   14  O1  UNL     1      38.802  53.138  16.619  1.00  0.00    -0.384 OA
ATOM     15  H1  UNL     1      38.581  53.698  15.885  1.00  0.00     0.211 HD
ENDBRANCH  13  14
BRANCH  13  16
HETATM   16  C14 UNL     1      41.067  52.643  16.883  1.00  0.00     0.106 C 
BRANCH  16  17
HETATM   17  N1  UNL     1      41.506  53.953  17.085  1.00  0.00    -0.347 N 
HETATM   18  C15 UNL     1      40.998  54.571  18.236  1.00  0.00     0.094 C 
HETATM   19  C16 UNL     1      40.956  56.077  18.113  1.00  0.00     0.213 C 
HETATM   20  O2  UNL     1      42.281  56.469  17.866  1.00  0.00    -0.381 OA
HETATM   21  C17 UNL     1      42.571  56.045  16.592  1.00  0.00     0.213 C 
HETATM   22  C18 UNL     1      42.574  54.525  16.440  1.00  0.00     0.094 C 
ENDBRANCH  16  17
ENDBRANCH  13  16
TORSDOF 3
ENDMDL
MODEL 2
REMARK VINA RESULT: -6.963405170      4.075      6.796
REMARK  3 active torsions:
REMARK  status: ('A' for Active; 'I' for Inactive)
REMARK    1  A    between atoms: C13_13  and  O1_14 
REMARK    2  A    between atoms: C13_13  and  C14_16 
REMARK    3  A    between atoms: C14_16  and  N1_17 
ROOT
HETATM    1  C1  UNL     1      36.796  49.071  11.662  1.00  0.00     0.013 C 
HETATM    2  C2  UNL     1      37.290  49.588  13.005  1.00  0.00     0.022 C 
HETATM    3  C3  UNL     1      38.499  50.427  12.812  1.00  0.00     0.012 C 
HETATM    4  C4  UNL     1      38.307  51.713  13.588  1.00  0.00    -0.006 C 
HETATM    5  C5  UNL     1      39.495  52.096  14.355  1.00  0.00     0.010 C 
HETATM    6  C6  UNL     1      39.352  52.522  15.752  1.00  0.00    -0.014 C 
HETATM    7  C7  UNL     1      40.125  51.610  16.720  1.00  0.00     0.005 C 
HETATM    8  C8  UNL     1      39.184  50.537  17.220  1.00  0.00     0.001 C 
HETATM    9  C9  UNL     1      38.158  50.173  16.142  1.00  0.00     0.005 C 
HETATM   10  C10 UNL     1      37.267  51.287  15.789  1.00  0.00    -0.006 C 
HETATM   11  C11 UNL     1      37.948  52.577  16.294  1.00  0.00     0.010 C 
HETATM   12  C12 UNL     1      37.016  51.568  14.346  1.00  0.00     0.034 C 
HETATM   13  C13 UNL     1      36.253  50.600  13.556  1.00  0.00     0.098 C 
ENDROOT
BRANCH  13  14
HETATM   14  O1  UNL     1      35.802  51.206  12.380  1.00  0.00    -0.384 OA
ATOM     15  H1  UNL     1      36.350  51.981  12.344  1.00  0.00     0.211 HD
ENDBRANCH  13  14
BRANCH  13  16
HETATM   16  C14 UNL     1      35.118  49.889  14.180  1.00  0.00     0.106 C 
BRANCH  16  17
HETATM   17  N1  UNL     1      33.964  50.587  14.543  1.00  0.00    -0.347 N 
HETATM   18  C15 UNL     1      32.857  50.361  13.713  1.00  0.00     0.094 C 
HETATM   19  C16 UNL     1      31.887  51.521  13.717  1.00  0.00     0.213 C 
HETATM   20  O2  UNL     1      31.497  51.679  15.056  1.00  0.00    -0.381 OA
HETATM   21  C17 UNL     1      32.597  52.172  15.715  1.00  0.00     0.213 C 
HETATM   22  C18 UNL     1      33.771  51.196  15.758  1.00  0.00     0.094 C 
ENDBRANCH  16  17
ENDBRANCH  13  16
TORSDOF 3
ENDMDL
MODEL 3
REMARK VINA RESULT: -6.890419210      0.885      1.075
REMARK  3 active torsions:
REMARK  status: ('A' for Active; 'I' for Inactive)
REMARK    1  A    between atoms: C13_13  and  O1_14 
REMARK    2  A    between atoms: C13_13  and  C14_16 
REMARK    3  A    between atoms: C14_16  and  N1_17 
ROOT
HETATM    1  C1  UNL     1      37.843  50.837  17.468  1.00  0.00     0.013 C 
HETATM    2  C2  UNL     1      38.744  50.846  16.242  1.00  0.00     0.022 C 
HETATM    3  C3  UNL     1      37.927  50.713  15.011  1.00  0.00     0.012 C 
HETATM    4  C4  UNL     1      38.374  51.778  14.033  1.00  0.00    -0.006 C 
HETATM    5  C5  UNL     1      38.541  51.265  12.671  1.00  0.00     0.010 C 
HETATM    6  C6  UNL     1      39.744  51.614  11.904  1.00  0.00    -0.014 C 
HETATM    7  C7  UNL     1      40.562  50.373  11.510  1.00  0.00     0.005 C 
HETATM    8  C8  UNL     1      41.617  50.139  12.568  1.00  0.00     0.001 C 
HETATM    9  C9  UNL     1      41.108  50.578  13.945  1.00  0.00     0.005 C 
HETATM   10  C10 UNL     1      40.834  52.019  14.030  1.00  0.00    -0.006 C 
HETATM   11  C11 UNL     1      40.723  52.537  12.581  1.00  0.00     0.010 C 
HETATM   12  C12 UNL     1      39.557  52.465  14.658  1.00  0.00     0.034 C 
HETATM   13  C13 UNL     1      39.362  52.260  16.095  1.00  0.00     0.098 C 
ENDROOT
BRANCH  13  14
HETATM   14  O1  UNL     1      38.316  53.070  16.546  1.00  0.00    -0.384 OA
ATOM     15  H1  UNL     1      38.771  53.883  16.728  1.00  0.00     0.211 HD
ENDBRANCH  13  14
BRANCH  13  16
HETATM   16  C14 UNL     1      40.509  52.422  17.012  1.00  0.00     0.106 C 
BRANCH  16  17
HETATM   17  N1  UNL     1      40.655  53.596  17.756  1.00  0.00    -0.347 N 
HETATM   18  C15 UNL     1      40.292  53.485  19.105  1.00  0.00     0.094 C 
HETATM   19  C16 UNL     1      39.863  54.808  19.698  1.00  0.00     0.213 C 
HETATM   20  O2  UNL     1      40.961  55.665  19.533  1.00  0.00    -0.381 OA
HETATM   21  C17 UNL     1      41.044  55.923  18.187  1.00  0.00     0.213 C 
HETATM   22  C18 UNL     1      41.377  54.690  17.349  1.00  0.00     0.094 C 
ENDBRANCH  16  17
ENDBRANCH  13  16
TORSDOF 3
ENDMDL
MODEL 4
REMARK VINA RESULT: -6.858809703      3.090      5.548
REMARK  3 active torsions:
REMARK  status: ('A' for Active; 'I' for Inactive)
REMARK    1  A    between atoms: C13_13  and  O1_14 
REMARK    2  A    between atoms: C13_13  and  C14_16 
REMARK    3  A    between atoms: C14_16  and  N1_17 
ROOT
HETATM    1  C1  UNL     1      35.923  50.956  12.377  1.00  0.00     0.013 C 
HETATM    2  C2  UNL     1      36.520  51.512  13.661  1.00  0.00     0.022 C 
HETATM    3  C3  UNL     1      35.880  50.870  14.837  1.00  0.00     0.012 C 
HETATM    4  C4  UNL     1      36.975  50.417  15.779  1.00  0.00    -0.006 C 
HETATM    5  C5  UNL     1      36.696  50.751  17.177  1.00  0.00     0.010 C 
HETATM    6  C6  UNL     1      37.747  51.354  18.006  1.00  0.00    -0.014 C 
HETATM    7  C7  UNL     1      37.348  52.742  18.532  1.00  0.00     0.005 C 
HETATM    8  C8  UNL     1      37.867  53.786  17.568  1.00  0.00     0.001 C 
HETATM    9  C9  UNL     1      37.866  53.246  16.134  1.00  0.00     0.005 C 
HETATM   10  C10 UNL     1      38.773  52.105  15.943  1.00  0.00    -0.006 C 
HETATM   11  C11 UNL     1      39.087  51.548  17.347  1.00  0.00     0.010 C 
HETATM   12  C12 UNL     1      38.272  50.914  15.200  1.00  0.00     0.034 C 
HETATM   13  C13 UNL     1      37.992  51.036  13.768  1.00  0.00     0.098 C 
ENDROOT
BRANCH  13  14
HETATM   14  O1  UNL     1      37.916  49.764  13.195  1.00  0.00    -0.384 OA
ATOM     15  H1  UNL     1      38.477  49.261  13.774  1.00  0.00     0.211 HD
ENDBRANCH  13  14
BRANCH  13  16
HETATM   16  C14 UNL     1      38.869  51.877  12.927  1.00  0.00     0.106 C 
BRANCH  16  17
HETATM   17  N1  UNL     1      40.225  51.569  12.797  1.00  0.00    -0.347 N 
HETATM   18  C15 UNL     1      40.539  50.752  11.703  1.00  0.00     0.094 C 
HETATM   19  C16 UNL     1      41.802  49.950  11.924  1.00  0.00     0.213 C 
HETATM   20  O2  UNL     1      42.810  50.898  12.160  1.00  0.00    -0.381 OA
HETATM   21  C17 UNL     1      42.544  51.435  13.396  1.00  0.00     0.213 C 
HETATM   22  C18 UNL     1      41.238  52.227  13.449  1.00  0.00     0.094 C 
ENDBRANCH  16  17
ENDBRANCH  13  16
TORSDOF 3
ENDMDL
MODEL 5
REMARK VINA RESULT: -6.826364162      2.223      4.196
REMARK  3 active torsions:
REMARK  status: ('A' for Active; 'I' for Inactive)
REMARK    1  A    between atoms: C13_13  and  O1_14 
REMARK    2  A    between atoms: C13_13  and  C14_16 
REMARK    3  A    between atoms: C14_16  and  N1_17 
ROOT
HETATM    1  C1  UNL     1      41.870  52.890  12.605  1.00  0.00     0.013 C 
HETATM    2  C2  UNL     1      40.453  52.334  12.619  1.00  0.00     0.022 C 
HETATM    3  C3  UNL     1      40.343  51.203  11.666  1.00  0.00     0.012 C 
HETATM    4  C4  UNL     1      39.664  50.052  12.378  1.00  0.00    -0.006 C 
HETATM    5  C5  UNL     1      38.623  49.416  11.566  1.00  0.00     0.010 C 
HETATM    6  C6  UNL     1      37.317  49.116  12.164  1.00  0.00    -0.014 C 
HETATM    7  C7  UNL     1      36.168  49.846  11.449  1.00  0.00     0.005 C 
HETATM    8  C8  UNL     1      35.910  51.151  12.169  1.00  0.00     0.001 C 
HETATM    9  C9  UNL     1      37.209  51.711  12.757  1.00  0.00     0.005 C 
HETATM   10  C10 UNL     1      37.797  50.847  13.790  1.00  0.00    -0.006 C 
HETATM   11  C11 UNL     1      37.156  49.454  13.623  1.00  0.00     0.010 C 
HETATM   12  C12 UNL     1      39.261  50.565  13.733  1.00  0.00     0.034 C 
HETATM   13  C13 UNL     1      40.204  51.655  13.990  1.00  0.00     0.098 C 
ENDROOT
BRANCH  13  14
HETATM   14  O1  UNL     1      41.467  51.125  14.272  1.00  0.00    -0.384 OA
ATOM     15  H1  UNL     1      41.245  50.405  14.852  1.00  0.00     0.211 HD
ENDBRANCH  13  14
BRANCH  13  16
HETATM   16  C14 UNL     1      39.882  52.666  15.018  1.00  0.00     0.106 C 
BRANCH  16  17
HETATM   17  N1  UNL     1      39.734  52.289  16.355  1.00  0.00    -0.347 N 
HETATM   18  C15 UNL     1      40.825  52.603  17.177  1.00  0.00     0.094 C 
HETATM   19  C16 UNL     1      40.929  51.685  18.373  1.00  0.00     0.213 C 
HETATM   20  O2  UNL     1      39.714  51.827  19.061  1.00  0.00    -0.381 OA
HETATM   21  C17 UNL     1      38.760  51.230  18.274  1.00  0.00     0.213 C 
HETATM   22  C18 UNL     1      38.542  51.936  16.937  1.00  0.00     0.094 C 
ENDBRANCH  16  17
ENDBRANCH  13  16
TORSDOF 3
ENDMDL
