MODEL 1
REMARK VINA RESULT: -6.767103476      0.000      0.000
REMARK  4 active torsions:
REMARK  status: ('A' for Active; 'I' for Inactive)
REMARK    1  A    between atoms: C2_2  and  C3_3 
REMARK    2  A    between atoms: C3_3  and  C4_4 
REMARK    3  A    between atoms: C4_4  and  O1_5 
REMARK    4  A    between atoms: N2_17  and  O3_18 
ROOT
HETATM    1  C4  UNL     1      36.115  49.978  13.979  1.00  0.00     0.181 C 
HETATM    2  O2  UNL     1      36.080  50.772  15.135  1.00  0.00    -0.338 OA
HETATM    3  C5  UNL     1      37.348  51.302  15.337  1.00  0.00     0.097 C 
HETATM    4  C6  UNL     1      37.930  50.619  16.532  1.00  0.00     0.052 C 
HETATM    5  C7  UNL     1      37.176  52.794  15.530  1.00  0.00     0.052 C 
HETATM    6  C8  UNL     1      38.120  51.064  14.078  1.00  0.00     0.040 C 
HETATM    7  N1  UNL     1      39.348  51.108  13.840  1.00  0.00    -0.360 N 
HETATM    8  C9  UNL     1      40.345  51.429  14.817  1.00  0.00     0.152 C 
HETATM    9  C10 UNL     1      39.813  50.806  12.521  1.00  0.00     0.124 C 
HETATM   10  C11 UNL     1      41.098  49.962  12.597  1.00  0.00     0.065 C 
HETATM   11  C12 UNL     1      40.171  52.071  11.780  1.00  0.00     0.065 C 
HETATM   12  N2  UNL     1      38.877  50.054  11.747  1.00  0.00    -0.239 N 
HETATM   13  C13 UNL     1      37.616  49.994  11.967  1.00  0.00     0.031 C 
HETATM   14  C14 UNL     1      36.803  49.153  11.048  1.00  0.00     0.067 C 
HETATM   15  C15 UNL     1      37.056  50.746  13.080  1.00  0.00     0.094 C 
HETATM   16  C16 UNL     1      36.403  51.994  12.529  1.00  0.00     0.034 C 
ENDROOT
BRANCH   1  17
HETATM   17  C3  UNL     1      34.690  49.941  13.478  1.00  0.00     0.069 C 
BRANCH  17  18
HETATM   18  C2  UNL     1      33.817  50.647  14.498  1.00  0.00     0.001 C 
HETATM   19  C1  UNL     1      32.514  51.015  13.788  1.00  0.00     0.005 C 
ENDBRANCH  17  18
ENDBRANCH   1  17
BRANCH   1  20
HETATM   20  O1  UNL     1      36.612  48.734  14.279  1.00  0.00    -0.364 OA
ATOM     21  H1  UNL     1      37.289  48.755  14.945  1.00  0.00     0.213 HD
ENDBRANCH   1  20
BRANCH  12  22
HETATM   22  O3  UNL     1      39.431  49.346  10.670  1.00  0.00    -0.285 OA
ATOM     23  H3  UNL     1      39.348  48.401  10.724  1.00  0.00     0.245 HD
ENDBRANCH  12  22
TORSDOF 4
ENDMDL
MODEL 2
REMARK VINA RESULT: -6.231266274      2.491      4.742
REMARK  4 active torsions:
REMARK  status: ('A' for Active; 'I' for Inactive)
REMARK    1  A    between atoms: C2_2  and  C3_3 
REMARK    2  A    between atoms: C3_3  and  C4_4 
REMARK    3  A    between atoms: C4_4  and  O1_5 
REMARK    4  A    between atoms: N2_17  and  O3_18 
ROOT
HETATM    1  C4  UNL     1      38.357  52.628  17.119  1.00  0.00     0.181 C 
HETATM    2  O2  UNL     1      37.126  51.964  17.009  1.00  0.00    -0.338 OA
HETATM    3  C5  UNL     1      37.022  51.453  15.723  1.00  0.00     0.097 C 
HETATM    4  C6  UNL     1      35.985  52.258  15.007  1.00  0.00     0.052 C 
HETATM    5  C7  UNL     1      36.649  49.991  15.858  1.00  0.00     0.052 C 
HETATM    6  C8  UNL     1      38.382  51.550  15.108  1.00  0.00     0.040 C 
HETATM    7  N1  UNL     1      38.758  51.474  13.917  1.00  0.00    -0.360 N 
HETATM    8  C9  UNL     1      37.879  51.255  12.808  1.00  0.00     0.152 C 
HETATM    9  C10 UNL     1      40.148  51.630  13.615  1.00  0.00     0.124 C 
HETATM   10  C11 UNL     1      40.319  52.470  12.337  1.00  0.00     0.065 C 
HETATM   11  C12 UNL     1      40.787  50.290  13.338  1.00  0.00     0.065 C 
HETATM   12  N2  UNL     1      40.882  52.298  14.643  1.00  0.00    -0.239 N 
HETATM   13  C13 UNL     1      40.520  52.388  15.869  1.00  0.00     0.031 C 
HETATM   14  C14 UNL     1      41.421  53.129  16.793  1.00  0.00     0.067 C 
HETATM   15  C15 UNL     1      39.274  51.763  16.286  1.00  0.00     0.094 C 
HETATM   16  C16 UNL     1      39.605  50.466  16.990  1.00  0.00     0.034 C 
ENDROOT
BRANCH   1  17
HETATM   17  C3  UNL     1      38.685  52.618  18.594  1.00  0.00     0.069 C 
BRANCH  17  18
HETATM   18  C2  UNL     1      37.418  52.269  19.353  1.00  0.00     0.001 C 
HETATM   19  C1  UNL     1      37.796  52.190  20.832  1.00  0.00     0.005 C 
ENDBRANCH  17  18
ENDBRANCH   1  17
BRANCH   1  20
HETATM   20  O1  UNL     1      38.255  53.895  16.600  1.00  0.00    -0.364 OA
ATOM     21  H1  UNL     1      37.554  53.981  15.964  1.00  0.00     0.213 HD
ENDBRANCH   1  20
BRANCH  12  22
HETATM   22  O3  UNL     1      42.087  52.883  14.227  1.00  0.00    -0.285 OA
ATOM     23  H3  UNL     1      42.625  53.236  14.926  1.00  0.00     0.245 HD
ENDBRANCH  12  22
TORSDOF 4
ENDMDL
MODEL 3
REMARK VINA RESULT: -6.155101688      3.875      5.359
REMARK  4 active torsions:
REMARK  status: ('A' for Active; 'I' for Inactive)
REMARK    1  A    between atoms: C2_2  and  C3_3 
REMARK    2  A    between atoms: C3_3  and  C4_4 
REMARK    3  A    between atoms: C4_4  and  O1_5 
REMARK    4  A    between atoms: N2_17  and  O3_18 
ROOT
HETATM    1  C4  UNL     1      38.448  51.257  17.415  1.00  0.00     0.181 C 
HETATM    2  O2  UNL     1      37.626  51.447  18.536  1.00  0.00    -0.338 OA
HETATM    3  C5  UNL     1      38.261  52.336  19.394  1.00  0.00     0.097 C 
HETATM    4  C6  UNL     1      38.712  51.557  20.588  1.00  0.00     0.052 C 
HETATM    5  C7  UNL     1      37.254  53.415  19.735  1.00  0.00     0.052 C 
HETATM    6  C8  UNL     1      39.386  52.951  18.623  1.00  0.00     0.040 C 
HETATM    7  N1  UNL     1      40.391  53.594  18.998  1.00  0.00    -0.360 N 
HETATM    8  C9  UNL     1      40.687  53.898  20.366  1.00  0.00     0.152 C 
HETATM    9  C10 UNL     1      41.331  54.051  18.020  1.00  0.00     0.124 C 
HETATM   10  C11 UNL     1      42.766  53.868  18.543  1.00  0.00     0.065 C 
HETATM   11  C12 UNL     1      41.153  55.527  17.759  1.00  0.00     0.065 C 
HETATM   12  N2  UNL     1      41.254  53.341  16.783  1.00  0.00    -0.239 N 
HETATM   13  C13 UNL     1      40.237  52.677  16.374  1.00  0.00     0.031 C 
HETATM   14  C14 UNL     1      40.350  52.001  15.054  1.00  0.00     0.067 C 
HETATM   15  C15 UNL     1      39.043  52.630  17.205  1.00  0.00     0.094 C 
HETATM   16  C16 UNL     1      38.028  53.595  16.634  1.00  0.00     0.034 C 
ENDROOT
BRANCH   1  17
HETATM   17  C3  UNL     1      37.515  50.823  16.308  1.00  0.00     0.069 C 
BRANCH  17  18
HETATM   18  C2  UNL     1      36.119  50.712  16.889  1.00  0.00     0.001 C 
HETATM   19  C1  UNL     1      35.166  51.349  15.877  1.00  0.00     0.005 C 
ENDBRANCH  17  18
ENDBRANCH   1  17
BRANCH   1  20
HETATM   20  O1  UNL     1      39.418  50.328  17.696  1.00  0.00    -0.364 OA
ATOM     21  H1  UNL     1      39.359  49.984  18.580  1.00  0.00     0.213 HD
ENDBRANCH   1  20
BRANCH  12  22
HETATM   22  O3  UNL     1      42.408  53.408  15.988  1.00  0.00    -0.285 OA
ATOM     23  H3  UNL     1      42.249  53.494  15.056  1.00  0.00     0.245 HD
ENDBRANCH  12  22
TORSDOF 4
ENDMDL
MODEL 4
REMARK VINA RESULT: -6.107868529      1.231      1.320
REMARK  4 active torsions:
REMARK  status: ('A' for Active; 'I' for Inactive)
REMARK    1  A    between atoms: C2_2  and  C3_3 
REMARK    2  A    between atoms: C3_3  and  C4_4 
REMARK    3  A    between atoms: C4_4  and  O1_5 
REMARK    4  A    between atoms: N2_17  and  O3_18 
ROOT
HETATM    1  C4  UNL     1      36.444  50.390  15.309  1.00  0.00     0.181 C 
HETATM    2  O2  UNL     1      36.777  51.149  16.441  1.00  0.00    -0.338 OA
HETATM    3  C5  UNL     1      38.099  51.554  16.319  1.00  0.00     0.097 C 
HETATM    4  C6  UNL     1      38.895  50.785  17.324  1.00  0.00     0.052 C 
HETATM    5  C7  UNL     1      38.126  53.050  16.558  1.00  0.00     0.052 C 
HETATM    6  C8  UNL     1      38.504  51.284  14.904  1.00  0.00     0.040 C 
HETATM    7  N1  UNL     1      39.631  51.223  14.364  1.00  0.00    -0.360 N 
HETATM    8  C9  UNL     1      40.868  51.422  15.059  1.00  0.00     0.152 C 
HETATM    9  C10 UNL     1      39.719  50.919  12.969  1.00  0.00     0.124 C 
HETATM   10  C11 UNL     1      40.894  49.960  12.712  1.00  0.00     0.065 C 
HETATM   11  C12 UNL     1      40.000  52.168  12.168  1.00  0.00     0.065 C 
HETATM   12  N2  UNL     1      38.551  50.280  12.451  1.00  0.00    -0.239 N 
HETATM   13  C13 UNL     1      37.385  50.329  12.983  1.00  0.00     0.031 C 
HETATM   14  C14 UNL     1      36.290  49.594  12.295  1.00  0.00     0.067 C 
HETATM   15  C15 UNL     1      37.198  51.096  14.206  1.00  0.00     0.094 C 
HETATM   16  C16 UNL     1      36.551  52.414  13.845  1.00  0.00     0.034 C 
ENDROOT
BRANCH   1  17
HETATM   17  C3  UNL     1      34.941  50.500  15.184  1.00  0.00     0.069 C 
BRANCH  17  18
HETATM   18  C2  UNL     1      34.391  50.938  16.528  1.00  0.00     0.001 C 
HETATM   19  C1  UNL     1      33.276  51.944  16.243  1.00  0.00     0.005 C 
ENDBRANCH  17  18
ENDBRANCH   1  17
BRANCH   1  20
HETATM   20  O1  UNL     1      36.878  49.098  15.466  1.00  0.00    -0.364 OA
ATOM     21  H1  UNL     1      37.027  48.653  14.640  1.00  0.00     0.213 HD
ENDBRANCH   1  20
BRANCH  12  22
HETATM   22  O3  UNL     1      38.746  49.557  11.265  1.00  0.00    -0.285 OA
ATOM     23  H3  UNL     1      39.200  48.729  11.370  1.00  0.00     0.245 HD
ENDBRANCH  12  22
TORSDOF 4
ENDMDL
MODEL 5
REMARK VINA RESULT: -6.010214273      3.742      6.065
REMARK  4 active torsions:
REMARK  status: ('A' for Active; 'I' for Inactive)
REMARK    1  A    between atoms: C2_2  and  C3_3 
REMARK    2  A    between atoms: C3_3  and  C4_4 
REMARK    3  A    between atoms: C4_4  and  O1_5 
REMARK    4  A    between atoms: N2_17  and  O3_18 
ROOT
HETATM    1  C4  UNL     1      37.665  52.341  16.956  1.00  0.00     0.181 C 
HETATM    2  O2  UNL     1      38.312  51.378  16.168  1.00  0.00    -0.338 OA
HETATM    3  C5  UNL     1      39.647  51.743  16.046  1.00  0.00     0.097 C 
HETATM    4  C6  UNL     1      39.858  52.189  14.635  1.00  0.00     0.052 C 
HETATM    5  C7  UNL     1      40.471  50.527  16.414  1.00  0.00     0.052 C 
HETATM    6  C8  UNL     1      39.894  52.818  17.055  1.00  0.00     0.040 C 
HETATM    7  N1  UNL     1      40.827  53.643  17.173  1.00  0.00    -0.360 N 
HETATM    8  C9  UNL     1      41.946  53.724  16.282  1.00  0.00     0.152 C 
HETATM    9  C10 UNL     1      40.790  54.589  18.246  1.00  0.00     0.124 C 
HETATM   10  C11 UNL     1      41.265  55.967  17.751  1.00  0.00     0.065 C 
HETATM   11  C12 UNL     1      41.733  54.180  19.350  1.00  0.00     0.065 C 
HETATM   12  N2  UNL     1      39.482  54.781  18.789  1.00  0.00    -0.239 N 
HETATM   13  C13 UNL     1      38.511  53.951  18.686  1.00  0.00     0.031 C 
HETATM   14  C14 UNL     1      37.220  54.331  19.320  1.00  0.00     0.067 C 
HETATM   15  C15 UNL     1      38.723  52.699  17.974  1.00  0.00     0.094 C 
HETATM   16  C16 UNL     1      38.909  51.598  18.993  1.00  0.00     0.034 C 
ENDROOT
BRANCH   1  17
HETATM   17  C3  UNL     1      36.468  51.632  17.548  1.00  0.00     0.069 C 
BRANCH  17  18
HETATM   18  C2  UNL     1      35.997  50.595  16.546  1.00  0.00     0.001 C 
HETATM   19  C1  UNL     1      34.677  51.105  15.968  1.00  0.00     0.005 C 
ENDBRANCH  17  18
ENDBRANCH   1  17
BRANCH   1  20
HETATM   20  O1  UNL     1      37.322  53.424  16.187  1.00  0.00    -0.364 OA
ATOM     21  H1  UNL     1      36.725  53.206  15.481  1.00  0.00     0.213 HD
ENDBRANCH   1  20
BRANCH  12  22
HETATM   22  O3  UNL     1      39.300  55.985  19.484  1.00  0.00    -0.285 OA
ATOM     23  H3  UNL     1      39.080  56.733  18.941  1.00  0.00     0.245 HD
ENDBRANCH  12  22
TORSDOF 4
ENDMDL
