MODEL 1
REMARK VINA RESULT: -7.616616808      0.000      0.000
REMARK  8 active torsions:
REMARK  status: ('A' for Active; 'I' for Inactive)
REMARK    1  A    between atoms: O1_2  and  C2_3 
REMARK    2  A    between atoms: C4_5  and  C5_6 
REMARK    3  A    between atoms: N2_15  and  C11_16 
REMARK    4  A    between atoms: C11_16  and  C12_17 
REMARK    5  A    between atoms: C13_18  and  C14_19 
REMARK    6  A    between atoms: C14_19  and  C15_20 
REMARK    7  A    between atoms: C19_26  and  O4_27 
REMARK    8  A    between atoms: C21_29  and  O5_30 
ROOT
HETATM    1  C15 UNL     1      33.942  50.291  13.633  1.00  0.00     0.136 C 
HETATM    2  C16 UNL     1      34.107  51.069  14.872  1.00  0.00     0.060 C 
HETATM    3  N3  UNL     1      34.231  51.692  15.844  1.00  0.00    -0.197 NA
ENDROOT
BRANCH   1   4
HETATM    4  C14 UNL     1      35.194  49.460  13.392  1.00  0.00     0.108 C 
BRANCH   4   5
HETATM    5  C13 UNL     1      36.376  50.305  13.201  1.00  0.00    -0.104 C 
HETATM    6  C12 UNL     1      37.349  51.024  13.033  1.00  0.00    -0.087 C 
BRANCH   6   7
HETATM    7  C11 UNL     1      38.493  51.887  12.818  1.00  0.00     0.222 C 
BRANCH   7   8
HETATM    8  N2  UNL     1      39.535  51.601  13.774  1.00  0.00    -0.311 N 
HETATM    9  C8  UNL     1      40.737  50.879  13.478  1.00  0.00     0.104 C 
HETATM   10  N1  UNL     1      41.015  49.886  14.498  1.00  0.00    -0.331 N 
HETATM   11  C9  UNL     1      41.955  51.809  13.454  1.00  0.00     0.063 C 
HETATM   12  C10 UNL     1      40.704  50.186  12.145  1.00  0.00     0.063 C 
HETATM   13  C7  UNL     1      40.902  50.284  15.856  1.00  0.00     0.259 C 
ATOM     14  H1  UNL     1      41.282  48.933  14.248  1.00  0.00     0.165 HD
HETATM   15  C6  UNL     1      40.051  51.426  16.245  1.00  0.00     0.100 C 
HETATM   16  O2  UNL     1      41.565  49.614  16.708  1.00  0.00    -0.267 OA
HETATM   17  C5  UNL     1      40.017  51.765  17.503  1.00  0.00     0.034 C 
HETATM   18  C17 UNL     1      39.373  52.067  15.133  1.00  0.00     0.262 C 
HETATM   19  O3  UNL     1      38.634  53.039  15.317  1.00  0.00    -0.267 OA
BRANCH  17  20
HETATM   20  C4  UNL     1      39.317  52.784  18.202  1.00  0.00    -0.030 A 
HETATM   21  C3  UNL     1      38.095  52.586  18.779  1.00  0.00     0.051 A 
HETATM   22  C2  UNL     1      37.451  53.621  19.426  1.00  0.00     0.104 A 
HETATM   23  C21 UNL     1      38.026  54.866  19.502  1.00  0.00     0.133 A 
HETATM   24  C19 UNL     1      39.252  55.089  18.931  1.00  0.00     0.104 A 
HETATM   25  C18 UNL     1      39.885  54.038  18.284  1.00  0.00     0.051 A 
BRANCH  22  26
HETATM   26  O1  UNL     1      36.214  53.356  19.990  1.00  0.00    -0.353 OA
HETATM   27  C1  UNL     1      35.330  52.403  19.457  1.00  0.00     0.210 C 
ENDBRANCH  22  26
BRANCH  23  28
HETATM   28  O5  UNL     1      37.363  55.893  20.157  1.00  0.00    -0.356 OA
ATOM     29  H5  UNL     1      37.859  56.536  20.649  1.00  0.00     0.218 HD
ENDBRANCH  23  28
BRANCH  24  30
HETATM   30  O4  UNL     1      39.807  56.359  19.025  1.00  0.00    -0.353 OA
HETATM   31  C20 UNL     1      40.888  56.684  18.173  1.00  0.00     0.210 C 
ENDBRANCH  24  30
ENDBRANCH  17  20
ENDBRANCH   7   8
ENDBRANCH   6   7
ENDBRANCH   4   5
ENDBRANCH   1   4
TORSDOF 8
ENDMDL
MODEL 2
REMARK VINA RESULT: -7.615462346      0.856      2.572
REMARK  8 active torsions:
REMARK  status: ('A' for Active; 'I' for Inactive)
REMARK    1  A    between atoms: O1_2  and  C2_3 
REMARK    2  A    between atoms: C4_5  and  C5_6 
REMARK    3  A    between atoms: N2_15  and  C11_16 
REMARK    4  A    between atoms: C11_16  and  C12_17 
REMARK    5  A    between atoms: C13_18  and  C14_19 
REMARK    6  A    between atoms: C14_19  and  C15_20 
REMARK    7  A    between atoms: C19_26  and  O4_27 
REMARK    8  A    between atoms: C21_29  and  O5_30 
ROOT
HETATM    1  C15 UNL     1      34.837  50.316  14.290  1.00  0.00     0.136 C 
HETATM    2  C16 UNL     1      35.403  50.286  15.649  1.00  0.00     0.060 C 
HETATM    3  N3  UNL     1      35.843  50.274  16.724  1.00  0.00    -0.197 NA
ENDROOT
BRANCH   1   4
HETATM    4  C14 UNL     1      35.807  49.645  13.329  1.00  0.00     0.108 C 
BRANCH   4   5
HETATM    5  C13 UNL     1      36.992  50.474  13.088  1.00  0.00    -0.104 C 
HETATM    6  C12 UNL     1      37.967  51.182  12.890  1.00  0.00    -0.087 C 
BRANCH   6   7
HETATM    7  C11 UNL     1      39.110  52.038  12.647  1.00  0.00     0.222 C 
BRANCH   7   8
HETATM    8  N2  UNL     1      40.153  51.783  13.612  1.00  0.00    -0.311 N 
HETATM    9  C8  UNL     1      41.353  51.048  13.339  1.00  0.00     0.104 C 
HETATM   10  N1  UNL     1      41.630  50.090  14.393  1.00  0.00    -0.331 N 
HETATM   11  C9  UNL     1      42.573  51.973  13.282  1.00  0.00     0.063 C 
HETATM   12  C10 UNL     1      41.316  50.309  12.031  1.00  0.00     0.063 C 
HETATM   13  C7  UNL     1      41.520  50.536  15.736  1.00  0.00     0.259 C 
ATOM     14  H1  UNL     1      41.894  49.129  14.175  1.00  0.00     0.165 HD
HETATM   15  C6  UNL     1      40.672  51.693  16.086  1.00  0.00     0.100 C 
HETATM   16  O2  UNL     1      42.182  49.893  16.610  1.00  0.00    -0.267 OA
HETATM   17  C5  UNL     1      40.641  52.075  17.332  1.00  0.00     0.034 C 
HETATM   18  C17 UNL     1      39.994  52.296  14.954  1.00  0.00     0.262 C 
HETATM   19  O3  UNL     1      39.258  53.276  15.105  1.00  0.00    -0.267 OA
BRANCH  17  20
HETATM   20  C4  UNL     1      39.944  53.120  17.996  1.00  0.00    -0.030 A 
HETATM   21  C3  UNL     1      40.425  54.394  18.087  1.00  0.00     0.051 A 
HETATM   22  C2  UNL     1      39.714  55.364  18.764  1.00  0.00     0.104 A 
HETATM   23  C21 UNL     1      38.512  55.065  19.357  1.00  0.00     0.133 A 
HETATM   24  C19 UNL     1      38.009  53.792  19.279  1.00  0.00     0.104 A 
HETATM   25  C18 UNL     1      38.736  52.830  18.595  1.00  0.00     0.051 A 
BRANCH  22  26
HETATM   26  O1  UNL     1      40.256  56.638  18.821  1.00  0.00    -0.353 OA
HETATM   27  C1  UNL     1      41.446  56.981  18.158  1.00  0.00     0.210 C 
ENDBRANCH  22  26
BRANCH  23  28
HETATM   28  O5  UNL     1      37.812  56.053  20.034  1.00  0.00    -0.356 OA
ATOM     29  H5  UNL     1      37.693  55.987  20.974  1.00  0.00     0.218 HD
ENDBRANCH  23  28
BRANCH  24  30
HETATM   30  O4  UNL     1      36.790  53.522  19.889  1.00  0.00    -0.353 OA
HETATM   31  C20 UNL     1      36.317  52.189  19.882  1.00  0.00     0.210 C 
ENDBRANCH  24  30
ENDBRANCH  17  20
ENDBRANCH   7   8
ENDBRANCH   6   7
ENDBRANCH   4   5
ENDBRANCH   1   4
TORSDOF 8
ENDMDL
MODEL 3
REMARK VINA RESULT: -7.507123135      1.124      1.216
REMARK  8 active torsions:
REMARK  status: ('A' for Active; 'I' for Inactive)
REMARK    1  A    between atoms: O1_2  and  C2_3 
REMARK    2  A    between atoms: C4_5  and  C5_6 
REMARK    3  A    between atoms: N2_15  and  C11_16 
REMARK    4  A    between atoms: C11_16  and  C12_17 
REMARK    5  A    between atoms: C13_18  and  C14_19 
REMARK    6  A    between atoms: C14_19  and  C15_20 
REMARK    7  A    between atoms: C19_26  and  O4_27 
REMARK    8  A    between atoms: C21_29  and  O5_30 
ROOT
HETATM    1  C15 UNL     1      34.216  51.417  15.761  1.00  0.00     0.136 C 
HETATM    2  C16 UNL     1      33.140  51.363  14.758  1.00  0.00     0.060 C 
HETATM    3  N3  UNL     1      32.283  51.324  13.975  1.00  0.00    -0.197 NA
ENDROOT
BRANCH   1   4
HETATM    4  C14 UNL     1      35.207  50.294  15.494  1.00  0.00     0.108 C 
BRANCH   4   5
HETATM    5  C13 UNL     1      36.249  50.705  14.548  1.00  0.00    -0.104 C 
HETATM    6  C12 UNL     1      37.112  51.067  13.763  1.00  0.00    -0.087 C 
BRANCH   6   7
HETATM    7  C11 UNL     1      38.123  51.515  12.827  1.00  0.00     0.222 C 
BRANCH   7   8
HETATM    8  N2  UNL     1      39.422  51.541  13.454  1.00  0.00    -0.311 N 
HETATM    9  C8  UNL     1      40.624  51.034  12.859  1.00  0.00     0.104 C 
HETATM   10  N1  UNL     1      41.377  50.230  13.803  1.00  0.00    -0.331 N 
HETATM   11  C9  UNL     1      41.560  52.172  12.436  1.00  0.00     0.063 C 
HETATM   12  C10 UNL     1      40.378  50.206  11.628  1.00  0.00     0.063 C 
HETATM   13  C7  UNL     1      41.556  50.746  15.114  1.00  0.00     0.259 C 
ATOM     14  H1  UNL     1      41.763  49.325  13.534  1.00  0.00     0.165 HD
HETATM   15  C6  UNL     1      40.619  51.739  15.674  1.00  0.00     0.100 C 
HETATM   16  O2  UNL     1      42.554  50.312  15.769  1.00  0.00    -0.267 OA
HETATM   17  C5  UNL     1      40.858  52.200  16.870  1.00  0.00     0.034 C 
HETATM   18  C17 UNL     1      39.541  52.112  14.776  1.00  0.00     0.262 C 
HETATM   19  O3  UNL     1      38.690  52.939  15.117  1.00  0.00    -0.267 OA
BRANCH  17  20
HETATM   20  C4  UNL     1      40.173  53.136  17.689  1.00  0.00    -0.030 A 
HETATM   21  C3  UNL     1      39.132  52.791  18.503  1.00  0.00     0.051 A 
HETATM   22  C2  UNL     1      38.488  53.749  19.261  1.00  0.00     0.104 A 
HETATM   23  C21 UNL     1      38.883  55.063  19.211  1.00  0.00     0.133 A 
HETATM   24  C19 UNL     1      39.926  55.434  18.402  1.00  0.00     0.104 A 
HETATM   25  C18 UNL     1      40.561  54.459  17.647  1.00  0.00     0.051 A 
BRANCH  22  26
HETATM   26  O1  UNL     1      37.440  53.334  20.066  1.00  0.00    -0.353 OA
HETATM   27  C1  UNL     1      36.618  52.245  19.732  1.00  0.00     0.210 C 
ENDBRANCH  22  26
BRANCH  23  28
HETATM   28  O5  UNL     1      38.225  56.011  19.980  1.00  0.00    -0.356 OA
ATOM     29  H5  UNL     1      37.458  56.451  19.632  1.00  0.00     0.218 HD
ENDBRANCH  23  28
BRANCH  24  30
HETATM   30  O4  UNL     1      40.301  56.771  18.373  1.00  0.00    -0.353 OA
HETATM   31  C20 UNL     1      41.620  57.090  17.974  1.00  0.00     0.210 C 
ENDBRANCH  24  30
ENDBRANCH  17  20
ENDBRANCH   7   8
ENDBRANCH   6   7
ENDBRANCH   4   5
ENDBRANCH   1   4
TORSDOF 8
ENDMDL
MODEL 4
REMARK VINA RESULT: -7.477898476      1.405      2.959
REMARK  8 active torsions:
REMARK  status: ('A' for Active; 'I' for Inactive)
REMARK    1  A    between atoms: O1_2  and  C2_3 
REMARK    2  A    between atoms: C4_5  and  C5_6 
REMARK    3  A    between atoms: N2_15  and  C11_16 
REMARK    4  A    between atoms: C11_16  and  C12_17 
REMARK    5  A    between atoms: C13_18  and  C14_19 
REMARK    6  A    between atoms: C14_19  and  C15_20 
REMARK    7  A    between atoms: C19_26  and  O4_27 
REMARK    8  A    between atoms: C21_29  and  O5_30 
ROOT
HETATM    1  C15 UNL     1      35.427  49.151  13.624  1.00  0.00     0.136 C 
HETATM    2  C16 UNL     1      34.245  50.028  13.610  1.00  0.00     0.060 C 
HETATM    3  N3  UNL     1      33.306  50.712  13.605  1.00  0.00    -0.197 NA
ENDROOT
BRANCH   1   4
HETATM    4  C14 UNL     1      36.190  49.318  12.319  1.00  0.00     0.108 C 
BRANCH   4   5
HETATM    5  C13 UNL     1      37.321  50.238  12.466  1.00  0.00    -0.104 C 
HETATM    6  C12 UNL     1      38.255  51.019  12.575  1.00  0.00    -0.087 C 
BRANCH   6   7
HETATM    7  C11 UNL     1      39.359  51.950  12.683  1.00  0.00     0.222 C 
BRANCH   7   8
HETATM    8  N2  UNL     1      40.088  51.737  13.910  1.00  0.00    -0.311 N 
HETATM    9  C8  UNL     1      41.485  51.424  13.983  1.00  0.00     0.104 C 
HETATM   10  N1  UNL     1      41.729  50.337  14.912  1.00  0.00    -0.331 N 
HETATM   11  C9  UNL     1      42.297  52.614  14.507  1.00  0.00     0.063 C 
HETATM   12  C10 UNL     1      42.084  51.050  12.656  1.00  0.00     0.063 C 
HETATM   13  C7  UNL     1      41.083  50.391  16.176  1.00  0.00     0.259 C 
ATOM     14  H1  UNL     1      42.343  49.560  14.666  1.00  0.00     0.165 HD
HETATM   15  C6  UNL     1      39.843  51.168  16.363  1.00  0.00     0.100 C 
HETATM   16  O2  UNL     1      41.624  49.741  17.124  1.00  0.00    -0.267 OA
HETATM   17  C5  UNL     1      39.318  51.207  17.555  1.00  0.00     0.034 C 
HETATM   18  C17 UNL     1      39.377  51.841  15.164  1.00  0.00     0.262 C 
HETATM   19  O3  UNL     1      38.354  52.532  15.182  1.00  0.00    -0.267 OA
BRANCH  17  20
HETATM   20  C4  UNL     1      38.155  51.840  18.069  1.00  0.00    -0.030 A 
HETATM   21  C3  UNL     1      38.170  53.089  18.621  1.00  0.00     0.051 A 
HETATM   22  C2  UNL     1      37.011  53.645  19.126  1.00  0.00     0.104 A 
HETATM   23  C21 UNL     1      35.825  52.954  19.081  1.00  0.00     0.133 A 
HETATM   24  C19 UNL     1      35.786  51.699  18.531  1.00  0.00     0.104 A 
HETATM   25  C18 UNL     1      36.958  51.155  18.029  1.00  0.00     0.051 A 
BRANCH  22  26
HETATM   26  O1  UNL     1      37.093  54.915  19.673  1.00  0.00    -0.353 OA
HETATM   27  C1  UNL     1      38.284  55.428  20.214  1.00  0.00     0.210 C 
ENDBRANCH  22  26
BRANCH  23  28
HETATM   28  O5  UNL     1      34.672  53.530  19.592  1.00  0.00    -0.356 OA
ATOM     29  H5  UNL     1      33.822  53.192  19.335  1.00  0.00     0.218 HD
ENDBRANCH  23  28
BRANCH  24  30
HETATM   30  O4  UNL     1      34.570  51.026  18.500  1.00  0.00    -0.353 OA
HETATM   31  C20 UNL     1      33.962  50.795  17.245  1.00  0.00     0.210 C 
ENDBRANCH  24  30
ENDBRANCH  17  20
ENDBRANCH   7   8
ENDBRANCH   6   7
ENDBRANCH   4   5
ENDBRANCH   1   4
TORSDOF 8
ENDMDL
MODEL 5
REMARK VINA RESULT: -7.453719727      1.350      1.945
REMARK  8 active torsions:
REMARK  status: ('A' for Active; 'I' for Inactive)
REMARK    1  A    between atoms: O1_2  and  C2_3 
REMARK    2  A    between atoms: C4_5  and  C5_6 
REMARK    3  A    between atoms: N2_15  and  C11_16 
REMARK    4  A    between atoms: C11_16  and  C12_17 
REMARK    5  A    between atoms: C13_18  and  C14_19 
REMARK    6  A    between atoms: C14_19  and  C15_20 
REMARK    7  A    between atoms: C19_26  and  O4_27 
REMARK    8  A    between atoms: C21_29  and  O5_30 
ROOT
HETATM    1  C15 UNL     1      35.392  49.171  13.601  1.00  0.00     0.136 C 
HETATM    2  C16 UNL     1      34.178  50.004  13.613  1.00  0.00     0.060 C 
HETATM    3  N3  UNL     1      33.215  50.653  13.629  1.00  0.00    -0.197 NA
ENDROOT
BRANCH   1   4
HETATM    4  C14 UNL     1      36.115  49.357  12.276  1.00  0.00     0.108 C 
BRANCH   4   5
HETATM    5  C13 UNL     1      37.250  50.276  12.401  1.00  0.00    -0.104 C 
HETATM    6  C12 UNL     1      38.185  51.052  12.521  1.00  0.00    -0.087 C 
BRANCH   6   7
HETATM    7  C11 UNL     1      39.279  51.990  12.668  1.00  0.00     0.222 C 
BRANCH   7   8
HETATM    8  N2  UNL     1      40.009  51.735  13.887  1.00  0.00    -0.311 N 
HETATM    9  C8  UNL     1      41.403  51.410  13.948  1.00  0.00     0.104 C 
HETATM   10  N1  UNL     1      41.641  50.294  14.844  1.00  0.00    -0.331 N 
HETATM   11  C9  UNL     1      42.224  52.579  14.506  1.00  0.00     0.063 C 
HETATM   12  C10 UNL     1      41.998  51.073  12.609  1.00  0.00     0.063 C 
HETATM   13  C7  UNL     1      40.998  50.314  16.110  1.00  0.00     0.259 C 
ATOM     14  H1  UNL     1      42.250  49.521  14.573  1.00  0.00     0.165 HD
HETATM   15  C6  UNL     1      39.763  51.094  16.322  1.00  0.00     0.100 C 
HETATM   16  O2  UNL     1      41.536  49.633  17.037  1.00  0.00    -0.267 OA
HETATM   17  C5  UNL     1      39.240  51.101  17.516  1.00  0.00     0.034 C 
HETATM   18  C17 UNL     1      39.300  51.806  15.145  1.00  0.00     0.262 C 
HETATM   19  O3  UNL     1      38.282  52.503  15.185  1.00  0.00    -0.267 OA
BRANCH  17  20
HETATM   20  C4  UNL     1      38.082  51.726  18.050  1.00  0.00    -0.030 A 
HETATM   21  C3  UNL     1      36.846  51.146  18.028  1.00  0.00     0.051 A 
HETATM   22  C2  UNL     1      35.751  51.811  18.543  1.00  0.00     0.104 A 
HETATM   23  C21 UNL     1      35.886  53.065  19.086  1.00  0.00     0.133 A 
HETATM   24  C19 UNL     1      37.117  53.667  19.120  1.00  0.00     0.104 A 
HETATM   25  C18 UNL     1      38.206  52.986  18.598  1.00  0.00     0.051 A 
BRANCH  22  26
HETATM   26  O1  UNL     1      34.525  51.168  18.491  1.00  0.00    -0.353 OA
HETATM   27  C1  UNL     1      33.961  50.718  17.285  1.00  0.00     0.210 C 
ENDBRANCH  22  26
BRANCH  23  28
HETATM   28  O5  UNL     1      34.775  53.717  19.599  1.00  0.00    -0.356 OA
ATOM     29  H5  UNL     1      34.550  54.585  19.285  1.00  0.00     0.218 HD
ENDBRANCH  23  28
BRANCH  24  30
HETATM   30  O4  UNL     1      37.220  54.937  19.676  1.00  0.00    -0.353 OA
HETATM   31  C20 UNL     1      38.507  55.427  19.995  1.00  0.00     0.210 C 
ENDBRANCH  24  30
ENDBRANCH  17  20
ENDBRANCH   7   8
ENDBRANCH   6   7
ENDBRANCH   4   5
ENDBRANCH   1   4
TORSDOF 8
ENDMDL
