MODEL 1
REMARK VINA RESULT: -8.818288326      0.000      0.000
REMARK  6 active torsions:
REMARK  status: ('A' for Active; 'I' for Inactive)
REMARK    1  A    between atoms: C4_4  and  C5_5 
REMARK    2  A    between atoms: C9_10  and  S1_11 
REMARK    3  A    between atoms: S1_11  and  N1_14 
REMARK    4  A    between atoms: N1_14  and  C10_16 
REMARK    5  A    between atoms: C15_24  and  O5_25 
REMARK    6  A    between atoms: O5_25  and  C16_26 
ROOT
HETATM    1  C1  UNL     1      36.331  49.268  11.384  1.00  0.00     0.043 C 
HETATM    2  C2  UNL     1      36.893  49.886  12.401  1.00  0.00     0.024 A 
HETATM    3  C3  UNL     1      36.192  50.135  13.641  1.00  0.00     0.044 A 
HETATM    4  C4  UNL     1      36.731  50.762  14.702  1.00  0.00     0.024 A 
HETATM    5  C7  UNL     1      38.098  51.210  14.582  1.00  0.00     0.006 A 
HETATM    6  C8  UNL     1      38.737  51.867  15.629  1.00  0.00     0.042 A 
HETATM    7  C9  UNL     1      40.036  52.291  15.511  1.00  0.00     0.114 A 
HETATM    8  C15 UNL     1      40.714  52.062  14.342  1.00  0.00     0.094 A 
HETATM    9  C18 UNL     1      40.146  51.421  13.273  1.00  0.00     0.068 A 
HETATM   10  C19 UNL     1      38.830  50.995  13.399  1.00  0.00     0.046 A 
HETATM   11  N3  UNL     1      38.230  50.329  12.298  1.00  0.00    -0.356 N 
ATOM     12  H3  UNL     1      38.759  50.172  11.440  1.00  0.00     0.166 HD
ENDROOT
BRANCH   7  13
HETATM   13  S1  UNL     1      40.802  53.128  16.870  1.00  0.00     0.267 S 
HETATM   14  O2  UNL     1      39.684  53.696  17.714  1.00  0.00    -0.200 OA
HETATM   15  O3  UNL     1      41.457  52.065  17.716  1.00  0.00    -0.200 OA
BRANCH  13  16
HETATM   16  N1  UNL     1      41.791  54.360  16.357  1.00  0.00    -0.258 N 
ATOM     17  H1  UNL     1      41.632  54.586  15.374  1.00  0.00     0.181 HD
BRANCH  16  18
HETATM   18  C10 UNL     1      42.680  55.082  16.858  1.00  0.00     0.187 A 
HETATM   19  O4  UNL     1      43.972  54.815  16.697  1.00  0.00    -0.218 OA
HETATM   20  N2  UNL     1      44.695  55.676  17.290  1.00  0.00    -0.263 N 
HETATM   21  C11 UNL     1      43.954  56.608  17.909  1.00  0.00     0.039 A 
ATOM     22  H2  UNL     1      45.715  55.661  17.296  1.00  0.00     0.194 HD
HETATM   23  C12 UNL     1      44.353  57.792  18.714  1.00  0.00     0.071 C 
HETATM   24  C13 UNL     1      42.633  56.214  17.621  1.00  0.00     0.016 A 
HETATM   25  C14 UNL     1      41.459  56.953  18.103  1.00  0.00     0.055 C 
ENDBRANCH  16  18
ENDBRANCH  13  16
ENDBRANCH   7  13
BRANCH   8  26
HETATM   26  O5  UNL     1      42.013  52.501  14.262  1.00  0.00    -0.350 OA
BRANCH  26  27
HETATM   27  C16 UNL     1      43.171  51.748  14.291  1.00  0.00     0.171 C 
HETATM   28  C17 UNL     1      43.696  51.446  12.912  1.00  0.00     0.034 C 
ENDBRANCH  26  27
ENDBRANCH   8  26
BRANCH   4  29
HETATM   29  C5  UNL     1      35.926  50.951  15.886  1.00  0.00     0.156 C 
HETATM   30  C6  UNL     1      34.964  52.120  15.951  1.00  0.00     0.097 C 
HETATM   31  O1  UNL     1      35.960  50.218  16.872  1.00  0.00    -0.293 OA
ENDBRANCH   4  29
TORSDOF 6
ENDMDL
MODEL 2
REMARK VINA RESULT: -8.642623636      0.999      1.180
REMARK  6 active torsions:
REMARK  status: ('A' for Active; 'I' for Inactive)
REMARK    1  A    between atoms: C4_4  and  C5_5 
REMARK    2  A    between atoms: C9_10  and  S1_11 
REMARK    3  A    between atoms: S1_11  and  N1_14 
REMARK    4  A    between atoms: N1_14  and  C10_16 
REMARK    5  A    between atoms: C15_24  and  O5_25 
REMARK    6  A    between atoms: O5_25  and  C16_26 
ROOT
HETATM    1  C1  UNL     1      36.291  49.467  11.469  1.00  0.00     0.043 C 
HETATM    2  C2  UNL     1      36.855  50.037  12.514  1.00  0.00     0.024 A 
HETATM    3  C3  UNL     1      36.154  50.228  13.764  1.00  0.00     0.044 A 
HETATM    4  C4  UNL     1      36.694  50.805  14.853  1.00  0.00     0.024 A 
HETATM    5  C7  UNL     1      38.062  51.256  14.753  1.00  0.00     0.006 A 
HETATM    6  C8  UNL     1      38.702  51.864  15.829  1.00  0.00     0.042 A 
HETATM    7  C9  UNL     1      40.002  52.291  15.730  1.00  0.00     0.114 A 
HETATM    8  C15 UNL     1      40.679  52.115  14.551  1.00  0.00     0.094 A 
HETATM    9  C18 UNL     1      40.109  51.526  13.455  1.00  0.00     0.068 A 
HETATM   10  C19 UNL     1      38.793  51.096  13.562  1.00  0.00     0.046 A 
HETATM   11  N3  UNL     1      38.192  50.483  12.430  1.00  0.00    -0.356 N 
ATOM     12  H3  UNL     1      38.720  50.365  11.566  1.00  0.00     0.166 HD
ENDROOT
BRANCH   7  13
HETATM   13  S1  UNL     1      40.769  53.063  17.126  1.00  0.00     0.267 S 
HETATM   14  O2  UNL     1      39.653  53.533  18.030  1.00  0.00    -0.200 OA
HETATM   15  O3  UNL     1      41.481  51.971  17.885  1.00  0.00    -0.200 OA
BRANCH  13  16
HETATM   16  N1  UNL     1      41.703  54.362  16.676  1.00  0.00    -0.258 N 
ATOM     17  H1  UNL     1      42.051  54.262  15.722  1.00  0.00     0.181 HD
BRANCH  16  18
HETATM   18  C10 UNL     1      42.091  55.427  17.200  1.00  0.00     0.187 A 
HETATM   19  O4  UNL     1      41.239  56.387  17.548  1.00  0.00    -0.218 OA
HETATM   20  N2  UNL     1      41.850  57.378  18.061  1.00  0.00    -0.263 N 
HETATM   21  C11 UNL     1      43.176  57.177  18.107  1.00  0.00     0.039 A 
ATOM     22  H2  UNL     1      41.388  58.223  18.396  1.00  0.00     0.194 HD
HETATM   23  C12 UNL     1      44.273  58.041  18.615  1.00  0.00     0.071 C 
HETATM   24  C13 UNL     1      43.329  55.896  17.542  1.00  0.00     0.016 A 
HETATM   25  C14 UNL     1      44.636  55.246  17.384  1.00  0.00     0.055 C 
ENDBRANCH  16  18
ENDBRANCH  13  16
ENDBRANCH   7  13
BRANCH   8  26
HETATM   26  O5  UNL     1      41.978  52.556  14.491  1.00  0.00    -0.350 OA
BRANCH  26  27
HETATM   27  C16 UNL     1      43.134  51.801  14.444  1.00  0.00     0.171 C 
HETATM   28  C17 UNL     1      43.582  51.519  13.035  1.00  0.00     0.034 C 
ENDBRANCH  26  27
ENDBRANCH   8  26
BRANCH   4  29
HETATM   29  C5  UNL     1      35.891  50.940  16.045  1.00  0.00     0.156 C 
HETATM   30  C6  UNL     1      34.904  52.086  16.150  1.00  0.00     0.097 C 
HETATM   31  O1  UNL     1      35.943  50.177  17.007  1.00  0.00    -0.293 OA
ENDBRANCH   4  29
TORSDOF 6
ENDMDL
MODEL 3
REMARK VINA RESULT: -8.182152049      1.778      2.334
REMARK  6 active torsions:
REMARK  status: ('A' for Active; 'I' for Inactive)
REMARK    1  A    between atoms: C4_4  and  C5_5 
REMARK    2  A    between atoms: C9_10  and  S1_11 
REMARK    3  A    between atoms: S1_11  and  N1_14 
REMARK    4  A    between atoms: N1_14  and  C10_16 
REMARK    5  A    between atoms: C15_24  and  O5_25 
REMARK    6  A    between atoms: O5_25  and  C16_26 
ROOT
HETATM    1  C1  UNL     1      34.220  50.245  13.636  1.00  0.00     0.043 C 
HETATM    2  C2  UNL     1      35.438  50.552  14.032  1.00  0.00     0.024 A 
HETATM    3  C3  UNL     1      35.726  50.994  15.377  1.00  0.00     0.044 A 
HETATM    4  C4  UNL     1      36.955  51.317  15.820  1.00  0.00     0.024 A 
HETATM    5  C7  UNL     1      38.046  51.209  14.881  1.00  0.00     0.006 A 
HETATM    6  C8  UNL     1      39.351  51.521  15.251  1.00  0.00     0.042 A 
HETATM    7  C9  UNL     1      40.385  51.417  14.356  1.00  0.00     0.114 A 
HETATM    8  C15 UNL     1      40.126  50.999  13.077  1.00  0.00     0.094 A 
HETATM    9  C18 UNL     1      38.867  50.676  12.647  1.00  0.00     0.068 A 
HETATM   10  C19 UNL     1      37.825  50.783  13.558  1.00  0.00     0.046 A 
HETATM   11  N3  UNL     1      36.514  50.451  13.123  1.00  0.00    -0.356 N 
ATOM     12  H3  UNL     1      36.352  50.142  12.165  1.00  0.00     0.166 HD
ENDROOT
BRANCH   7  13
HETATM   13  S1  UNL     1      42.025  51.832  14.875  1.00  0.00     0.267 S 
HETATM   14  O2  UNL     1      42.764  50.527  15.062  1.00  0.00    -0.200 OA
HETATM   15  O3  UNL     1      42.687  52.516  13.704  1.00  0.00    -0.200 OA
BRANCH  13  16
HETATM   16  N1  UNL     1      42.024  52.678  16.305  1.00  0.00    -0.258 N 
ATOM     17  H1  UNL     1      41.747  52.089  17.090  1.00  0.00     0.181 HD
BRANCH  16  18
HETATM   18  C10 UNL     1      42.274  53.847  16.670  1.00  0.00     0.187 A 
HETATM   19  O4  UNL     1      43.432  54.436  16.386  1.00  0.00    -0.218 OA
HETATM   20  N2  UNL     1      43.471  55.618  16.854  1.00  0.00    -0.263 N 
HETATM   21  C11 UNL     1      42.338  55.938  17.498  1.00  0.00     0.039 A 
ATOM     22  H2  UNL     1      44.267  56.248  16.751  1.00  0.00     0.194 HD
HETATM   23  C12 UNL     1      41.932  57.187  18.192  1.00  0.00     0.071 C 
HETATM   24  C13 UNL     1      41.556  54.772  17.373  1.00  0.00     0.016 A 
HETATM   25  C14 UNL     1      40.205  54.656  17.937  1.00  0.00     0.055 C 
ENDBRANCH  16  18
ENDBRANCH  13  16
ENDBRANCH   7  13
BRANCH   8  26
HETATM   26  O5  UNL     1      41.188  50.907  12.210  1.00  0.00    -0.350 OA
BRANCH  26  27
HETATM   27  C16 UNL     1      41.777  49.767  11.700  1.00  0.00     0.171 C 
HETATM   28  C17 UNL     1      43.280  49.809  11.782  1.00  0.00     0.034 C 
ENDBRANCH  26  27
ENDBRANCH   8  26
BRANCH   4  29
HETATM   29  C5  UNL     1      37.115  51.746  17.190  1.00  0.00     0.156 C 
HETATM   30  C6  UNL     1      36.901  53.205  17.540  1.00  0.00     0.097 C 
HETATM   31  O1  UNL     1      37.418  51.002  18.119  1.00  0.00    -0.293 OA
ENDBRANCH   4  29
TORSDOF 6
ENDMDL
MODEL 4
REMARK VINA RESULT: -8.162639293      2.028      3.797
REMARK  6 active torsions:
REMARK  status: ('A' for Active; 'I' for Inactive)
REMARK    1  A    between atoms: C4_4  and  C5_5 
REMARK    2  A    between atoms: C9_10  and  S1_11 
REMARK    3  A    between atoms: S1_11  and  N1_14 
REMARK    4  A    between atoms: N1_14  and  C10_16 
REMARK    5  A    between atoms: C15_24  and  O5_25 
REMARK    6  A    between atoms: O5_25  and  C16_26 
ROOT
HETATM    1  C1  UNL     1      35.349  49.763  12.706  1.00  0.00     0.043 C 
HETATM    2  C2  UNL     1      36.434  50.295  13.228  1.00  0.00     0.024 A 
HETATM    3  C3  UNL     1      37.632  50.531  12.453  1.00  0.00     0.044 A 
HETATM    4  C4  UNL     1      38.759  51.072  12.948  1.00  0.00     0.024 A 
HETATM    5  C7  UNL     1      38.760  51.437  14.344  1.00  0.00     0.006 A 
HETATM    6  C8  UNL     1      39.881  52.004  14.942  1.00  0.00     0.042 A 
HETATM    7  C9  UNL     1      39.878  52.350  16.270  1.00  0.00     0.114 A 
HETATM    8  C15 UNL     1      38.750  52.134  17.017  1.00  0.00     0.094 A 
HETATM    9  C18 UNL     1      37.612  51.581  16.493  1.00  0.00     0.068 A 
HETATM   10  C19 UNL     1      37.623  51.232  15.149  1.00  0.00     0.046 A 
HETATM   11  N3  UNL     1      36.448  50.658  14.593  1.00  0.00    -0.356 N 
ATOM     12  H3  UNL     1      35.624  50.509  15.173  1.00  0.00     0.166 HD
ENDROOT
BRANCH   7  13
HETATM   13  S1  UNL     1      41.332  53.062  16.983  1.00  0.00     0.267 S 
HETATM   14  O2  UNL     1      41.792  52.115  18.068  1.00  0.00    -0.200 OA
HETATM   15  O3  UNL     1      42.400  53.019  15.919  1.00  0.00    -0.200 OA
BRANCH  13  16
HETATM   16  N1  UNL     1      41.027  54.556  17.645  1.00  0.00    -0.258 N 
ATOM     17  H1  UNL     1      40.052  54.648  17.930  1.00  0.00     0.181 HD
BRANCH  16  18
HETATM   18  C10 UNL     1      41.678  55.595  17.884  1.00  0.00     0.187 A 
HETATM   19  O4  UNL     1      41.260  56.791  17.482  1.00  0.00    -0.218 OA
HETATM   20  N2  UNL     1      42.074  57.703  17.833  1.00  0.00    -0.263 N 
HETATM   21  C11 UNL     1      43.121  57.204  18.507  1.00  0.00     0.039 A 
ATOM     22  H2  UNL     1      41.947  58.693  17.626  1.00  0.00     0.194 HD
HETATM   23  C12 UNL     1      44.303  57.877  19.105  1.00  0.00     0.071 C 
HETATM   24  C13 UNL     1      42.856  55.821  18.539  1.00  0.00     0.016 A 
HETATM   25  C14 UNL     1      43.750  54.853  19.188  1.00  0.00     0.055 C 
ENDBRANCH  16  18
ENDBRANCH  13  16
ENDBRANCH   7  13
BRANCH   8  26
HETATM   26  O5  UNL     1      38.785  52.494  18.342  1.00  0.00    -0.350 OA
BRANCH  26  27
HETATM   27  C16 UNL     1      38.493  51.716  19.445  1.00  0.00     0.171 C 
HETATM   28  C17 UNL     1      39.349  52.059  20.636  1.00  0.00     0.034 C 
ENDBRANCH  26  27
ENDBRANCH   8  26
BRANCH   4  29
HETATM   29  C5  UNL     1      39.891  51.256  12.071  1.00  0.00     0.156 C 
HETATM   30  C6  UNL     1      40.730  50.056  11.679  1.00  0.00     0.097 C 
HETATM   31  O1  UNL     1      40.237  52.338  11.602  1.00  0.00    -0.293 OA
ENDBRANCH   4  29
TORSDOF 6
ENDMDL
MODEL 5
REMARK VINA RESULT: -8.130003696      2.058      4.164
REMARK  6 active torsions:
REMARK  status: ('A' for Active; 'I' for Inactive)
REMARK    1  A    between atoms: C4_4  and  C5_5 
REMARK    2  A    between atoms: C9_10  and  S1_11 
REMARK    3  A    between atoms: S1_11  and  N1_14 
REMARK    4  A    between atoms: N1_14  and  C10_16 
REMARK    5  A    between atoms: C15_24  and  O5_25 
REMARK    6  A    between atoms: O5_25  and  C16_26 
ROOT
HETATM    1  C1  UNL     1      36.885  50.306  12.389  1.00  0.00     0.043 C 
HETATM    2  C2  UNL     1      37.757  50.869  13.199  1.00  0.00     0.024 A 
HETATM    3  C3  UNL     1      39.032  51.371  12.738  1.00  0.00     0.044 A 
HETATM    4  C4  UNL     1      39.949  51.952  13.533  1.00  0.00     0.024 A 
HETATM    5  C7  UNL     1      39.625  52.077  14.934  1.00  0.00     0.006 A 
HETATM    6  C8  UNL     1      40.511  52.665  15.831  1.00  0.00     0.042 A 
HETATM    7  C9  UNL     1      40.200  52.782  17.162  1.00  0.00     0.114 A 
HETATM    8  C15 UNL     1      38.994  52.312  17.613  1.00  0.00     0.094 A 
HETATM    9  C18 UNL     1      38.076  51.723  16.786  1.00  0.00     0.068 A 
HETATM   10  C19 UNL     1      38.398  51.607  15.441  1.00  0.00     0.046 A 
HETATM   11  N3  UNL     1      37.453  50.998  14.572  1.00  0.00    -0.356 N 
ATOM     12  H3  UNL     1      36.564  50.658  14.936  1.00  0.00     0.166 HD
ENDROOT
BRANCH   7  13
HETATM   13  S1  UNL     1      41.366  53.533  18.262  1.00  0.00     0.267 S 
HETATM   14  O2  UNL     1      40.684  54.743  18.857  1.00  0.00    -0.200 OA
HETATM   15  O3  UNL     1      41.562  52.568  19.405  1.00  0.00    -0.200 OA
BRANCH  13  16
HETATM   16  N1  UNL     1      42.746  54.009  17.467  1.00  0.00    -0.258 N 
ATOM     17  H1  UNL     1      43.377  53.223  17.307  1.00  0.00     0.181 HD
BRANCH  16  18
HETATM   18  C10 UNL     1      43.213  55.076  17.015  1.00  0.00     0.187 A 
HETATM   19  O4  UNL     1      42.447  55.964  16.387  1.00  0.00    -0.218 OA
HETATM   20  N2  UNL     1      43.129  56.971  16.013  1.00  0.00    -0.263 N 
HETATM   21  C11 UNL     1      44.421  56.855  16.355  1.00  0.00     0.039 A 
ATOM     22  H2  UNL     1      42.739  57.770  15.512  1.00  0.00     0.194 HD
HETATM   23  C12 UNL     1      45.571  57.769  16.134  1.00  0.00     0.071 C 
HETATM   24  C13 UNL     1      44.470  55.610  17.014  1.00  0.00     0.016 A 
HETATM   25  C14 UNL     1      45.709  55.055  17.574  1.00  0.00     0.055 C 
ENDBRANCH  16  18
ENDBRANCH  13  16
ENDBRANCH   7  13
BRANCH   8  26
HETATM   26  O5  UNL     1      38.719  52.448  18.952  1.00  0.00    -0.350 OA
BRANCH  26  27
HETATM   27  C16 UNL     1      37.993  51.599  19.763  1.00  0.00     0.171 C 
HETATM   28  C17 UNL     1      38.476  51.610  21.190  1.00  0.00     0.034 C 
ENDBRANCH  26  27
ENDBRANCH   8  26
BRANCH   4  29
HETATM   29  C5  UNL     1      41.188  52.413  12.952  1.00  0.00     0.156 C 
HETATM   30  C6  UNL     1      42.357  51.455  12.843  1.00  0.00     0.097 C 
HETATM   31  O1  UNL     1      41.373  53.550  12.527  1.00  0.00    -0.293 OA
ENDBRANCH   4  29
TORSDOF 6
ENDMDL
