MODEL 1
REMARK VINA RESULT: -9.341553863      0.000      0.000
REMARK  5 active torsions:
REMARK  status: ('A' for Active; 'I' for Inactive)
REMARK    1  A    between atoms: O1_2  and  C2_3 
REMARK    2  A    between atoms: C6_9  and  S1_10 
REMARK    3  A    between atoms: S1_10  and  C7_13 
REMARK    4  A    between atoms: C7_13  and  C8_14 
REMARK    5  A    between atoms: C20_30  and  O5_31 
ROOT
HETATM    1  C2  UNL     1      30.834  50.430  14.491  1.00  0.00     0.103 A 
HETATM    2  C3  UNL     1      31.876  49.920  13.736  1.00  0.00     0.070 A 
HETATM    3  C4  UNL     1      33.195  50.286  14.007  1.00  0.00     0.047 A 
HETATM    4  N1  UNL     1      34.173  49.775  13.261  1.00  0.00    -0.364 N 
ATOM      5  H1  UNL     1      33.956  49.126  12.504  1.00  0.00     0.165 HD
HETATM    6  C5  UNL     1      35.444  50.119  13.510  1.00  0.00     0.114 A 
HETATM    7  C6  UNL     1      35.758  50.985  14.515  1.00  0.00     0.101 A 
HETATM    8  C17 UNL     1      34.729  51.510  15.285  1.00  0.00     0.061 A 
HETATM    9  N2  UNL     1      35.078  52.312  16.210  1.00  0.00    -0.397 N 
ATOM     10  H21 UNL     1      34.322  52.698  16.775  1.00  0.00     0.156 HD
ATOM     11  H22 UNL     1      36.047  52.569  16.392  1.00  0.00     0.156 HD
HETATM   12  C18 UNL     1      33.423  51.165  15.038  1.00  0.00     0.021 A 
HETATM   13  C19 UNL     1      32.410  51.695  15.812  1.00  0.00     0.055 A 
HETATM   14  C20 UNL     1      31.103  51.308  15.516  1.00  0.00     0.102 A 
ENDROOT
BRANCH   7  15
HETATM   15  S1  UNL     1      37.461  51.452  14.857  1.00  0.00     0.180 S 
HETATM   16  O2  UNL     1      37.837  50.757  16.106  1.00  0.00    -0.222 OA
HETATM   17  O3  UNL     1      37.324  52.964  15.048  1.00  0.00    -0.222 OA
BRANCH  15  18
HETATM   18  C7  UNL     1      38.359  51.077  13.442  1.00  0.00     0.160 C 
BRANCH  18  19
HETATM   19  C8  UNL     1      39.820  51.075  13.386  1.00  0.00    -0.001 C 
HETATM   20  C9  UNL     1      40.288  50.602  12.013  1.00  0.00    -0.012 C 
HETATM   21  C10 UNL     1      41.564  50.380  11.815  1.00  0.00     0.047 C 
HETATM   22  C11 UNL     1      42.430  50.618  12.970  1.00  0.00     0.154 C 
HETATM   23  O4  UNL     1      43.673  50.487  12.934  1.00  0.00    -0.293 OA
HETATM   24  C12 UNL     1      41.743  51.027  14.191  1.00  0.00     0.069 C 
HETATM   25  C13 UNL     1      40.527  50.145  14.372  1.00  0.00     0.028 C 
HETATM   26  C14 UNL     1      40.718  52.149  13.822  1.00  0.00    -0.025 C 
HETATM   27  C15 UNL     1      40.515  52.937  15.064  1.00  0.00     0.016 C 
HETATM   28  C16 UNL     1      41.278  53.033  12.707  1.00  0.00     0.016 C 
ENDBRANCH  18  19
ENDBRANCH  15  18
ENDBRANCH   7  15
BRANCH  14  29
HETATM   29  O5  UNL     1      30.056  51.814  16.265  1.00  0.00    -0.353 OA
HETATM   30  C21 UNL     1      29.634  53.141  16.093  1.00  0.00     0.210 C 
ENDBRANCH  14  29
BRANCH   1  31
HETATM   31  O1  UNL     1      29.519  50.075  14.235  1.00  0.00    -0.353 OA
HETATM   32  C1  UNL     1      28.987  49.913  12.954  1.00  0.00     0.210 C 
ENDBRANCH   1  31
TORSDOF 5
ENDMDL
MODEL 2
REMARK VINA RESULT: -8.994707675      0.739      1.442
REMARK  5 active torsions:
REMARK  status: ('A' for Active; 'I' for Inactive)
REMARK    1  A    between atoms: O1_2  and  C2_3 
REMARK    2  A    between atoms: C6_9  and  S1_10 
REMARK    3  A    between atoms: S1_10  and  C7_13 
REMARK    4  A    between atoms: C7_13  and  C8_14 
REMARK    5  A    between atoms: C20_30  and  O5_31 
ROOT
HETATM    1  C2  UNL     1      30.847  50.312  14.272  1.00  0.00     0.103 A 
HETATM    2  C3  UNL     1      31.975  49.832  13.631  1.00  0.00     0.070 A 
HETATM    3  C4  UNL     1      33.248  50.251  14.022  1.00  0.00     0.047 A 
HETATM    4  N1  UNL     1      34.312  49.767  13.382  1.00  0.00    -0.364 N 
ATOM      5  H1  UNL     1      34.193  49.101  12.619  1.00  0.00     0.165 HD
HETATM    6  C5  UNL     1      35.540  50.161  13.747  1.00  0.00     0.114 A 
HETATM    7  C6  UNL     1      35.722  51.051  14.764  1.00  0.00     0.101 A 
HETATM    8  C17 UNL     1      34.606  51.547  15.423  1.00  0.00     0.061 A 
HETATM    9  N2  UNL     1      34.833  52.373  16.363  1.00  0.00    -0.397 N 
ATOM     10  H21 UNL     1      34.012  52.738  16.847  1.00  0.00     0.156 HD
ATOM     11  H22 UNL     1      35.771  52.668  16.635  1.00  0.00     0.156 HD
HETATM   12  C18 UNL     1      33.342  51.150  15.056  1.00  0.00     0.021 A 
HETATM   13  C19 UNL     1      32.240  51.651  15.719  1.00  0.00     0.055 A 
HETATM   14  C20 UNL     1      30.984  51.212  15.304  1.00  0.00     0.102 A 
ENDROOT
BRANCH   7  15
HETATM   15  S1  UNL     1      37.366  51.586  15.262  1.00  0.00     0.180 S 
HETATM   16  O2  UNL     1      37.597  51.013  16.605  1.00  0.00    -0.222 OA
HETATM   17  O3  UNL     1      37.189  53.105  15.297  1.00  0.00    -0.222 OA
BRANCH  15  18
HETATM   18  C7  UNL     1      38.433  51.108  14.004  1.00  0.00     0.160 C 
BRANCH  18  19
HETATM   19  C8  UNL     1      39.864  51.407  13.995  1.00  0.00    -0.001 C 
HETATM   20  C9  UNL     1      40.613  50.401  14.863  1.00  0.00    -0.012 C 
HETATM   21  C10 UNL     1      41.885  50.594  15.111  1.00  0.00     0.047 C 
HETATM   22  C11 UNL     1      42.468  51.792  14.508  1.00  0.00     0.154 C 
HETATM   23  O4  UNL     1      43.675  52.098  14.619  1.00  0.00    -0.293 OA
HETATM   24  C12 UNL     1      41.539  52.626  13.753  1.00  0.00     0.069 C 
HETATM   25  C13 UNL     1      40.266  52.770  14.558  1.00  0.00     0.028 C 
HETATM   26  C14 UNL     1      40.694  51.695  12.822  1.00  0.00    -0.025 C 
HETATM   27  C15 UNL     1      40.250  52.549  11.690  1.00  0.00     0.016 C 
HETATM   28  C16 UNL     1      41.549  50.532  12.318  1.00  0.00     0.016 C 
ENDBRANCH  18  19
ENDBRANCH  15  18
ENDBRANCH   7  15
BRANCH  14  29
HETATM   29  O5  UNL     1      29.851  51.688  15.940  1.00  0.00    -0.353 OA
HETATM   30  C21 UNL     1      29.371  52.978  15.668  1.00  0.00     0.210 C 
ENDBRANCH  14  29
BRANCH   1  31
HETATM   31  O1  UNL     1      29.577  49.905  13.896  1.00  0.00    -0.353 OA
HETATM   32  C1  UNL     1      28.937  50.321  12.727  1.00  0.00     0.210 C 
ENDBRANCH   1  31
TORSDOF 5
ENDMDL
MODEL 3
REMARK VINA RESULT: -8.970113775      0.716      1.091
REMARK  5 active torsions:
REMARK  status: ('A' for Active; 'I' for Inactive)
REMARK    1  A    between atoms: O1_2  and  C2_3 
REMARK    2  A    between atoms: C6_9  and  S1_10 
REMARK    3  A    between atoms: S1_10  and  C7_13 
REMARK    4  A    between atoms: C7_13  and  C8_14 
REMARK    5  A    between atoms: C20_30  and  O5_31 
ROOT
HETATM    1  C2  UNL     1      30.897  50.481  14.273  1.00  0.00     0.103 A 
HETATM    2  C3  UNL     1      31.997  49.953  13.621  1.00  0.00     0.070 A 
HETATM    3  C4  UNL     1      33.291  50.318  13.999  1.00  0.00     0.047 A 
HETATM    4  N1  UNL     1      34.326  49.789  13.349  1.00  0.00    -0.364 N 
ATOM      5  H1  UNL     1      34.172  49.128  12.587  1.00  0.00     0.165 HD
HETATM    6  C5  UNL     1      35.573  50.130  13.701  1.00  0.00     0.114 A 
HETATM    7  C6  UNL     1      35.804  51.012  14.715  1.00  0.00     0.101 A 
HETATM    8  C17 UNL     1      34.716  51.556  15.384  1.00  0.00     0.061 A 
HETATM    9  N2  UNL     1      34.988  52.373  16.322  1.00  0.00    -0.397 N 
ATOM     10  H21 UNL     1      34.188  52.772  16.813  1.00  0.00     0.156 HD
ATOM     11  H22 UNL     1      35.940  52.628  16.583  1.00  0.00     0.156 HD
HETATM   12  C18 UNL     1      33.433  51.213  15.031  1.00  0.00     0.021 A 
HETATM   13  C19 UNL     1      32.360  51.761  15.705  1.00  0.00     0.055 A 
HETATM   14  C20 UNL     1      31.082  51.376  15.303  1.00  0.00     0.102 A 
ENDROOT
BRANCH   7  15
HETATM   15  S1  UNL     1      37.473  51.477  15.196  1.00  0.00     0.180 S 
HETATM   16  O2  UNL     1      37.650  51.006  16.586  1.00  0.00    -0.222 OA
HETATM   17  O3  UNL     1      37.400  53.003  15.100  1.00  0.00    -0.222 OA
BRANCH  15  18
HETATM   18  C7  UNL     1      38.521  50.825  14.001  1.00  0.00     0.160 C 
BRANCH  18  19
HETATM   19  C8  UNL     1      39.936  51.174  13.884  1.00  0.00    -0.001 C 
HETATM   20  C9  UNL     1      40.106  52.343  12.919  1.00  0.00    -0.012 C 
HETATM   21  C10 UNL     1      41.313  52.703  12.558  1.00  0.00     0.047 C 
HETATM   22  C11 UNL     1      42.402  51.919  13.139  1.00  0.00     0.154 C 
HETATM   23  O4  UNL     1      43.611  52.158  12.924  1.00  0.00    -0.293 OA
HETATM   24  C12 UNL     1      41.987  50.820  14.004  1.00  0.00     0.069 C 
HETATM   25  C13 UNL     1      40.851  50.084  13.328  1.00  0.00     0.028 C 
HETATM   26  C14 UNL     1      40.890  51.355  14.982  1.00  0.00    -0.025 C 
HETATM   27  C15 UNL     1      40.946  50.473  16.176  1.00  0.00     0.016 C 
HETATM   28  C16 UNL     1      41.185  52.805  15.367  1.00  0.00     0.016 C 
ENDBRANCH  18  19
ENDBRANCH  15  18
ENDBRANCH   7  15
BRANCH  14  29
HETATM   29  O5  UNL     1      29.977  51.900  15.950  1.00  0.00    -0.353 OA
HETATM   30  C21 UNL     1      29.798  53.288  16.040  1.00  0.00     0.210 C 
ENDBRANCH  14  29
BRANCH   1  31
HETATM   31  O1  UNL     1      29.607  50.129  13.910  1.00  0.00    -0.353 OA
HETATM   32  C1  UNL     1      29.020  50.460  12.688  1.00  0.00     0.210 C 
ENDBRANCH   1  31
TORSDOF 5
ENDMDL
MODEL 4
REMARK VINA RESULT: -8.904700278      4.743      7.517
REMARK  5 active torsions:
REMARK  status: ('A' for Active; 'I' for Inactive)
REMARK    1  A    between atoms: O1_2  and  C2_3 
REMARK    2  A    between atoms: C6_9  and  S1_10 
REMARK    3  A    between atoms: S1_10  and  C7_13 
REMARK    4  A    between atoms: C7_13  and  C8_14 
REMARK    5  A    between atoms: C20_30  and  O5_31 
ROOT
HETATM    1  C2  UNL     1      37.570  51.052  13.051  1.00  0.00     0.103 A 
HETATM    2  C3  UNL     1      37.164  51.764  14.166  1.00  0.00     0.070 A 
HETATM    3  C4  UNL     1      38.102  52.245  15.082  1.00  0.00     0.047 A 
HETATM    4  N1  UNL     1      37.676  52.927  16.144  1.00  0.00    -0.364 N 
ATOM      5  H1  UNL     1      36.679  53.092  16.281  1.00  0.00     0.165 HD
HETATM    6  C5  UNL     1      38.565  53.394  17.031  1.00  0.00     0.114 A 
HETATM    7  C6  UNL     1      39.902  53.184  16.867  1.00  0.00     0.101 A 
HETATM    8  C17 UNL     1      40.333  52.471  15.757  1.00  0.00     0.061 A 
HETATM    9  N2  UNL     1      41.590  52.305  15.654  1.00  0.00    -0.397 N 
ATOM     10  H21 UNL     1      41.907  51.781  14.837  1.00  0.00     0.156 HD
ATOM     11  H22 UNL     1      42.260  52.663  16.333  1.00  0.00     0.156 HD
HETATM   12  C18 UNL     1      39.430  51.988  14.841  1.00  0.00     0.021 A 
HETATM   13  C19 UNL     1      39.872  51.281  13.741  1.00  0.00     0.055 A 
HETATM   14  C20 UNL     1      38.910  50.815  12.845  1.00  0.00     0.102 A 
ENDROOT
BRANCH   7  15
HETATM   15  S1  UNL     1      41.103  53.806  18.053  1.00  0.00     0.180 S 
HETATM   16  O2  UNL     1      41.772  52.619  18.626  1.00  0.00    -0.222 OA
HETATM   17  O3  UNL     1      40.193  54.509  19.062  1.00  0.00    -0.222 OA
BRANCH  15  18
HETATM   18  C7  UNL     1      42.083  54.933  17.203  1.00  0.00     0.160 C 
BRANCH  18  19
HETATM   19  C8  UNL     1      42.948  55.913  17.859  1.00  0.00    -0.001 C 
HETATM   20  C9  UNL     1      43.634  55.279  19.065  1.00  0.00    -0.012 C 
HETATM   21  C10 UNL     1      44.328  56.037  19.877  1.00  0.00     0.047 C 
HETATM   22  C11 UNL     1      44.371  57.457  19.527  1.00  0.00     0.154 C 
HETATM   23  O4  UNL     1      45.019  58.305  20.178  1.00  0.00    -0.293 OA
HETATM   24  C12 UNL     1      43.599  57.833  18.347  1.00  0.00     0.069 C 
HETATM   25  C13 UNL     1      42.250  57.150  18.423  1.00  0.00     0.028 C 
HETATM   26  C14 UNL     1      43.913  56.806  17.210  1.00  0.00    -0.025 C 
HETATM   27  C15 UNL     1      43.645  57.518  15.934  1.00  0.00     0.016 C 
HETATM   28  C16 UNL     1      45.375  56.362  17.285  1.00  0.00     0.016 C 
ENDBRANCH  18  19
ENDBRANCH  15  18
ENDBRANCH   7  15
BRANCH  14  29
HETATM   29  O5  UNL     1      39.307  50.102  11.729  1.00  0.00    -0.353 OA
HETATM   30  C21 UNL     1      40.661  50.046  11.365  1.00  0.00     0.210 C 
ENDBRANCH  14  29
BRANCH   1  31
HETATM   31  O1  UNL     1      36.652  50.568  12.132  1.00  0.00    -0.353 OA
HETATM   32  C1  UNL     1      35.875  49.426  12.330  1.00  0.00     0.210 C 
ENDBRANCH   1  31
TORSDOF 5
ENDMDL
MODEL 5
REMARK VINA RESULT: -8.791471064      4.159      6.334
REMARK  5 active torsions:
REMARK  status: ('A' for Active; 'I' for Inactive)
REMARK    1  A    between atoms: O1_2  and  C2_3 
REMARK    2  A    between atoms: C6_9  and  S1_10 
REMARK    3  A    between atoms: S1_10  and  C7_13 
REMARK    4  A    between atoms: C7_13  and  C8_14 
REMARK    5  A    between atoms: C20_30  and  O5_31 
ROOT
HETATM    1  C2  UNL     1      35.543  51.041  14.638  1.00  0.00     0.103 A 
HETATM    2  C3  UNL     1      36.070  51.636  15.771  1.00  0.00     0.070 A 
HETATM    3  C4  UNL     1      37.421  51.984  15.828  1.00  0.00     0.047 A 
HETATM    4  N1  UNL     1      37.894  52.556  16.934  1.00  0.00    -0.364 N 
ATOM      5  H1  UNL     1      37.275  52.735  17.725  1.00  0.00     0.165 HD
HETATM    6  C5  UNL     1      39.189  52.895  17.002  1.00  0.00     0.114 A 
HETATM    7  C6  UNL     1      40.035  52.664  15.958  1.00  0.00     0.101 A 
HETATM    8  C17 UNL     1      39.530  52.067  14.811  1.00  0.00     0.061 A 
HETATM    9  N2  UNL     1      40.362  51.876  13.868  1.00  0.00    -0.397 N 
ATOM     10  H21 UNL     1      39.990  51.437  13.025  1.00  0.00     0.156 HD
ATOM     11  H22 UNL     1      41.346  52.136  13.928  1.00  0.00     0.156 HD
HETATM   12  C18 UNL     1      38.203  51.716  14.731  1.00  0.00     0.021 A 
HETATM   13  C19 UNL     1      37.714  51.123  13.584  1.00  0.00     0.055 A 
HETATM   14  C20 UNL     1      36.360  50.789  13.560  1.00  0.00     0.102 A 
ENDROOT
BRANCH   7  15
HETATM   15  S1  UNL     1      41.774  53.115  16.040  1.00  0.00     0.180 S 
HETATM   16  O2  UNL     1      42.035  53.969  14.862  1.00  0.00    -0.222 OA
HETATM   17  O3  UNL     1      42.445  51.744  15.928  1.00  0.00    -0.222 OA
BRANCH  15  18
HETATM   18  C7  UNL     1      42.023  53.809  17.591  1.00  0.00     0.160 C 
BRANCH  18  19
HETATM   19  C8  UNL     1      42.591  55.139  17.803  1.00  0.00    -0.001 C 
HETATM   20  C9  UNL     1      44.047  55.163  17.350  1.00  0.00    -0.012 C 
HETATM   21  C10 UNL     1      44.778  56.220  17.604  1.00  0.00     0.047 C 
HETATM   22  C11 UNL     1      44.096  57.299  18.317  1.00  0.00     0.154 C 
HETATM   23  O4  UNL     1      44.642  58.387  18.601  1.00  0.00    -0.293 OA
HETATM   24  C12 UNL     1      42.710  57.026  18.683  1.00  0.00     0.069 C 
HETATM   25  C13 UNL     1      42.634  55.626  19.251  1.00  0.00     0.028 C 
HETATM   26  C14 UNL     1      41.985  56.423  17.435  1.00  0.00    -0.025 C 
HETATM   27  C15 UNL     1      40.543  56.732  17.614  1.00  0.00     0.016 C 
HETATM   28  C16 UNL     1      42.519  57.060  16.152  1.00  0.00     0.016 C 
ENDBRANCH  18  19
ENDBRANCH  15  18
ENDBRANCH   7  15
BRANCH  14  29
HETATM   29  O5  UNL     1      35.826  50.193  12.432  1.00  0.00    -0.353 OA
HETATM   30  C21 UNL     1      36.573  49.258  11.699  1.00  0.00     0.210 C 
ENDBRANCH  14  29
BRANCH   1  31
HETATM   31  O1  UNL     1      34.204  50.690  14.566  1.00  0.00    -0.353 OA
HETATM   32  C1  UNL     1      33.170  51.430  15.142  1.00  0.00     0.210 C 
ENDBRANCH   1  31
TORSDOF 5
ENDMDL
