MODEL 1
REMARK VINA RESULT: -8.061853848      0.000      0.000
REMARK  7 active torsions:
REMARK  status: ('A' for Active; 'I' for Inactive)
REMARK    1  A    between atoms: C2_2  and  C3_3 
REMARK    2  A    between atoms: C4_4  and  O1_5 
REMARK    3  A    between atoms: C8_10  and  O2_12 
REMARK    4  A    between atoms: C15_20  and  O4_21 
REMARK    5  A    between atoms: C17_24  and  C18_25 
REMARK    6  A    between atoms: C18_25  and  C19_26 
REMARK    7  A    between atoms: C19_26  and  C20_27 
ROOT
HETATM    1  C3  UNL     1      38.965  52.639  16.299  1.00  0.00     0.044 C 
HETATM    2  C4  UNL     1      37.634  53.255  16.516  1.00  0.00     0.130 C 
HETATM    3  C5  UNL     1      37.311  53.659  17.960  1.00  0.00     0.074 C 
HETATM    4  C6  UNL     1      38.597  53.867  18.667  1.00  0.00    -0.010 C 
HETATM    5  C7  UNL     1      38.495  52.982  19.648  1.00  0.00     0.021 C 
HETATM    6  C8  UNL     1      39.528  52.688  20.740  1.00  0.00     0.076 C 
HETATM    7  C9  UNL     1      39.158  53.583  21.891  1.00  0.00     0.051 C 
HETATM    8  C10 UNL     1      40.872  53.221  20.188  1.00  0.00     0.021 C 
HETATM    9  C11 UNL     1      41.937  52.676  21.105  1.00  0.00     0.013 C 
HETATM   10  C12 UNL     1      41.132  52.758  18.747  1.00  0.00     0.030 C 
HETATM   11  C13 UNL     1      40.843  53.780  17.709  1.00  0.00     0.082 C 
HETATM   12  C14 UNL     1      39.766  54.677  18.354  1.00  0.00     0.169 C 
HETATM   13  O3  UNL     1      40.014  55.875  18.509  1.00  0.00    -0.292 OA
HETATM   14  C15 UNL     1      42.023  54.492  17.213  1.00  0.00     0.276 C 
HETATM   15  O5  UNL     1      42.234  54.162  15.861  1.00  0.00    -0.354 OA
HETATM   16  C17 UNL     1      41.370  53.083  15.596  1.00  0.00     0.131 C 
HETATM   17  C24 UNL     1      40.190  53.393  16.438  1.00  0.00     0.046 C 
ENDROOT
BRANCH  16  18
HETATM   18  C18 UNL     1      42.048  51.786  15.704  1.00  0.00     0.036 C 
BRANCH  18  19
HETATM   19  C19 UNL     1      42.793  51.420  14.399  1.00  0.00     0.030 C 
BRANCH  19  20
HETATM   20  C20 UNL     1      41.882  50.790  13.407  1.00  0.00    -0.025 C 
HETATM   21  C21 UNL     1      42.362  50.186  12.324  1.00  0.00    -0.091 C 
HETATM   22  C22 UNL     1      41.442  49.565  11.348  1.00  0.00     0.042 C 
HETATM   23  C23 UNL     1      43.829  50.125  12.075  1.00  0.00     0.042 C 
ENDBRANCH  19  20
ENDBRANCH  18  19
ENDBRANCH  16  18
BRANCH  14  24
HETATM   24  O4  UNL     1      42.039  55.855  17.293  1.00  0.00    -0.365 OA
HETATM   25  C16 UNL     1      42.929  56.429  16.376  1.00  0.00     0.204 C 
ENDBRANCH  14  24
BRANCH   1  26
HETATM   26  C2  UNL     1      38.925  52.228  14.823  1.00  0.00    -0.029 C 
HETATM   27  C1  UNL     1      38.590  51.040  14.409  1.00  0.00     0.007 C 
ENDBRANCH   1  26
BRANCH   2  28
HETATM   28  O1  UNL     1      36.595  52.381  16.177  1.00  0.00    -0.395 OA
ATOM     29  H1  UNL     1      35.839  52.496  16.741  1.00  0.00     0.210 HD
ENDBRANCH   2  28
BRANCH   6  30
HETATM   30  O2  UNL     1      39.559  51.392  21.113  1.00  0.00    -0.386 OA
ATOM     31  H2  UNL     1      40.074  51.237  21.896  1.00  0.00     0.211 HD
ENDBRANCH   6  30
TORSDOF 7
ENDMDL
MODEL 2
REMARK VINA RESULT: -7.615630253      1.988      5.544
REMARK  7 active torsions:
REMARK  status: ('A' for Active; 'I' for Inactive)
REMARK    1  A    between atoms: C2_2  and  C3_3 
REMARK    2  A    between atoms: C4_4  and  O1_5 
REMARK    3  A    between atoms: C8_10  and  O2_12 
REMARK    4  A    between atoms: C15_20  and  O4_21 
REMARK    5  A    between atoms: C17_24  and  C18_25 
REMARK    6  A    between atoms: C18_25  and  C19_26 
REMARK    7  A    between atoms: C19_26  and  C20_27 
ROOT
HETATM    1  C3  UNL     1      41.535  53.891  19.571  1.00  0.00     0.044 C 
HETATM    2  C4  UNL     1      41.438  52.865  20.638  1.00  0.00     0.130 C 
HETATM    3  C5  UNL     1      40.176  51.992  20.613  1.00  0.00     0.074 C 
HETATM    4  C6  UNL     1      39.658  51.992  19.225  1.00  0.00    -0.010 C 
HETATM    5  C7  UNL     1      38.443  52.489  19.407  1.00  0.00     0.021 C 
HETATM    6  C8  UNL     1      37.384  52.761  18.335  1.00  0.00     0.076 C 
HETATM    7  C9  UNL     1      36.552  51.509  18.268  1.00  0.00     0.051 C 
HETATM    8  C10 UNL     1      38.162  52.839  16.999  1.00  0.00     0.021 C 
HETATM    9  C11 UNL     1      37.192  53.399  15.991  1.00  0.00     0.013 C 
HETATM   10  C12 UNL     1      39.396  53.747  17.099  1.00  0.00     0.030 C 
HETATM   11  C13 UNL     1      40.683  53.023  17.261  1.00  0.00     0.082 C 
HETATM   12  C14 UNL     1      40.285  51.698  17.945  1.00  0.00     0.169 C 
HETATM   13  O3  UNL     1      40.534  50.638  17.363  1.00  0.00    -0.292 OA
HETATM   14  C15 UNL     1      41.454  52.873  16.025  1.00  0.00     0.276 C 
HETATM   15  O5  UNL     1      42.644  53.619  16.123  1.00  0.00    -0.354 OA
HETATM   16  C17 UNL     1      42.498  54.414  17.275  1.00  0.00     0.131 C 
HETATM   17  C24 UNL     1      41.722  53.536  18.183  1.00  0.00     0.046 C 
ENDROOT
BRANCH  16  18
HETATM   18  C18 UNL     1      42.030  55.769  16.961  1.00  0.00     0.036 C 
BRANCH  18  19
HETATM   19  C19 UNL     1      43.189  56.679  16.490  1.00  0.00     0.030 C 
BRANCH  19  20
HETATM   20  C20 UNL     1      44.502  56.200  16.998  1.00  0.00    -0.025 C 
HETATM   21  C21 UNL     1      45.100  56.801  18.022  1.00  0.00    -0.091 C 
HETATM   22  C22 UNL     1      46.405  56.312  18.514  1.00  0.00     0.042 C 
HETATM   23  C23 UNL     1      44.470  57.974  18.689  1.00  0.00     0.042 C 
ENDBRANCH  19  20
ENDBRANCH  18  19
ENDBRANCH  16  18
BRANCH  14  24
HETATM   24  O4  UNL     1      41.811  51.614  15.632  1.00  0.00    -0.365 OA
HETATM   25  C16 UNL     1      42.862  51.626  14.706  1.00  0.00     0.204 C 
ENDBRANCH  14  24
BRANCH   1  26
HETATM   26  C2  UNL     1      42.799  54.671  19.949  1.00  0.00    -0.029 C 
HETATM   27  C1  UNL     1      43.928  54.110  20.276  1.00  0.00     0.007 C 
ENDBRANCH   1  26
BRANCH   2  28
HETATM   28  O1  UNL     1      41.414  53.443  21.913  1.00  0.00    -0.395 OA
ATOM     29  H1  UNL     1      42.133  54.051  22.038  1.00  0.00     0.210 HD
ENDBRANCH   2  28
BRANCH   6  30
HETATM   30  O2  UNL     1      36.623  53.844  18.594  1.00  0.00    -0.386 OA
ATOM     31  H2  UNL     1      35.884  53.937  18.005  1.00  0.00     0.211 HD
ENDBRANCH   6  30
TORSDOF 7
ENDMDL
MODEL 3
REMARK VINA RESULT: -7.530920685      2.067      5.039
REMARK  7 active torsions:
REMARK  status: ('A' for Active; 'I' for Inactive)
REMARK    1  A    between atoms: C2_2  and  C3_3 
REMARK    2  A    between atoms: C4_4  and  O1_5 
REMARK    3  A    between atoms: C8_10  and  O2_12 
REMARK    4  A    between atoms: C15_20  and  O4_21 
REMARK    5  A    between atoms: C17_24  and  C18_25 
REMARK    6  A    between atoms: C18_25  and  C19_26 
REMARK    7  A    between atoms: C19_26  and  C20_27 
ROOT
HETATM    1  C3  UNL     1      39.921  52.629  15.314  1.00  0.00     0.044 C 
HETATM    2  C4  UNL     1      41.387  52.455  15.182  1.00  0.00     0.130 C 
HETATM    3  C5  UNL     1      42.247  53.258  16.168  1.00  0.00     0.074 C 
HETATM    4  C6  UNL     1      41.412  53.549  17.357  1.00  0.00    -0.010 C 
HETATM    5  C7  UNL     1      41.436  54.874  17.367  1.00  0.00     0.021 C 
HETATM    6  C8  UNL     1      40.735  55.805  18.360  1.00  0.00     0.076 C 
HETATM    7  C9  UNL     1      41.745  56.063  19.446  1.00  0.00     0.051 C 
HETATM    8  C10 UNL     1      39.614  54.952  19.002  1.00  0.00     0.021 C 
HETATM    9  C11 UNL     1      38.736  55.924  19.748  1.00  0.00     0.013 C 
HETATM   10  C12 UNL     1      38.787  54.197  17.952  1.00  0.00     0.030 C 
HETATM   11  C13 UNL     1      39.143  52.763  17.802  1.00  0.00     0.082 C 
HETATM   12  C14 UNL     1      40.623  52.695  18.232  1.00  0.00     0.169 C 
HETATM   13  O3  UNL     1      40.925  51.978  19.190  1.00  0.00    -0.292 OA
HETATM   14  C15 UNL     1      38.251  51.840  18.509  1.00  0.00     0.276 C 
HETATM   15  O5  UNL     1      37.545  51.062  17.572  1.00  0.00    -0.354 OA
HETATM   16  C17 UNL     1      37.796  51.657  16.321  1.00  0.00     0.131 C 
HETATM   17  C24 UNL     1      39.191  52.138  16.461  1.00  0.00     0.046 C 
ENDROOT
BRANCH  16  18
HETATM   18  C18 UNL     1      36.723  52.572  15.915  1.00  0.00     0.036 C 
BRANCH  18  19
HETATM   19  C19 UNL     1      35.570  51.824  15.207  1.00  0.00     0.030 C 
BRANCH  19  20
HETATM   20  C20 UNL     1      36.080  50.905  14.154  1.00  0.00    -0.025 C 
HETATM   21  C21 UNL     1      35.245  50.179  13.418  1.00  0.00    -0.091 C 
HETATM   22  C22 UNL     1      35.769  49.270  12.376  1.00  0.00     0.042 C 
HETATM   23  C23 UNL     1      33.773  50.264  13.628  1.00  0.00     0.042 C 
ENDBRANCH  19  20
ENDBRANCH  18  19
ENDBRANCH  16  18
BRANCH  14  24
HETATM   24  O4  UNL     1      38.799  50.971  19.409  1.00  0.00    -0.365 OA
HETATM   25  C16 UNL     1      38.273  51.140  20.697  1.00  0.00     0.204 C 
ENDBRANCH  14  24
BRANCH   1  26
HETATM   26  C2  UNL     1      39.366  51.832  14.128  1.00  0.00    -0.029 C 
HETATM   27  C1  UNL     1      39.744  50.623  13.824  1.00  0.00     0.007 C 
ENDBRANCH   1  26
BRANCH   2  28
HETATM   28  O1  UNL     1      41.849  52.869  13.928  1.00  0.00    -0.395 OA
ATOM     29  H1  UNL     1      42.038  53.800  13.911  1.00  0.00     0.210 HD
ENDBRANCH   2  28
BRANCH   6  30
HETATM   30  O2  UNL     1      40.304  56.956  17.805  1.00  0.00    -0.386 OA
ATOM     31  H2  UNL     1      40.386  57.708  18.380  1.00  0.00     0.211 HD
ENDBRANCH   6  30
TORSDOF 7
ENDMDL
MODEL 4
REMARK VINA RESULT: -7.488292681      1.729      4.242
REMARK  7 active torsions:
REMARK  status: ('A' for Active; 'I' for Inactive)
REMARK    1  A    between atoms: C2_2  and  C3_3 
REMARK    2  A    between atoms: C4_4  and  O1_5 
REMARK    3  A    between atoms: C8_10  and  O2_12 
REMARK    4  A    between atoms: C15_20  and  O4_21 
REMARK    5  A    between atoms: C17_24  and  C18_25 
REMARK    6  A    between atoms: C18_25  and  C19_26 
REMARK    7  A    between atoms: C19_26  and  C20_27 
ROOT
HETATM    1  C3  UNL     1      41.275  54.618  16.823  1.00  0.00     0.044 C 
HETATM    2  C4  UNL     1      41.051  55.063  18.219  1.00  0.00     0.130 C 
HETATM    3  C5  UNL     1      39.719  54.638  18.851  1.00  0.00     0.074 C 
HETATM    4  C6  UNL     1      39.250  53.426  18.137  1.00  0.00    -0.010 C 
HETATM    5  C7  UNL     1      38.078  53.840  17.676  1.00  0.00     0.021 C 
HETATM    6  C8  UNL     1      37.085  53.043  16.825  1.00  0.00     0.076 C 
HETATM    7  C9  UNL     1      36.149  52.393  17.807  1.00  0.00     0.051 C 
HETATM    8  C10 UNL     1      37.913  51.898  16.191  1.00  0.00     0.021 C 
HETATM    9  C11 UNL     1      37.031  51.294  15.128  1.00  0.00     0.013 C 
HETATM   10  C12 UNL     1      39.219  52.406  15.563  1.00  0.00     0.030 C 
HETATM   11  C13 UNL     1      40.430  52.185  16.394  1.00  0.00     0.082 C 
HETATM   12  C14 UNL     1      39.893  52.154  17.840  1.00  0.00     0.169 C 
HETATM   13  O3  UNL     1      40.066  51.133  18.510  1.00  0.00    -0.292 OA
HETATM   14  C15 UNL     1      41.226  51.018  16.006  1.00  0.00     0.276 C 
HETATM   15  O5  UNL     1      42.474  51.448  15.514  1.00  0.00    -0.354 OA
HETATM   16  C17 UNL     1      42.360  52.842  15.358  1.00  0.00     0.131 C 
HETATM   17  C24 UNL     1      41.478  53.226  16.485  1.00  0.00     0.046 C 
ENDROOT
BRANCH  16  18
HETATM   18  C18 UNL     1      42.025  53.222  13.980  1.00  0.00     0.036 C 
BRANCH  18  19
HETATM   19  C19 UNL     1      42.352  52.089  12.979  1.00  0.00     0.030 C 
BRANCH  19  20
HETATM   20  C20 UNL     1      41.126  51.578  12.312  1.00  0.00    -0.025 C 
HETATM   21  C21 UNL     1      41.111  50.383  11.730  1.00  0.00    -0.091 C 
HETATM   22  C22 UNL     1      39.883  49.891  11.070  1.00  0.00     0.042 C 
HETATM   23  C23 UNL     1      42.325  49.522  11.729  1.00  0.00     0.042 C 
ENDBRANCH  19  20
ENDBRANCH  18  19
ENDBRANCH  16  18
BRANCH  14  24
HETATM   24  O4  UNL     1      41.483  50.066  16.950  1.00  0.00    -0.365 OA
HETATM   25  C16 UNL     1      40.719  48.908  16.756  1.00  0.00     0.204 C 
ENDBRANCH  14  24
BRANCH   1  26
HETATM   26  C2  UNL     1      42.591  55.307  16.442  1.00  0.00    -0.029 C 
HETATM   27  C1  UNL     1      43.695  55.190  17.121  1.00  0.00     0.007 C 
ENDBRANCH   1  26
BRANCH   2  28
HETATM   28  O1  UNL     1      41.035  56.458  18.323  1.00  0.00    -0.395 OA
ATOM     29  H1  UNL     1      40.240  56.830  17.960  1.00  0.00     0.210 HD
ENDBRANCH   2  28
BRANCH   6  30
HETATM   30  O2  UNL     1      36.416  53.800  15.932  1.00  0.00    -0.386 OA
ATOM     31  H2  UNL     1      36.962  54.121  15.224  1.00  0.00     0.211 HD
ENDBRANCH   6  30
TORSDOF 7
ENDMDL
MODEL 5
REMARK VINA RESULT: -7.483722860      2.347      5.570
REMARK  7 active torsions:
REMARK  status: ('A' for Active; 'I' for Inactive)
REMARK    1  A    between atoms: C2_2  and  C3_3 
REMARK    2  A    between atoms: C4_4  and  O1_5 
REMARK    3  A    between atoms: C8_10  and  O2_12 
REMARK    4  A    between atoms: C15_20  and  O4_21 
REMARK    5  A    between atoms: C17_24  and  C18_25 
REMARK    6  A    between atoms: C18_25  and  C19_26 
REMARK    7  A    between atoms: C19_26  and  C20_27 
ROOT
HETATM    1  C3  UNL     1      39.677  51.687  15.101  1.00  0.00     0.044 C 
HETATM    2  C4  UNL     1      40.984  51.026  14.874  1.00  0.00     0.130 C 
HETATM    3  C5  UNL     1      42.192  51.682  15.555  1.00  0.00     0.074 C 
HETATM    4  C6  UNL     1      41.689  52.452  16.717  1.00  0.00    -0.010 C 
HETATM    5  C7  UNL     1      42.103  53.673  16.413  1.00  0.00     0.021 C 
HETATM    6  C8  UNL     1      41.882  54.954  17.222  1.00  0.00     0.076 C 
HETATM    7  C9  UNL     1      43.087  55.076  18.114  1.00  0.00     0.051 C 
HETATM    8  C10 UNL     1      40.681  54.650  18.151  1.00  0.00     0.021 C 
HETATM    9  C11 UNL     1      40.264  55.979  18.729  1.00  0.00     0.013 C 
HETATM   10  C12 UNL     1      39.507  54.016  17.393  1.00  0.00     0.030 C 
HETATM   11  C13 UNL     1      39.395  52.543  17.551  1.00  0.00     0.082 C 
HETATM   12  C14 UNL     1      40.839  52.085  17.841  1.00  0.00     0.169 C 
HETATM   13  O3  UNL     1      41.071  51.508  18.906  1.00  0.00    -0.292 OA
HETATM   14  C15 UNL     1      38.401  52.113  18.538  1.00  0.00     0.276 C 
HETATM   15  O5  UNL     1      37.353  51.440  17.882  1.00  0.00    -0.354 OA
HETATM   16  C17 UNL     1      37.557  51.668  16.509  1.00  0.00     0.131 C 
HETATM   17  C24 UNL     1      39.034  51.690  16.396  1.00  0.00     0.046 C 
ENDROOT
BRANCH  16  18
HETATM   18  C18 UNL     1      36.750  52.785  16.004  1.00  0.00     0.036 C 
BRANCH  18  19
HETATM   19  C19 UNL     1      35.252  52.410  15.906  1.00  0.00     0.030 C 
BRANCH  19  20
HETATM   20  C20 UNL     1      35.021  51.343  14.897  1.00  0.00    -0.025 C 
HETATM   21  C21 UNL     1      33.789  50.968  14.566  1.00  0.00    -0.091 C 
HETATM   22  C22 UNL     1      33.578  49.905  13.561  1.00  0.00     0.042 C 
HETATM   23  C23 UNL     1      32.604  51.609  15.200  1.00  0.00     0.042 C 
ENDBRANCH  19  20
ENDBRANCH  18  19
ENDBRANCH  16  18
BRANCH  14  24
HETATM   24  O4  UNL     1      38.810  51.305  19.560  1.00  0.00    -0.365 OA
HETATM   25  C16 UNL     1      38.100  51.547  20.743  1.00  0.00     0.204 C 
ENDBRANCH  14  24
BRANCH   1  26
HETATM   26  C2  UNL     1      38.724  50.899  14.195  1.00  0.00    -0.029 C 
HETATM   27  C1  UNL     1      38.269  51.343  13.058  1.00  0.00     0.007 C 
ENDBRANCH   1  26
BRANCH   2  28
HETATM   28  O1  UNL     1      41.334  51.018  13.518  1.00  0.00    -0.395 OA
ATOM     29  H1  UNL     1      40.641  51.372  12.974  1.00  0.00     0.210 HD
ENDBRANCH   2  28
BRANCH   6  30
HETATM   30  O2  UNL     1      41.723  56.052  16.456  1.00  0.00    -0.386 OA
ATOM     31  H2  UNL     1      42.387  56.143  15.783  1.00  0.00     0.211 HD
ENDBRANCH   6  30
TORSDOF 7
ENDMDL
