MODEL 1
REMARK VINA RESULT: -6.909703590      0.000      0.000
REMARK  6 active torsions:
REMARK  status: ('A' for Active; 'I' for Inactive)
REMARK    1  A    between atoms: N1_1  and  N2_4 
REMARK    2  A    between atoms: N2_4  and  C1_6 
REMARK    3  A    between atoms: C2_11  and  S1_12 
REMARK    4  A    between atoms: S1_12  and  C3_13 
REMARK    5  A    between atoms: C3_13  and  C4_14 
REMARK       I    between atoms: C4_14  and  N5_16 
REMARK    6  A    between atoms: N5_16  and  C5_18 
ROOT
HETATM    1  C3  UNL     1       3.416   6.046  28.670  1.00  0.00     0.184 C 
ENDROOT
BRANCH   1   2
HETATM    2  S1  UNL     1       2.535   6.223  30.224  1.00  0.00    -0.094 SA
BRANCH   2   3
HETATM    3  C2  UNL     1       0.826   6.647  29.824  1.00  0.00     0.130 A 
HETATM    4  N4  UNL     1       0.334   7.100  28.680  1.00  0.00    -0.286 N 
HETATM    5  N3  UNL     1      -0.903   7.351  28.568  1.00  0.00    -0.277 N 
ATOM      6  H4  UNL     1       0.956   7.248  27.885  1.00  0.00     0.188 HD
HETATM    7  C1  UNL     1      -1.697   7.147  29.624  1.00  0.00     0.180 A 
ATOM      8  H3  UNL     1      -1.286   7.701  27.689  1.00  0.00     0.189 HD
HETATM    9  S2  UNL     1      -0.583   6.579  30.790  1.00  0.00    -0.025 SA
BRANCH   7  10
HETATM   10  N2  UNL     1      -2.993   7.341  29.720  1.00  0.00    -0.285 N 
ATOM     11  H2  UNL     1      -3.403   8.257  29.537  1.00  0.00     0.188 HD
BRANCH  10  12
HETATM   12  N1  UNL     1      -3.785   6.264  30.076  1.00  0.00    -0.343 N 
ATOM     13  H12 UNL     1      -3.852   5.453  29.461  1.00  0.00     0.176 HD
ATOM     14  H11 UNL     1      -4.287   6.313  30.962  1.00  0.00     0.176 HD
ENDBRANCH  10  12
ENDBRANCH   7  10
ENDBRANCH   2   3
ENDBRANCH   1   2
BRANCH   1  15
HETATM   15  C4  UNL     1       3.204   4.707  28.052  1.00  0.00     0.228 C 
HETATM   16  O1  UNL     1       3.978   3.790  28.421  1.00  0.00    -0.273 OA
HETATM   17  N5  UNL     1       2.166   4.528  27.096  1.00  0.00    -0.351 N 
ATOM     18  H5  UNL     1       1.584   5.328  26.851  1.00  0.00     0.163 HD
BRANCH  17  19
HETATM   19  C5  UNL     1       1.904   3.268  26.461  1.00  0.00     0.034 C 
HETATM   20  C6  UNL     1       0.743   3.415  25.491  1.00  0.00     0.035 C 
HETATM   21  C7  UNL     1       0.348   2.132  24.842  1.00  0.00    -0.012 C 
HETATM   22  C8  UNL     1       1.536   1.625  24.053  1.00  0.00     0.009 C 
HETATM   23  C12 UNL     1      -0.019   1.144  25.916  1.00  0.00     0.009 C 
HETATM   24  C9  UNL     1       2.680   1.459  25.016  1.00  0.00    -0.012 C 
HETATM   25  C10 UNL     1       2.371   0.444  26.086  1.00  0.00     0.009 C 
HETATM   26  C14 UNL     1       3.077   2.760  25.655  1.00  0.00     0.035 C 
HETATM   27  C11 UNL     1       1.154   0.914  26.828  1.00  0.00    -0.012 C 
HETATM   28  C13 UNL     1       1.479   2.239  27.485  1.00  0.00     0.035 C 
ENDBRANCH  17  19
ENDBRANCH   1  15
TORSDOF 6
ENDMDL
MODEL 2
REMARK VINA RESULT: -6.832868116      0.108      1.555
REMARK  6 active torsions:
REMARK  status: ('A' for Active; 'I' for Inactive)
REMARK    1  A    between atoms: N1_1  and  N2_4 
REMARK    2  A    between atoms: N2_4  and  C1_6 
REMARK    3  A    between atoms: C2_11  and  S1_12 
REMARK    4  A    between atoms: S1_12  and  C3_13 
REMARK    5  A    between atoms: C3_13  and  C4_14 
REMARK       I    between atoms: C4_14  and  N5_16 
REMARK    6  A    between atoms: N5_16  and  C5_18 
ROOT
HETATM    1  C3  UNL     1       3.412   5.973  28.670  1.00  0.00     0.184 C 
ENDROOT
BRANCH   1   2
HETATM    2  S1  UNL     1       2.534   6.207  30.217  1.00  0.00    -0.094 SA
BRANCH   2   3
HETATM    3  C2  UNL     1       0.824   6.619  29.803  1.00  0.00     0.130 A 
HETATM    4  N4  UNL     1       0.336   7.052  28.651  1.00  0.00    -0.286 N 
HETATM    5  N3  UNL     1      -0.902   7.297  28.530  1.00  0.00    -0.277 N 
ATOM      6  H4  UNL     1       0.960   7.190  27.856  1.00  0.00     0.188 HD
HETATM    7  C1  UNL     1      -1.700   7.107  29.586  1.00  0.00     0.180 A 
ATOM      8  H3  UNL     1      -1.282   7.632  27.644  1.00  0.00     0.189 HD
HETATM    9  S2  UNL     1      -0.588   6.561  30.765  1.00  0.00    -0.025 SA
BRANCH   7  10
HETATM   10  N2  UNL     1      -2.997   7.299  29.673  1.00  0.00    -0.285 N 
ATOM     11  H2  UNL     1      -3.409   8.209  29.470  1.00  0.00     0.188 HD
BRANCH  10  12
HETATM   12  N1  UNL     1      -3.785   6.226  30.050  1.00  0.00    -0.343 N 
ATOM     13  H12 UNL     1      -3.740   5.868  31.004  1.00  0.00     0.176 HD
ATOM     14  H11 UNL     1      -4.402   5.818  29.348  1.00  0.00     0.176 HD
ENDBRANCH  10  12
ENDBRANCH   7  10
ENDBRANCH   2   3
ENDBRANCH   1   2
BRANCH   1  15
HETATM   15  C4  UNL     1       3.111   4.655  28.045  1.00  0.00     0.228 C 
HETATM   16  O1  UNL     1       3.777   3.673  28.455  1.00  0.00    -0.273 OA
HETATM   17  N5  UNL     1       2.111   4.565  27.036  1.00  0.00    -0.351 N 
ATOM     18  H5  UNL     1       1.618   5.414  26.760  1.00  0.00     0.163 HD
BRANCH  17  19
HETATM   19  C5  UNL     1       1.767   3.330  26.391  1.00  0.00     0.034 C 
HETATM   20  C6  UNL     1       1.321   2.317  27.433  1.00  0.00     0.035 C 
HETATM   21  C7  UNL     1       1.019   0.974  26.859  1.00  0.00    -0.012 C 
HETATM   22  C8  UNL     1      -0.115   1.135  25.870  1.00  0.00     0.009 C 
HETATM   23  C12 UNL     1       2.248   0.463  26.158  1.00  0.00     0.009 C 
HETATM   24  C9  UNL     1       0.333   2.123  24.827  1.00  0.00    -0.012 C 
HETATM   25  C10 UNL     1       1.539   1.632  24.069  1.00  0.00     0.009 C 
HETATM   26  C14 UNL     1       0.623   3.475  25.414  1.00  0.00     0.035 C 
HETATM   27  C11 UNL     1       2.645   1.409  25.059  1.00  0.00    -0.012 C 
HETATM   28  C13 UNL     1       2.978   2.737  25.707  1.00  0.00     0.035 C 
ENDBRANCH  17  19
ENDBRANCH   1  15
TORSDOF 6
ENDMDL
MODEL 3
REMARK VINA RESULT: -6.817572668      0.090      1.578
REMARK  6 active torsions:
REMARK  status: ('A' for Active; 'I' for Inactive)
REMARK    1  A    between atoms: N1_1  and  N2_4 
REMARK    2  A    between atoms: N2_4  and  C1_6 
REMARK    3  A    between atoms: C2_11  and  S1_12 
REMARK    4  A    between atoms: S1_12  and  C3_13 
REMARK    5  A    between atoms: C3_13  and  C4_14 
REMARK       I    between atoms: C4_14  and  N5_16 
REMARK    6  A    between atoms: N5_16  and  C5_18 
ROOT
HETATM    1  C3  UNL     1       3.405   6.017  28.668  1.00  0.00     0.184 C 
ENDROOT
BRANCH   1   2
HETATM    2  S1  UNL     1       2.541   6.311  30.214  1.00  0.00    -0.094 SA
BRANCH   2   3
HETATM    3  C2  UNL     1       0.824   6.695  29.801  1.00  0.00     0.130 A 
HETATM    4  N4  UNL     1       0.330   7.128  28.652  1.00  0.00    -0.286 N 
HETATM    5  N3  UNL     1      -0.913   7.351  28.531  1.00  0.00    -0.277 N 
ATOM      6  H4  UNL     1       0.952   7.282  27.858  1.00  0.00     0.188 HD
HETATM    7  C1  UNL     1      -1.708   7.139  29.585  1.00  0.00     0.180 A 
ATOM      8  H3  UNL     1      -1.298   7.686  27.648  1.00  0.00     0.189 HD
HETATM    9  S2  UNL     1      -0.588   6.604  30.761  1.00  0.00    -0.025 SA
BRANCH   7  10
HETATM   10  N2  UNL     1      -3.008   7.306  29.672  1.00  0.00    -0.285 N 
ATOM     11  H2  UNL     1      -3.438   8.206  29.458  1.00  0.00     0.188 HD
BRANCH  10  12
HETATM   12  N1  UNL     1      -3.775   6.223  30.064  1.00  0.00    -0.343 N 
ATOM     13  H12 UNL     1      -4.754   6.162  29.784  1.00  0.00     0.176 HD
ATOM     14  H11 UNL     1      -3.329   5.504  30.633  1.00  0.00     0.176 HD
ENDBRANCH  10  12
ENDBRANCH   7  10
ENDBRANCH   2   3
ENDBRANCH   1   2
BRANCH   1  15
HETATM   15  C4  UNL     1       3.105   4.672  28.103  1.00  0.00     0.228 C 
HETATM   16  O1  UNL     1       3.759   3.708  28.570  1.00  0.00    -0.273 OA
HETATM   17  N5  UNL     1       2.121   4.539  27.083  1.00  0.00    -0.351 N 
ATOM     18  H5  UNL     1       1.638   5.376  26.759  1.00  0.00     0.163 HD
BRANCH  17  19
HETATM   19  C5  UNL     1       1.781   3.276  26.493  1.00  0.00     0.034 C 
HETATM   20  C6  UNL     1       2.971   2.737  25.716  1.00  0.00     0.035 C 
HETATM   21  C7  UNL     1       2.681   1.461  25.001  1.00  0.00    -0.012 C 
HETATM   22  C8  UNL     1       2.309   0.422  26.036  1.00  0.00     0.009 C 
HETATM   23  C12 UNL     1       1.530   1.689  24.059  1.00  0.00     0.009 C 
HETATM   24  C9  UNL     1       1.118   0.945  26.793  1.00  0.00    -0.012 C 
HETATM   25  C10 UNL     1      -0.075   1.148  25.893  1.00  0.00     0.009 C 
HETATM   26  C14 UNL     1       1.424   2.224  27.518  1.00  0.00     0.035 C 
HETATM   27  C11 UNL     1       0.315   2.130  24.827  1.00  0.00    -0.012 C 
HETATM   28  C13 UNL     1       0.658   3.445  25.494  1.00  0.00     0.035 C 
ENDBRANCH  17  19
ENDBRANCH   1  15
TORSDOF 6
ENDMDL
MODEL 4
REMARK VINA RESULT: -6.711262105      1.097      1.885
REMARK  6 active torsions:
REMARK  status: ('A' for Active; 'I' for Inactive)
REMARK    1  A    between atoms: N1_1  and  N2_4 
REMARK    2  A    between atoms: N2_4  and  C1_6 
REMARK    3  A    between atoms: C2_11  and  S1_12 
REMARK    4  A    between atoms: S1_12  and  C3_13 
REMARK    5  A    between atoms: C3_13  and  C4_14 
REMARK       I    between atoms: C4_14  and  N5_16 
REMARK    6  A    between atoms: N5_16  and  C5_18 
ROOT
HETATM    1  C3  UNL     1       3.969   4.746  28.847  1.00  0.00     0.184 C 
ENDROOT
BRANCH   1   2
HETATM    2  S1  UNL     1       3.401   6.444  28.970  1.00  0.00    -0.094 SA
BRANCH   2   3
HETATM    3  C2  UNL     1       1.595   6.402  28.991  1.00  0.00     0.130 A 
HETATM    4  N4  UNL     1       0.754   6.580  27.983  1.00  0.00    -0.286 N 
HETATM    5  N3  UNL     1      -0.498   6.517  28.173  1.00  0.00    -0.277 N 
ATOM      6  H4  UNL     1       1.116   6.767  27.048  1.00  0.00     0.188 HD
HETATM    7  C1  UNL     1      -0.948   6.268  29.407  1.00  0.00     0.180 A 
ATOM      8  H3  UNL     1      -1.149   6.655  27.400  1.00  0.00     0.189 HD
HETATM    9  S2  UNL     1       0.512   6.128  30.286  1.00  0.00    -0.025 SA
BRANCH   7  10
HETATM   10  N2  UNL     1      -2.192   6.164  29.816  1.00  0.00    -0.285 N 
ATOM     11  H2  UNL     1      -2.563   5.275  30.150  1.00  0.00     0.188 HD
BRANCH  10  12
HETATM   12  N1  UNL     1      -2.983   7.298  29.778  1.00  0.00    -0.343 N 
ATOM     13  H12 UNL     1      -2.774   8.046  29.117  1.00  0.00     0.176 HD
ATOM     14  H11 UNL     1      -3.769   7.354  30.425  1.00  0.00     0.176 HD
ENDBRANCH  10  12
ENDBRANCH   7  10
ENDBRANCH   2   3
ENDBRANCH   1   2
BRANCH   1  15
HETATM   15  C4  UNL     1       3.401   4.047  27.660  1.00  0.00     0.228 C 
HETATM   16  O1  UNL     1       3.777   4.455  26.534  1.00  0.00    -0.273 OA
HETATM   17  N5  UNL     1       2.481   2.977  27.846  1.00  0.00    -0.351 N 
ATOM     18  H5  UNL     1       2.227   2.710  28.797  1.00  0.00     0.163 HD
BRANCH  17  19
HETATM   19  C5  UNL     1       1.895   2.258  26.751  1.00  0.00     0.034 C 
HETATM   20  C6  UNL     1       1.108   1.071  27.282  1.00  0.00     0.035 C 
HETATM   21  C7  UNL     1       0.527   0.218  26.205  1.00  0.00    -0.012 C 
HETATM   22  C8  UNL     1      -0.429   1.071  25.400  1.00  0.00     0.009 C 
HETATM   23  C12 UNL     1       1.646  -0.276  25.328  1.00  0.00     0.009 C 
HETATM   24  C9  UNL     1       0.355   2.236  24.857  1.00  0.00    -0.012 C 
HETATM   25  C10 UNL     1       1.461   1.789  23.936  1.00  0.00     0.009 C 
HETATM   26  C14 UNL     1       0.924   3.095  25.950  1.00  0.00     0.035 C 
HETATM   27  C11 UNL     1       2.374   0.889  24.717  1.00  0.00    -0.012 C 
HETATM   28  C13 UNL     1       2.973   1.691  25.855  1.00  0.00     0.035 C 
ENDBRANCH  17  19
ENDBRANCH   1  15
TORSDOF 6
ENDMDL
MODEL 5
REMARK VINA RESULT: -6.666478662      1.186      1.265
REMARK  6 active torsions:
REMARK  status: ('A' for Active; 'I' for Inactive)
REMARK    1  A    between atoms: N1_1  and  N2_4 
REMARK    2  A    between atoms: N2_4  and  C1_6 
REMARK    3  A    between atoms: C2_11  and  S1_12 
REMARK    4  A    between atoms: S1_12  and  C3_13 
REMARK    5  A    between atoms: C3_13  and  C4_14 
REMARK       I    between atoms: C4_14  and  N5_16 
REMARK    6  A    between atoms: N5_16  and  C5_18 
ROOT
HETATM    1  C3  UNL     1       3.861   4.544  28.994  1.00  0.00     0.184 C 
ENDROOT
BRANCH   1   2
HETATM    2  S1  UNL     1       3.516   6.305  28.996  1.00  0.00    -0.094 SA
BRANCH   2   3
HETATM    3  C2  UNL     1       1.726   6.498  28.849  1.00  0.00     0.130 A 
HETATM    4  N4  UNL     1       0.978   6.456  27.757  1.00  0.00    -0.286 N 
HETATM    5  N3  UNL     1      -0.277   6.614  27.832  1.00  0.00    -0.277 N 
ATOM      6  H4  UNL     1       1.416   6.294  26.849  1.00  0.00     0.188 HD
HETATM    7  C1  UNL     1      -0.827   6.822  29.033  1.00  0.00     0.180 A 
ATOM      8  H3  UNL     1      -0.857   6.583  26.993  1.00  0.00     0.189 HD
HETATM    9  S2  UNL     1       0.545   6.782  30.052  1.00  0.00    -0.025 SA
BRANCH   7  10
HETATM   10  N2  UNL     1      -2.093   7.008  29.329  1.00  0.00    -0.285 N 
ATOM     11  H2  UNL     1      -2.593   7.836  29.004  1.00  0.00     0.188 HD
BRANCH  10  12
HETATM   12  N1  UNL     1      -2.727   6.046  30.095  1.00  0.00    -0.343 N 
ATOM     13  H12 UNL     1      -2.708   5.068  29.806  1.00  0.00     0.176 HD
ATOM     14  H11 UNL     1      -3.204   6.350  30.944  1.00  0.00     0.176 HD
ENDBRANCH  10  12
ENDBRANCH   7  10
ENDBRANCH   2   3
ENDBRANCH   1   2
BRANCH   1  15
HETATM   15  C4  UNL     1       3.303   3.862  27.793  1.00  0.00     0.228 C 
HETATM   16  O1  UNL     1       3.533   4.402  26.683  1.00  0.00    -0.273 OA
HETATM   17  N5  UNL     1       2.553   2.662  27.948  1.00  0.00    -0.351 N 
ATOM     18  H5  UNL     1       2.412   2.293  28.887  1.00  0.00     0.163 HD
BRANCH  17  19
HETATM   19  C5  UNL     1       1.987   1.952  26.837  1.00  0.00     0.034 C 
HETATM   20  C6  UNL     1       0.973   2.835  26.128  1.00  0.00     0.035 C 
HETATM   21  C7  UNL     1       0.275   2.148  25.004  1.00  0.00    -0.012 C 
HETATM   22  C8  UNL     1       1.318   1.746  23.983  1.00  0.00     0.009 C 
HETATM   23  C12 UNL     1      -0.418   0.925  25.544  1.00  0.00     0.009 C 
HETATM   24  C9  UNL     1       2.310   0.855  24.680  1.00  0.00    -0.012 C 
HETATM   25  C10 UNL     1       1.667  -0.404  25.200  1.00  0.00     0.009 C 
HETATM   26  C14 UNL     1       3.017   1.561  25.802  1.00  0.00     0.035 C 
HETATM   27  C11 UNL     1       0.588  -0.005  26.164  1.00  0.00    -0.012 C 
HETATM   28  C13 UNL     1       1.231   0.734  27.319  1.00  0.00     0.035 C 
ENDBRANCH  17  19
ENDBRANCH   1  15
TORSDOF 6
ENDMDL
