MODEL 1
REMARK VINA RESULT: -6.340629772      0.000      0.000
REMARK  5 active torsions:
REMARK  status: ('A' for Active; 'I' for Inactive)
REMARK    1  A    between atoms: C2_2  and  N1_5 
REMARK    2  A    between atoms: C5_8  and  O1_9 
REMARK    3  A    between atoms: O1_9  and  C6_10 
REMARK    4  A    between atoms: C6_10  and  C7_11 
REMARK    5  A    between atoms: C7_11  and  C8_12 
ROOT
HETATM    1  C8  UNL     1       1.151   1.309  24.827  1.00  0.00     0.126 C 
HETATM    2  C9  UNL     1       2.572   1.094  24.689  1.00  0.00     0.059 C 
HETATM    3  N3  UNL     1       3.719   0.932  24.592  1.00  0.00    -0.197 NA
ENDROOT
BRANCH   1   4
HETATM    4  C7  UNL     1       0.846   2.812  24.827  1.00  0.00     0.041 C 
BRANCH   4   5
HETATM    5  C6  UNL     1       0.891   3.340  26.241  1.00  0.00     0.178 C 
BRANCH   5   6
HETATM    6  O1  UNL     1       2.035   4.097  26.519  1.00  0.00    -0.334 OA
BRANCH   6   7
HETATM    7  C5  UNL     1       2.937   3.666  27.462  1.00  0.00     0.168 A 
HETATM    8  N2  UNL     1       3.923   2.754  27.409  1.00  0.00    -0.276 N 
HETATM    9  N1  UNL     1       4.555   2.649  28.562  1.00  0.00    -0.283 N 
ATOM     10  H2  UNL     1       4.154   2.210  26.578  1.00  0.00     0.189 HD
HETATM   11  C11 UNL     1       3.949   3.541  29.409  1.00  0.00     0.068 A 
HETATM   12  C10 UNL     1       2.936   4.197  28.766  1.00  0.00     0.050 A 
HETATM   13  C12 UNL     1       4.317   3.788  30.844  1.00  0.00     0.291 C 
HETATM   14  C14 UNL     1       2.082   5.225  29.403  1.00  0.00     0.091 C 
HETATM   15  C13 UNL     1       2.696   5.547  30.744  1.00  0.00     0.268 C 
HETATM   16  C15 UNL     1       2.014   6.495  28.612  1.00  0.00     0.075 C 
HETATM   17  N6  UNL     1       0.796   4.622  29.660  1.00  0.00    -0.365 N 
HETATM   18  N4  UNL     1       3.136   4.380  31.458  1.00  0.00    -0.067 N 
ATOM     19  H42 UNL     1       2.385   3.697  31.554  1.00  0.00     0.277 HD
ATOM     20  H41 UNL     1       3.292   4.584  32.445  1.00  0.00     0.277 HD
HETATM   21  C16 UNL     1       0.691   7.154  28.551  1.00  0.00     0.179 C 
HETATM   22  F1  UNL     1       0.394   7.880  29.705  1.00  0.00    -0.249 F 
HETATM   23  C17 UNL     1      -0.451   6.225  28.245  1.00  0.00     0.113 C 
HETATM   24  C18 UNL     1      -0.456   5.188  29.312  1.00  0.00     0.074 C 
HETATM   25  N5  UNL     1      -1.561   4.832  29.883  1.00  0.00    -0.389 N 
ATOM     26  H52 UNL     1      -2.462   5.239  29.633  1.00  0.00     0.157 HD
ATOM     27  H51 UNL     1      -1.565   4.121  30.614  1.00  0.00     0.157 HD
ATOM     28  H6  UNL     1       0.788   3.716  30.129  1.00  0.00     0.162 HD
BRANCH   9  29
HETATM   29  C2  UNL     1       5.676   1.772  28.896  1.00  0.00     0.043 C 
HETATM   30  C1  UNL     1       5.969   0.934  27.668  1.00  0.00     0.039 C 
HETATM   31  C3  UNL     1       5.389   0.881  30.053  1.00  0.00     0.039 C 
HETATM   32  C4  UNL     1       6.932   2.612  29.167  1.00  0.00     0.039 C 
ENDBRANCH   9  29
ENDBRANCH   6   7
ENDBRANCH   5   6
ENDBRANCH   4   5
ENDBRANCH   1   4
TORSDOF 5
ENDMDL
MODEL 2
REMARK VINA RESULT: -6.332910710      1.359      1.531
REMARK  5 active torsions:
REMARK  status: ('A' for Active; 'I' for Inactive)
REMARK    1  A    between atoms: C2_2  and  N1_5 
REMARK    2  A    between atoms: C5_8  and  O1_9 
REMARK    3  A    between atoms: O1_9  and  C6_10 
REMARK    4  A    between atoms: C6_10  and  C7_11 
REMARK    5  A    between atoms: C7_11  and  C8_12 
ROOT
HETATM    1  C8  UNL     1       2.165   1.799  26.285  1.00  0.00     0.126 C 
HETATM    2  C9  UNL     1       3.088   1.230  25.333  1.00  0.00     0.059 C 
HETATM    3  N3  UNL     1       3.844   0.783  24.571  1.00  0.00    -0.197 NA
ENDROOT
BRANCH   1   4
HETATM    4  C7  UNL     1       2.066   3.316  26.075  1.00  0.00     0.041 C 
BRANCH   4   5
HETATM    5  C6  UNL     1       3.451   3.912  26.004  1.00  0.00     0.178 C 
BRANCH   5   6
HETATM    6  O1  UNL     1       3.825   4.596  27.166  1.00  0.00    -0.334 OA
BRANCH   6   7
HETATM    7  C5  UNL     1       4.481   3.936  28.177  1.00  0.00     0.168 A 
HETATM    8  N2  UNL     1       5.592   3.180  28.181  1.00  0.00    -0.276 N 
HETATM    9  N1  UNL     1       5.874   2.730  29.388  1.00  0.00    -0.283 N 
ATOM     10  H2  UNL     1       6.151   2.980  27.350  1.00  0.00     0.189 HD
HETATM   11  C11 UNL     1       4.894   3.218  30.213  1.00  0.00     0.068 A 
HETATM   12  C10 UNL     1       4.006   3.976  29.501  1.00  0.00     0.050 A 
HETATM   13  C12 UNL     1       4.780   2.977  31.691  1.00  0.00     0.291 C 
HETATM   14  C14 UNL     1       2.828   4.647  30.098  1.00  0.00     0.091 C 
HETATM   15  C13 UNL     1       2.959   4.527  31.597  1.00  0.00     0.268 C 
HETATM   16  C15 UNL     1       2.755   6.103  29.758  1.00  0.00     0.075 C 
HETATM   17  N6  UNL     1       1.659   3.893  29.713  1.00  0.00    -0.365 N 
HETATM   18  N4  UNL     1       3.384   3.222  32.024  1.00  0.00    -0.067 N 
ATOM     19  H42 UNL     1       2.778   2.492  31.650  1.00  0.00     0.277 HD
ATOM     20  H41 UNL     1       3.208   3.080  33.019  1.00  0.00     0.277 HD
HETATM   21  C16 UNL     1       1.407   6.636  29.462  1.00  0.00     0.179 C 
HETATM   22  F1  UNL     1       0.660   6.887  30.614  1.00  0.00    -0.249 F 
HETATM   23  C17 UNL     1       0.596   5.785  28.524  1.00  0.00     0.113 C 
HETATM   24  C18 UNL     1       0.477   4.444  29.158  1.00  0.00     0.074 C 
HETATM   25  N5  UNL     1      -0.659   3.826  29.189  1.00  0.00    -0.389 N 
ATOM     26  H52 UNL     1      -1.509   4.222  28.789  1.00  0.00     0.157 HD
ATOM     27  H51 UNL     1      -0.740   2.906  29.623  1.00  0.00     0.157 HD
ATOM     28  H6  UNL     1       1.685   2.883  29.852  1.00  0.00     0.162 HD
BRANCH   9  29
HETATM   29  C2  UNL     1       6.995   1.882  29.792  1.00  0.00     0.043 C 
HETATM   30  C1  UNL     1       7.777   1.547  28.539  1.00  0.00     0.039 C 
HETATM   31  C3  UNL     1       6.558   0.625  30.460  1.00  0.00     0.039 C 
HETATM   32  C4  UNL     1       7.942   2.671  30.706  1.00  0.00     0.039 C 
ENDBRANCH   9  29
ENDBRANCH   6   7
ENDBRANCH   5   6
ENDBRANCH   4   5
ENDBRANCH   1   4
TORSDOF 5
ENDMDL
MODEL 3
REMARK VINA RESULT: -6.073587453      2.080      4.514
REMARK  5 active torsions:
REMARK  status: ('A' for Active; 'I' for Inactive)
REMARK    1  A    between atoms: C2_2  and  N1_5 
REMARK    2  A    between atoms: C5_8  and  O1_9 
REMARK    3  A    between atoms: O1_9  and  C6_10 
REMARK    4  A    between atoms: C6_10  and  C7_11 
REMARK    5  A    between atoms: C7_11  and  C8_12 
ROOT
HETATM    1  C8  UNL     1       6.254   2.015  28.677  1.00  0.00     0.126 C 
HETATM    2  C9  UNL     1       5.658   1.544  27.450  1.00  0.00     0.059 C 
HETATM    3  N3  UNL     1       5.173   1.181  26.458  1.00  0.00    -0.197 NA
ENDROOT
BRANCH   1   4
HETATM    4  C7  UNL     1       5.241   2.860  29.461  1.00  0.00     0.041 C 
BRANCH   4   5
HETATM    5  C6  UNL     1       4.273   1.955  30.183  1.00  0.00     0.178 C 
BRANCH   5   6
HETATM    6  O1  UNL     1       2.930   2.268  29.943  1.00  0.00    -0.334 OA
BRANCH   6   7
HETATM    7  C5  UNL     1       2.362   1.989  28.722  1.00  0.00     0.168 A 
HETATM    8  N2  UNL     1       2.325   0.866  27.987  1.00  0.00    -0.276 N 
HETATM    9  N1  UNL     1       1.665   1.041  26.858  1.00  0.00    -0.283 N 
ATOM     10  H2  UNL     1       2.755  -0.016  28.267  1.00  0.00     0.189 HD
HETATM   11  C11 UNL     1       1.250   2.348  26.861  1.00  0.00     0.068 A 
HETATM   12  C10 UNL     1       1.662   2.977  28.004  1.00  0.00     0.050 A 
HETATM   13  C12 UNL     1       0.457   3.027  25.782  1.00  0.00     0.291 C 
HETATM   14  C14 UNL     1       1.378   4.396  28.315  1.00  0.00     0.091 C 
HETATM   15  C13 UNL     1       0.389   4.889  27.285  1.00  0.00     0.268 C 
HETATM   16  C15 UNL     1       0.763   4.583  29.667  1.00  0.00     0.075 C 
HETATM   17  N6  UNL     1       2.601   5.137  28.116  1.00  0.00    -0.365 N 
HETATM   18  N4  UNL     1       0.700   4.453  25.951  1.00  0.00    -0.067 N 
ATOM     19  H42 UNL     1       1.654   4.701  25.691  1.00  0.00     0.277 HD
ATOM     20  H41 UNL     1       0.197   5.002  25.253  1.00  0.00     0.277 HD
HETATM   21  C16 UNL     1       1.233   5.754  30.440  1.00  0.00     0.179 C 
HETATM   22  F1  UNL     1       0.640   6.948  30.027  1.00  0.00    -0.249 F 
HETATM   23  C17 UNL     1       2.726   5.925  30.459  1.00  0.00     0.113 C 
HETATM   24  C18 UNL     1       3.160   6.054  29.041  1.00  0.00     0.074 C 
HETATM   25  N5  UNL     1       4.009   6.964  28.689  1.00  0.00    -0.389 N 
ATOM     26  H52 UNL     1       4.412   7.624  29.354  1.00  0.00     0.157 HD
ATOM     27  H51 UNL     1       4.307   7.051  27.717  1.00  0.00     0.157 HD
ATOM     28  H6  UNL     1       3.102   4.988  27.241  1.00  0.00     0.162 HD
BRANCH   9  29
HETATM   29  C2  UNL     1       1.412   0.061  25.803  1.00  0.00     0.043 C 
HETATM   30  C1  UNL     1       1.923   0.657  24.508  1.00  0.00     0.039 C 
HETATM   31  C3  UNL     1      -0.031  -0.279  25.663  1.00  0.00     0.039 C 
HETATM   32  C4  UNL     1       2.237  -1.207  26.061  1.00  0.00     0.039 C 
ENDBRANCH   9  29
ENDBRANCH   6   7
ENDBRANCH   5   6
ENDBRANCH   4   5
ENDBRANCH   1   4
TORSDOF 5
ENDMDL
MODEL 4
REMARK VINA RESULT: -5.920779875      2.123      4.942
REMARK  5 active torsions:
REMARK  status: ('A' for Active; 'I' for Inactive)
REMARK    1  A    between atoms: C2_2  and  N1_5 
REMARK    2  A    between atoms: C5_8  and  O1_9 
REMARK    3  A    between atoms: O1_9  and  C6_10 
REMARK    4  A    between atoms: C6_10  and  C7_11 
REMARK    5  A    between atoms: C7_11  and  C8_12 
ROOT
HETATM    1  C8  UNL     1       6.872   2.078  28.617  1.00  0.00     0.126 C 
HETATM    2  C9  UNL     1       7.929   2.521  29.495  1.00  0.00     0.059 C 
HETATM    3  N3  UNL     1       8.770   2.874  30.216  1.00  0.00    -0.197 NA
ENDROOT
BRANCH   1   4
HETATM    4  C7  UNL     1       5.569   2.813  28.955  1.00  0.00     0.041 C 
BRANCH   4   5
HETATM    5  C6  UNL     1       4.677   1.915  29.780  1.00  0.00     0.178 C 
BRANCH   5   6
HETATM    6  O1  UNL     1       3.314   2.199  29.638  1.00  0.00    -0.334 OA
BRANCH   6   7
HETATM    7  C5  UNL     1       2.688   2.002  28.430  1.00  0.00     0.168 A 
HETATM    8  N2  UNL     1       2.676   0.955  27.588  1.00  0.00    -0.276 N 
HETATM    9  N1  UNL     1       1.935   1.192  26.523  1.00  0.00    -0.283 N 
ATOM     10  H2  UNL     1       3.179   0.083  27.752  1.00  0.00     0.189 HD
HETATM   11  C11 UNL     1       1.438   2.461  26.682  1.00  0.00     0.068 A 
HETATM   12  C10 UNL     1       1.881   3.002  27.857  1.00  0.00     0.050 A 
HETATM   13  C12 UNL     1       0.536   3.184  25.724  1.00  0.00     0.291 C 
HETATM   14  C14 UNL     1       1.528   4.362  28.326  1.00  0.00     0.091 C 
HETATM   15  C13 UNL     1       0.445   4.881  27.410  1.00  0.00     0.268 C 
HETATM   16  C15 UNL     1       0.991   4.373  29.723  1.00  0.00     0.075 C 
HETATM   17  N6  UNL     1       2.685   5.202  28.133  1.00  0.00    -0.365 N 
HETATM   18  N4  UNL     1       0.697   4.600  26.023  1.00  0.00    -0.067 N 
ATOM     19  H42 UNL     1       1.615   4.939  25.735  1.00  0.00     0.277 HD
ATOM     20  H41 UNL     1       0.117   5.178  25.414  1.00  0.00     0.277 HD
HETATM   21  C16 UNL     1       1.433   5.493  30.582  1.00  0.00     0.179 C 
HETATM   22  F1  UNL     1       0.739   6.677  30.327  1.00  0.00    -0.249 F 
HETATM   23  C17 UNL     1       2.911   5.766  30.532  1.00  0.00     0.113 C 
HETATM   24  C18 UNL     1       3.243   6.061  29.112  1.00  0.00     0.074 C 
HETATM   25  N5  UNL     1       4.008   7.059  28.805  1.00  0.00    -0.389 N 
ATOM     26  H52 UNL     1       4.409   7.678  29.510  1.00  0.00     0.157 HD
ATOM     27  H51 UNL     1       4.236   7.261  27.832  1.00  0.00     0.157 HD
ATOM     28  H6  UNL     1       3.138   5.174  27.219  1.00  0.00     0.162 HD
BRANCH   9  29
HETATM   29  C2  UNL     1       1.677   0.304  25.390  1.00  0.00     0.043 C 
HETATM   30  C1  UNL     1       2.798  -0.715  25.358  1.00  0.00     0.039 C 
HETATM   31  C3  UNL     1       1.620   1.026  24.090  1.00  0.00     0.039 C 
HETATM   32  C4  UNL     1       0.377  -0.477  25.626  1.00  0.00     0.039 C 
ENDBRANCH   9  29
ENDBRANCH   6   7
ENDBRANCH   5   6
ENDBRANCH   4   5
ENDBRANCH   1   4
TORSDOF 5
ENDMDL
MODEL 5
REMARK VINA RESULT: -5.903445917      3.068      5.682
REMARK  5 active torsions:
REMARK  status: ('A' for Active; 'I' for Inactive)
REMARK    1  A    between atoms: C2_2  and  N1_5 
REMARK    2  A    between atoms: C5_8  and  O1_9 
REMARK    3  A    between atoms: O1_9  and  C6_10 
REMARK    4  A    between atoms: C6_10  and  C7_11 
REMARK    5  A    between atoms: C7_11  and  C8_12 
ROOT
HETATM    1  C8  UNL     1       1.916   5.570  30.108  1.00  0.00     0.126 C 
HETATM    2  C9  UNL     1       1.971   6.353  28.897  1.00  0.00     0.059 C 
HETATM    3  N3  UNL     1       2.028   6.974  27.916  1.00  0.00    -0.197 NA
ENDROOT
BRANCH   1   4
HETATM    4  C7  UNL     1       3.328   5.387  30.678  1.00  0.00     0.041 C 
BRANCH   4   5
HETATM    5  C6  UNL     1       3.334   4.246  31.667  1.00  0.00     0.178 C 
BRANCH   5   6
HETATM    6  O1  UNL     1       3.817   3.046  31.133  1.00  0.00    -0.334 OA
BRANCH   6   7
HETATM    7  C5  UNL     1       5.159   2.755  31.188  1.00  0.00     0.168 A 
HETATM    8  N2  UNL     1       6.050   2.822  32.192  1.00  0.00    -0.276 N 
HETATM    9  N1  UNL     1       7.253   2.445  31.805  1.00  0.00    -0.283 N 
ATOM     10  H2  UNL     1       5.822   3.127  33.139  1.00  0.00     0.189 HD
HETATM   11  C11 UNL     1       7.139   2.115  30.479  1.00  0.00     0.068 A 
HETATM   12  C10 UNL     1       5.851   2.292  30.053  1.00  0.00     0.050 A 
HETATM   13  C12 UNL     1       8.246   1.627  29.590  1.00  0.00     0.291 C 
HETATM   14  C14 UNL     1       5.394   2.026  28.670  1.00  0.00     0.091 C 
HETATM   15  C13 UNL     1       6.524   1.326  27.954  1.00  0.00     0.268 C 
HETATM   16  C15 UNL     1       4.193   1.133  28.617  1.00  0.00     0.075 C 
HETATM   17  N6  UNL     1       5.208   3.302  28.022  1.00  0.00    -0.365 N 
HETATM   18  N4  UNL     1       7.811   1.906  28.229  1.00  0.00    -0.067 N 
ATOM     19  H42 UNL     1       7.817   2.906  28.033  1.00  0.00     0.277 HD
ATOM     20  H41 UNL     1       8.507   1.606  27.546  1.00  0.00     0.277 HD
HETATM   21  C16 UNL     1       3.167   1.481  27.610  1.00  0.00     0.179 C 
HETATM   22  F1  UNL     1       3.509   1.065  26.323  1.00  0.00    -0.249 F 
HETATM   23  C17 UNL     1       2.801   2.939  27.577  1.00  0.00     0.113 C 
HETATM   24  C18 UNL     1       4.054   3.689  27.295  1.00  0.00     0.074 C 
HETATM   25  N5  UNL     1       4.071   4.646  26.424  1.00  0.00    -0.389 N 
ATOM     26  H52 UNL     1       3.241   4.924  25.901  1.00  0.00     0.157 HD
ATOM     27  H51 UNL     1       4.930   5.160  26.231  1.00  0.00     0.157 HD
ATOM     28  H6  UNL     1       5.967   3.980  28.093  1.00  0.00     0.162 HD
BRANCH   9  29
HETATM   29  C2  UNL     1       8.476   2.382  32.604  1.00  0.00     0.043 C 
HETATM   30  C1  UNL     1       8.200   3.113  33.902  1.00  0.00     0.039 C 
HETATM   31  C3  UNL     1       9.646   2.999  31.922  1.00  0.00     0.039 C 
HETATM   32  C4  UNL     1       8.781   0.924  32.975  1.00  0.00     0.039 C 
ENDBRANCH   9  29
ENDBRANCH   6   7
ENDBRANCH   5   6
ENDBRANCH   4   5
ENDBRANCH   1   4
TORSDOF 5
ENDMDL
