MODEL 1
REMARK VINA RESULT: -6.702741247      0.000      0.000
REMARK  6 active torsions:
REMARK  status: ('A' for Active; 'I' for Inactive)
REMARK    1  A    between atoms: C2_2  and  C4_4 
REMARK    2  A    between atoms: C4_4  and  C5_5 
REMARK    3  A    between atoms: C5_5  and  C6_6 
REMARK    4  A    between atoms: C6_6  and  O1_7 
REMARK    5  A    between atoms: C12_14  and  O2_16 
REMARK    6  A    between atoms: C17_24  and  O5_26 
ROOT
HETATM    1  C6  UNL     1       1.725   3.150  27.188  1.00  0.00     0.089 C 
HETATM    2  C7  UNL     1       2.014   4.578  27.472  1.00  0.00     0.056 C 
HETATM    3  C8  UNL     1       0.898   5.332  28.099  1.00  0.00     0.019 C 
HETATM    4  C9  UNL     1      -0.160   5.661  27.053  1.00  0.00     0.021 C 
HETATM    5  C10 UNL     1       0.243   4.616  29.257  1.00  0.00     0.016 C 
HETATM    6  C11 UNL     1      -0.227   3.273  28.775  1.00  0.00     0.046 C 
HETATM    7  C12 UNL     1       0.851   2.449  28.162  1.00  0.00     0.085 C 
HETATM    8  C13 UNL     1       0.169   1.285  27.429  1.00  0.00     0.049 C 
HETATM    9  C14 UNL     1      -0.900   5.451  29.709  1.00  0.00     0.113 C 
HETATM   10  C15 UNL     1      -1.083   5.623  31.186  1.00  0.00     0.187 C 
HETATM   11  O3  UNL     1      -0.552   6.905  31.069  1.00  0.00    -0.328 OA
HETATM   12  C16 UNL     1      -0.705   6.906  29.685  1.00  0.00     0.328 C 
HETATM   13  F1  UNL     1      -1.917   7.555  29.392  1.00  0.00    -0.180 F 
HETATM   14  O4  UNL     1       0.289   7.420  28.941  1.00  0.00    -0.292 OA
HETATM   15  C17 UNL     1       1.376   6.653  28.669  1.00  0.00     0.172 C 
HETATM   16  C18 UNL     1       2.330   6.481  29.803  1.00  0.00     0.080 C 
ENDROOT
BRANCH   1  17
HETATM   17  C5  UNL     1       3.062   2.410  27.097  1.00  0.00     0.041 C 
BRANCH  17  18
HETATM   18  C4  UNL     1       3.310   2.115  25.658  1.00  0.00     0.007 C 
BRANCH  18  19
HETATM   19  C2  UNL     1       3.781   0.700  25.412  1.00  0.00    -0.023 C 
HETATM   20  C1  UNL     1       4.483   0.110  26.591  1.00  0.00     0.009 C 
HETATM   21  C3  UNL     1       2.580  -0.122  25.005  1.00  0.00     0.009 C 
ENDBRANCH  18  19
ENDBRANCH  17  18
ENDBRANCH   1  17
BRANCH   1  22
HETATM   22  O1  UNL     1       1.145   3.021  25.914  1.00  0.00    -0.387 OA
ATOM     23  H1  UNL     1       0.437   2.397  26.024  1.00  0.00     0.210 HD
ENDBRANCH   1  22
BRANCH   7  24
HETATM   24  O2  UNL     1       1.599   1.866  29.183  1.00  0.00    -0.387 OA
ATOM     25  H2  UNL     1       1.428   2.288  30.018  1.00  0.00     0.210 HD
ENDBRANCH   7  24
BRANCH  15  26
HETATM   26  O5  UNL     1       2.083   7.282  27.615  1.00  0.00    -0.365 OA
ATOM     27  H5  UNL     1       2.750   7.808  28.039  1.00  0.00     0.213 HD
ENDBRANCH  15  26
TORSDOF 6
ENDMDL
MODEL 2
REMARK VINA RESULT: -6.669794388      1.357      1.414
REMARK  6 active torsions:
REMARK  status: ('A' for Active; 'I' for Inactive)
REMARK    1  A    between atoms: C2_2  and  C4_4 
REMARK    2  A    between atoms: C4_4  and  C5_5 
REMARK    3  A    between atoms: C5_5  and  C6_6 
REMARK    4  A    between atoms: C6_6  and  O1_7 
REMARK    5  A    between atoms: C12_14  and  O2_16 
REMARK    6  A    between atoms: C17_24  and  O5_26 
ROOT
HETATM    1  C6  UNL     1       2.064   3.030  27.221  1.00  0.00     0.089 C 
HETATM    2  C7  UNL     1       2.206   4.505  27.303  1.00  0.00     0.056 C 
HETATM    3  C8  UNL     1       1.510   5.141  28.451  1.00  0.00     0.019 C 
HETATM    4  C9  UNL     1       0.013   5.210  28.178  1.00  0.00     0.021 C 
HETATM    5  C10 UNL     1       1.741   4.449  29.773  1.00  0.00     0.016 C 
HETATM    6  C11 UNL     1       1.327   3.011  29.630  1.00  0.00     0.046 C 
HETATM    7  C12 UNL     1       2.012   2.302  28.514  1.00  0.00     0.085 C 
HETATM    8  C13 UNL     1       1.256   0.986  28.283  1.00  0.00     0.049 C 
HETATM    9  C14 UNL     1       0.913   5.143  30.792  1.00  0.00     0.113 C 
HETATM   10  C15 UNL     1       1.549   5.424  32.119  1.00  0.00     0.187 C 
HETATM   11  O3  UNL     1       1.692   6.754  31.731  1.00  0.00    -0.328 OA
HETATM   12  C16 UNL     1       0.803   6.602  30.670  1.00  0.00     0.328 C 
HETATM   13  F1  UNL     1      -0.460   7.034  31.110  1.00  0.00    -0.180 F 
HETATM   14  O4  UNL     1       1.113   7.186  29.501  1.00  0.00    -0.292 OA
HETATM   15  C17 UNL     1       1.982   6.566  28.662  1.00  0.00     0.172 C 
HETATM   16  C18 UNL     1       3.417   6.645  29.067  1.00  0.00     0.080 C 
ENDROOT
BRANCH   1  17
HETATM   17  C5  UNL     1       3.233   2.492  26.393  1.00  0.00     0.041 C 
BRANCH  17  18
HETATM   18  C4  UNL     1       2.664   1.907  25.147  1.00  0.00     0.007 C 
BRANCH  18  19
HETATM   19  C2  UNL     1       3.101   0.482  24.902  1.00  0.00    -0.023 C 
HETATM   20  C1  UNL     1       4.086  -0.004  25.915  1.00  0.00     0.009 C 
HETATM   21  C3  UNL     1       1.862  -0.382  24.867  1.00  0.00     0.009 C 
ENDBRANCH  18  19
ENDBRANCH  17  18
ENDBRANCH   1  17
BRANCH   1  22
HETATM   22  O1  UNL     1       0.910   2.697  26.490  1.00  0.00    -0.387 OA
ATOM     23  H1  UNL     1       0.751   3.442  25.923  1.00  0.00     0.210 HD
ENDBRANCH   1  22
BRANCH   7  24
HETATM   24  O2  UNL     1       3.288   1.935  28.939  1.00  0.00    -0.387 OA
ATOM     25  H2  UNL     1       3.247   1.364  29.697  1.00  0.00     0.210 HD
ENDBRANCH   7  24
BRANCH  15  26
HETATM   26  O5  UNL     1       1.866   7.191  27.397  1.00  0.00    -0.365 OA
ATOM     27  H5  UNL     1       0.934   7.311  27.260  1.00  0.00     0.213 HD
ENDBRANCH  15  26
TORSDOF 6
ENDMDL
MODEL 3
REMARK VINA RESULT: -6.652853449      1.918      2.526
REMARK  6 active torsions:
REMARK  status: ('A' for Active; 'I' for Inactive)
REMARK    1  A    between atoms: C2_2  and  C4_4 
REMARK    2  A    between atoms: C4_4  and  C5_5 
REMARK    3  A    between atoms: C5_5  and  C6_6 
REMARK    4  A    between atoms: C6_6  and  O1_7 
REMARK    5  A    between atoms: C12_14  and  O2_16 
REMARK    6  A    between atoms: C17_24  and  O5_26 
ROOT
HETATM    1  C6  UNL     1       3.252   4.081  27.541  1.00  0.00     0.089 C 
HETATM    2  C7  UNL     1       3.249   5.065  28.652  1.00  0.00     0.056 C 
HETATM    3  C8  UNL     1       1.934   5.697  28.929  1.00  0.00     0.019 C 
HETATM    4  C9  UNL     1       1.633   6.754  27.874  1.00  0.00     0.021 C 
HETATM    5  C10 UNL     1       0.782   4.722  28.996  1.00  0.00     0.016 C 
HETATM    6  C11 UNL     1       0.742   3.952  27.707  1.00  0.00     0.046 C 
HETATM    7  C12 UNL     1       2.022   3.265  27.383  1.00  0.00     0.085 C 
HETATM    8  C13 UNL     1       1.939   2.821  25.915  1.00  0.00     0.049 C 
HETATM    9  C14 UNL     1      -0.461   5.512  29.185  1.00  0.00     0.113 C 
HETATM   10  C15 UNL     1      -1.454   5.002  30.185  1.00  0.00     0.187 C 
HETATM   11  O3  UNL     1      -1.022   5.990  31.067  1.00  0.00    -0.328 OA
HETATM   12  C16 UNL     1      -0.369   6.690  30.056  1.00  0.00     0.328 C 
HETATM   13  F1  UNL     1      -1.240   7.698  29.607  1.00  0.00    -0.180 F 
HETATM   14  O4  UNL     1       0.840   7.209  30.329  1.00  0.00    -0.292 OA
HETATM   15  C17 UNL     1       1.932   6.405  30.270  1.00  0.00     0.172 C 
HETATM   16  C18 UNL     1       2.090   5.466  31.419  1.00  0.00     0.080 C 
ENDROOT
BRANCH   1  17
HETATM   17  C5  UNL     1       4.447   3.148  27.744  1.00  0.00     0.041 C 
BRANCH  17  18
HETATM   18  C4  UNL     1       5.089   3.520  29.037  1.00  0.00     0.007 C 
BRANCH  18  19
HETATM   19  C2  UNL     1       5.263   2.348  29.975  1.00  0.00    -0.023 C 
HETATM   20  C1  UNL     1       4.169   2.249  30.988  1.00  0.00     0.009 C 
HETATM   21  C3  UNL     1       5.366   1.096  29.136  1.00  0.00     0.009 C 
ENDBRANCH  18  19
ENDBRANCH  17  18
ENDBRANCH   1  17
BRANCH   1  22
HETATM   22  O1  UNL     1       3.499   4.735  26.321  1.00  0.00    -0.387 OA
ATOM     23  H1  UNL     1       3.481   4.051  25.663  1.00  0.00     0.210 HD
ENDBRANCH   1  22
BRANCH   7  24
HETATM   24  O2  UNL     1       2.097   2.091  28.129  1.00  0.00    -0.387 OA
ATOM     25  H2  UNL     1       2.883   1.600  27.920  1.00  0.00     0.210 HD
ENDBRANCH   7  24
BRANCH  15  26
HETATM   26  O5  UNL     1       3.073   7.244  30.252  1.00  0.00    -0.365 OA
ATOM     27  H5  UNL     1       3.095   7.658  31.107  1.00  0.00     0.213 HD
ENDBRANCH  15  26
TORSDOF 6
ENDMDL
MODEL 4
REMARK VINA RESULT: -6.587686077      2.804      6.181
REMARK  6 active torsions:
REMARK  status: ('A' for Active; 'I' for Inactive)
REMARK    1  A    between atoms: C2_2  and  C4_4 
REMARK    2  A    between atoms: C4_4  and  C5_5 
REMARK    3  A    between atoms: C5_5  and  C6_6 
REMARK    4  A    between atoms: C6_6  and  O1_7 
REMARK    5  A    between atoms: C12_14  and  O2_16 
REMARK    6  A    between atoms: C17_24  and  O5_26 
ROOT
HETATM    1  C6  UNL     1       0.594   6.005  31.517  1.00  0.00     0.089 C 
HETATM    2  C7  UNL     1       0.812   6.282  30.076  1.00  0.00     0.056 C 
HETATM    3  C8  UNL     1       2.037   5.674  29.497  1.00  0.00     0.019 C 
HETATM    4  C9  UNL     1       3.264   6.469  29.926  1.00  0.00     0.021 C 
HETATM    5  C10 UNL     1       2.236   4.221  29.859  1.00  0.00     0.016 C 
HETATM    6  C11 UNL     1       2.242   4.107  31.357  1.00  0.00     0.046 C 
HETATM    7  C12 UNL     1       1.024   4.670  32.002  1.00  0.00     0.085 C 
HETATM    8  C13 UNL     1       1.321   4.789  33.504  1.00  0.00     0.049 C 
HETATM    9  C14 UNL     1       3.538   3.793  29.287  1.00  0.00     0.113 C 
HETATM   10  C15 UNL     1       3.584   2.455  28.612  1.00  0.00     0.187 C 
HETATM   11  O3  UNL     1       3.575   3.112  27.384  1.00  0.00    -0.328 OA
HETATM   12  C16 UNL     1       3.890   4.336  27.969  1.00  0.00     0.328 C 
HETATM   13  F1  UNL     1       5.282   4.508  27.870  1.00  0.00    -0.180 F 
HETATM   14  O4  UNL     1       3.253   5.431  27.521  1.00  0.00    -0.292 OA
HETATM   15  C17 UNL     1       2.006   5.704  27.981  1.00  0.00     0.172 C 
HETATM   16  C18 UNL     1       0.920   4.855  27.410  1.00  0.00     0.080 C 
ENDROOT
BRANCH   1  17
HETATM   17  C5  UNL     1      -0.898   6.185  31.809  1.00  0.00     0.041 C 
BRANCH  17  18
HETATM   18  C4  UNL     1      -1.563   6.544  30.525  1.00  0.00     0.007 C 
BRANCH  18  19
HETATM   19  C2  UNL     1      -3.038   6.216  30.505  1.00  0.00    -0.023 C 
HETATM   20  C1  UNL     1      -3.523   5.653  31.801  1.00  0.00     0.009 C 
HETATM   21  C3  UNL     1      -3.785   7.473  30.125  1.00  0.00     0.009 C 
ENDBRANCH  18  19
ENDBRANCH  17  18
ENDBRANCH   1  17
BRANCH   1  22
HETATM   22  O1  UNL     1       1.242   6.979  32.297  1.00  0.00    -0.387 OA
ATOM     23  H1  UNL     1       2.081   6.597  32.526  1.00  0.00     0.210 HD
ENDBRANCH   1  22
BRANCH   7  24
HETATM   24  O2  UNL     1      -0.007   3.738  31.894  1.00  0.00    -0.387 OA
ATOM     25  H2  UNL     1      -0.154   3.492  30.988  1.00  0.00     0.210 HD
ENDBRANCH   7  24
BRANCH  15  26
HETATM   26  O5  UNL     1       1.714   7.047  27.639  1.00  0.00    -0.365 OA
ATOM     27  H5  UNL     1       1.447   7.022  26.728  1.00  0.00     0.213 HD
ENDBRANCH  15  26
TORSDOF 6
ENDMDL
MODEL 5
REMARK VINA RESULT: -6.542925253      3.028      4.172
REMARK  6 active torsions:
REMARK  status: ('A' for Active; 'I' for Inactive)
REMARK    1  A    between atoms: C2_2  and  C4_4 
REMARK    2  A    between atoms: C4_4  and  C5_5 
REMARK    3  A    between atoms: C5_5  and  C6_6 
REMARK    4  A    between atoms: C6_6  and  O1_7 
REMARK    5  A    between atoms: C12_14  and  O2_16 
REMARK    6  A    between atoms: C17_24  and  O5_26 
ROOT
HETATM    1  C6  UNL     1       5.113   1.763  27.730  1.00  0.00     0.089 C 
HETATM    2  C7  UNL     1       4.783   3.168  28.075  1.00  0.00     0.056 C 
HETATM    3  C8  UNL     1       3.437   3.622  27.642  1.00  0.00     0.019 C 
HETATM    4  C9  UNL     1       3.438   3.897  26.143  1.00  0.00     0.021 C 
HETATM    5  C10 UNL     1       2.324   2.653  27.966  1.00  0.00     0.016 C 
HETATM    6  C11 UNL     1       2.662   1.326  27.349  1.00  0.00     0.046 C 
HETATM    7  C12 UNL     1       3.989   0.795  27.767  1.00  0.00     0.085 C 
HETATM    8  C13 UNL     1       4.333  -0.362  26.819  1.00  0.00     0.049 C 
HETATM    9  C14 UNL     1       1.070   3.205  27.391  1.00  0.00     0.113 C 
HETATM   10  C15 UNL     1      -0.161   3.141  28.242  1.00  0.00     0.187 C 
HETATM   11  O3  UNL     1      -0.010   4.501  28.503  1.00  0.00    -0.328 OA
HETATM   12  C16 UNL     1       0.897   4.661  27.459  1.00  0.00     0.328 C 
HETATM   13  F1  UNL     1       0.180   5.119  26.340  1.00  0.00    -0.180 F 
HETATM   14  O4  UNL     1       1.972   5.438  27.673  1.00  0.00    -0.292 OA
HETATM   15  C17 UNL     1       3.044   4.918  28.324  1.00  0.00     0.172 C 
HETATM   16  C18 UNL     1       2.877   4.767  29.799  1.00  0.00     0.080 C 
ENDROOT
BRANCH   1  17
HETATM   17  C5  UNL     1       6.210   1.291  28.687  1.00  0.00     0.041 C 
BRANCH  17  18
HETATM   18  C4  UNL     1       6.885   2.505  29.226  1.00  0.00     0.007 C 
BRANCH  18  19
HETATM   19  C2  UNL     1       8.314   2.255  29.649  1.00  0.00    -0.023 C 
HETATM   20  C1  UNL     1       8.599   2.732  31.036  1.00  0.00     0.009 C 
HETATM   21  C3  UNL     1       8.589   0.777  29.496  1.00  0.00     0.009 C 
ENDBRANCH  18  19
ENDBRANCH  17  18
ENDBRANCH   1  17
BRANCH   1  22
HETATM   22  O1  UNL     1       5.691   1.707  26.449  1.00  0.00    -0.387 OA
ATOM     23  H1  UNL     1       6.583   1.411  26.591  1.00  0.00     0.210 HD
ENDBRANCH   1  22
BRANCH   7  24
HETATM   24  O2  UNL     1       3.859   0.221  29.031  1.00  0.00    -0.387 OA
ATOM     25  H2  UNL     1       3.030  -0.235  29.118  1.00  0.00     0.210 HD
ENDBRANCH   7  24
BRANCH  15  26
HETATM   26  O5  UNL     1       4.134   5.798  28.112  1.00  0.00    -0.365 OA
ATOM     27  H5  UNL     1       3.831   6.648  28.407  1.00  0.00     0.213 HD
ENDBRANCH  15  26
TORSDOF 6
ENDMDL
