MODEL 1
REMARK VINA RESULT: -6.351662383      0.000      0.000
REMARK  9 active torsions:
REMARK  status: ('A' for Active; 'I' for Inactive)
REMARK    1  A    between atoms: C2_2  and  C3_3 
REMARK    2  A    between atoms: C3_3  and  C4_4 
REMARK    3  A    between atoms: C4_4  and  C5_5 
REMARK    4  A    between atoms: C5_5  and  C6_6 
REMARK    5  A    between atoms: C6_6  and  C7_7 
REMARK    6  A    between atoms: C7_7  and  C8_8 
REMARK    7  A    between atoms: C10_10  and  C11_11 
REMARK    8  A    between atoms: C11_11  and  O1_12 
REMARK    9  A    between atoms: C15_17  and  O2_18 
ROOT
HETATM    1  C8  UNL     1     -35.001  18.347  -5.937  1.00  0.00    -0.024 A 
HETATM    2  C9  UNL     1     -35.000  17.971  -7.293  1.00  0.00     0.019 A 
HETATM    3  C10 UNL     1     -33.886  18.031  -8.090  1.00  0.00    -0.028 A 
HETATM    4  C12 UNL     1     -32.694  18.470  -7.586  1.00  0.00    -0.051 A 
HETATM    5  C13 UNL     1     -31.469  18.548  -8.415  1.00  0.00     0.049 C 
HETATM    6  C14 UNL     1     -32.656  18.842  -6.273  1.00  0.00     0.044 A 
HETATM    7  C15 UNL     1     -33.801  18.779  -5.455  1.00  0.00     0.075 A 
ENDROOT
BRANCH   1   8
HETATM    8  C7  UNL     1     -36.272  18.278  -5.185  1.00  0.00     0.041 C 
BRANCH   8   9
HETATM    9  C6  UNL     1     -37.439  17.713  -5.844  1.00  0.00     0.005 C 
BRANCH   9  10
HETATM   10  C5  UNL     1     -38.607  18.451  -6.287  1.00  0.00     0.001 C 
BRANCH  10  11
HETATM   11  C4  UNL     1     -38.619  19.139  -7.593  1.00  0.00     0.004 C 
BRANCH  11  12
HETATM   12  C3  UNL     1     -38.665  18.140  -8.764  1.00  0.00     0.026 C 
BRANCH  12  13
HETATM   13  C2  UNL     1     -37.801  18.729  -9.822  1.00  0.00    -0.037 C 
HETATM   14  C1  UNL     1     -37.740  18.170 -11.018  1.00  0.00     0.007 C 
ENDBRANCH  12  13
ENDBRANCH  11  12
ENDBRANCH  10  11
ENDBRANCH   9  10
ENDBRANCH   8   9
ENDBRANCH   1   8
BRANCH   7  15
HETATM   15  O2  UNL     1     -33.685  19.167  -4.134  1.00  0.00    -0.355 OA
HETATM   16  C16 UNL     1     -33.063  18.317  -3.200  1.00  0.00     0.210 C 
ENDBRANCH   7  15
BRANCH   3  17
HETATM   17  C11 UNL     1     -34.014  17.606  -9.507  1.00  0.00     0.203 C 
BRANCH  17  18
HETATM   18  O1  UNL     1     -34.286  18.669 -10.351  1.00  0.00    -0.396 OA
ATOM     19  H1  UNL     1     -35.218  18.840 -10.424  1.00  0.00     0.209 HD
ENDBRANCH  17  18
ENDBRANCH   3  17
TORSDOF 9
ENDMDL
MODEL 2
REMARK VINA RESULT: -6.301571126      2.732      7.150
REMARK  9 active torsions:
REMARK  status: ('A' for Active; 'I' for Inactive)
REMARK    1  A    between atoms: C2_2  and  C3_3 
REMARK    2  A    between atoms: C3_3  and  C4_4 
REMARK    3  A    between atoms: C4_4  and  C5_5 
REMARK    4  A    between atoms: C5_5  and  C6_6 
REMARK    5  A    between atoms: C6_6  and  C7_7 
REMARK    6  A    between atoms: C7_7  and  C8_8 
REMARK    7  A    between atoms: C10_10  and  C11_11 
REMARK    8  A    between atoms: C11_11  and  O1_12 
REMARK    9  A    between atoms: C15_17  and  O2_18 
ROOT
HETATM    1  C8  UNL     1     -32.135  18.597  -6.250  1.00  0.00    -0.024 A 
HETATM    2  C9  UNL     1     -32.323  18.232  -4.904  1.00  0.00     0.019 A 
HETATM    3  C10 UNL     1     -33.559  18.061  -4.336  1.00  0.00    -0.028 A 
HETATM    4  C12 UNL     1     -34.694  18.242  -5.076  1.00  0.00    -0.051 A 
HETATM    5  C13 UNL     1     -36.047  18.067  -4.498  1.00  0.00     0.049 C 
HETATM    6  C14 UNL     1     -34.551  18.596  -6.387  1.00  0.00     0.044 A 
HETATM    7  C15 UNL     1     -33.280  18.770  -6.968  1.00  0.00     0.075 A 
ENDROOT
BRANCH   1   8
HETATM    8  C7  UNL     1     -30.755  18.792  -6.743  1.00  0.00     0.041 C 
BRANCH   8   9
HETATM    9  C6  UNL     1     -30.126  17.718  -7.493  1.00  0.00     0.005 C 
BRANCH   9  10
HETATM   10  C5  UNL     1     -28.714  17.385  -7.483  1.00  0.00     0.001 C 
BRANCH  10  11
HETATM   11  C4  UNL     1     -28.221  16.187  -6.776  1.00  0.00     0.004 C 
BRANCH  11  12
HETATM   12  C3  UNL     1     -28.231  16.382  -5.248  1.00  0.00     0.026 C 
BRANCH  12  13
HETATM   13  C2  UNL     1     -28.796  15.124  -4.690  1.00  0.00    -0.037 C 
HETATM   14  C1  UNL     1     -30.084  15.041  -4.410  1.00  0.00     0.007 C 
ENDBRANCH  12  13
ENDBRANCH  11  12
ENDBRANCH  10  11
ENDBRANCH   9  10
ENDBRANCH   8   9
ENDBRANCH   1   8
BRANCH   7  15
HETATM   15  O2  UNL     1     -33.214  19.123  -8.303  1.00  0.00    -0.355 OA
HETATM   16  C16 UNL     1     -33.458  18.162  -9.301  1.00  0.00     0.210 C 
ENDBRANCH   7  15
BRANCH   3  17
HETATM   17  C11 UNL     1     -33.625  17.675  -2.904  1.00  0.00     0.203 C 
BRANCH  17  18
HETATM   18  O1  UNL     1     -32.389  17.305  -2.403  1.00  0.00    -0.396 OA
ATOM     19  H1  UNL     1     -32.226  16.375  -2.499  1.00  0.00     0.209 HD
ENDBRANCH  17  18
ENDBRANCH   3  17
TORSDOF 9
ENDMDL
MODEL 3
REMARK VINA RESULT: -6.256544117      1.157      3.444
REMARK  9 active torsions:
REMARK  status: ('A' for Active; 'I' for Inactive)
REMARK    1  A    between atoms: C2_2  and  C3_3 
REMARK    2  A    between atoms: C3_3  and  C4_4 
REMARK    3  A    between atoms: C4_4  and  C5_5 
REMARK    4  A    between atoms: C5_5  and  C6_6 
REMARK    5  A    between atoms: C6_6  and  C7_7 
REMARK    6  A    between atoms: C7_7  and  C8_8 
REMARK    7  A    between atoms: C10_10  and  C11_11 
REMARK    8  A    between atoms: C11_11  and  O1_12 
REMARK    9  A    between atoms: C15_17  and  O2_18 
ROOT
HETATM    1  C8  UNL     1     -35.494  17.843  -6.143  1.00  0.00    -0.024 A 
HETATM    2  C9  UNL     1     -34.927  18.027  -4.868  1.00  0.00     0.019 A 
HETATM    3  C10 UNL     1     -33.607  18.337  -4.669  1.00  0.00    -0.028 A 
HETATM    4  C12 UNL     1     -32.761  18.489  -5.732  1.00  0.00    -0.051 A 
HETATM    5  C13 UNL     1     -31.329  18.825  -5.557  1.00  0.00     0.049 C 
HETATM    6  C14 UNL     1     -33.276  18.320  -6.985  1.00  0.00     0.044 A 
HETATM    7  C15 UNL     1     -34.632  18.001  -7.188  1.00  0.00     0.075 A 
ENDROOT
BRANCH   1   8
HETATM    8  C7  UNL     1     -36.922  17.470  -6.235  1.00  0.00     0.041 C 
BRANCH   8   9
HETATM    9  C6  UNL     1     -37.921  18.524  -6.171  1.00  0.00     0.005 C 
BRANCH   9  10
HETATM   10  C5  UNL     1     -38.700  19.027  -7.287  1.00  0.00     0.001 C 
BRANCH  10  11
HETATM   11  C4  UNL     1     -38.839  18.245  -8.530  1.00  0.00     0.004 C 
BRANCH  11  12
HETATM   12  C3  UNL     1     -38.049  18.875  -9.692  1.00  0.00     0.026 C 
BRANCH  12  13
HETATM   13  C2  UNL     1     -37.777  17.761 -10.639  1.00  0.00    -0.037 C 
HETATM   14  C1  UNL     1     -37.242  18.008 -11.821  1.00  0.00     0.007 C 
ENDBRANCH  12  13
ENDBRANCH  11  12
ENDBRANCH  10  11
ENDBRANCH   9  10
ENDBRANCH   8   9
ENDBRANCH   1   8
BRANCH   7  15
HETATM   15  O2  UNL     1     -35.083  17.850  -8.485  1.00  0.00    -0.355 OA
HETATM   16  C16 UNL     1     -34.177  17.914  -9.560  1.00  0.00     0.210 C 
ENDBRANCH   7  15
BRANCH   3  17
HETATM   17  C11 UNL     1     -33.129  18.505  -3.273  1.00  0.00     0.203 C 
BRANCH  17  18
HETATM   18  O1  UNL     1     -32.677  17.317  -2.727  1.00  0.00    -0.396 OA
ATOM     19  H1  UNL     1     -32.536  17.382  -1.790  1.00  0.00     0.209 HD
ENDBRANCH  17  18
ENDBRANCH   3  17
TORSDOF 9
ENDMDL
MODEL 4
REMARK VINA RESULT: -6.227416081      1.276      1.438
REMARK  9 active torsions:
REMARK  status: ('A' for Active; 'I' for Inactive)
REMARK    1  A    between atoms: C2_2  and  C3_3 
REMARK    2  A    between atoms: C3_3  and  C4_4 
REMARK    3  A    between atoms: C4_4  and  C5_5 
REMARK    4  A    between atoms: C5_5  and  C6_6 
REMARK    5  A    between atoms: C6_6  and  C7_7 
REMARK    6  A    between atoms: C7_7  and  C8_8 
REMARK    7  A    between atoms: C10_10  and  C11_11 
REMARK    8  A    between atoms: C11_11  and  O1_12 
REMARK    9  A    between atoms: C15_17  and  O2_18 
ROOT
HETATM    1  C8  UNL     1     -34.410  18.970  -6.017  1.00  0.00    -0.024 A 
HETATM    2  C9  UNL     1     -33.848  19.082  -7.303  1.00  0.00     0.019 A 
HETATM    3  C10 UNL     1     -32.506  18.956  -7.552  1.00  0.00    -0.028 A 
HETATM    4  C12 UNL     1     -31.631  18.708  -6.532  1.00  0.00    -0.051 A 
HETATM    5  C13 UNL     1     -30.175  18.566  -6.760  1.00  0.00     0.049 C 
HETATM    6  C14 UNL     1     -32.139  18.592  -5.270  1.00  0.00     0.044 A 
HETATM    7  C15 UNL     1     -33.519  18.721  -5.016  1.00  0.00     0.075 A 
ENDROOT
BRANCH   1   8
HETATM    8  C7  UNL     1     -35.867  19.165  -5.864  1.00  0.00     0.041 C 
BRANCH   8   9
HETATM    9  C6  UNL     1     -36.716  17.991  -5.739  1.00  0.00     0.005 C 
BRANCH   9  10
HETATM   10  C5  UNL     1     -38.139  17.936  -6.014  1.00  0.00     0.001 C 
BRANCH  10  11
HETATM   11  C4  UNL     1     -38.755  18.829  -7.014  1.00  0.00     0.004 C 
BRANCH  11  12
HETATM   12  C3  UNL     1     -38.893  18.141  -8.386  1.00  0.00     0.026 C 
BRANCH  12  13
HETATM   13  C2  UNL     1     -37.904  18.814  -9.270  1.00  0.00    -0.037 C 
HETATM   14  C1  UNL     1     -36.775  18.206  -9.588  1.00  0.00     0.007 C 
ENDBRANCH  12  13
ENDBRANCH  11  12
ENDBRANCH  10  11
ENDBRANCH   9  10
ENDBRANCH   8   9
ENDBRANCH   1   8
BRANCH   7  15
HETATM   15  O2  UNL     1     -33.961  18.586  -3.714  1.00  0.00    -0.355 OA
HETATM   16  C16 UNL     1     -33.263  17.760  -2.813  1.00  0.00     0.210 C 
ENDBRANCH   7  15
BRANCH   3  17
HETATM   17  C11 UNL     1     -32.037  19.095  -8.954  1.00  0.00     0.203 C 
BRANCH  17  18
HETATM   18  O1  UNL     1     -32.134  20.397  -9.413  1.00  0.00    -0.396 OA
ATOM     19  H1  UNL     1     -31.582  20.554 -10.170  1.00  0.00     0.209 HD
ENDBRANCH  17  18
ENDBRANCH   3  17
TORSDOF 9
ENDMDL
MODEL 5
REMARK VINA RESULT: -6.226227266      0.861      1.115
REMARK  9 active torsions:
REMARK  status: ('A' for Active; 'I' for Inactive)
REMARK    1  A    between atoms: C2_2  and  C3_3 
REMARK    2  A    between atoms: C3_3  and  C4_4 
REMARK    3  A    between atoms: C4_4  and  C5_5 
REMARK    4  A    between atoms: C5_5  and  C6_6 
REMARK    5  A    between atoms: C6_6  and  C7_7 
REMARK    6  A    between atoms: C7_7  and  C8_8 
REMARK    7  A    between atoms: C10_10  and  C11_11 
REMARK    8  A    between atoms: C11_11  and  O1_12 
REMARK    9  A    between atoms: C15_17  and  O2_18 
ROOT
HETATM    1  C8  UNL     1     -35.726  17.720  -6.320  1.00  0.00    -0.024 A 
HETATM    2  C9  UNL     1     -35.251  17.582  -7.637  1.00  0.00     0.019 A 
HETATM    3  C10 UNL     1     -33.963  17.871  -8.008  1.00  0.00    -0.028 A 
HETATM    4  C12 UNL     1     -33.059  18.316  -7.085  1.00  0.00    -0.051 A 
HETATM    5  C13 UNL     1     -31.659  18.638  -7.446  1.00  0.00     0.049 C 
HETATM    6  C14 UNL     1     -33.482  18.462  -5.795  1.00  0.00     0.044 A 
HETATM    7  C15 UNL     1     -34.806  18.164  -5.417  1.00  0.00     0.075 A 
ENDROOT
BRANCH   1   8
HETATM    8  C7  UNL     1     -37.146  17.417  -6.045  1.00  0.00     0.041 C 
BRANCH   8   9
HETATM    9  C6  UNL     1     -38.109  18.506  -6.084  1.00  0.00     0.005 C 
BRANCH   9  10
HETATM   10  C5  UNL     1     -38.796  18.993  -7.266  1.00  0.00     0.001 C 
BRANCH  10  11
HETATM   11  C4  UNL     1     -38.838  18.191  -8.505  1.00  0.00     0.004 C 
BRANCH  11  12
HETATM   12  C3  UNL     1     -38.036  18.854  -9.640  1.00  0.00     0.026 C 
BRANCH  12  13
HETATM   13  C2  UNL     1     -37.569  17.736 -10.503  1.00  0.00    -0.037 C 
HETATM   14  C1  UNL     1     -37.158  17.974 -11.735  1.00  0.00     0.007 C 
ENDBRANCH  12  13
ENDBRANCH  11  12
ENDBRANCH  10  11
ENDBRANCH   9  10
ENDBRANCH   8   9
ENDBRANCH   1   8
BRANCH   7  15
HETATM   15  O2  UNL     1     -35.161  18.330  -4.092  1.00  0.00    -0.355 OA
HETATM   16  C16 UNL     1     -34.688  17.433  -3.116  1.00  0.00     0.210 C 
ENDBRANCH   7  15
BRANCH   3  17
HETATM   17  C11 UNL     1     -33.584  17.684  -9.431  1.00  0.00     0.203 C 
BRANCH  17  18
HETATM   18  O1  UNL     1     -33.999  18.737 -10.227  1.00  0.00    -0.396 OA
ATOM     19  H1  UNL     1     -34.802  18.539 -10.695  1.00  0.00     0.209 HD
ENDBRANCH  17  18
ENDBRANCH   3  17
TORSDOF 9
ENDMDL
