MODEL 1
REMARK VINA RESULT: -6.975583057      0.000      0.000
REMARK  7 active torsions:
REMARK  status: ('A' for Active; 'I' for Inactive)
REMARK    1  A    between atoms: C2_2  and  C3_3 
REMARK    2  A    between atoms: C3_3  and  C4_4 
REMARK    3  A    between atoms: C4_4  and  C5_5 
REMARK    4  A    between atoms: C5_5  and  C6_6 
REMARK    5  A    between atoms: C6_6  and  C7_8 
REMARK    6  A    between atoms: C12_14  and  C13_15 
REMARK    7  A    between atoms: C13_15  and  C14_16 
ROOT
HETATM    1  C7  UNL     1     -33.237  18.699  -6.186  1.00  0.00     0.048 A 
HETATM    2  C8  UNL     1     -32.590  18.695  -4.935  1.00  0.00     0.064 A 
HETATM    3  C9  UNL     1     -33.268  18.769  -3.589  1.00  0.00     0.077 C 
HETATM    4  O2  UNL     1     -31.325  18.616  -5.193  1.00  0.00    -0.319 OA
HETATM    5  C10 UNL     1     -31.065  18.568  -6.460  1.00  0.00     0.056 A 
HETATM    6  C11 UNL     1     -29.713  18.476  -7.105  1.00  0.00     0.077 C 
HETATM    7  C12 UNL     1     -32.299  18.618  -7.157  1.00  0.00    -0.012 A 
ENDROOT
BRANCH   1   8
HETATM    8  C6  UNL     1     -34.656  18.879  -6.281  1.00  0.00     0.162 C 
HETATM    9  O1  UNL     1     -35.038  20.101  -6.496  1.00  0.00    -0.292 OA
BRANCH   8  10
HETATM   10  C5  UNL     1     -35.740  17.913  -6.169  1.00  0.00     0.084 C 
BRANCH  10  11
HETATM   11  C4  UNL     1     -36.781  18.373  -5.141  1.00  0.00     0.008 C 
BRANCH  11  12
HETATM   12  C3  UNL     1     -38.147  18.131  -5.703  1.00  0.00     0.000 C 
BRANCH  12  13
HETATM   13  C2  UNL     1     -38.423  18.892  -6.961  1.00  0.00    -0.005 C 
HETATM   14  C1  UNL     1     -39.033  18.059  -8.052  1.00  0.00     0.005 C 
ENDBRANCH  12  13
ENDBRANCH  11  12
ENDBRANCH  10  11
ENDBRANCH   8  10
ENDBRANCH   1   8
BRANCH   7  15
HETATM   15  C13 UNL     1     -32.362  18.528  -8.627  1.00  0.00     0.046 C 
BRANCH  15  16
HETATM   16  C14 UNL     1     -33.222  17.487  -9.218  1.00  0.00    -0.018 C 
HETATM   17  C15 UNL     1     -34.533  17.911  -9.779  1.00  0.00     0.010 C 
HETATM   18  C16 UNL     1     -32.474  16.783 -10.378  1.00  0.00     0.010 C 
ENDBRANCH  15  16
ENDBRANCH   7  15
TORSDOF 7
ENDMDL
MODEL 2
REMARK VINA RESULT: -6.583075935      1.836      5.314
REMARK  7 active torsions:
REMARK  status: ('A' for Active; 'I' for Inactive)
REMARK    1  A    between atoms: C2_2  and  C3_3 
REMARK    2  A    between atoms: C3_3  and  C4_4 
REMARK    3  A    between atoms: C4_4  and  C5_5 
REMARK    4  A    between atoms: C5_5  and  C6_6 
REMARK    5  A    between atoms: C6_6  and  C7_8 
REMARK    6  A    between atoms: C12_14  and  C13_15 
REMARK    7  A    between atoms: C13_15  and  C14_16 
ROOT
HETATM    1  C7  UNL     1     -35.762  18.427  -8.114  1.00  0.00     0.048 A 
HETATM    2  C8  UNL     1     -34.626  18.021  -8.841  1.00  0.00     0.064 A 
HETATM    3  C9  UNL     1     -33.235  17.845  -8.284  1.00  0.00     0.077 C 
HETATM    4  O2  UNL     1     -35.033  17.838 -10.056  1.00  0.00    -0.319 OA
HETATM    5  C10 UNL     1     -36.295  18.075 -10.212  1.00  0.00     0.056 A 
HETATM    6  C11 UNL     1     -37.088  17.964 -11.482  1.00  0.00     0.077 C 
HETATM    7  C12 UNL     1     -36.821  18.466  -8.955  1.00  0.00    -0.012 A 
ENDROOT
BRANCH   1   8
HETATM    8  C6  UNL     1     -35.656  18.817  -6.738  1.00  0.00     0.162 C 
HETATM    9  O1  UNL     1     -35.206  20.020  -6.545  1.00  0.00    -0.292 OA
BRANCH   8  10
HETATM   10  C5  UNL     1     -35.964  18.079  -5.521  1.00  0.00     0.084 C 
BRANCH  10  11
HETATM   11  C4  UNL     1     -35.365  18.773  -4.292  1.00  0.00     0.008 C 
BRANCH  11  12
HETATM   12  C3  UNL     1     -34.504  17.792  -3.561  1.00  0.00     0.000 C 
BRANCH  12  13
HETATM   13  C2  UNL     1     -33.112  18.280  -3.314  1.00  0.00    -0.005 C 
HETATM   14  C1  UNL     1     -32.402  18.742  -4.554  1.00  0.00     0.005 C 
ENDBRANCH  12  13
ENDBRANCH  11  12
ENDBRANCH  10  11
ENDBRANCH   8  10
ENDBRANCH   1   8
BRANCH   7  15
HETATM   15  C13 UNL     1     -38.254  18.758  -8.770  1.00  0.00     0.046 C 
BRANCH  15  16
HETATM   16  C14 UNL     1     -39.065  17.787  -8.013  1.00  0.00    -0.018 C 
HETATM   17  C15 UNL     1     -38.472  16.447  -7.755  1.00  0.00     0.010 C 
HETATM   18  C16 UNL     1     -39.417  18.369  -6.621  1.00  0.00     0.010 C 
ENDBRANCH  15  16
ENDBRANCH   7  15
TORSDOF 7
ENDMDL
MODEL 3
REMARK VINA RESULT: -6.538296259      0.730      1.064
REMARK  7 active torsions:
REMARK  status: ('A' for Active; 'I' for Inactive)
REMARK    1  A    between atoms: C2_2  and  C3_3 
REMARK    2  A    between atoms: C3_3  and  C4_4 
REMARK    3  A    between atoms: C4_4  and  C5_5 
REMARK    4  A    between atoms: C5_5  and  C6_6 
REMARK    5  A    between atoms: C6_6  and  C7_8 
REMARK    6  A    between atoms: C12_14  and  C13_15 
REMARK    7  A    between atoms: C13_15  and  C14_16 
ROOT
HETATM    1  C7  UNL     1     -33.064  18.530  -6.222  1.00  0.00     0.048 A 
HETATM    2  C8  UNL     1     -32.492  18.715  -4.949  1.00  0.00     0.064 A 
HETATM    3  C9  UNL     1     -33.246  18.978  -3.669  1.00  0.00     0.077 C 
HETATM    4  O2  UNL     1     -31.213  18.610  -5.119  1.00  0.00    -0.319 OA
HETATM    5  C10 UNL     1     -30.880  18.379  -6.347  1.00  0.00     0.056 A 
HETATM    6  C11 UNL     1     -29.492  18.206  -6.893  1.00  0.00     0.077 C 
HETATM    7  C12 UNL     1     -32.070  18.317  -7.115  1.00  0.00    -0.012 A 
ENDROOT
BRANCH   1   8
HETATM    8  C6  UNL     1     -34.475  18.682  -6.425  1.00  0.00     0.162 C 
HETATM    9  O1  UNL     1     -34.856  19.884  -6.737  1.00  0.00    -0.292 OA
BRANCH   8  10
HETATM   10  C5  UNL     1     -35.553  17.708  -6.330  1.00  0.00     0.084 C 
BRANCH  10  11
HETATM   11  C4  UNL     1     -36.481  18.028  -5.151  1.00  0.00     0.008 C 
BRANCH  11  12
HETATM   12  C3  UNL     1     -37.899  17.887  -5.607  1.00  0.00     0.000 C 
BRANCH  12  13
HETATM   13  C2  UNL     1     -38.256  18.785  -6.749  1.00  0.00    -0.005 C 
HETATM   14  C1  UNL     1     -39.025  18.100  -7.842  1.00  0.00     0.005 C 
ENDBRANCH  12  13
ENDBRANCH  11  12
ENDBRANCH  10  11
ENDBRANCH   8  10
ENDBRANCH   1   8
BRANCH   7  15
HETATM   15  C13 UNL     1     -32.048  18.013  -8.557  1.00  0.00     0.046 C 
BRANCH  15  16
HETATM   16  C14 UNL     1     -32.596  19.020  -9.484  1.00  0.00    -0.018 C 
HETATM   17  C15 UNL     1     -31.628  19.877 -10.220  1.00  0.00     0.010 C 
HETATM   18  C16 UNL     1     -33.455  18.324 -10.569  1.00  0.00     0.010 C 
ENDBRANCH  15  16
ENDBRANCH   7  15
TORSDOF 7
ENDMDL
MODEL 4
REMARK VINA RESULT: -6.529938376      1.451      2.646
REMARK  7 active torsions:
REMARK  status: ('A' for Active; 'I' for Inactive)
REMARK    1  A    between atoms: C2_2  and  C3_3 
REMARK    2  A    between atoms: C3_3  and  C4_4 
REMARK    3  A    between atoms: C4_4  and  C5_5 
REMARK    4  A    between atoms: C5_5  and  C6_6 
REMARK    5  A    between atoms: C6_6  and  C7_8 
REMARK    6  A    between atoms: C12_14  and  C13_15 
REMARK    7  A    between atoms: C13_15  and  C14_16 
ROOT
HETATM    1  C7  UNL     1     -34.249  18.463  -7.200  1.00  0.00     0.048 A 
HETATM    2  C8  UNL     1     -32.882  18.375  -6.875  1.00  0.00     0.064 A 
HETATM    3  C9  UNL     1     -32.241  18.872  -5.603  1.00  0.00     0.077 C 
HETATM    4  O2  UNL     1     -32.318  17.788  -7.881  1.00  0.00    -0.319 OA
HETATM    5  C10 UNL     1     -33.150  17.483  -8.824  1.00  0.00     0.056 A 
HETATM    6  C11 UNL     1     -32.836  16.801 -10.124  1.00  0.00     0.077 C 
HETATM    7  C12 UNL     1     -34.440  17.909  -8.419  1.00  0.00    -0.012 A 
ENDROOT
BRANCH   1   8
HETATM    8  C6  UNL     1     -35.167  19.156  -6.343  1.00  0.00     0.162 C 
HETATM    9  O1  UNL     1     -35.302  20.423  -6.598  1.00  0.00    -0.292 OA
BRANCH   8  10
HETATM   10  C5  UNL     1     -35.968  18.671  -5.228  1.00  0.00     0.084 C 
BRANCH  10  11
HETATM   11  C4  UNL     1     -37.029  17.672  -5.708  1.00  0.00     0.008 C 
BRANCH  11  12
HETATM   12  C3  UNL     1     -38.140  18.433  -6.362  1.00  0.00     0.000 C 
BRANCH  12  13
HETATM   13  C2  UNL     1     -38.917  17.627  -7.354  1.00  0.00    -0.005 C 
HETATM   14  C1  UNL     1     -38.353  16.257  -7.599  1.00  0.00     0.005 C 
ENDBRANCH  12  13
ENDBRANCH  11  12
ENDBRANCH  10  11
ENDBRANCH   8  10
ENDBRANCH   1   8
BRANCH   7  15
HETATM   15  C13 UNL     1     -35.634  17.662  -9.248  1.00  0.00     0.046 C 
BRANCH  15  16
HETATM   16  C14 UNL     1     -36.007  18.683 -10.242  1.00  0.00    -0.018 C 
HETATM   17  C15 UNL     1     -35.609  18.447 -11.656  1.00  0.00     0.010 C 
HETATM   18  C16 UNL     1     -37.546  18.863 -10.260  1.00  0.00     0.010 C 
ENDBRANCH  15  16
ENDBRANCH   7  15
TORSDOF 7
ENDMDL
MODEL 5
REMARK VINA RESULT: -6.474022339      1.178      1.393
REMARK  7 active torsions:
REMARK  status: ('A' for Active; 'I' for Inactive)
REMARK    1  A    between atoms: C2_2  and  C3_3 
REMARK    2  A    between atoms: C3_3  and  C4_4 
REMARK    3  A    between atoms: C4_4  and  C5_5 
REMARK    4  A    between atoms: C5_5  and  C6_6 
REMARK    5  A    between atoms: C6_6  and  C7_8 
REMARK    6  A    between atoms: C12_14  and  C13_15 
REMARK    7  A    between atoms: C13_15  and  C14_16 
ROOT
HETATM    1  C7  UNL     1     -33.850  18.208  -5.454  1.00  0.00     0.048 A 
HETATM    2  C8  UNL     1     -33.674  17.548  -4.222  1.00  0.00     0.064 A 
HETATM    3  C9  UNL     1     -34.752  17.277  -3.202  1.00  0.00     0.077 C 
HETATM    4  O2  UNL     1     -32.420  17.236  -4.165  1.00  0.00    -0.319 OA
HETATM    5  C10 UNL     1     -31.754  17.611  -5.209  1.00  0.00     0.056 A 
HETATM    6  C11 UNL     1     -30.288  17.413  -5.469  1.00  0.00     0.077 C 
HETATM    7  C12 UNL     1     -32.657  18.258  -6.090  1.00  0.00    -0.012 A 
ENDROOT
BRANCH   1   8
HETATM    8  C6  UNL     1     -35.113  18.787  -5.806  1.00  0.00     0.162 C 
HETATM    9  O1  UNL     1     -35.265  20.026  -5.447  1.00  0.00    -0.292 OA
BRANCH   8  10
HETATM   10  C5  UNL     1     -36.258  18.208  -6.495  1.00  0.00     0.084 C 
BRANCH  10  11
HETATM   11  C4  UNL     1     -37.497  18.200  -5.591  1.00  0.00     0.008 C 
BRANCH  11  12
HETATM   12  C3  UNL     1     -38.702  18.492  -6.429  1.00  0.00     0.000 C 
BRANCH  12  13
HETATM   13  C2  UNL     1     -38.377  19.080  -7.766  1.00  0.00    -0.005 C 
HETATM   14  C1  UNL     1     -38.811  18.229  -8.924  1.00  0.00     0.005 C 
ENDBRANCH  12  13
ENDBRANCH  11  12
ENDBRANCH  10  11
ENDBRANCH   8  10
ENDBRANCH   1   8
BRANCH   7  15
HETATM   15  C13 UNL     1     -32.229  18.762  -7.408  1.00  0.00     0.046 C 
BRANCH  15  16
HETATM   16  C14 UNL     1     -32.310  17.844  -8.558  1.00  0.00    -0.018 C 
HETATM   17  C15 UNL     1     -33.608  17.756  -9.280  1.00  0.00     0.010 C 
HETATM   18  C16 UNL     1     -31.260  18.242  -9.624  1.00  0.00     0.010 C 
ENDBRANCH  15  16
ENDBRANCH   7  15
TORSDOF 7
ENDMDL
