MODEL 1
REMARK VINA RESULT: -6.775735018      0.000      0.000
REMARK  7 active torsions:
REMARK  status: ('A' for Active; 'I' for Inactive)
REMARK    1  A    between atoms: C2_2  and  C3_3 
REMARK    2  A    between atoms: C3_3  and  C4_4 
REMARK    3  A    between atoms: C4_4  and  C5_5 
REMARK    4  A    between atoms: C10_11  and  C11_12 
REMARK    5  A    between atoms: C11_12  and  C12_14 
REMARK    6  A    between atoms: C12_14  and  C13_15 
REMARK    7  A    between atoms: C13_15  and  C15_17 
ROOT
HETATM    1  C5  UNL     1     -32.068  18.779  -7.038  1.00  0.00    -0.012 A 
HETATM    2  C6  UNL     1     -31.031  18.628  -6.173  1.00  0.00     0.056 A 
HETATM    3  C7  UNL     1     -29.593  18.531  -6.500  1.00  0.00     0.077 C 
HETATM    4  O1  UNL     1     -31.462  18.567  -4.904  1.00  0.00    -0.319 OA
HETATM    5  C8  UNL     1     -32.756  18.669  -4.880  1.00  0.00     0.064 A 
HETATM    6  C9  UNL     1     -33.636  18.646  -3.654  1.00  0.00     0.077 C 
HETATM    7  C10 UNL     1     -33.205  18.805  -6.183  1.00  0.00     0.048 A 
ENDROOT
BRANCH   7   8
HETATM    8  C11 UNL     1     -34.589  18.949  -6.586  1.00  0.00     0.163 C 
HETATM    9  O2  UNL     1     -35.045  20.095  -6.728  1.00  0.00    -0.292 OA
BRANCH   8  10
HETATM   10  C12 UNL     1     -35.395  17.747  -6.813  1.00  0.00     0.088 C 
BRANCH  10  11
HETATM   11  C13 UNL     1     -36.873  17.952  -6.620  1.00  0.00    -0.012 C 
HETATM   12  C14 UNL     1     -37.332  17.911  -5.203  1.00  0.00     0.010 C 
BRANCH  11  13
HETATM   13  C15 UNL     1     -37.709  17.094  -7.547  1.00  0.00     0.000 C 
HETATM   14  C16 UNL     1     -38.998  17.847  -7.865  1.00  0.00     0.005 C 
ENDBRANCH  11  13
ENDBRANCH  10  11
ENDBRANCH   8  10
ENDBRANCH   7   8
BRANCH   1  15
HETATM   15  C4  UNL     1     -32.184  18.911  -8.480  1.00  0.00     0.042 C 
BRANCH  15  16
HETATM   16  C3  UNL     1     -31.984  17.761  -9.359  1.00  0.00     0.004 C 
BRANCH  16  17
HETATM   17  C2  UNL     1     -33.153  17.047  -9.957  1.00  0.00    -0.004 C 
HETATM   18  C1  UNL     1     -34.287  17.973 -10.342  1.00  0.00     0.005 C 
ENDBRANCH  16  17
ENDBRANCH  15  16
ENDBRANCH   1  15
TORSDOF 7
ENDMDL
MODEL 2
REMARK VINA RESULT: -6.589467998      1.016      1.060
REMARK  7 active torsions:
REMARK  status: ('A' for Active; 'I' for Inactive)
REMARK    1  A    between atoms: C2_2  and  C3_3 
REMARK    2  A    between atoms: C3_3  and  C4_4 
REMARK    3  A    between atoms: C4_4  and  C5_5 
REMARK    4  A    between atoms: C10_11  and  C11_12 
REMARK    5  A    between atoms: C11_12  and  C12_14 
REMARK    6  A    between atoms: C12_14  and  C13_15 
REMARK    7  A    between atoms: C13_15  and  C15_17 
ROOT
HETATM    1  C5  UNL     1     -32.529  18.506  -6.603  1.00  0.00    -0.012 A 
HETATM    2  C6  UNL     1     -31.755  17.890  -5.671  1.00  0.00     0.056 A 
HETATM    3  C7  UNL     1     -30.315  17.575  -5.765  1.00  0.00     0.077 C 
HETATM    4  O1  UNL     1     -32.470  17.567  -4.583  1.00  0.00    -0.319 OA
HETATM    5  C8  UNL     1     -33.702  17.941  -4.747  1.00  0.00     0.064 A 
HETATM    6  C9  UNL     1     -34.832  17.766  -3.761  1.00  0.00     0.077 C 
HETATM    7  C10 UNL     1     -33.813  18.538  -5.992  1.00  0.00     0.048 A 
ENDROOT
BRANCH   7   8
HETATM    8  C11 UNL     1     -35.028  19.092  -6.554  1.00  0.00     0.163 C 
HETATM    9  O2  UNL     1     -35.192  20.323  -6.504  1.00  0.00    -0.292 OA
BRANCH   8  10
HETATM   10  C12 UNL     1     -36.010  18.190  -7.160  1.00  0.00     0.088 C 
BRANCH  10  11
HETATM   11  C13 UNL     1     -37.441  18.566  -6.885  1.00  0.00    -0.012 C 
HETATM   12  C14 UNL     1     -37.983  18.065  -5.591  1.00  0.00     0.010 C 
BRANCH  11  13
HETATM   13  C15 UNL     1     -38.354  18.296  -8.063  1.00  0.00     0.000 C 
HETATM   14  C16 UNL     1     -37.683  18.834  -9.324  1.00  0.00     0.005 C 
ENDBRANCH  11  13
ENDBRANCH  10  11
ENDBRANCH   8  10
ENDBRANCH   7   8
BRANCH   1  15
HETATM   15  C4  UNL     1     -32.289  19.065  -7.923  1.00  0.00     0.042 C 
BRANCH  15  16
HETATM   16  C3  UNL     1     -32.072  18.198  -9.078  1.00  0.00     0.004 C 
BRANCH  16  17
HETATM   17  C2  UNL     1     -33.146  17.267  -9.543  1.00  0.00    -0.004 C 
HETATM   18  C1  UNL     1     -34.200  17.944 -10.392  1.00  0.00     0.005 C 
ENDBRANCH  16  17
ENDBRANCH  15  16
ENDBRANCH   1  15
TORSDOF 7
ENDMDL
MODEL 3
REMARK VINA RESULT: -6.489091112      1.258      3.443
REMARK  7 active torsions:
REMARK  status: ('A' for Active; 'I' for Inactive)
REMARK    1  A    between atoms: C2_2  and  C3_3 
REMARK    2  A    between atoms: C3_3  and  C4_4 
REMARK    3  A    between atoms: C4_4  and  C5_5 
REMARK    4  A    between atoms: C10_11  and  C11_12 
REMARK    5  A    between atoms: C11_12  and  C12_14 
REMARK    6  A    between atoms: C12_14  and  C13_15 
REMARK    7  A    between atoms: C13_15  and  C15_17 
ROOT
HETATM    1  C5  UNL     1     -32.176  18.466  -6.705  1.00  0.00    -0.012 A 
HETATM    2  C6  UNL     1     -31.240  18.159  -7.641  1.00  0.00     0.056 A 
HETATM    3  C7  UNL     1     -29.780  18.050  -7.450  1.00  0.00     0.077 C 
HETATM    4  O1  UNL     1     -31.804  17.954  -8.841  1.00  0.00    -0.319 OA
HETATM    5  C8  UNL     1     -33.088  18.114  -8.751  1.00  0.00     0.064 A 
HETATM    6  C9  UNL     1     -34.092  17.975  -9.870  1.00  0.00     0.077 C 
HETATM    7  C10 UNL     1     -33.395  18.437  -7.439  1.00  0.00     0.048 A 
ENDROOT
BRANCH   7   8
HETATM    8  C11 UNL     1     -34.724  18.694  -6.924  1.00  0.00     0.163 C 
HETATM    9  O2  UNL     1     -35.074  19.875  -6.760  1.00  0.00    -0.292 OA
BRANCH   8  10
HETATM   10  C12 UNL     1     -35.604  17.563  -6.623  1.00  0.00     0.088 C 
BRANCH  10  11
HETATM   11  C13 UNL     1     -37.069  17.905  -6.628  1.00  0.00    -0.012 C 
HETATM   12  C14 UNL     1     -37.701  17.974  -5.281  1.00  0.00     0.010 C 
BRANCH  11  13
HETATM   13  C15 UNL     1     -37.860  17.079  -7.621  1.00  0.00     0.000 C 
HETATM   14  C16 UNL     1     -39.183  17.791  -7.892  1.00  0.00     0.005 C 
ENDBRANCH  11  13
ENDBRANCH  10  11
ENDBRANCH   8  10
ENDBRANCH   7   8
BRANCH   1  15
HETATM   15  C4  UNL     1     -32.140  18.764  -5.283  1.00  0.00     0.042 C 
BRANCH  15  16
HETATM   16  C3  UNL     1     -32.471  17.742  -4.293  1.00  0.00     0.004 C 
BRANCH  16  17
HETATM   17  C2  UNL     1     -33.330  18.072  -3.115  1.00  0.00    -0.004 C 
HETATM   18  C1  UNL     1     -34.672  17.372  -3.135  1.00  0.00     0.005 C 
ENDBRANCH  16  17
ENDBRANCH  15  16
ENDBRANCH   1  15
TORSDOF 7
ENDMDL
MODEL 4
REMARK VINA RESULT: -6.379473155      1.471      3.827
REMARK  7 active torsions:
REMARK  status: ('A' for Active; 'I' for Inactive)
REMARK    1  A    between atoms: C2_2  and  C3_3 
REMARK    2  A    between atoms: C3_3  and  C4_4 
REMARK    3  A    between atoms: C4_4  and  C5_5 
REMARK    4  A    between atoms: C10_11  and  C11_12 
REMARK    5  A    between atoms: C11_12  and  C12_14 
REMARK    6  A    between atoms: C12_14  and  C13_15 
REMARK    7  A    between atoms: C13_15  and  C15_17 
ROOT
HETATM    1  C5  UNL     1     -34.415  18.068  -8.256  1.00  0.00    -0.012 A 
HETATM    2  C6  UNL     1     -33.296  17.482  -8.758  1.00  0.00     0.056 A 
HETATM    3  C7  UNL     1     -33.181  16.664  -9.982  1.00  0.00     0.077 C 
HETATM    4  O1  UNL     1     -32.230  17.730  -7.982  1.00  0.00    -0.319 OA
HETATM    5  C8  UNL     1     -32.588  18.460  -6.972  1.00  0.00     0.064 A 
HETATM    6  C9  UNL     1     -31.695  18.961  -5.862  1.00  0.00     0.077 C 
HETATM    7  C10 UNL     1     -33.947  18.712  -7.078  1.00  0.00     0.048 A 
ENDROOT
BRANCH   7   8
HETATM    8  C11 UNL     1     -34.733  19.495  -6.146  1.00  0.00     0.163 C 
HETATM    9  O2  UNL     1     -35.372  20.465  -6.585  1.00  0.00    -0.292 OA
BRANCH   8  10
HETATM   10  C12 UNL     1     -34.750  19.114  -4.732  1.00  0.00     0.088 C 
BRANCH  10  11
HETATM   11  C13 UNL     1     -35.441  17.807  -4.455  1.00  0.00    -0.012 C 
HETATM   12  C14 UNL     1     -36.921  17.833  -4.622  1.00  0.00     0.010 C 
BRANCH  11  13
HETATM   13  C15 UNL     1     -34.994  17.172  -3.154  1.00  0.00     0.000 C 
HETATM   14  C16 UNL     1     -33.574  17.644  -2.852  1.00  0.00     0.005 C 
ENDBRANCH  11  13
ENDBRANCH  10  11
ENDBRANCH   8  10
ENDBRANCH   7   8
BRANCH   1  15
HETATM   15  C4  UNL     1     -35.805  18.142  -8.675  1.00  0.00     0.042 C 
BRANCH  15  16
HETATM   16  C3  UNL     1     -36.795  17.198  -8.161  1.00  0.00     0.004 C 
BRANCH  16  17
HETATM   17  C2  UNL     1     -38.234  17.588  -8.052  1.00  0.00    -0.004 C 
HETATM   18  C1  UNL     1     -38.437  19.067  -7.800  1.00  0.00     0.005 C 
ENDBRANCH  16  17
ENDBRANCH  15  16
ENDBRANCH   1  15
TORSDOF 7
ENDMDL
MODEL 5
REMARK VINA RESULT: -6.364451672      1.328      4.591
REMARK  7 active torsions:
REMARK  status: ('A' for Active; 'I' for Inactive)
REMARK    1  A    between atoms: C2_2  and  C3_3 
REMARK    2  A    between atoms: C3_3  and  C4_4 
REMARK    3  A    between atoms: C4_4  and  C5_5 
REMARK    4  A    between atoms: C10_11  and  C11_12 
REMARK    5  A    between atoms: C11_12  and  C12_14 
REMARK    6  A    between atoms: C12_14  and  C13_15 
REMARK    7  A    between atoms: C13_15  and  C15_17 
ROOT
HETATM    1  C5  UNL     1     -35.225  17.968  -4.566  1.00  0.00    -0.012 A 
HETATM    2  C6  UNL     1     -34.530  17.476  -3.507  1.00  0.00     0.056 A 
HETATM    3  C7  UNL     1     -35.066  17.063  -2.194  1.00  0.00     0.077 C 
HETATM    4  O1  UNL     1     -33.219  17.399  -3.780  1.00  0.00    -0.319 OA
HETATM    5  C8  UNL     1     -33.002  17.824  -4.987  1.00  0.00     0.064 A 
HETATM    6  C9  UNL     1     -31.665  17.903  -5.685  1.00  0.00     0.077 C 
HETATM    7  C10 UNL     1     -34.215  18.197  -5.542  1.00  0.00     0.048 A 
ENDROOT
BRANCH   7   8
HETATM    8  C11 UNL     1     -34.403  18.724  -6.878  1.00  0.00     0.163 C 
HETATM    9  O2  UNL     1     -34.396  19.957  -7.031  1.00  0.00    -0.292 OA
BRANCH   8  10
HETATM   10  C12 UNL     1     -34.589  17.792  -7.993  1.00  0.00     0.088 C 
BRANCH  10  11
HETATM   11  C13 UNL     1     -33.809  18.149  -9.228  1.00  0.00    -0.012 C 
HETATM   12  C14 UNL     1     -34.578  18.069 -10.501  1.00  0.00     0.010 C 
BRANCH  11  13
HETATM   13  C15 UNL     1     -32.465  17.453  -9.295  1.00  0.00     0.000 C 
HETATM   14  C16 UNL     1     -32.345  16.768 -10.653  1.00  0.00     0.005 C 
ENDBRANCH  11  13
ENDBRANCH  10  11
ENDBRANCH   8  10
ENDBRANCH   7   8
BRANCH   1  15
HETATM   15  C4  UNL     1     -36.627  18.245  -4.829  1.00  0.00     0.042 C 
BRANCH  15  16
HETATM   16  C3  UNL     1     -37.477  17.256  -5.488  1.00  0.00     0.004 C 
BRANCH  16  17
HETATM   17  C2  UNL     1     -38.041  17.522  -6.847  1.00  0.00    -0.004 C 
HETATM   18  C1  UNL     1     -37.995  16.317  -7.762  1.00  0.00     0.005 C 
ENDBRANCH  16  17
ENDBRANCH  15  16
ENDBRANCH   1  15
TORSDOF 7
ENDMDL
