MODEL 1
REMARK VINA RESULT: -8.563864631      0.000      0.000
REMARK  9 active torsions:
REMARK  status: ('A' for Active; 'I' for Inactive)
REMARK    1  A    between atoms: C2_2  and  O1_3 
REMARK    2  A    between atoms: C2_2  and  N1_5 
REMARK    3  A    between atoms: N1_5  and  C4_7 
REMARK    4  A    between atoms: C6_9  and  N2_10 
REMARK    5  A    between atoms: N2_10  and  C7_12 
REMARK    6  A    between atoms: C7_12  and  C8_13 
REMARK    7  A    between atoms: C8_13  and  S1_14 
REMARK    8  A    between atoms: C9_20  and  N4_21 
REMARK    9  A    between atoms: N6_28  and  O5_29 
ROOT
HETATM    1  C4  UNL     1      46.254  52.555   5.078  1.00  0.00     0.154 A 
HETATM    2  C5  UNL     1      45.275  52.827   4.139  1.00  0.00     0.100 A 
HETATM    3  C6  UNL     1      44.017  52.304   4.217  1.00  0.00     0.120 A 
HETATM    4  N3  UNL     1      43.763  51.495   5.266  1.00  0.00    -0.174 N 
ATOM      5  H3  UNL     1      42.834  51.086   5.357  1.00  0.00     0.186 HD
HETATM    6  C9  UNL     1      44.692  51.209   6.197  1.00  0.00     0.715 A 
HETATM    7  N6  UNL     1      45.920  51.748   6.081  1.00  0.00    -0.035 N 
ENDROOT
BRANCH   3   8
HETATM    8  N2  UNL     1      42.993  52.563   3.262  1.00  0.00    -0.375 N 
ATOM      9  H2  UNL     1      43.218  52.398   2.280  1.00  0.00     0.161 HD
BRANCH   8  10
HETATM   10  C7  UNL     1      41.679  53.034   3.563  1.00  0.00     0.139 C 
BRANCH  10  11
HETATM   11  C8  UNL     1      41.334  54.162   2.625  1.00  0.00     0.184 C 
BRANCH  11  12
HETATM   12  S1  UNL     1      42.003  53.855   0.995  1.00  0.00     0.103 S 
HETATM   13  O2  UNL     1      43.482  54.130   1.078  1.00  0.00    -0.595 OA
HETATM   14  O3  UNL     1      41.347  54.673  -0.049  1.00  0.00    -0.595 OA
HETATM   15  O4  UNL     1      41.835  52.188   0.739  1.00  0.00    -0.595 OA
ENDBRANCH  11  12
ENDBRANCH  10  11
ENDBRANCH   8  10
ENDBRANCH   3   8
BRANCH   1  16
HETATM   16  N1  UNL     1      47.553  53.076   5.021  1.00  0.00    -0.343 N 
HETATM   17  C3  UNL     1      48.668  52.273   5.443  1.00  0.00     0.154 C 
BRANCH  16  18
HETATM   18  C2  UNL     1      47.789  54.409   4.541  1.00  0.00     0.216 C 
HETATM   19  C1  UNL     1      49.129  54.529   3.847  1.00  0.00     0.063 C 
BRANCH  18  20
HETATM   20  O1  UNL     1      47.834  55.336   5.611  1.00  0.00    -0.377 OA
ATOM     21  H1  UNL     1      47.506  56.152   5.253  1.00  0.00     0.212 HD
ENDBRANCH  18  20
ENDBRANCH  16  18
ENDBRANCH   1  16
BRANCH   6  22
HETATM   22  N4  UNL     1      44.353  50.349   7.270  1.00  0.00    -0.177 N 
HETATM   23  C10 UNL     1      44.499  48.928   7.034  1.00  0.00     0.150 C 
HETATM   24  C11 UNL     1      44.312  48.132   8.306  1.00  0.00     0.040 C 
HETATM   25  C12 UNL     1      44.853  49.018   9.434  1.00  0.00     0.122 C 
HETATM   26  N5  UNL     1      43.907  50.069   9.634  1.00  0.00    -0.385 N 
HETATM   27  C13 UNL     1      43.890  50.940   8.493  1.00  0.00     0.196 C 
ATOM     28  H5  UNL     1      43.328  50.184  10.467  1.00  0.00     0.160 HD
ENDBRANCH   6  22
BRANCH   7  29
HETATM   29  O5  UNL     1      46.832  51.420   7.061  1.00  0.00    -0.268 OA
ATOM     30  H5  UNL     1      46.859  51.897   7.882  1.00  0.00     0.246 HD
ENDBRANCH   7  29
TORSDOF 9
ENDMDL
MODEL 2
REMARK VINA RESULT: -8.472637944      2.275      5.159
REMARK  9 active torsions:
REMARK  status: ('A' for Active; 'I' for Inactive)
REMARK    1  A    between atoms: C2_2  and  O1_3 
REMARK    2  A    between atoms: C2_2  and  N1_5 
REMARK    3  A    between atoms: N1_5  and  C4_7 
REMARK    4  A    between atoms: C6_9  and  N2_10 
REMARK    5  A    between atoms: N2_10  and  C7_12 
REMARK    6  A    between atoms: C7_12  and  C8_13 
REMARK    7  A    between atoms: C8_13  and  S1_14 
REMARK    8  A    between atoms: C9_20  and  N4_21 
REMARK    9  A    between atoms: N6_28  and  O5_29 
ROOT
HETATM    1  C4  UNL     1      43.964  52.525   4.360  1.00  0.00     0.154 A 
HETATM    2  C5  UNL     1      45.300  52.851   4.209  1.00  0.00     0.100 A 
HETATM    3  C6  UNL     1      46.260  52.449   5.092  1.00  0.00     0.120 A 
HETATM    4  N3  UNL     1      45.843  51.706   6.139  1.00  0.00    -0.174 N 
ATOM      5  H3  UNL     1      46.532  51.387   6.820  1.00  0.00     0.186 HD
HETATM    6  C9  UNL     1      44.552  51.371   6.316  1.00  0.00     0.715 A 
HETATM    7  N6  UNL     1      43.640  51.788   5.419  1.00  0.00    -0.035 N 
ENDROOT
BRANCH   3   8
HETATM    8  N2  UNL     1      47.639  52.776   4.964  1.00  0.00    -0.375 N 
ATOM      9  H2  UNL     1      48.312  52.148   5.404  1.00  0.00     0.161 HD
BRANCH   8  10
HETATM   10  C7  UNL     1      48.160  53.910   4.269  1.00  0.00     0.139 C 
BRANCH  10  11
HETATM   11  C8  UNL     1      48.252  55.072   5.225  1.00  0.00     0.184 C 
BRANCH  11  12
HETATM   12  S1  UNL     1      48.854  56.533   4.386  1.00  0.00     0.103 S 
HETATM   13  O2  UNL     1      50.333  56.332   4.178  1.00  0.00    -0.595 OA
HETATM   14  O3  UNL     1      48.566  57.776   5.136  1.00  0.00    -0.595 OA
HETATM   15  O4  UNL     1      48.142  56.503   2.848  1.00  0.00    -0.595 OA
ENDBRANCH  11  12
ENDBRANCH  10  11
ENDBRANCH   8  10
ENDBRANCH   3   8
BRANCH   1  16
HETATM   16  N1  UNL     1      42.959  52.926   3.469  1.00  0.00    -0.343 N 
HETATM   17  C3  UNL     1      41.863  53.728   3.938  1.00  0.00     0.154 C 
BRANCH  16  18
HETATM   18  C2  UNL     1      43.012  52.547   2.085  1.00  0.00     0.216 C 
HETATM   19  C1  UNL     1      42.723  53.718   1.170  1.00  0.00     0.063 C 
BRANCH  18  20
HETATM   20  O1  UNL     1      42.022  51.580   1.783  1.00  0.00    -0.377 OA
ATOM     21  H1  UNL     1      42.498  50.775   1.616  1.00  0.00     0.212 HD
ENDBRANCH  18  20
ENDBRANCH  16  18
ENDBRANCH   1  16
BRANCH   6  22
HETATM   22  N4  UNL     1      44.189  50.590   7.440  1.00  0.00    -0.177 N 
HETATM   23  C10 UNL     1      44.297  49.154   7.296  1.00  0.00     0.150 C 
HETATM   24  C11 UNL     1      44.088  48.445   8.616  1.00  0.00     0.040 C 
HETATM   25  C12 UNL     1      44.652  49.387   9.686  1.00  0.00     0.122 C 
HETATM   26  N5  UNL     1      43.734  50.474   9.817  1.00  0.00    -0.385 N 
HETATM   27  C13 UNL     1      43.741  51.270   8.622  1.00  0.00     0.196 C 
ATOM     28  H5  UNL     1      43.158  50.657  10.639  1.00  0.00     0.160 HD
ENDBRANCH   6  22
BRANCH   7  29
HETATM   29  O5  UNL     1      42.333  51.418   5.650  1.00  0.00    -0.268 OA
ATOM     30  H5  UNL     1      42.123  50.559   5.998  1.00  0.00     0.246 HD
ENDBRANCH   7  29
TORSDOF 9
ENDMDL
MODEL 3
REMARK VINA RESULT: -8.317251295      2.899      6.477
REMARK  9 active torsions:
REMARK  status: ('A' for Active; 'I' for Inactive)
REMARK    1  A    between atoms: C2_2  and  O1_3 
REMARK    2  A    between atoms: C2_2  and  N1_5 
REMARK    3  A    between atoms: N1_5  and  C4_7 
REMARK    4  A    between atoms: C6_9  and  N2_10 
REMARK    5  A    between atoms: N2_10  and  C7_12 
REMARK    6  A    between atoms: C7_12  and  C8_13 
REMARK    7  A    between atoms: C8_13  and  S1_14 
REMARK    8  A    between atoms: C9_20  and  N4_21 
REMARK    9  A    between atoms: N6_28  and  O5_29 
ROOT
HETATM    1  C4  UNL     1      44.529  51.647   6.197  1.00  0.00     0.154 A 
HETATM    2  C5  UNL     1      45.798  52.102   5.885  1.00  0.00     0.100 A 
HETATM    3  C6  UNL     1      46.068  52.805   4.748  1.00  0.00     0.120 A 
HETATM    4  N3  UNL     1      45.027  53.044   3.924  1.00  0.00    -0.174 N 
ATOM      5  H3  UNL     1      45.191  53.566   3.064  1.00  0.00     0.186 HD
HETATM    6  C9  UNL     1      43.780  52.617   4.195  1.00  0.00     0.715 A 
HETATM    7  N6  UNL     1      43.559  51.927   5.329  1.00  0.00    -0.035 N 
ENDROOT
BRANCH   3   8
HETATM    8  N2  UNL     1      47.365  53.278   4.401  1.00  0.00    -0.375 N 
ATOM      9  H2  UNL     1      47.954  52.661   3.841  1.00  0.00     0.161 HD
BRANCH   8  10
HETATM   10  C7  UNL     1      47.912  54.545   4.771  1.00  0.00     0.139 C 
BRANCH  10  11
HETATM   11  C8  UNL     1      49.023  54.899   3.817  1.00  0.00     0.184 C 
BRANCH  11  12
HETATM   12  S1  UNL     1      48.921  56.619   3.339  1.00  0.00     0.103 S 
HETATM   13  O2  UNL     1      47.685  56.756   2.487  1.00  0.00    -0.595 OA
HETATM   14  O3  UNL     1      50.134  57.084   2.630  1.00  0.00    -0.595 OA
HETATM   15  O4  UNL     1      48.618  57.475   4.771  1.00  0.00    -0.595 OA
ENDBRANCH  11  12
ENDBRANCH  10  11
ENDBRANCH   8  10
ENDBRANCH   3   8
BRANCH   1  16
HETATM   16  N1  UNL     1      44.224  50.921   7.356  1.00  0.00    -0.343 N 
HETATM   17  C3  UNL     1      44.364  49.491   7.365  1.00  0.00     0.154 C 
BRANCH  16  18
HETATM   18  C2  UNL     1      43.774  51.592   8.544  1.00  0.00     0.216 C 
HETATM   19  C1  UNL     1      43.851  50.693   9.760  1.00  0.00     0.063 C 
BRANCH  18  20
HETATM   20  O1  UNL     1      42.411  51.962   8.435  1.00  0.00    -0.377 OA
ATOM     21  H1  UNL     1      42.368  52.548   7.688  1.00  0.00     0.212 HD
ENDBRANCH  18  20
ENDBRANCH  16  18
ENDBRANCH   1  16
BRANCH   6  22
HETATM   22  N4  UNL     1      42.737  52.903   3.281  1.00  0.00    -0.177 N 
HETATM   23  C10 UNL     1      41.664  53.746   3.764  1.00  0.00     0.150 C 
HETATM   24  C11 UNL     1      40.729  54.149   2.645  1.00  0.00     0.040 C 
HETATM   25  C12 UNL     1      41.606  54.266   1.393  1.00  0.00     0.122 C 
HETATM   26  N5  UNL     1      41.946  52.938   0.992  1.00  0.00    -0.385 N 
HETATM   27  C13 UNL     1      42.816  52.339   1.964  1.00  0.00     0.196 C 
ATOM     28  H5  UNL     1      41.619  52.483   0.140  1.00  0.00     0.160 HD
ENDBRANCH   6  22
BRANCH   7  29
HETATM   29  O5  UNL     1      42.264  51.512   5.557  1.00  0.00    -0.268 OA
ATOM     30  H5  UNL     1      41.986  51.232   6.420  1.00  0.00     0.246 HD
ENDBRANCH   7  29
TORSDOF 9
ENDMDL
MODEL 4
REMARK VINA RESULT: -8.313411412      4.564      6.677
REMARK  9 active torsions:
REMARK  status: ('A' for Active; 'I' for Inactive)
REMARK    1  A    between atoms: C2_2  and  O1_3 
REMARK    2  A    between atoms: C2_2  and  N1_5 
REMARK    3  A    between atoms: N1_5  and  C4_7 
REMARK    4  A    between atoms: C6_9  and  N2_10 
REMARK    5  A    between atoms: N2_10  and  C7_12 
REMARK    6  A    between atoms: C7_12  and  C8_13 
REMARK    7  A    between atoms: C8_13  and  S1_14 
REMARK    8  A    between atoms: C9_20  and  N4_21 
REMARK    9  A    between atoms: N6_28  and  O5_29 
ROOT
HETATM    1  C4  UNL     1      43.967  51.352   7.325  1.00  0.00     0.154 A 
HETATM    2  C5  UNL     1      43.551  52.135   8.388  1.00  0.00     0.100 A 
HETATM    3  C6  UNL     1      43.461  51.657   9.662  1.00  0.00     0.120 A 
HETATM    4  N3  UNL     1      43.800  50.364   9.848  1.00  0.00    -0.174 N 
ATOM      5  H3  UNL     1      43.745  49.972  10.787  1.00  0.00     0.186 HD
HETATM    6  C9  UNL     1      44.209  49.574   8.838  1.00  0.00     0.715 A 
HETATM    7  N6  UNL     1      44.284  50.088   7.596  1.00  0.00    -0.035 N 
ENDROOT
BRANCH   3   8
HETATM    8  N2  UNL     1      43.029  52.439  10.771  1.00  0.00    -0.375 N 
ATOM      9  H2  UNL     1      43.333  52.143  11.699  1.00  0.00     0.161 HD
BRANCH   8  10
HETATM   10  C7  UNL     1      42.206  53.604  10.692  1.00  0.00     0.139 C 
BRANCH  10  11
HETATM   11  C8  UNL     1      42.697  54.621  11.691  1.00  0.00     0.184 C 
BRANCH  11  12
HETATM   12  S1  UNL     1      41.438  54.961  12.915  1.00  0.00     0.103 S 
HETATM   13  O2  UNL     1      41.924  56.141  13.716  1.00  0.00    -0.595 OA
HETATM   14  O3  UNL     1      41.152  53.790  13.774  1.00  0.00    -0.595 OA
HETATM   15  O4  UNL     1      40.084  55.493  12.043  1.00  0.00    -0.595 OA
ENDBRANCH  11  12
ENDBRANCH  10  11
ENDBRANCH   8  10
ENDBRANCH   3   8
BRANCH   1  16
HETATM   16  N1  UNL     1      44.067  51.817   6.007  1.00  0.00    -0.343 N 
HETATM   17  C3  UNL     1      42.924  52.404   5.365  1.00  0.00     0.154 C 
BRANCH  16  18
HETATM   18  C2  UNL     1      45.305  51.716   5.286  1.00  0.00     0.216 C 
HETATM   19  C1  UNL     1      45.700  53.036   4.660  1.00  0.00     0.063 C 
BRANCH  18  20
HETATM   20  O1  UNL     1      45.193  50.806   4.206  1.00  0.00    -0.377 OA
ATOM     21  H1  UNL     1      44.787  50.029   4.573  1.00  0.00     0.212 HD
ENDBRANCH  18  20
ENDBRANCH  16  18
ENDBRANCH   1  16
BRANCH   6  22
HETATM   22  N4  UNL     1      44.546  48.226   9.108  1.00  0.00    -0.177 N 
HETATM   23  C10 UNL     1      43.788  47.213   8.404  1.00  0.00     0.150 C 
HETATM   24  C11 UNL     1      44.375  45.835   8.613  1.00  0.00     0.040 C 
HETATM   25  C12 UNL     1      45.888  46.043   8.739  1.00  0.00     0.122 C 
HETATM   26  N5  UNL     1      46.128  46.632  10.017  1.00  0.00    -0.385 N 
HETATM   27  C13 UNL     1      45.596  47.965  10.052  1.00  0.00     0.196 C 
ATOM     28  H5  UNL     1      46.607  46.173  10.792  1.00  0.00     0.160 HD
ENDBRANCH   6  22
BRANCH   7  29
HETATM   29  O5  UNL     1      44.707  49.235   6.600  1.00  0.00    -0.268 OA
ATOM     30  H5  UNL     1      44.833  48.309   6.771  1.00  0.00     0.246 HD
ENDBRANCH   7  29
TORSDOF 9
ENDMDL
MODEL 5
REMARK VINA RESULT: -8.092450929      4.511      6.590
REMARK  9 active torsions:
REMARK  status: ('A' for Active; 'I' for Inactive)
REMARK    1  A    between atoms: C2_2  and  O1_3 
REMARK    2  A    between atoms: C2_2  and  N1_5 
REMARK    3  A    between atoms: N1_5  and  C4_7 
REMARK    4  A    between atoms: C6_9  and  N2_10 
REMARK    5  A    between atoms: N2_10  and  C7_12 
REMARK    6  A    between atoms: C7_12  and  C8_13 
REMARK    7  A    between atoms: C8_13  and  S1_14 
REMARK    8  A    between atoms: C9_20  and  N4_21 
REMARK    9  A    between atoms: N6_28  and  O5_29 
ROOT
HETATM    1  C4  UNL     1      43.799  51.762   7.022  1.00  0.00     0.154 A 
HETATM    2  C5  UNL     1      43.449  52.334   8.233  1.00  0.00     0.100 A 
HETATM    3  C6  UNL     1      43.474  51.641   9.408  1.00  0.00     0.120 A 
HETATM    4  N3  UNL     1      43.862  50.350   9.339  1.00  0.00    -0.174 N 
ATOM      5  H3  UNL     1      43.893  49.801  10.197  1.00  0.00     0.186 HD
HETATM    6  C9  UNL     1      44.210  49.763   8.179  1.00  0.00     0.715 A 
HETATM    7  N6  UNL     1      44.171  50.485   7.044  1.00  0.00    -0.035 N 
ENDROOT
BRANCH   3   8
HETATM    8  N2  UNL     1      43.112  52.203  10.664  1.00  0.00    -0.375 N 
ATOM      9  H2  UNL     1      43.435  51.720  11.503  1.00  0.00     0.161 HD
BRANCH   8  10
HETATM   10  C7  UNL     1      42.335  53.387  10.849  1.00  0.00     0.139 C 
BRANCH  10  11
HETATM   11  C8  UNL     1      42.846  54.127  12.058  1.00  0.00     0.184 C 
BRANCH  11  12
HETATM   12  S1  UNL     1      41.492  54.857  12.971  1.00  0.00     0.103 S 
HETATM   13  O2  UNL     1      42.021  56.128  13.583  1.00  0.00    -0.595 OA
HETATM   14  O3  UNL     1      40.940  53.941  13.993  1.00  0.00    -0.595 OA
HETATM   15  O4  UNL     1      40.352  55.320  11.805  1.00  0.00    -0.595 OA
ENDBRANCH  11  12
ENDBRANCH  10  11
ENDBRANCH   8  10
ENDBRANCH   3   8
BRANCH   1  16
HETATM   16  N1  UNL     1      43.780  52.450   5.802  1.00  0.00    -0.343 N 
HETATM   17  C3  UNL     1      42.536  52.655   5.112  1.00  0.00     0.154 C 
BRANCH  16  18
HETATM   18  C2  UNL     1      44.995  52.960   5.228  1.00  0.00     0.216 C 
HETATM   19  C1  UNL     1      45.108  52.619   3.757  1.00  0.00     0.063 C 
BRANCH  18  20
HETATM   20  O1  UNL     1      46.131  52.376   5.839  1.00  0.00    -0.377 OA
ATOM     21  H1  UNL     1      45.998  52.483   6.773  1.00  0.00     0.212 HD
ENDBRANCH  18  20
ENDBRANCH  16  18
ENDBRANCH   1  16
BRANCH   6  22
HETATM   22  N4  UNL     1      44.604  48.403   8.185  1.00  0.00    -0.177 N 
HETATM   23  C10 UNL     1      46.022  48.139   8.310  1.00  0.00     0.150 C 
HETATM   24  C11 UNL     1      46.297  46.666   8.515  1.00  0.00     0.040 C 
HETATM   25  C12 UNL     1      45.106  46.130   9.318  1.00  0.00     0.122 C 
HETATM   26  N5  UNL     1      43.990  46.073   8.428  1.00  0.00    -0.385 N 
HETATM   27  C13 UNL     1      43.585  47.400   8.061  1.00  0.00     0.196 C 
ATOM     28  H5  UNL     1      43.546  45.214   8.101  1.00  0.00     0.160 HD
ENDBRANCH   6  22
BRANCH   7  29
HETATM   29  O5  UNL     1      44.536  49.834   5.886  1.00  0.00    -0.268 OA
ATOM     30  H5  UNL     1      44.167  48.987   5.666  1.00  0.00     0.246 HD
ENDBRANCH   7  29
TORSDOF 9
ENDMDL
