MODEL 1
REMARK VINA RESULT: -8.358664870      0.000      0.000
REMARK  6 active torsions:
REMARK  status: ('A' for Active; 'I' for Inactive)
REMARK    1  A    between atoms: C2_2  and  C3_4 
REMARK    2  A    between atoms: C3_4  and  N1_5 
REMARK    3  A    between atoms: C3_4  and  C4_9 
REMARK       I    between atoms: C4_9  and  N2_11 
REMARK       I    between atoms: N2_11  and  C5_13 
REMARK       I    between atoms: C5_13  and  N3_14 
REMARK       I    between atoms: C5_13  and  N4_18 
REMARK       I    between atoms: N4_18  and  C6_20 
REMARK    4  A    between atoms: C6_20  and  C7_22 
REMARK    5  A    between atoms: N5_26  and  N6_27 
REMARK       I    between atoms: N6_27  and  C10_28 
REMARK    6  A    between atoms: C10_28  and  C11_30 
ROOT
HETATM    1  C4  UNL     1      46.087  47.330   9.490  1.00  0.00     0.258 C 
HETATM    2  O2  UNL     1      45.856  47.771  10.634  1.00  0.00    -0.271 OA
HETATM    3  N2  UNL     1      45.661  48.013   8.329  1.00  0.00    -0.315 N 
ATOM      4  H2  UNL     1      45.892  47.630   7.412  1.00  0.00     0.166 HD
HETATM    5  C5  UNL     1      44.923  49.213   8.411  1.00  0.00     0.391 C 
HETATM    6  N3  UNL     1      43.541  48.846   7.933  1.00  0.00    -0.040 N 
ATOM      7  H31 UNL     1      43.008  49.712   7.992  1.00  0.00     0.279 HD
ATOM      8  H32 UNL     1      43.120  48.065   8.438  1.00  0.00     0.279 HD
ATOM      9  H33 UNL     1      43.523  48.410   7.011  1.00  0.00     0.279 HD
HETATM   10  N4  UNL     1      45.372  50.283   7.561  1.00  0.00    -0.316 N 
ATOM     11  H4  UNL     1      46.341  50.235   7.243  1.00  0.00     0.166 HD
HETATM   12  C6  UNL     1      44.619  51.393   7.116  1.00  0.00     0.246 C 
HETATM   13  O3  UNL     1      43.412  51.472   7.490  1.00  0.00    -0.271 OA
ENDROOT
BRANCH   1  14
HETATM   14  C3  UNL     1      46.863  46.023   9.410  1.00  0.00     0.343 C 
BRANCH  14  15
HETATM   15  C2  UNL     1      46.013  44.858   9.183  1.00  0.00     0.162 C 
HETATM   16  C1  UNL     1      46.497  43.417   9.283  1.00  0.00     0.093 C 
HETATM   17  O1  UNL     1      44.842  45.004   8.891  1.00  0.00    -0.296 OA
ENDBRANCH  14  15
BRANCH  14  18
HETATM   18  N1  UNL     1      47.853  46.149   8.364  1.00  0.00    -0.060 N 
ATOM     19  H13 UNL     1      47.850  45.340   7.742  1.00  0.00     0.275 HD
ATOM     20  H12 UNL     1      47.597  46.865   7.686  1.00  0.00     0.275 HD
ATOM     21  H11 UNL     1      48.779  46.317   8.759  1.00  0.00     0.275 HD
ENDBRANCH  14  18
ENDBRANCH   1  14
BRANCH  12  22
HETATM   22  C7  UNL     1      45.207  52.399   6.260  1.00  0.00     0.217 C 
HETATM   23  C8  UNL     1      44.185  53.385   5.667  1.00  0.00     0.113 C 
HETATM   24  S1  UNL     1      43.837  52.586   4.069  1.00  0.00    -0.144 SA
HETATM   25  C9  UNL     1      45.227  51.374   4.134  1.00  0.00     0.231 C 
HETATM   26  N5  UNL     1      45.993  51.988   5.157  1.00  0.00    -0.236 N 
BRANCH  26  27
HETATM   27  N6  UNL     1      47.134  52.528   4.879  1.00  0.00    -0.280 NA
HETATM   28  C10 UNL     1      48.324  53.089   4.589  1.00  0.00     0.368 C 
HETATM   29  O4  UNL     1      49.437  52.521   4.300  1.00  0.00    -0.247 OA
BRANCH  28  30
HETATM   30  C11 UNL     1      48.519  54.595   4.534  1.00  0.00     0.153 A 
HETATM   31  C12 UNL     1      49.283  55.286   3.615  1.00  0.00     0.042 A 
HETATM   32  C13 UNL     1      49.212  56.625   3.883  1.00  0.00     0.003 A 
HETATM   33  C14 UNL     1      48.359  56.687   5.023  1.00  0.00     0.203 A 
HETATM   34  O5  UNL     1      47.992  55.461   5.346  1.00  0.00    -0.341 OA
ENDBRANCH  28  30
ENDBRANCH  26  27
ENDBRANCH  12  22
TORSDOF 6
ENDMDL
MODEL 2
REMARK VINA RESULT: -7.765893705      1.121      1.135
REMARK  6 active torsions:
REMARK  status: ('A' for Active; 'I' for Inactive)
REMARK    1  A    between atoms: C2_2  and  C3_4 
REMARK    2  A    between atoms: C3_4  and  N1_5 
REMARK    3  A    between atoms: C3_4  and  C4_9 
REMARK       I    between atoms: C4_9  and  N2_11 
REMARK       I    between atoms: N2_11  and  C5_13 
REMARK       I    between atoms: C5_13  and  N3_14 
REMARK       I    between atoms: C5_13  and  N4_18 
REMARK       I    between atoms: N4_18  and  C6_20 
REMARK    4  A    between atoms: C6_20  and  C7_22 
REMARK    5  A    between atoms: N5_26  and  N6_27 
REMARK       I    between atoms: N6_27  and  C10_28 
REMARK    6  A    between atoms: C10_28  and  C11_30 
ROOT
HETATM    1  C4  UNL     1      45.739  47.403  10.078  1.00  0.00     0.258 C 
HETATM    2  O2  UNL     1      45.328  47.897  11.148  1.00  0.00    -0.271 OA
HETATM    3  N2  UNL     1      45.454  47.995   8.827  1.00  0.00    -0.315 N 
ATOM      4  H2  UNL     1      45.830  47.573   7.978  1.00  0.00     0.166 HD
HETATM    5  C5  UNL     1      44.661  49.159   8.727  1.00  0.00     0.391 C 
HETATM    6  N3  UNL     1      43.379  48.693   8.085  1.00  0.00    -0.040 N 
ATOM      7  H31 UNL     1      42.806  49.533   8.013  1.00  0.00     0.279 HD
ATOM      8  H32 UNL     1      42.924  47.922   8.575  1.00  0.00     0.279 HD
ATOM      9  H33 UNL     1      43.511  48.204   7.200  1.00  0.00     0.279 HD
HETATM   10  N4  UNL     1      45.181  50.199   7.881  1.00  0.00    -0.316 N 
ATOM     11  H4  UNL     1      46.186  50.183   7.706  1.00  0.00     0.166 HD
HETATM   12  C6  UNL     1      44.452  51.242   7.265  1.00  0.00     0.246 C 
HETATM   13  O3  UNL     1      43.202  51.280   7.459  1.00  0.00    -0.271 OA
ENDROOT
BRANCH   1  14
HETATM   14  C3  UNL     1      46.574  46.136  10.193  1.00  0.00     0.343 C 
BRANCH  14  15
HETATM   15  C2  UNL     1      47.469  45.928   9.058  1.00  0.00     0.162 C 
HETATM   16  C1  UNL     1      48.224  44.632   8.795  1.00  0.00     0.093 C 
HETATM   17  O1  UNL     1      47.652  46.821   8.254  1.00  0.00    -0.296 OA
ENDBRANCH  14  15
BRANCH  14  18
HETATM   18  N1  UNL     1      47.318  46.196  11.431  1.00  0.00    -0.060 N 
ATOM     19  H13 UNL     1      46.935  45.562  12.132  1.00  0.00     0.275 HD
ATOM     20  H12 UNL     1      48.243  45.779  11.336  1.00  0.00     0.275 HD
ATOM     21  H11 UNL     1      47.370  47.153  11.778  1.00  0.00     0.275 HD
ENDBRANCH  14  18
ENDBRANCH   1  14
BRANCH  12  22
HETATM   22  C7  UNL     1      45.113  52.225   6.436  1.00  0.00     0.217 C 
HETATM   23  C8  UNL     1      44.158  53.267   5.827  1.00  0.00     0.113 C 
HETATM   24  S1  UNL     1      43.815  52.502   4.211  1.00  0.00    -0.144 SA
HETATM   25  C9  UNL     1      45.140  51.221   4.300  1.00  0.00     0.231 C 
HETATM   26  N5  UNL     1      45.907  51.786   5.350  1.00  0.00    -0.236 N 
BRANCH  26  27
HETATM   27  N6  UNL     1      47.081  52.271   5.109  1.00  0.00    -0.280 NA
HETATM   28  C10 UNL     1      48.305  52.775   4.858  1.00  0.00     0.368 C 
HETATM   29  O4  UNL     1      49.423  52.158   4.734  1.00  0.00    -0.247 OA
BRANCH  28  30
HETATM   30  C11 UNL     1      48.542  54.260   4.644  1.00  0.00     0.153 A 
HETATM   31  C12 UNL     1      49.390  54.824   3.711  1.00  0.00     0.042 A 
HETATM   32  C13 UNL     1      49.334  56.187   3.815  1.00  0.00     0.003 A 
HETATM   33  C14 UNL     1      48.402  56.397   4.872  1.00  0.00     0.203 A 
HETATM   34  O5  UNL     1      47.981  55.224   5.307  1.00  0.00    -0.341 OA
ENDBRANCH  28  30
ENDBRANCH  26  27
ENDBRANCH  12  22
TORSDOF 6
ENDMDL
MODEL 3
REMARK VINA RESULT: -7.465516196      4.161      6.858
REMARK  6 active torsions:
REMARK  status: ('A' for Active; 'I' for Inactive)
REMARK    1  A    between atoms: C2_2  and  C3_4 
REMARK    2  A    between atoms: C3_4  and  N1_5 
REMARK    3  A    between atoms: C3_4  and  C4_9 
REMARK       I    between atoms: C4_9  and  N2_11 
REMARK       I    between atoms: N2_11  and  C5_13 
REMARK       I    between atoms: C5_13  and  N3_14 
REMARK       I    between atoms: C5_13  and  N4_18 
REMARK       I    between atoms: N4_18  and  C6_20 
REMARK    4  A    between atoms: C6_20  and  C7_22 
REMARK    5  A    between atoms: N5_26  and  N6_27 
REMARK       I    between atoms: N6_27  and  C10_28 
REMARK    6  A    between atoms: C10_28  and  C11_30 
ROOT
HETATM    1  C4  UNL     1      45.071  52.087   4.967  1.00  0.00     0.258 C 
HETATM    2  O2  UNL     1      44.903  51.909   3.744  1.00  0.00    -0.271 OA
HETATM    3  N2  UNL     1      46.201  52.769   5.472  1.00  0.00    -0.315 N 
ATOM      4  H2  UNL     1      46.288  52.914   6.478  1.00  0.00     0.166 HD
HETATM    5  C5  UNL     1      47.212  53.253   4.614  1.00  0.00     0.391 C 
HETATM    6  N3  UNL     1      48.406  52.377   4.896  1.00  0.00    -0.040 N 
ATOM      7  H31 UNL     1      49.136  52.727   4.276  1.00  0.00     0.279 HD
ATOM      8  H32 UNL     1      48.221  51.378   4.796  1.00  0.00     0.279 HD
ATOM      9  H33 UNL     1      48.676  52.346   5.879  1.00  0.00     0.279 HD
HETATM   10  N4  UNL     1      47.640  54.606   4.853  1.00  0.00    -0.316 N 
ATOM     11  H4  UNL     1      46.985  55.208   5.353  1.00  0.00     0.166 HD
HETATM   12  C6  UNL     1      48.868  55.192   4.472  1.00  0.00     0.246 C 
HETATM   13  O3  UNL     1      49.702  54.464   3.858  1.00  0.00    -0.271 OA
ENDROOT
BRANCH   1  14
HETATM   14  C3  UNL     1      43.989  51.540   5.887  1.00  0.00     0.343 C 
BRANCH  14  15
HETATM   15  C2  UNL     1      44.358  51.576   7.300  1.00  0.00     0.162 C 
HETATM   16  C1  UNL     1      43.544  52.283   8.376  1.00  0.00     0.093 C 
HETATM   17  O1  UNL     1      45.371  51.021   7.680  1.00  0.00    -0.296 OA
ENDBRANCH  14  15
BRANCH  14  18
HETATM   18  N1  UNL     1      42.776  52.292   5.654  1.00  0.00    -0.060 N 
ATOM     19  H13 UNL     1      42.313  52.004   4.793  1.00  0.00     0.275 HD
ATOM     20  H12 UNL     1      42.042  52.040   6.315  1.00  0.00     0.275 HD
ATOM     21  H11 UNL     1      42.963  53.295   5.663  1.00  0.00     0.275 HD
ENDBRANCH  14  18
ENDBRANCH   1  14
BRANCH  12  22
HETATM   22  C7  UNL     1      49.163  56.574   4.780  1.00  0.00     0.217 C 
HETATM   23  C8  UNL     1      48.026  57.547   4.420  1.00  0.00     0.113 C 
HETATM   24  S1  UNL     1      48.547  58.067   2.755  1.00  0.00    -0.144 SA
HETATM   25  C9  UNL     1      50.248  57.356   2.835  1.00  0.00     0.231 C 
HETATM   26  N5  UNL     1      50.329  57.165   4.237  1.00  0.00    -0.236 N 
BRANCH  26  27
HETATM   27  N6  UNL     1      51.134  57.887   4.946  1.00  0.00    -0.280 NA
HETATM   28  C10 UNL     1      51.974  58.639   5.684  1.00  0.00     0.368 C 
HETATM   29  O4  UNL     1      52.552  59.742   5.376  1.00  0.00    -0.247 OA
BRANCH  28  30
HETATM   30  C11 UNL     1      52.359  58.268   7.106  1.00  0.00     0.153 A 
HETATM   31  C12 UNL     1      53.072  57.149   7.491  1.00  0.00     0.042 A 
HETATM   32  C13 UNL     1      53.227  57.159   8.850  1.00  0.00     0.003 A 
HETATM   33  C14 UNL     1      52.558  58.353   9.249  1.00  0.00     0.203 A 
HETATM   34  O5  UNL     1      52.077  58.949   8.174  1.00  0.00    -0.341 OA
ENDBRANCH  28  30
ENDBRANCH  26  27
ENDBRANCH  12  22
TORSDOF 6
ENDMDL
MODEL 4
REMARK VINA RESULT: -7.447848531      4.048      6.688
REMARK  6 active torsions:
REMARK  status: ('A' for Active; 'I' for Inactive)
REMARK    1  A    between atoms: C2_2  and  C3_4 
REMARK    2  A    between atoms: C3_4  and  N1_5 
REMARK    3  A    between atoms: C3_4  and  C4_9 
REMARK       I    between atoms: C4_9  and  N2_11 
REMARK       I    between atoms: N2_11  and  C5_13 
REMARK       I    between atoms: C5_13  and  N3_14 
REMARK       I    between atoms: C5_13  and  N4_18 
REMARK       I    between atoms: N4_18  and  C6_20 
REMARK    4  A    between atoms: C6_20  and  C7_22 
REMARK    5  A    between atoms: N5_26  and  N6_27 
REMARK       I    between atoms: N6_27  and  C10_28 
REMARK    6  A    between atoms: C10_28  and  C11_30 
ROOT
HETATM    1  C4  UNL     1      45.103  51.539   5.277  1.00  0.00     0.258 C 
HETATM    2  O2  UNL     1      45.141  51.032   4.138  1.00  0.00    -0.271 OA
HETATM    3  N2  UNL     1      46.015  52.541   5.676  1.00  0.00    -0.315 N 
ATOM      4  H2  UNL     1      45.935  52.947   6.609  1.00  0.00     0.166 HD
HETATM    5  C5  UNL     1      47.036  52.993   4.812  1.00  0.00     0.391 C 
HETATM    6  N3  UNL     1      48.313  52.477   5.426  1.00  0.00    -0.040 N 
ATOM      7  H31 UNL     1      49.050  52.803   4.802  1.00  0.00     0.279 HD
ATOM      8  H32 UNL     1      48.320  51.469   5.584  1.00  0.00     0.279 HD
ATOM      9  H33 UNL     1      48.444  52.748   6.400  1.00  0.00     0.279 HD
HETATM   10  N4  UNL     1      47.185  54.421   4.713  1.00  0.00    -0.316 N 
ATOM     11  H4  UNL     1      46.372  54.981   4.970  1.00  0.00     0.166 HD
HETATM   12  C6  UNL     1      48.334  55.132   4.298  1.00  0.00     0.246 C 
HETATM   13  O3  UNL     1      49.358  54.460   3.980  1.00  0.00    -0.271 OA
ENDROOT
BRANCH   1  14
HETATM   14  C3  UNL     1      44.014  51.029   6.211  1.00  0.00     0.343 C 
BRANCH  14  15
HETATM   15  C2  UNL     1      44.264  51.342   7.615  1.00  0.00     0.162 C 
HETATM   16  C1  UNL     1      43.340  52.196   8.475  1.00  0.00     0.093 C 
HETATM   17  O1  UNL     1      45.259  50.916   8.168  1.00  0.00    -0.296 OA
ENDBRANCH  14  15
BRANCH  14  18
HETATM   18  N1  UNL     1      42.751  51.584   5.777  1.00  0.00    -0.060 N 
ATOM     19  H13 UNL     1      42.002  51.377   6.437  1.00  0.00     0.275 HD
ATOM     20  H12 UNL     1      42.742  52.601   5.847  1.00  0.00     0.275 HD
ATOM     21  H11 UNL     1      42.521  51.269   4.835  1.00  0.00     0.275 HD
ENDBRANCH  14  18
ENDBRANCH   1  14
BRANCH  12  22
HETATM   22  C7  UNL     1      48.338  56.577   4.245  1.00  0.00     0.217 C 
HETATM   23  C8  UNL     1      48.171  57.147   2.826  1.00  0.00     0.113 C 
HETATM   24  S1  UNL     1      49.913  57.374   2.349  1.00  0.00    -0.144 SA
HETATM   25  C9  UNL     1      50.625  57.116   4.031  1.00  0.00     0.231 C 
HETATM   26  N5  UNL     1      49.439  57.281   4.789  1.00  0.00    -0.236 N 
BRANCH  26  27
HETATM   27  N6  UNL     1      49.292  58.314   5.552  1.00  0.00    -0.280 NA
HETATM   28  C10 UNL     1      49.138  59.392   6.346  1.00  0.00     0.368 C 
HETATM   29  O4  UNL     1      48.226  60.293   6.317  1.00  0.00    -0.247 OA
BRANCH  28  30
HETATM   30  C11 UNL     1      50.086  59.695   7.494  1.00  0.00     0.153 A 
HETATM   31  C12 UNL     1      51.399  59.278   7.600  1.00  0.00     0.042 A 
HETATM   32  C13 UNL     1      51.930  59.749   8.768  1.00  0.00     0.003 A 
HETATM   33  C14 UNL     1      50.849  60.470   9.353  1.00  0.00     0.203 A 
HETATM   34  O5  UNL     1      49.804  60.395   8.550  1.00  0.00    -0.341 OA
ENDBRANCH  28  30
ENDBRANCH  26  27
ENDBRANCH  12  22
TORSDOF 6
ENDMDL
MODEL 5
REMARK VINA RESULT: -7.392199908      3.982      8.852
REMARK  6 active torsions:
REMARK  status: ('A' for Active; 'I' for Inactive)
REMARK    1  A    between atoms: C2_2  and  C3_4 
REMARK    2  A    between atoms: C3_4  and  N1_5 
REMARK    3  A    between atoms: C3_4  and  C4_9 
REMARK       I    between atoms: C4_9  and  N2_11 
REMARK       I    between atoms: N2_11  and  C5_13 
REMARK       I    between atoms: C5_13  and  N3_14 
REMARK       I    between atoms: C5_13  and  N4_18 
REMARK       I    between atoms: N4_18  and  C6_20 
REMARK    4  A    between atoms: C6_20  and  C7_22 
REMARK    5  A    between atoms: N5_26  and  N6_27 
REMARK       I    between atoms: N6_27  and  C10_28 
REMARK    6  A    between atoms: C10_28  and  C11_30 
ROOT
HETATM    1  C4  UNL     1      42.858  52.713   4.132  1.00  0.00     0.258 C 
HETATM    2  O2  UNL     1      41.667  52.743   4.501  1.00  0.00    -0.271 OA
HETATM    3  N2  UNL     1      43.894  52.290   4.995  1.00  0.00    -0.315 N 
ATOM      4  H2  UNL     1      44.852  52.257   4.647  1.00  0.00     0.166 HD
HETATM    5  C5  UNL     1      43.631  51.911   6.330  1.00  0.00     0.391 C 
HETATM    6  N3  UNL     1      44.244  53.006   7.166  1.00  0.00    -0.040 N 
ATOM      7  H31 UNL     1      44.055  52.733   8.129  1.00  0.00     0.279 HD
ATOM      8  H32 UNL     1      43.917  53.943   6.928  1.00  0.00     0.279 HD
ATOM      9  H33 UNL     1      45.231  53.175   6.969  1.00  0.00     0.279 HD
HETATM   10  N4  UNL     1      44.242  50.683   6.763  1.00  0.00    -0.316 N 
ATOM     11  H4  UNL     1      44.509  50.025   6.031  1.00  0.00     0.166 HD
HETATM   12  C6  UNL     1      44.513  50.288   8.093  1.00  0.00     0.246 C 
HETATM   13  O3  UNL     1      44.198  51.090   9.020  1.00  0.00    -0.271 OA
ENDROOT
BRANCH   1  14
HETATM   14  C3  UNL     1      43.136  53.145   2.700  1.00  0.00     0.343 C 
BRANCH  14  15
HETATM   15  C2  UNL     1      43.160  52.033   1.754  1.00  0.00     0.162 C 
HETATM   16  C1  UNL     1      42.364  52.002   0.456  1.00  0.00     0.093 C 
HETATM   17  O1  UNL     1      43.841  51.053   1.982  1.00  0.00    -0.296 OA
ENDBRANCH  14  15
BRANCH  14  18
HETATM   18  N1  UNL     1      42.139  54.121   2.321  1.00  0.00    -0.060 N 
ATOM     19  H13 UNL     1      42.545  55.050   2.206  1.00  0.00     0.275 HD
ATOM     20  H12 UNL     1      41.813  53.976   1.366  1.00  0.00     0.275 HD
ATOM     21  H11 UNL     1      41.366  54.128   2.986  1.00  0.00     0.275 HD
ENDBRANCH  14  18
ENDBRANCH   1  14
BRANCH  12  22
HETATM   22  C7  UNL     1      45.134  49.014   8.381  1.00  0.00     0.217 C 
HETATM   23  C8  UNL     1      44.970  47.975   7.258  1.00  0.00     0.113 C 
HETATM   24  S1  UNL     1      43.482  47.096   7.829  1.00  0.00    -0.144 SA
HETATM   25  C9  UNL     1      43.448  47.823   9.525  1.00  0.00     0.231 C 
HETATM   26  N5  UNL     1      44.773  48.326   9.564  1.00  0.00    -0.236 N 
BRANCH  26  27
HETATM   27  N6  UNL     1      45.649  47.790  10.349  1.00  0.00    -0.280 NA
HETATM   28  C10 UNL     1      46.563  47.233  11.168  1.00  0.00     0.368 C 
HETATM   29  O4  UNL     1      47.058  47.694  12.258  1.00  0.00    -0.247 OA
BRANCH  28  30
HETATM   30  C11 UNL     1      47.158  45.860  10.905  1.00  0.00     0.153 A 
HETATM   31  C12 UNL     1      47.412  45.306   9.666  1.00  0.00     0.042 A 
HETATM   32  C13 UNL     1      47.951  44.059   9.831  1.00  0.00     0.003 A 
HETATM   33  C14 UNL     1      47.998  43.906  11.247  1.00  0.00     0.203 A 
HETATM   34  O5  UNL     1      47.518  45.000  11.809  1.00  0.00    -0.341 OA
ENDBRANCH  28  30
ENDBRANCH  26  27
ENDBRANCH  12  22
TORSDOF 6
ENDMDL
