MODEL 1
REMARK VINA RESULT: -8.770021236      0.000      0.000
REMARK  9 active torsions:
REMARK  status: ('A' for Active; 'I' for Inactive)
REMARK    1  A    between atoms: O1_2  and  N1_3 
REMARK    2  A    between atoms: C2_5  and  C3_6 
REMARK    3  A    between atoms: C2_5  and  C6_15 
REMARK    4  A    between atoms: C5_9  and  N2_10 
REMARK    5  A    between atoms: C6_15  and  O2_16 
REMARK    6  A    between atoms: C6_15  and  N4_18 
REMARK    7  A    between atoms: N4_18  and  S2_20 
REMARK    8  A    between atoms: S2_20  and  C7_23 
REMARK    9  A    between atoms: C7_23  and  N5_24 
ROOT
HETATM    1  C6  UNL     1      43.344  52.267   6.531  1.00  0.00     0.283 C 
ENDROOT
BRANCH   1   2
HETATM    2  C2  UNL     1      43.990  52.898   5.297  1.00  0.00     0.108 C 
HETATM    3  N1  UNL     1      45.159  53.324   5.434  1.00  0.00    -0.265 N 
ATOM      4  H1  UNL     1      45.520  53.180   6.377  1.00  0.00     0.194 HD
BRANCH   3   5
HETATM    5  O1  UNL     1      46.041  53.924   4.634  1.00  0.00    -0.285 OA
HETATM    6  C1  UNL     1      47.428  53.609   4.663  1.00  0.00     0.237 C 
ENDBRANCH   3   5
BRANCH   2   7
HETATM    7  C3  UNL     1      43.169  52.948   4.060  1.00  0.00     0.070 A 
HETATM    8  C4  UNL     1      43.666  52.479   2.866  1.00  0.00     0.085 A 
HETATM    9  S1  UNL     1      42.365  52.755   1.794  1.00  0.00    -0.064 SA
HETATM   10  C5  UNL     1      41.277  53.440   2.902  1.00  0.00     0.142 A 
HETATM   11  N3  UNL     1      41.957  53.429   4.051  1.00  0.00    -0.335 N 
ATOM     12  H3  UNL     1      41.535  53.791   4.907  1.00  0.00     0.168 HD
BRANCH  10  13
HETATM   13  N2  UNL     1      40.054  53.878   2.686  1.00  0.00    -0.380 N 
ATOM     14  H22 UNL     1      39.741  54.549   1.985  1.00  0.00     0.158 HD
ATOM     15  H21 UNL     1      39.195  53.630   3.176  1.00  0.00     0.158 HD
ENDBRANCH  10  13
ENDBRANCH   2   7
ENDBRANCH   1   2
BRANCH   1  16
HETATM   16  O2  UNL     1      44.103  52.733   7.585  1.00  0.00    -0.370 OA
ATOM     17  H2  UNL     1      44.008  52.064   8.254  1.00  0.00     0.212 HD
ENDBRANCH   1  16
BRANCH   1  18
HETATM   18  N4  UNL     1      43.270  50.860   6.383  1.00  0.00    -0.282 N 
ATOM     19  H4  UNL     1      42.479  50.418   5.915  1.00  0.00     0.175 HD
BRANCH  18  20
HETATM   20  S2  UNL     1      44.539  49.946   7.011  1.00  0.00     0.266 S 
HETATM   21  O3  UNL     1      44.813  48.824   5.996  1.00  0.00    -0.200 OA
HETATM   22  O4  UNL     1      45.830  50.756   6.979  1.00  0.00    -0.200 OA
BRANCH  20  23
HETATM   23  C7  UNL     1      44.312  49.162   8.547  1.00  0.00     0.231 C 
BRANCH  23  24
HETATM   24  N5  UNL     1      44.763  47.810   8.661  1.00  0.00    -0.273 N 
HETATM   25  C8  UNL     1      46.053  47.554   9.054  1.00  0.00     0.107 A 
HETATM   26  C9  UNL     1      46.551  46.284   9.217  1.00  0.00     0.092 A 
HETATM   27  C10 UNL     1      45.743  45.192   8.985  1.00  0.00     0.250 A 
HETATM   28  O5  UNL     1      46.150  44.010   9.120  1.00  0.00    -0.268 OA
HETATM   29  N6  UNL     1      44.487  45.457   8.601  1.00  0.00    -0.275 N 
HETATM   30  C11 UNL     1      44.008  46.734   8.444  1.00  0.00     0.333 A 
ATOM     31  H6  UNL     1      43.858  44.676   8.418  1.00  0.00     0.173 HD
HETATM   32  O6  UNL     1      42.815  46.902   8.075  1.00  0.00    -0.246 OA
ENDBRANCH  23  24
ENDBRANCH  20  23
ENDBRANCH  18  20
ENDBRANCH   1  18
TORSDOF 9
ENDMDL
MODEL 2
REMARK VINA RESULT: -8.685419532      0.991      1.101
REMARK  9 active torsions:
REMARK  status: ('A' for Active; 'I' for Inactive)
REMARK    1  A    between atoms: O1_2  and  N1_3 
REMARK    2  A    between atoms: C2_5  and  C3_6 
REMARK    3  A    between atoms: C2_5  and  C6_15 
REMARK    4  A    between atoms: C5_9  and  N2_10 
REMARK    5  A    between atoms: C6_15  and  O2_16 
REMARK    6  A    between atoms: C6_15  and  N4_18 
REMARK    7  A    between atoms: N4_18  and  S2_20 
REMARK    8  A    between atoms: S2_20  and  C7_23 
REMARK    9  A    between atoms: C7_23  and  N5_24 
ROOT
HETATM    1  C6  UNL     1      43.345  52.265   6.493  1.00  0.00     0.283 C 
ENDROOT
BRANCH   1   2
HETATM    2  C2  UNL     1      43.975  52.903   5.254  1.00  0.00     0.108 C 
HETATM    3  N1  UNL     1      45.170  53.260   5.354  1.00  0.00    -0.265 N 
ATOM      4  H1  UNL     1      45.561  53.062   6.275  1.00  0.00     0.194 HD
BRANCH   3   5
HETATM    5  O1  UNL     1      46.051  53.838   4.537  1.00  0.00    -0.285 OA
HETATM    6  C1  UNL     1      47.453  53.643   4.673  1.00  0.00     0.237 C 
ENDBRANCH   3   5
BRANCH   2   7
HETATM    7  C3  UNL     1      43.108  53.042   4.056  1.00  0.00     0.070 A 
HETATM    8  C4  UNL     1      41.764  53.306   4.185  1.00  0.00     0.085 A 
HETATM    9  S1  UNL     1      41.243  53.369   2.560  1.00  0.00    -0.064 SA
HETATM   10  C5  UNL     1      42.736  53.062   1.813  1.00  0.00     0.142 A 
HETATM   11  N3  UNL     1      43.575  52.923   2.843  1.00  0.00    -0.335 N 
ATOM     12  H3  UNL     1      44.563  52.727   2.684  1.00  0.00     0.168 HD
BRANCH  10  13
HETATM   13  N2  UNL     1      43.008  52.980   0.528  1.00  0.00    -0.380 N 
ATOM     14  H22 UNL     1      42.736  53.623  -0.215  1.00  0.00     0.158 HD
ATOM     15  H21 UNL     1      43.538  52.260   0.035  1.00  0.00     0.158 HD
ENDBRANCH  10  13
ENDBRANCH   2   7
ENDBRANCH   1   2
BRANCH   1  16
HETATM   16  O2  UNL     1      44.116  52.729   7.539  1.00  0.00    -0.370 OA
ATOM     17  H2  UNL     1      44.721  52.017   7.715  1.00  0.00     0.212 HD
ENDBRANCH   1  16
BRANCH   1  18
HETATM   18  N4  UNL     1      43.274  50.858   6.339  1.00  0.00    -0.282 N 
ATOM     19  H4  UNL     1      42.491  50.418   5.857  1.00  0.00     0.175 HD
BRANCH  18  20
HETATM   20  S2  UNL     1      44.533  49.942   6.985  1.00  0.00     0.266 S 
HETATM   21  O3  UNL     1      44.816  48.818   5.975  1.00  0.00    -0.200 OA
HETATM   22  O4  UNL     1      45.827  50.749   6.966  1.00  0.00    -0.200 OA
BRANCH  20  23
HETATM   23  C7  UNL     1      44.286  49.164   8.520  1.00  0.00     0.231 C 
BRANCH  23  24
HETATM   24  N5  UNL     1      44.743  47.814   8.646  1.00  0.00    -0.273 N 
HETATM   25  C8  UNL     1      46.032  47.568   9.047  1.00  0.00     0.107 A 
HETATM   26  C9  UNL     1      46.535  46.301   9.223  1.00  0.00     0.092 A 
HETATM   27  C10 UNL     1      45.734  45.204   8.994  1.00  0.00     0.250 A 
HETATM   28  O5  UNL     1      46.146  44.025   9.141  1.00  0.00    -0.268 OA
HETATM   29  N6  UNL     1      44.479  45.460   8.602  1.00  0.00    -0.275 N 
HETATM   30  C11 UNL     1      43.995  46.733   8.432  1.00  0.00     0.333 A 
ATOM     31  H6  UNL     1      43.855  44.674   8.421  1.00  0.00     0.173 HD
HETATM   32  O6  UNL     1      42.804  46.892   8.056  1.00  0.00    -0.246 OA
ENDBRANCH  23  24
ENDBRANCH  20  23
ENDBRANCH  18  20
ENDBRANCH   1  18
TORSDOF 9
ENDMDL
MODEL 3
REMARK VINA RESULT: -8.564432175      1.854      2.169
REMARK  9 active torsions:
REMARK  status: ('A' for Active; 'I' for Inactive)
REMARK    1  A    between atoms: O1_2  and  N1_3 
REMARK    2  A    between atoms: C2_5  and  C3_6 
REMARK    3  A    between atoms: C2_5  and  C6_15 
REMARK    4  A    between atoms: C5_9  and  N2_10 
REMARK    5  A    between atoms: C6_15  and  O2_16 
REMARK    6  A    between atoms: C6_15  and  N4_18 
REMARK    7  A    between atoms: N4_18  and  S2_20 
REMARK    8  A    between atoms: S2_20  and  C7_23 
REMARK    9  A    between atoms: C7_23  and  N5_24 
ROOT
HETATM    1  C6  UNL     1      43.306  52.277   6.401  1.00  0.00     0.283 C 
ENDROOT
BRANCH   1   2
HETATM    2  C2  UNL     1      43.967  52.669   5.079  1.00  0.00     0.108 C 
HETATM    3  N1  UNL     1      45.192  52.921   5.120  1.00  0.00    -0.265 N 
ATOM      4  H1  UNL     1      45.582  52.821   6.057  1.00  0.00     0.194 HD
BRANCH   3   5
HETATM    5  O1  UNL     1      46.106  53.290   4.223  1.00  0.00    -0.285 OA
HETATM    6  C1  UNL     1      47.363  53.839   4.602  1.00  0.00     0.237 C 
ENDBRANCH   3   5
BRANCH   2   7
HETATM    7  C3  UNL     1      43.093  52.716   3.879  1.00  0.00     0.070 A 
HETATM    8  C4  UNL     1      41.917  53.431   3.892  1.00  0.00     0.085 A 
HETATM    9  S1  UNL     1      41.312  53.169   2.316  1.00  0.00    -0.064 SA
HETATM   10  C5  UNL     1      42.564  52.182   1.734  1.00  0.00     0.142 A 
HETATM   11  N3  UNL     1      43.397  52.093   2.774  1.00  0.00    -0.335 N 
ATOM     12  H3  UNL     1      44.256  51.547   2.705  1.00  0.00     0.168 HD
BRANCH  10  13
HETATM   13  N2  UNL     1      42.689  51.634   0.544  1.00  0.00    -0.380 N 
ATOM     14  H22 UNL     1      42.056  50.981   0.082  1.00  0.00     0.158 HD
ATOM     15  H21 UNL     1      43.440  51.757  -0.136  1.00  0.00     0.158 HD
ENDBRANCH  10  13
ENDBRANCH   2   7
ENDBRANCH   1   2
BRANCH   1  16
HETATM   16  O2  UNL     1      44.004  52.992   7.353  1.00  0.00    -0.370 OA
ATOM     17  H2  UNL     1      43.813  52.543   8.168  1.00  0.00     0.212 HD
ENDBRANCH   1  16
BRANCH   1  18
HETATM   18  N4  UNL     1      43.301  50.868   6.551  1.00  0.00    -0.282 N 
ATOM     19  H4  UNL     1      42.760  50.271   5.926  1.00  0.00     0.175 HD
BRANCH  18  20
HETATM   20  S2  UNL     1      44.225  50.218   7.803  1.00  0.00     0.266 S 
HETATM   21  O3  UNL     1      45.684  50.606   7.515  1.00  0.00    -0.200 OA
HETATM   22  O4  UNL     1      43.928  50.953   9.105  1.00  0.00    -0.200 OA
BRANCH  20  23
HETATM   23  C7  UNL     1      44.218  48.493   8.025  1.00  0.00     0.231 C 
BRANCH  23  24
HETATM   24  N5  UNL     1      44.985  47.974   9.114  1.00  0.00    -0.273 N 
HETATM   25  C8  UNL     1      44.580  48.211  10.404  1.00  0.00     0.107 A 
HETATM   26  C9  UNL     1      45.245  47.721  11.502  1.00  0.00     0.092 A 
HETATM   27  C10 UNL     1      46.374  46.949  11.337  1.00  0.00     0.250 A 
HETATM   28  O5  UNL     1      47.017  46.477  12.308  1.00  0.00    -0.268 OA
HETATM   29  N6  UNL     1      46.757  46.727  10.072  1.00  0.00    -0.275 N 
HETATM   30  C11 UNL     1      46.080  47.226   8.988  1.00  0.00     0.333 A 
ATOM     31  H6  UNL     1      47.590  46.161   9.908  1.00  0.00     0.173 HD
HETATM   32  O6  UNL     1      46.506  46.977   7.829  1.00  0.00    -0.246 OA
ENDBRANCH  23  24
ENDBRANCH  20  23
ENDBRANCH  18  20
ENDBRANCH   1  18
TORSDOF 9
ENDMDL
MODEL 4
REMARK VINA RESULT: -8.434934251      1.988      2.442
REMARK  9 active torsions:
REMARK  status: ('A' for Active; 'I' for Inactive)
REMARK    1  A    between atoms: O1_2  and  N1_3 
REMARK    2  A    between atoms: C2_5  and  C3_6 
REMARK    3  A    between atoms: C2_5  and  C6_15 
REMARK    4  A    between atoms: C5_9  and  N2_10 
REMARK    5  A    between atoms: C6_15  and  O2_16 
REMARK    6  A    between atoms: C6_15  and  N4_18 
REMARK    7  A    between atoms: N4_18  and  S2_20 
REMARK    8  A    between atoms: S2_20  and  C7_23 
REMARK    9  A    between atoms: C7_23  and  N5_24 
ROOT
HETATM    1  C6  UNL     1      44.932  50.852   5.161  1.00  0.00     0.283 C 
ENDROOT
BRANCH   1   2
HETATM    2  C2  UNL     1      44.938  52.281   4.617  1.00  0.00     0.108 C 
HETATM    3  N1  UNL     1      45.944  52.976   4.882  1.00  0.00    -0.265 N 
ATOM      4  H1  UNL     1      46.634  52.470   5.436  1.00  0.00     0.194 HD
BRANCH   3   5
HETATM    5  O1  UNL     1      46.322  54.225   4.610  1.00  0.00    -0.285 OA
HETATM    6  C1  UNL     1      47.689  54.620   4.605  1.00  0.00     0.237 C 
ENDBRANCH   3   5
BRANCH   2   7
HETATM    7  C3  UNL     1      43.751  52.706   3.832  1.00  0.00     0.070 A 
HETATM    8  C4  UNL     1      42.582  53.066   4.462  1.00  0.00     0.085 A 
HETATM    9  S1  UNL     1      41.563  53.460   3.149  1.00  0.00    -0.064 SA
HETATM   10  C5  UNL     1      42.658  53.151   1.889  1.00  0.00     0.142 A 
HETATM   11  N3  UNL     1      43.763  52.758   2.528  1.00  0.00    -0.335 N 
ATOM     12  H3  UNL     1      44.601  52.502   2.006  1.00  0.00     0.168 HD
BRANCH  10  13
HETATM   13  N2  UNL     1      42.470  53.270   0.592  1.00  0.00    -0.380 N 
ATOM     14  H22 UNL     1      41.741  53.793   0.107  1.00  0.00     0.158 HD
ATOM     15  H21 UNL     1      43.014  52.861  -0.169  1.00  0.00     0.158 HD
ENDBRANCH  10  13
ENDBRANCH   2   7
ENDBRANCH   1   2
BRANCH   1  16
HETATM   16  O2  UNL     1      44.912  50.060   4.031  1.00  0.00    -0.370 OA
ATOM     17  H2  UNL     1      45.428  50.547   3.398  1.00  0.00     0.212 HD
ENDBRANCH   1  16
BRANCH   1  18
HETATM   18  N4  UNL     1      43.858  50.676   6.070  1.00  0.00    -0.282 N 
ATOM     19  H4  UNL     1      42.892  50.824   5.782  1.00  0.00     0.175 HD
BRANCH  18  20
HETATM   20  S2  UNL     1      44.243  50.213   7.645  1.00  0.00     0.266 S 
HETATM   21  O3  UNL     1      45.723  50.573   7.856  1.00  0.00    -0.200 OA
HETATM   22  O4  UNL     1      43.528  51.118   8.643  1.00  0.00    -0.200 OA
BRANCH  20  23
HETATM   23  C7  UNL     1      44.087  48.535   8.074  1.00  0.00     0.231 C 
BRANCH  23  24
HETATM   24  N5  UNL     1      44.834  48.082   9.206  1.00  0.00    -0.273 N 
HETATM   25  C8  UNL     1      44.380  48.351  10.473  1.00  0.00     0.107 A 
HETATM   26  C9  UNL     1      45.023  47.923  11.609  1.00  0.00     0.092 A 
HETATM   27  C10 UNL     1      46.180  47.183  11.508  1.00  0.00     0.250 A 
HETATM   28  O5  UNL     1      46.806  46.767  12.516  1.00  0.00    -0.268 OA
HETATM   29  N6  UNL     1      46.612  46.928  10.265  1.00  0.00    -0.275 N 
HETATM   30  C11 UNL     1      45.955  47.365   9.143  1.00  0.00     0.333 A 
ATOM     31  H6  UNL     1      47.467  46.384  10.148  1.00  0.00     0.173 HD
HETATM   32  O6  UNL     1      46.427  47.089   8.008  1.00  0.00    -0.246 OA
ENDBRANCH  23  24
ENDBRANCH  20  23
ENDBRANCH  18  20
ENDBRANCH   1  18
TORSDOF 9
ENDMDL
MODEL 5
REMARK VINA RESULT: -8.310734928      2.616      3.987
REMARK  9 active torsions:
REMARK  status: ('A' for Active; 'I' for Inactive)
REMARK    1  A    between atoms: O1_2  and  N1_3 
REMARK    2  A    between atoms: C2_5  and  C3_6 
REMARK    3  A    between atoms: C2_5  and  C6_15 
REMARK    4  A    between atoms: C5_9  and  N2_10 
REMARK    5  A    between atoms: C6_15  and  O2_16 
REMARK    6  A    between atoms: C6_15  and  N4_18 
REMARK    7  A    between atoms: N4_18  and  S2_20 
REMARK    8  A    between atoms: S2_20  and  C7_23 
REMARK    9  A    between atoms: C7_23  and  N5_24 
ROOT
HETATM    1  C6  UNL     1      44.471  49.916   8.488  1.00  0.00     0.283 C 
ENDROOT
BRANCH   1   2
HETATM    2  C2  UNL     1      43.779  51.275   8.365  1.00  0.00     0.108 C 
HETATM    3  N1  UNL     1      43.228  51.717   9.397  1.00  0.00    -0.265 N 
ATOM      4  H1  UNL     1      43.328  51.090  10.195  1.00  0.00     0.194 HD
BRANCH   3   5
HETATM    5  O1  UNL     1      42.540  52.819   9.697  1.00  0.00    -0.285 OA
HETATM    6  C1  UNL     1      42.479  53.339  11.020  1.00  0.00     0.237 C 
ENDBRANCH   3   5
BRANCH   2   7
HETATM    7  C3  UNL     1      43.824  51.933   7.034  1.00  0.00     0.070 A 
HETATM    8  C4  UNL     1      42.699  52.005   6.245  1.00  0.00     0.085 A 
HETATM    9  S1  UNL     1      43.270  52.835   4.866  1.00  0.00    -0.064 SA
HETATM   10  C5  UNL     1      44.881  53.044   5.357  1.00  0.00     0.142 A 
HETATM   11  N3  UNL     1      44.916  52.467   6.560  1.00  0.00    -0.335 N 
ATOM     12  H3  UNL     1      45.781  52.444   7.100  1.00  0.00     0.168 HD
BRANCH  10  13
HETATM   13  N2  UNL     1      45.865  53.633   4.709  1.00  0.00    -0.380 N 
ATOM     14  H22 UNL     1      46.865  53.581   4.903  1.00  0.00     0.158 HD
ATOM     15  H21 UNL     1      45.813  54.249   3.898  1.00  0.00     0.158 HD
ENDBRANCH  10  13
ENDBRANCH   2   7
ENDBRANCH   1   2
BRANCH   1  16
HETATM   16  O2  UNL     1      45.717  50.121   7.932  1.00  0.00    -0.370 OA
ATOM     17  H2  UNL     1      45.534  50.536   7.097  1.00  0.00     0.212 HD
ENDBRANCH   1  16
BRANCH   1  18
HETATM   18  N4  UNL     1      43.676  48.904   7.894  1.00  0.00    -0.282 N 
ATOM     19  H4  UNL     1      42.992  49.124   7.172  1.00  0.00     0.175 HD
BRANCH  18  20
HETATM   20  S2  UNL     1      43.908  47.322   8.430  1.00  0.00     0.266 S 
HETATM   21  O3  UNL     1      43.870  47.372   9.966  1.00  0.00    -0.200 OA
HETATM   22  O4  UNL     1      42.689  46.473   8.087  1.00  0.00    -0.200 OA
BRANCH  20  23
HETATM   23  C7  UNL     1      45.390  46.516   8.009  1.00  0.00     0.231 C 
BRANCH  23  24
HETATM   24  N5  UNL     1      45.943  45.623   8.979  1.00  0.00    -0.273 N 
HETATM   25  C8  UNL     1      46.960  46.051   9.795  1.00  0.00     0.107 A 
HETATM   26  C9  UNL     1      47.522  45.264  10.772  1.00  0.00     0.092 A 
HETATM   27  C10 UNL     1      47.064  43.980  10.970  1.00  0.00     0.250 A 
HETATM   28  O5  UNL     1      47.543  43.220  11.849  1.00  0.00    -0.268 OA
HETATM   29  N6  UNL     1      46.071  43.576  10.165  1.00  0.00    -0.275 N 
HETATM   30  C11 UNL     1      45.524  44.377   9.195  1.00  0.00     0.333 A 
ATOM     31  H6  UNL     1      45.706  42.630  10.279  1.00  0.00     0.173 HD
HETATM   32  O6  UNL     1      44.596  43.923   8.475  1.00  0.00    -0.246 OA
ENDBRANCH  23  24
ENDBRANCH  20  23
ENDBRANCH  18  20
ENDBRANCH   1  18
TORSDOF 9
ENDMDL
