MODEL 1
REMARK VINA RESULT: -10.538229884      0.000      0.000
REMARK  4 active torsions:
REMARK  status: ('A' for Active; 'I' for Inactive)
REMARK    1  A    between atoms: C2_5  and  C3_6 
REMARK    2  A    between atoms: C7_10  and  N2_11 
REMARK    3  A    between atoms: N2_11  and  S1_13 
REMARK    4  A    between atoms: S1_13  and  C8_16 
ROOT
HETATM    1  C3  UNL     1     -10.315  -3.853 -13.636  1.00  0.00     0.060 A 
HETATM    2  C4  UNL     1      -9.721  -4.888 -14.321  1.00  0.00     0.032 A 
HETATM    3  C5  UNL     1      -9.003  -5.829 -13.607  1.00  0.00     0.006 A 
HETATM    4  C6  UNL     1      -8.913  -5.694 -12.249  1.00  0.00     0.049 A 
HETATM    5  C7  UNL     1      -9.516  -4.643 -11.543  1.00  0.00     0.115 A 
HETATM    6  N4  UNL     1     -10.190  -3.773 -12.287  1.00  0.00    -0.340 N 
ATOM      7  H4  UNL     1     -10.643  -2.993 -11.813  1.00  0.00     0.167 HD
ENDROOT
BRANCH   5   8
HETATM    8  N2  UNL     1      -9.345  -4.605 -10.141  1.00  0.00    -0.266 N 
ATOM      9  H2  UNL     1      -9.336  -5.504  -9.658  1.00  0.00     0.180 HD
BRANCH   8  10
HETATM   10  S1  UNL     1      -9.151  -3.217  -9.173  1.00  0.00     0.264 S 
HETATM   11  O2  UNL     1      -7.747  -2.664  -9.306  1.00  0.00    -0.200 OA
HETATM   12  O3  UNL     1      -9.389  -3.531  -7.702  1.00  0.00    -0.200 OA
BRANCH  10  13
HETATM   13  C8  UNL     1     -10.232  -1.936  -9.673  1.00  0.00     0.080 A 
HETATM   14  C9  UNL     1      -9.706  -0.733 -10.161  1.00  0.00     0.027 A 
HETATM   15  C10 UNL     1     -10.515   0.309 -10.552  1.00  0.00     0.032 A 
HETATM   16  C11 UNL     1     -11.875   0.215 -10.482  1.00  0.00     0.042 A 
HETATM   17  N3  UNL     1     -12.879   1.076 -10.796  1.00  0.00    -0.365 N 
HETATM   18  C14 UNL     1     -12.424  -0.948 -10.009  1.00  0.00    -0.007 A 
HETATM   19  C12 UNL     1     -14.035   0.474 -10.531  1.00  0.00     0.089 A 
ATOM     20  H3  UNL     1     -12.766   2.018 -11.170  1.00  0.00     0.165 HD
HETATM   21  C13 UNL     1     -13.804  -0.798 -10.035  1.00  0.00     0.030 A 
HETATM   22  C15 UNL     1     -11.599  -2.002  -9.613  1.00  0.00     0.039 A 
ENDBRANCH  10  13
ENDBRANCH   8  10
ENDBRANCH   5   8
BRANCH   1  23
HETATM   23  C2  UNL     1     -11.097  -2.849 -14.350  1.00  0.00     0.062 A 
HETATM   24  N1  UNL     1     -11.231  -2.949 -15.703  1.00  0.00    -0.320 N 
HETATM   25  C1  UNL     1     -11.946  -2.054 -16.404  1.00  0.00     0.273 A 
ATOM     26  H1  UNL     1     -10.779  -3.721 -16.193  1.00  0.00     0.169 HD
HETATM   27  O1  UNL     1     -12.040  -2.191 -17.651  1.00  0.00    -0.266 OA
HETATM   28  C20 UNL     1     -12.593  -0.978 -15.839  1.00  0.00     0.111 A 
HETATM   29  C17 UNL     1     -12.475  -0.851 -14.474  1.00  0.00    -0.000 A 
HETATM   30  N5  UNL     1     -13.358   0.042 -16.307  1.00  0.00    -0.361 N 
HETATM   31  C16 UNL     1     -11.729  -1.790 -13.763  1.00  0.00     0.045 A 
HETATM   32  C18 UNL     1     -13.192   0.276 -14.139  1.00  0.00     0.031 A 
HETATM   33  C19 UNL     1     -13.746   0.840 -15.273  1.00  0.00     0.089 A 
ATOM     34  H5  UNL     1     -13.605   0.188 -17.286  1.00  0.00     0.165 HD
ENDBRANCH   1  23
TORSDOF 4
ENDMDL
MODEL 2
REMARK VINA RESULT: -10.342438370      1.694      2.122
REMARK  4 active torsions:
REMARK  status: ('A' for Active; 'I' for Inactive)
REMARK    1  A    between atoms: C2_5  and  C3_6 
REMARK    2  A    between atoms: C7_10  and  N2_11 
REMARK    3  A    between atoms: N2_11  and  S1_13 
REMARK    4  A    between atoms: S1_13  and  C8_16 
ROOT
HETATM    1  C3  UNL     1     -10.265  -3.748 -13.499  1.00  0.00     0.060 A 
HETATM    2  C4  UNL     1      -9.807  -4.885 -14.124  1.00  0.00     0.032 A 
HETATM    3  C5  UNL     1      -9.054  -5.785 -13.392  1.00  0.00     0.006 A 
HETATM    4  C6  UNL     1      -8.796  -5.509 -12.078  1.00  0.00     0.049 A 
HETATM    5  C7  UNL     1      -9.260  -4.353 -11.433  1.00  0.00     0.115 A 
HETATM    6  N4  UNL     1      -9.976  -3.530 -12.191  1.00  0.00    -0.340 N 
ATOM      7  H4  UNL     1     -10.333  -2.677 -11.761  1.00  0.00     0.167 HD
ENDROOT
BRANCH   5   8
HETATM    8  N2  UNL     1      -8.921  -4.173 -10.073  1.00  0.00    -0.266 N 
ATOM      9  H2  UNL     1      -9.541  -4.606  -9.388  1.00  0.00     0.180 HD
BRANCH   8  10
HETATM   10  S1  UNL     1      -7.587  -3.312  -9.459  1.00  0.00     0.264 S 
HETATM   11  O2  UNL     1      -6.399  -3.428 -10.391  1.00  0.00    -0.200 OA
HETATM   12  O3  UNL     1      -7.163  -3.847  -8.097  1.00  0.00    -0.200 OA
BRANCH  10  13
HETATM   13  C8  UNL     1      -7.939  -1.604  -9.325  1.00  0.00     0.080 A 
HETATM   14  C9  UNL     1      -6.951  -0.724  -8.864  1.00  0.00     0.027 A 
HETATM   15  C10 UNL     1      -7.185   0.625  -8.728  1.00  0.00     0.032 A 
HETATM   16  C11 UNL     1      -8.399   1.169  -9.037  1.00  0.00     0.042 A 
HETATM   17  N3  UNL     1      -8.882   2.439  -8.993  1.00  0.00    -0.365 N 
HETATM   18  C14 UNL     1      -9.389   0.337  -9.489  1.00  0.00    -0.007 A 
HETATM   19  C12 UNL     1     -10.144   2.413  -9.408  1.00  0.00     0.089 A 
ATOM     20  H3  UNL     1      -8.366   3.266  -8.694  1.00  0.00     0.165 HD
HETATM   21  C13 UNL     1     -10.511   1.118  -9.731  1.00  0.00     0.030 A 
HETATM   22  C15 UNL     1      -9.147  -1.031  -9.626  1.00  0.00     0.039 A 
ENDBRANCH  10  13
ENDBRANCH   8  10
ENDBRANCH   5   8
BRANCH   1  23
HETATM   23  C2  UNL     1     -11.078  -2.782 -14.230  1.00  0.00     0.062 A 
HETATM   24  N1  UNL     1     -11.256  -2.942 -15.572  1.00  0.00    -0.320 N 
HETATM   25  C1  UNL     1     -12.000  -2.084 -16.288  1.00  0.00     0.273 A 
ATOM     26  H1  UNL     1     -10.813  -3.731 -16.043  1.00  0.00     0.169 HD
HETATM   27  O1  UNL     1     -12.134  -2.276 -17.524  1.00  0.00    -0.266 OA
HETATM   28  C20 UNL     1     -12.638  -0.989 -15.750  1.00  0.00     0.111 A 
HETATM   29  C17 UNL     1     -12.477  -0.801 -14.397  1.00  0.00    -0.000 A 
HETATM   30  N5  UNL     1     -13.427   0.003 -16.237  1.00  0.00    -0.361 N 
HETATM   31  C16 UNL     1     -11.701  -1.703 -13.670  1.00  0.00     0.045 A 
HETATM   32  C18 UNL     1     -13.193   0.333 -14.088  1.00  0.00     0.031 A 
HETATM   33  C19 UNL     1     -13.788   0.843 -15.227  1.00  0.00     0.089 A 
ATOM     34  H5  UNL     1     -13.707   0.105 -17.212  1.00  0.00     0.165 HD
ENDBRANCH   1  23
TORSDOF 4
ENDMDL
MODEL 3
REMARK VINA RESULT: -10.228098826      1.219      1.778
REMARK  4 active torsions:
REMARK  status: ('A' for Active; 'I' for Inactive)
REMARK    1  A    between atoms: C2_5  and  C3_6 
REMARK    2  A    between atoms: C7_10  and  N2_11 
REMARK    3  A    between atoms: N2_11  and  S1_13 
REMARK    4  A    between atoms: S1_13  and  C8_16 
ROOT
HETATM    1  C3  UNL     1     -10.093  -4.075 -13.741  1.00  0.00     0.060 A 
HETATM    2  C4  UNL     1      -9.646  -5.164 -14.453  1.00  0.00     0.032 A 
HETATM    3  C5  UNL     1      -8.872  -6.107 -13.804  1.00  0.00     0.006 A 
HETATM    4  C6  UNL     1      -8.581  -5.920 -12.480  1.00  0.00     0.049 A 
HETATM    5  C7  UNL     1      -9.034  -4.814 -11.747  1.00  0.00     0.115 A 
HETATM    6  N4  UNL     1      -9.772  -3.945 -12.428  1.00  0.00    -0.340 N 
ATOM      7  H4  UNL     1     -10.121  -3.125 -11.932  1.00  0.00     0.167 HD
ENDROOT
BRANCH   5   8
HETATM    8  N2  UNL     1      -8.661  -4.726 -10.387  1.00  0.00    -0.266 N 
ATOM      9  H2  UNL     1      -8.872  -5.535  -9.802  1.00  0.00     0.180 HD
BRANCH   8  10
HETATM   10  S1  UNL     1      -7.898  -3.411  -9.620  1.00  0.00     0.264 S 
HETATM   11  O2  UNL     1      -6.666  -2.983 -10.391  1.00  0.00    -0.200 OA
HETATM   12  O3  UNL     1      -7.457  -3.774  -8.207  1.00  0.00    -0.200 OA
BRANCH  10  13
HETATM   13  C8  UNL     1      -8.946  -2.013  -9.558  1.00  0.00     0.080 A 
HETATM   14  C9  UNL     1     -10.305  -2.175  -9.258  1.00  0.00     0.027 A 
HETATM   15  C10 UNL     1     -11.172  -1.107  -9.213  1.00  0.00     0.032 A 
HETATM   16  C11 UNL     1     -10.744   0.166  -9.461  1.00  0.00     0.042 A 
HETATM   17  N3  UNL     1     -11.377   1.368  -9.481  1.00  0.00    -0.365 N 
HETATM   18  C14 UNL     1      -9.421   0.360  -9.759  1.00  0.00    -0.007 A 
HETATM   19  C12 UNL     1     -10.480   2.301  -9.782  1.00  0.00     0.089 A 
ATOM     20  H3  UNL     1     -12.368   1.526  -9.297  1.00  0.00     0.165 HD
HETATM   21  C13 UNL     1      -9.236   1.721  -9.967  1.00  0.00     0.030 A 
HETATM   22  C15 UNL     1      -8.545  -0.726  -9.803  1.00  0.00     0.039 A 
ENDBRANCH  10  13
ENDBRANCH   8  10
ENDBRANCH   5   8
BRANCH   1  23
HETATM   23  C2  UNL     1     -10.929  -3.066 -14.383  1.00  0.00     0.062 A 
HETATM   24  N1  UNL     1     -11.137  -3.133 -15.729  1.00  0.00    -0.320 N 
HETATM   25  C1  UNL     1     -11.903  -2.232 -16.365  1.00  0.00     0.273 A 
ATOM     26  H1  UNL     1     -10.701  -3.885 -16.264  1.00  0.00     0.169 HD
HETATM   27  O1  UNL     1     -12.064  -2.339 -17.609  1.00  0.00    -0.266 OA
HETATM   28  C20 UNL     1     -12.533  -1.183 -15.738  1.00  0.00     0.111 A 
HETATM   29  C17 UNL     1     -12.342  -1.088 -14.378  1.00  0.00    -0.000 A 
HETATM   30  N5  UNL     1     -13.339  -0.164 -16.135  1.00  0.00    -0.361 N 
HETATM   31  C16 UNL     1     -11.543  -2.033 -13.734  1.00  0.00     0.045 A 
HETATM   32  C18 UNL     1     -13.056   0.017 -13.974  1.00  0.00     0.031 A 
HETATM   33  C19 UNL     1     -13.681   0.601 -15.060  1.00  0.00     0.089 A 
ATOM     34  H5  UNL     1     -13.642   0.004 -17.094  1.00  0.00     0.165 HD
ENDBRANCH   1  23
TORSDOF 4
ENDMDL
MODEL 4
REMARK VINA RESULT: -10.157390241      3.571      6.003
REMARK  4 active torsions:
REMARK  status: ('A' for Active; 'I' for Inactive)
REMARK    1  A    between atoms: C2_5  and  C3_6 
REMARK    2  A    between atoms: C7_10  and  N2_11 
REMARK    3  A    between atoms: N2_11  and  S1_13 
REMARK    4  A    between atoms: S1_13  and  C8_16 
ROOT
HETATM    1  C3  UNL     1     -10.614  -3.393 -13.072  1.00  0.00     0.060 A 
HETATM    2  C4  UNL     1     -10.635  -3.231 -11.707  1.00  0.00     0.032 A 
HETATM    3  C5  UNL     1      -9.905  -4.105 -10.924  1.00  0.00     0.006 A 
HETATM    4  C6  UNL     1      -9.190  -5.096 -11.539  1.00  0.00     0.049 A 
HETATM    5  C7  UNL     1      -9.162  -5.268 -12.930  1.00  0.00     0.115 A 
HETATM    6  N4  UNL     1      -9.884  -4.396 -13.625  1.00  0.00    -0.340 N 
ATOM      7  H4  UNL     1      -9.891  -4.486 -14.640  1.00  0.00     0.167 HD
ENDROOT
BRANCH   5   8
HETATM    8  N2  UNL     1      -8.392  -6.334 -13.449  1.00  0.00    -0.266 N 
ATOM      9  H2  UNL     1      -7.950  -6.952 -12.767  1.00  0.00     0.180 HD
BRANCH   8  10
HETATM   10  S1  UNL     1      -8.125  -6.696 -15.091  1.00  0.00     0.264 S 
HETATM   11  O2  UNL     1      -9.438  -6.927 -15.809  1.00  0.00    -0.200 OA
HETATM   12  O3  UNL     1      -7.282  -7.954 -15.250  1.00  0.00    -0.200 OA
BRANCH  10  13
HETATM   13  C8  UNL     1      -7.343  -5.367 -15.917  1.00  0.00     0.080 A 
HETATM   14  C9  UNL     1      -7.334  -5.327 -17.317  1.00  0.00     0.027 A 
HETATM   15  C10 UNL     1      -6.719  -4.310 -18.011  1.00  0.00     0.032 A 
HETATM   16  C11 UNL     1      -6.085  -3.290 -17.362  1.00  0.00     0.042 A 
HETATM   17  N3  UNL     1      -5.415  -2.190 -17.797  1.00  0.00    -0.365 N 
HETATM   18  C14 UNL     1      -6.074  -3.298 -15.992  1.00  0.00    -0.007 A 
HETATM   19  C12 UNL     1      -4.991  -1.518 -16.732  1.00  0.00     0.089 A 
ATOM     20  H3  UNL     1      -5.265  -1.927 -18.771  1.00  0.00     0.165 HD
HETATM   21  C13 UNL     1      -5.378  -2.171 -15.574  1.00  0.00     0.030 A 
HETATM   22  C15 UNL     1      -6.699  -4.331 -15.292  1.00  0.00     0.039 A 
ENDBRANCH  10  13
ENDBRANCH   8  10
ENDBRANCH   5   8
BRANCH   1  23
HETATM   23  C2  UNL     1     -11.356  -2.481 -13.936  1.00  0.00     0.062 A 
HETATM   24  N1  UNL     1     -11.462  -2.762 -15.266  1.00  0.00    -0.320 N 
HETATM   25  C1  UNL     1     -12.140  -1.957 -16.100  1.00  0.00     0.273 A 
ATOM     26  H1  UNL     1     -11.015  -3.602 -15.635  1.00  0.00     0.169 HD
HETATM   27  O1  UNL     1     -12.208  -2.261 -17.319  1.00  0.00    -0.266 OA
HETATM   28  C20 UNL     1     -12.776  -0.803 -15.704  1.00  0.00     0.111 A 
HETATM   29  C17 UNL     1     -12.687  -0.493 -14.366  1.00  0.00    -0.000 A 
HETATM   30  N5  UNL     1     -13.507   0.158 -16.325  1.00  0.00    -0.361 N 
HETATM   31  C16 UNL     1     -11.979  -1.340 -13.515  1.00  0.00     0.045 A 
HETATM   32  C18 UNL     1     -13.387   0.681 -14.206  1.00  0.00     0.031 A 
HETATM   33  C19 UNL     1     -13.902   1.096 -15.420  1.00  0.00     0.089 A 
ATOM     34  H5  UNL     1     -13.729   0.174 -17.321  1.00  0.00     0.165 HD
ENDBRANCH   1  23
TORSDOF 4
ENDMDL
MODEL 5
REMARK VINA RESULT: -10.140960753      1.824      2.125
REMARK  4 active torsions:
REMARK  status: ('A' for Active; 'I' for Inactive)
REMARK    1  A    between atoms: C2_5  and  C3_6 
REMARK    2  A    between atoms: C7_10  and  N2_11 
REMARK    3  A    between atoms: N2_11  and  S1_13 
REMARK    4  A    between atoms: S1_13  and  C8_16 
ROOT
HETATM    1  C3  UNL     1     -10.145  -3.418 -13.259  1.00  0.00     0.060 A 
HETATM    2  C4  UNL     1      -9.919  -4.725 -13.623  1.00  0.00     0.032 A 
HETATM    3  C5  UNL     1      -9.083  -5.496 -12.838  1.00  0.00     0.006 A 
HETATM    4  C6  UNL     1      -8.515  -4.929 -11.729  1.00  0.00     0.049 A 
HETATM    5  C7  UNL     1      -8.742  -3.598 -11.350  1.00  0.00     0.115 A 
HETATM    6  N4  UNL     1      -9.554  -2.912 -12.147  1.00  0.00    -0.340 N 
ATOM      7  H4  UNL     1      -9.745  -1.939 -11.907  1.00  0.00     0.167 HD
ENDROOT
BRANCH   5   8
HETATM    8  N2  UNL     1      -8.093  -3.123 -10.189  1.00  0.00    -0.266 N 
ATOM      9  H2  UNL     1      -8.218  -3.672  -9.339  1.00  0.00     0.180 HD
BRANCH   8  10
HETATM   10  S1  UNL     1      -7.124  -1.728 -10.059  1.00  0.00     0.264 S 
HETATM   11  O2  UNL     1      -6.320  -1.515 -11.326  1.00  0.00    -0.200 OA
HETATM   12  O3  UNL     1      -6.142  -1.843  -8.900  1.00  0.00    -0.200 OA
BRANCH  10  13
HETATM   13  C8  UNL     1      -8.100  -0.292  -9.852  1.00  0.00     0.080 A 
HETATM   14  C9  UNL     1      -7.707   0.689  -8.931  1.00  0.00     0.027 A 
HETATM   15  C10 UNL     1      -8.450   1.828  -8.722  1.00  0.00     0.032 A 
HETATM   16  C11 UNL     1      -9.609   2.055  -9.407  1.00  0.00     0.042 A 
HETATM   17  N3  UNL     1     -10.510   3.073  -9.390  1.00  0.00    -0.365 N 
HETATM   18  C14 UNL     1     -10.023   1.116 -10.314  1.00  0.00    -0.007 A 
HETATM   19  C12 UNL     1     -11.469   2.788 -10.264  1.00  0.00     0.089 A 
ATOM     20  H3  UNL     1     -10.458   3.909  -8.808  1.00  0.00     0.165 HD
HETATM   21  C13 UNL     1     -11.211   1.571 -10.872  1.00  0.00     0.030 A 
HETATM   22  C15 UNL     1      -9.267  -0.038 -10.524  1.00  0.00     0.039 A 
ENDBRANCH  10  13
ENDBRANCH   8  10
ENDBRANCH   5   8
BRANCH   1  23
HETATM   23  C2  UNL     1     -11.035  -2.575 -14.051  1.00  0.00     0.062 A 
HETATM   24  N1  UNL     1     -11.257  -2.887 -15.359  1.00  0.00    -0.320 N 
HETATM   25  C1  UNL     1     -12.072  -2.146 -16.128  1.00  0.00     0.273 A 
ATOM     26  H1  UNL     1     -10.792  -3.700 -15.763  1.00  0.00     0.169 HD
HETATM   27  O1  UNL     1     -12.243  -2.476 -17.330  1.00  0.00    -0.266 OA
HETATM   28  C20 UNL     1     -12.743  -1.032 -15.680  1.00  0.00     0.111 A 
HETATM   29  C17 UNL     1     -12.540  -0.692 -14.362  1.00  0.00    -0.000 A 
HETATM   30  N5  UNL     1     -13.601  -0.135 -16.233  1.00  0.00    -0.361 N 
HETATM   31  C16 UNL     1     -11.690  -1.472 -13.580  1.00  0.00     0.045 A 
HETATM   32  C18 UNL     1     -13.301   0.434 -14.143  1.00  0.00     0.031 A 
HETATM   33  C19 UNL     1     -13.965   0.790 -15.301  1.00  0.00     0.089 A 
ATOM     34  H5  UNL     1     -13.924  -0.152 -17.200  1.00  0.00     0.165 HD
ENDBRANCH   1  23
TORSDOF 4
ENDMDL
