MODEL 1
REMARK VINA RESULT: -9.557894866      0.000      0.000
REMARK  6 active torsions:
REMARK  status: ('A' for Active; 'I' for Inactive)
REMARK    1  A    between atoms: C1_4  and  N2_5 
REMARK    2  A    between atoms: C1_4  and  C7_14 
REMARK    3  A    between atoms: N2_5  and  C2_6 
REMARK    4  A    between atoms: C12_19  and  S1_20 
REMARK    5  A    between atoms: S1_20  and  N5_23 
REMARK    6  A    between atoms: N5_23  and  C13_25 
ROOT
HETATM    1  C7  UNL     1     -10.766   1.154  -9.841  1.00  0.00     0.045 A 
HETATM    2  C8  UNL     1     -10.792   2.335  -9.053  1.00  0.00     0.018 A 
HETATM    3  C9  UNL     1     -11.851   3.191  -8.932  1.00  0.00     0.001 A 
HETATM    4  C10 UNL     1     -12.986   2.897  -9.626  1.00  0.00     0.002 A 
HETATM    5  C11 UNL     1     -13.058   1.781 -10.410  1.00  0.00     0.026 A 
HETATM    6  C12 UNL     1     -11.953   0.928 -10.503  1.00  0.00     0.094 A 
ENDROOT
BRANCH   6   7
HETATM    7  S1  UNL     1     -12.160  -0.485 -11.460  1.00  0.00     0.264 S 
HETATM    8  O1  UNL     1     -13.415  -0.287 -12.316  1.00  0.00    -0.200 OA
HETATM    9  O2  UNL     1     -12.343  -1.734 -10.657  1.00  0.00    -0.200 OA
BRANCH   7  10
HETATM   10  N5  UNL     1     -10.864  -0.847 -12.564  1.00  0.00    -0.280 N 
ATOM     11  H5  UNL     1      -9.940  -0.516 -12.285  1.00  0.00     0.179 HD
BRANCH  10  12
HETATM   12  C13 UNL     1     -10.918  -1.524 -13.771  1.00  0.00     0.053 A 
HETATM   13  C14 UNL     1     -11.367  -1.102 -14.959  1.00  0.00     0.031 A 
HETATM   14  C15 UNL     1     -11.359  -1.877 -16.130  1.00  0.00     0.003 A 
HETATM   15  C16 UNL     1     -10.868  -3.141 -16.097  1.00  0.00     0.012 A 
HETATM   16  C17 UNL     1     -10.394  -3.620 -14.908  1.00  0.00    -0.024 A 
HETATM   17  C18 UNL     1      -9.889  -4.919 -14.916  1.00  0.00     0.012 A 
HETATM   18  C22 UNL     1     -10.406  -2.858 -13.766  1.00  0.00     0.001 A 
HETATM   19  C19 UNL     1      -9.394  -5.450 -13.768  1.00  0.00     0.001 A 
HETATM   20  C20 UNL     1      -9.402  -4.688 -12.618  1.00  0.00     0.001 A 
HETATM   21  C21 UNL     1      -9.906  -3.383 -12.597  1.00  0.00     0.014 A 
ENDBRANCH  10  12
ENDBRANCH   7  10
ENDBRANCH   6   7
BRANCH   1  22
HETATM   22  C1  UNL     1      -9.503   0.504  -9.987  1.00  0.00     0.185 C 
HETATM   23  N1  UNL     1      -8.554   1.269 -10.595  1.00  0.00    -0.373 N 
ATOM     24  H12 UNL     1      -7.652   0.804 -10.700  1.00  0.00     0.158 HD
ATOM     25  H11 UNL     1      -8.910   2.215 -10.730  1.00  0.00     0.158 HD
BRANCH  22  26
HETATM   26  N2  UNL     1      -9.041  -0.725  -9.811  1.00  0.00    -0.385 NA
BRANCH  26  27
HETATM   27  C2  UNL     1      -8.630  -1.815  -9.618  1.00  0.00     0.136 A 
HETATM   28  C3  UNL     1      -9.414  -2.815  -9.021  1.00  0.00     0.064 A 
HETATM   29  C4  UNL     1      -8.912  -4.081  -8.823  1.00  0.00     0.091 A 
HETATM   30  N3  UNL     1      -7.662  -4.385  -9.198  1.00  0.00    -0.373 N 
HETATM   31  C5  UNL     1      -6.861  -3.484  -9.772  1.00  0.00     0.117 A 
ATOM     32  H3  UNL     1      -7.312  -5.330  -9.042  1.00  0.00     0.164 HD
HETATM   33  C6  UNL     1      -7.342  -2.204  -9.982  1.00  0.00     0.102 A 
HETATM   34  N4  UNL     1      -6.482  -1.264 -10.611  1.00  0.00    -0.097 NA
ENDBRANCH  26  27
ENDBRANCH  22  26
ENDBRANCH   1  22
TORSDOF 6
ENDMDL
MODEL 2
REMARK VINA RESULT: -9.472354888      1.928      2.717
REMARK  6 active torsions:
REMARK  status: ('A' for Active; 'I' for Inactive)
REMARK    1  A    between atoms: C1_4  and  N2_5 
REMARK    2  A    between atoms: C1_4  and  C7_14 
REMARK    3  A    between atoms: N2_5  and  C2_6 
REMARK    4  A    between atoms: C12_19  and  S1_20 
REMARK    5  A    between atoms: S1_20  and  N5_23 
REMARK    6  A    between atoms: N5_23  and  C13_25 
ROOT
HETATM    1  C7  UNL     1     -11.321   0.723  -9.538  1.00  0.00     0.045 A 
HETATM    2  C8  UNL     1     -10.635   1.808  -8.932  1.00  0.00     0.018 A 
HETATM    3  C9  UNL     1     -11.126   3.074  -8.774  1.00  0.00     0.001 A 
HETATM    4  C10 UNL     1     -12.382   3.330  -9.238  1.00  0.00     0.002 A 
HETATM    5  C11 UNL     1     -13.120   2.348  -9.836  1.00  0.00     0.026 A 
HETATM    6  C12 UNL     1     -12.582   1.064  -9.974  1.00  0.00     0.094 A 
ENDROOT
BRANCH   6   7
HETATM    7  S1  UNL     1     -13.610  -0.120 -10.678  1.00  0.00     0.264 S 
HETATM    8  O1  UNL     1     -14.900   0.583 -11.113  1.00  0.00    -0.200 OA
HETATM    9  O2  UNL     1     -13.984  -1.226  -9.742  1.00  0.00    -0.200 OA
BRANCH   7  10
HETATM   10  N5  UNL     1     -12.985  -0.921 -12.091  1.00  0.00    -0.280 N 
ATOM     11  H5  UNL     1     -12.513  -1.810 -11.923  1.00  0.00     0.179 HD
BRANCH  10  12
HETATM   12  C13 UNL     1     -13.041  -0.514 -13.413  1.00  0.00     0.053 A 
HETATM   13  C14 UNL     1     -13.702   0.518 -13.954  1.00  0.00     0.031 A 
HETATM   14  C15 UNL     1     -13.674   0.849 -15.318  1.00  0.00     0.003 A 
HETATM   15  C16 UNL     1     -12.937   0.102 -16.177  1.00  0.00     0.012 A 
HETATM   16  C17 UNL     1     -12.241  -0.962 -15.675  1.00  0.00    -0.024 A 
HETATM   17  C18 UNL     1     -11.488  -1.700 -16.587  1.00  0.00     0.012 A 
HETATM   18  C22 UNL     1     -12.273  -1.282 -14.340  1.00  0.00     0.001 A 
HETATM   19  C19 UNL     1     -10.764  -2.764 -16.150  1.00  0.00     0.001 A 
HETATM   20  C20 UNL     1     -10.792  -3.088 -14.809  1.00  0.00     0.001 A 
HETATM   21  C21 UNL     1     -11.544  -2.355 -13.884  1.00  0.00     0.014 A 
ENDBRANCH  10  12
ENDBRANCH   7  10
ENDBRANCH   6   7
BRANCH   1  22
HETATM   22  C1  UNL     1     -10.564  -0.463  -9.781  1.00  0.00     0.185 C 
HETATM   23  N1  UNL     1     -10.957  -1.533  -9.034  1.00  0.00    -0.373 N 
ATOM     24  H12 UNL     1     -10.415  -2.380  -9.207  1.00  0.00     0.158 HD
ATOM     25  H11 UNL     1     -11.804  -1.299  -8.517  1.00  0.00     0.158 HD
BRANCH  22  26
HETATM   26  N2  UNL     1      -9.463  -0.768 -10.451  1.00  0.00    -0.385 NA
BRANCH  26  27
HETATM   27  C2  UNL     1      -8.497  -1.025 -11.080  1.00  0.00     0.136 A 
HETATM   28  C3  UNL     1      -8.438  -2.133 -11.940  1.00  0.00     0.064 A 
HETATM   29  C4  UNL     1      -7.303  -2.399 -12.673  1.00  0.00     0.091 A 
HETATM   30  N3  UNL     1      -6.230  -1.602 -12.579  1.00  0.00    -0.373 N 
HETATM   31  C5  UNL     1      -6.216  -0.532 -11.782  1.00  0.00     0.117 A 
ATOM     32  H3  UNL     1      -5.401  -1.819 -13.132  1.00  0.00     0.164 HD
HETATM   33  C6  UNL     1      -7.345  -0.242 -11.035  1.00  0.00     0.102 A 
HETATM   34  N4  UNL     1      -7.318   0.912 -10.207  1.00  0.00    -0.097 NA
ENDBRANCH  26  27
ENDBRANCH  22  26
ENDBRANCH   1  22
TORSDOF 6
ENDMDL
MODEL 3
REMARK VINA RESULT: -9.414651717      0.432      1.929
REMARK  6 active torsions:
REMARK  status: ('A' for Active; 'I' for Inactive)
REMARK    1  A    between atoms: C1_4  and  N2_5 
REMARK    2  A    between atoms: C1_4  and  C7_14 
REMARK    3  A    between atoms: N2_5  and  C2_6 
REMARK    4  A    between atoms: C12_19  and  S1_20 
REMARK    5  A    between atoms: S1_20  and  N5_23 
REMARK    6  A    between atoms: N5_23  and  C13_25 
ROOT
HETATM    1  C7  UNL     1     -10.682   1.101  -9.840  1.00  0.00     0.045 A 
HETATM    2  C8  UNL     1     -10.735   2.314  -9.104  1.00  0.00     0.018 A 
HETATM    3  C9  UNL     1     -11.819   3.141  -9.005  1.00  0.00     0.001 A 
HETATM    4  C10 UNL     1     -12.953   2.783  -9.670  1.00  0.00     0.002 A 
HETATM    5  C11 UNL     1     -12.999   1.632 -10.404  1.00  0.00     0.026 A 
HETATM    6  C12 UNL     1     -11.869   0.810 -10.475  1.00  0.00     0.094 A 
ENDROOT
BRANCH   6   7
HETATM    7  S1  UNL     1     -12.044  -0.649 -11.367  1.00  0.00     0.264 S 
HETATM    8  O1  UNL     1     -13.296  -0.515 -12.239  1.00  0.00    -0.200 OA
HETATM    9  O2  UNL     1     -12.211  -1.863 -10.508  1.00  0.00    -0.200 OA
BRANCH   7  10
HETATM   10  N5  UNL     1     -10.733  -1.039 -12.445  1.00  0.00    -0.280 N 
ATOM     11  H5  UNL     1     -10.096  -0.271 -12.660  1.00  0.00     0.179 HD
BRANCH  10  12
HETATM   12  C13 UNL     1     -10.440  -2.249 -13.050  1.00  0.00     0.053 A 
HETATM   13  C14 UNL     1      -9.928  -3.363 -12.511  1.00  0.00     0.031 A 
HETATM   14  C15 UNL     1      -9.685  -4.548 -13.223  1.00  0.00     0.003 A 
HETATM   15  C16 UNL     1      -9.979  -4.610 -14.546  1.00  0.00     0.012 A 
HETATM   16  C17 UNL     1     -10.506  -3.501 -15.144  1.00  0.00    -0.024 A 
HETATM   17  C18 UNL     1     -10.803  -3.606 -16.502  1.00  0.00     0.012 A 
HETATM   18  C22 UNL     1     -10.740  -2.344 -14.443  1.00  0.00     0.001 A 
HETATM   19  C19 UNL     1     -11.339  -2.541 -17.154  1.00  0.00     0.001 A 
HETATM   20  C20 UNL     1     -11.578  -1.377 -16.453  1.00  0.00     0.001 A 
HETATM   21  C21 UNL     1     -11.284  -1.259 -15.090  1.00  0.00     0.014 A 
ENDBRANCH  10  12
ENDBRANCH   7  10
ENDBRANCH   6   7
BRANCH   1  22
HETATM   22  C1  UNL     1      -9.402   0.484  -9.974  1.00  0.00     0.185 C 
HETATM   23  N1  UNL     1      -8.472   1.268 -10.588  1.00  0.00    -0.373 N 
ATOM     24  H12 UNL     1      -7.557   0.827 -10.685  1.00  0.00     0.158 HD
ATOM     25  H11 UNL     1      -8.853   2.202 -10.735  1.00  0.00     0.158 HD
BRANCH  22  26
HETATM   26  N2  UNL     1      -8.907  -0.730  -9.784  1.00  0.00    -0.385 NA
BRANCH  26  27
HETATM   27  C2  UNL     1      -8.480  -1.822  -9.646  1.00  0.00     0.136 A 
HETATM   28  C3  UNL     1      -9.191  -2.822  -8.963  1.00  0.00     0.064 A 
HETATM   29  C4  UNL     1      -8.674  -4.092  -8.833  1.00  0.00     0.091 A 
HETATM   30  N3  UNL     1      -7.479  -4.398  -9.357  1.00  0.00    -0.373 N 
HETATM   31  C5  UNL     1      -6.749  -3.498 -10.019  1.00  0.00     0.117 A 
ATOM     32  H3  UNL     1      -7.118  -5.345  -9.248  1.00  0.00     0.164 HD
HETATM   33  C6  UNL     1      -7.247  -2.214 -10.165  1.00  0.00     0.102 A 
HETATM   34  N4  UNL     1      -6.464  -1.275 -10.888  1.00  0.00    -0.097 NA
ENDBRANCH  26  27
ENDBRANCH  22  26
ENDBRANCH   1  22
TORSDOF 6
ENDMDL
MODEL 4
REMARK VINA RESULT: -9.377627936      2.071      3.487
REMARK  6 active torsions:
REMARK  status: ('A' for Active; 'I' for Inactive)
REMARK    1  A    between atoms: C1_4  and  N2_5 
REMARK    2  A    between atoms: C1_4  and  C7_14 
REMARK    3  A    between atoms: N2_5  and  C2_6 
REMARK    4  A    between atoms: C12_19  and  S1_20 
REMARK    5  A    between atoms: S1_20  and  N5_23 
REMARK    6  A    between atoms: N5_23  and  C13_25 
ROOT
HETATM    1  C7  UNL     1      -8.947  -0.073  -9.949  1.00  0.00     0.045 A 
HETATM    2  C8  UNL     1      -8.444   1.248  -9.814  1.00  0.00     0.018 A 
HETATM    3  C9  UNL     1      -9.199   2.375  -9.644  1.00  0.00     0.001 A 
HETATM    4  C10 UNL     1     -10.553   2.232  -9.601  1.00  0.00     0.002 A 
HETATM    5  C11 UNL     1     -11.130   0.999  -9.720  1.00  0.00     0.026 A 
HETATM    6  C12 UNL     1     -10.322  -0.130  -9.888  1.00  0.00     0.094 A 
ENDROOT
BRANCH   6   7
HETATM    7  S1  UNL     1     -11.134  -1.644  -9.962  1.00  0.00     0.264 S 
HETATM    8  O1  UNL     1     -12.614  -1.393  -9.655  1.00  0.00    -0.200 OA
HETATM    9  O2  UNL     1     -10.625  -2.648  -8.977  1.00  0.00    -0.200 OA
BRANCH   7  10
HETATM   10  N5  UNL     1     -11.081  -2.457 -11.500  1.00  0.00    -0.280 N 
ATOM     11  H5  UNL     1     -11.641  -2.035 -12.242  1.00  0.00     0.179 HD
BRANCH  10  12
HETATM   12  C13 UNL     1     -10.381  -3.598 -11.853  1.00  0.00     0.053 A 
HETATM   13  C14 UNL     1      -9.795  -4.509 -11.066  1.00  0.00     0.031 A 
HETATM   14  C15 UNL     1      -9.120  -5.647 -11.538  1.00  0.00     0.003 A 
HETATM   15  C16 UNL     1      -9.038  -5.876 -12.873  1.00  0.00     0.012 A 
HETATM   16  C17 UNL     1      -9.623  -4.977 -13.720  1.00  0.00    -0.024 A 
HETATM   17  C18 UNL     1      -9.526  -5.251 -15.083  1.00  0.00     0.012 A 
HETATM   18  C22 UNL     1     -10.280  -3.865 -13.253  1.00  0.00     0.001 A 
HETATM   19  C19 UNL     1     -10.095  -4.401 -15.978  1.00  0.00     0.001 A 
HETATM   20  C20 UNL     1     -10.759  -3.284 -15.513  1.00  0.00     0.001 A 
HETATM   21  C21 UNL     1     -10.862  -2.998 -14.147  1.00  0.00     0.014 A 
ENDBRANCH  10  12
ENDBRANCH   7  10
ENDBRANCH   6   7
BRANCH   1  22
HETATM   22  C1  UNL     1      -8.008  -1.086 -10.312  1.00  0.00     0.185 C 
HETATM   23  N1  UNL     1      -7.619  -1.878  -9.274  1.00  0.00    -0.373 N 
ATOM     24  H12 UNL     1      -6.948  -2.602  -9.534  1.00  0.00     0.158 HD
ATOM     25  H11 UNL     1      -8.172  -1.656  -8.446  1.00  0.00     0.158 HD
BRANCH  22  26
HETATM   26  N2  UNL     1      -7.291  -1.376 -11.387  1.00  0.00    -0.385 NA
BRANCH  26  27
HETATM   27  C2  UNL     1      -6.652  -1.669 -12.336  1.00  0.00     0.136 A 
HETATM   28  C3  UNL     1      -7.038  -2.700 -13.207  1.00  0.00     0.064 A 
HETATM   29  C4  UNL     1      -6.281  -3.009 -14.315  1.00  0.00     0.091 A 
HETATM   30  N3  UNL     1      -5.158  -2.329 -14.583  1.00  0.00    -0.373 N 
HETATM   31  C5  UNL     1      -4.731  -1.337 -13.799  1.00  0.00     0.117 A 
ATOM     32  H3  UNL     1      -4.614  -2.576 -15.410  1.00  0.00     0.164 HD
HETATM   33  C6  UNL     1      -5.475  -1.007 -12.680  1.00  0.00     0.102 A 
HETATM   34  N4  UNL     1      -5.015   0.064 -11.867  1.00  0.00    -0.097 NA
ENDBRANCH  26  27
ENDBRANCH  22  26
ENDBRANCH   1  22
TORSDOF 6
ENDMDL
MODEL 5
REMARK VINA RESULT: -9.329288267      1.409      1.679
REMARK  6 active torsions:
REMARK  status: ('A' for Active; 'I' for Inactive)
REMARK    1  A    between atoms: C1_4  and  N2_5 
REMARK    2  A    between atoms: C1_4  and  C7_14 
REMARK    3  A    between atoms: N2_5  and  C2_6 
REMARK    4  A    between atoms: C12_19  and  S1_20 
REMARK    5  A    between atoms: S1_20  and  N5_23 
REMARK    6  A    between atoms: N5_23  and  C13_25 
ROOT
HETATM    1  C7  UNL     1     -11.198   0.131 -10.170  1.00  0.00     0.045 A 
HETATM    2  C8  UNL     1     -11.009   1.193  -9.246  1.00  0.00     0.018 A 
HETATM    3  C9  UNL     1     -11.388   2.492  -9.436  1.00  0.00     0.001 A 
HETATM    4  C10 UNL     1     -11.999   2.811 -10.611  1.00  0.00     0.002 A 
HETATM    5  C11 UNL     1     -12.225   1.856 -11.562  1.00  0.00     0.026 A 
HETATM    6  C12 UNL     1     -11.826   0.536 -11.327  1.00  0.00     0.094 A 
ENDROOT
BRANCH   6   7
HETATM    7  S1  UNL     1     -12.213  -0.606 -12.552  1.00  0.00     0.264 S 
HETATM    8  O1  UNL     1     -13.109   0.097 -13.577  1.00  0.00    -0.200 OA
HETATM    9  O2  UNL     1     -12.949  -1.806 -12.046  1.00  0.00    -0.200 OA
BRANCH   7  10
HETATM   10  N5  UNL     1     -10.861  -1.250 -13.440  1.00  0.00    -0.280 N 
ATOM     11  H5  UNL     1      -9.953  -1.168 -12.983  1.00  0.00     0.179 HD
BRANCH  10  12
HETATM   12  C13 UNL     1     -10.853  -1.859 -14.684  1.00  0.00     0.053 A 
HETATM   13  C14 UNL     1     -11.205  -1.357 -15.874  1.00  0.00     0.031 A 
HETATM   14  C15 UNL     1     -11.140  -2.067 -17.084  1.00  0.00     0.003 A 
HETATM   15  C16 UNL     1     -10.692  -3.348 -17.089  1.00  0.00     0.012 A 
HETATM   16  C17 UNL     1     -10.318  -3.907 -15.900  1.00  0.00    -0.024 A 
HETATM   17  C18 UNL     1      -9.854  -5.220 -15.947  1.00  0.00     0.012 A 
HETATM   18  C22 UNL     1     -10.385  -3.208 -14.720  1.00  0.00     0.001 A 
HETATM   19  C19 UNL     1      -9.456  -5.830 -14.800  1.00  0.00     0.001 A 
HETATM   20  C20 UNL     1      -9.520  -5.132 -13.612  1.00  0.00     0.001 A 
HETATM   21  C21 UNL     1      -9.984  -3.813 -13.552  1.00  0.00     0.014 A 
ENDBRANCH  10  12
ENDBRANCH   7  10
ENDBRANCH   6   7
BRANCH   1  22
HETATM   22  C1  UNL     1     -10.558  -1.109  -9.866  1.00  0.00     0.185 C 
HETATM   23  N1  UNL     1     -11.059  -1.734  -8.764  1.00  0.00    -0.373 N 
ATOM     24  H12 UNL     1     -10.602  -2.620  -8.547  1.00  0.00     0.158 HD
ATOM     25  H11 UNL     1     -11.883  -1.234  -8.430  1.00  0.00     0.158 HD
BRANCH  22  26
HETATM   26  N2  UNL     1      -9.489  -1.758 -10.300  1.00  0.00    -0.385 NA
BRANCH  26  27
HETATM   27  C2  UNL     1      -8.557  -2.362 -10.701  1.00  0.00     0.136 A 
HETATM   28  C3  UNL     1      -8.230  -3.640 -10.220  1.00  0.00     0.064 A 
HETATM   29  C4  UNL     1      -7.147  -4.327 -10.719  1.00  0.00     0.091 A 
HETATM   30  N3  UNL     1      -6.381  -3.787 -11.678  1.00  0.00    -0.373 N 
HETATM   31  C5  UNL     1      -6.632  -2.577 -12.182  1.00  0.00     0.117 A 
ATOM     32  H3  UNL     1      -5.583  -4.315 -12.032  1.00  0.00     0.164 HD
HETATM   33  C6  UNL     1      -7.717  -1.866 -11.697  1.00  0.00     0.102 A 
HETATM   34  N4  UNL     1      -7.980  -0.588 -12.259  1.00  0.00    -0.097 NA
ENDBRANCH  26  27
ENDBRANCH  22  26
ENDBRANCH   1  22
TORSDOF 6
ENDMDL
