MODEL 1
REMARK VINA RESULT: -9.056721040      0.000      0.000
REMARK  4 active torsions:
REMARK  status: ('A' for Active; 'I' for Inactive)
REMARK    1  A    between atoms: C6_11  and  S1_12 
REMARK    2  A    between atoms: S1_12  and  N3_15 
REMARK    3  A    between atoms: N3_15  and  C7_17 
REMARK    4  A    between atoms: C12_22  and  C13_23 
ROOT
HETATM    1  C7  UNL     1     -11.612  -0.932 -15.406  1.00  0.00     0.056 A 
HETATM    2  C8  UNL     1     -12.660  -0.099 -15.782  1.00  0.00     0.031 A 
HETATM    3  C9  UNL     1     -13.685   0.272 -14.914  1.00  0.00     0.002 A 
HETATM    4  C10 UNL     1     -13.675  -0.199 -13.626  1.00  0.00     0.001 A 
HETATM    5  C11 UNL     1     -12.651  -1.025 -13.226  1.00  0.00     0.017 A 
HETATM    6  C12 UNL     1     -11.625  -1.392 -14.103  1.00  0.00     0.035 A 
ENDROOT
BRANCH   1   7
HETATM    7  N3  UNL     1     -10.642  -1.301 -16.342  1.00  0.00    -0.280 N 
ATOM      8  H3  UNL     1      -9.867  -0.652 -16.480  1.00  0.00     0.179 HD
BRANCH   7   9
HETATM    9  S1  UNL     1     -10.625  -2.750 -17.291  1.00  0.00     0.264 S 
HETATM   10  O2  UNL     1     -12.045  -3.331 -17.279  1.00  0.00    -0.200 OA
HETATM   11  O3  UNL     1     -10.271  -2.341 -18.690  1.00  0.00    -0.200 OA
BRANCH   9  12
HETATM   12  C6  UNL     1      -9.603  -3.984 -16.632  1.00  0.00     0.098 A 
HETATM   13  C5  UNL     1     -10.077  -5.247 -16.300  1.00  0.00     0.026 A 
HETATM   14  C4  UNL     1      -9.190  -6.156 -15.784  1.00  0.00     0.004 A 
HETATM   15  C3  UNL     1      -7.864  -5.879 -15.582  1.00  0.00     0.032 A 
HETATM   16  C2  UNL     1      -7.384  -4.629 -15.909  1.00  0.00     0.065 A 
HETATM   17  N2  UNL     1      -6.158  -4.056 -15.835  1.00  0.00    -0.297 N 
HETATM   18  C20 UNL     1      -8.253  -3.683 -16.434  1.00  0.00     0.085 A 
HETATM   19  N1  UNL     1      -6.249  -2.830 -16.283  1.00  0.00    -0.265 N 
ATOM     20  H2  UNL     1      -5.310  -4.504 -15.488  1.00  0.00     0.187 HD
HETATM   21  C1  UNL     1      -7.514  -2.551 -16.664  1.00  0.00     0.274 A 
ATOM     22  H1  UNL     1      -5.470  -2.174 -16.338  1.00  0.00     0.190 HD
HETATM   23  O1  UNL     1      -7.924  -1.450 -17.139  1.00  0.00    -0.266 OA
ENDBRANCH   9  12
ENDBRANCH   7   9
ENDBRANCH   1   7
BRANCH   6  24
HETATM   24  C13 UNL     1     -10.552  -2.232 -13.577  1.00  0.00     0.118 A 
HETATM   25  N4  UNL     1      -9.273  -1.968 -13.357  1.00  0.00    -0.340 N 
HETATM   26  C14 UNL     1      -8.654  -3.036 -12.839  1.00  0.00     0.060 A 
ATOM     27  H4  UNL     1      -8.823  -1.074 -13.556  1.00  0.00     0.167 HD
HETATM   28  C15 UNL     1      -7.356  -3.305 -12.431  1.00  0.00     0.032 A 
HETATM   29  C19 UNL     1      -9.587  -4.036 -12.722  1.00  0.00     0.060 A 
HETATM   30  C16 UNL     1      -6.982  -4.534 -11.917  1.00  0.00     0.002 A 
HETATM   31  C17 UNL     1      -7.923  -5.536 -11.803  1.00  0.00     0.002 A 
HETATM   32  C18 UNL     1      -9.218  -5.279 -12.206  1.00  0.00     0.032 A 
HETATM   33  N5  UNL     1     -10.732  -3.517 -13.179  1.00  0.00    -0.340 N 
ATOM     34  H5  UNL     1     -11.620  -4.018 -13.223  1.00  0.00     0.167 HD
ENDBRANCH   6  24
TORSDOF 4
ENDMDL
MODEL 2
REMARK VINA RESULT: -9.056357291      2.452      5.267
REMARK  4 active torsions:
REMARK  status: ('A' for Active; 'I' for Inactive)
REMARK    1  A    between atoms: C6_11  and  S1_12 
REMARK    2  A    between atoms: S1_12  and  N3_15 
REMARK    3  A    between atoms: N3_15  and  C7_17 
REMARK    4  A    between atoms: C12_22  and  C13_23 
ROOT
HETATM    1  C7  UNL     1      -6.486  -2.933 -15.701  1.00  0.00     0.056 A 
HETATM    2  C8  UNL     1      -6.019  -2.607 -16.969  1.00  0.00     0.031 A 
HETATM    3  C9  UNL     1      -4.924  -1.772 -17.184  1.00  0.00     0.002 A 
HETATM    4  C10 UNL     1      -4.266  -1.239 -16.106  1.00  0.00     0.001 A 
HETATM    5  C11 UNL     1      -4.707  -1.545 -14.839  1.00  0.00     0.017 A 
HETATM    6  C12 UNL     1      -5.806  -2.385 -14.631  1.00  0.00     0.035 A 
ENDROOT
BRANCH   1   7
HETATM    7  N3  UNL     1      -7.619  -3.739 -15.560  1.00  0.00    -0.280 N 
ATOM      8  H3  UNL     1      -7.463  -4.746 -15.512  1.00  0.00     0.179 HD
BRANCH   7   9
HETATM    9  S1  UNL     1      -9.262  -3.198 -15.459  1.00  0.00     0.264 S 
HETATM   10  O2  UNL     1      -9.337  -1.812 -16.112  1.00  0.00    -0.200 OA
HETATM   11  O3  UNL     1     -10.081  -4.167 -16.260  1.00  0.00    -0.200 OA
BRANCH   9  12
HETATM   12  C6  UNL     1      -9.810  -2.984 -13.829  1.00  0.00     0.098 A 
HETATM   13  C5  UNL     1     -10.340  -1.784 -13.371  1.00  0.00     0.026 A 
HETATM   14  C4  UNL     1     -10.746  -1.713 -12.064  1.00  0.00     0.004 A 
HETATM   15  C3  UNL     1     -10.654  -2.765 -11.192  1.00  0.00     0.032 A 
HETATM   16  C2  UNL     1     -10.130  -3.959 -11.637  1.00  0.00     0.065 A 
HETATM   17  N2  UNL     1      -9.911  -5.157 -11.040  1.00  0.00    -0.297 N 
HETATM   18  C20 UNL     1      -9.709  -4.068 -12.954  1.00  0.00     0.085 A 
HETATM   19  N1  UNL     1      -9.387  -5.966 -11.924  1.00  0.00    -0.265 N 
ATOM     20  H2  UNL     1     -10.120  -5.387 -10.069  1.00  0.00     0.187 HD
HETATM   21  C1  UNL     1      -9.241  -5.348 -13.115  1.00  0.00     0.274 A 
ATOM     22  H1  UNL     1      -9.124  -6.934 -11.739  1.00  0.00     0.190 HD
HETATM   23  O1  UNL     1      -8.764  -5.863 -14.169  1.00  0.00    -0.266 OA
ENDBRANCH   9  12
ENDBRANCH   7   9
ENDBRANCH   1   7
BRANCH   6  24
HETATM   24  C13 UNL     1      -6.171  -2.695 -13.252  1.00  0.00     0.118 A 
HETATM   25  N4  UNL     1      -6.069  -3.819 -12.560  1.00  0.00    -0.340 N 
HETATM   26  C14 UNL     1      -6.508  -3.643 -11.307  1.00  0.00     0.060 A 
ATOM     27  H4  UNL     1      -5.707  -4.698 -12.931  1.00  0.00     0.167 HD
HETATM   28  C15 UNL     1      -6.623  -4.460 -10.193  1.00  0.00     0.032 A 
HETATM   29  C19 UNL     1      -6.911  -2.336 -11.193  1.00  0.00     0.060 A 
HETATM   30  C16 UNL     1      -7.126  -4.003  -8.988  1.00  0.00     0.002 A 
HETATM   31  C17 UNL     1      -7.531  -2.688  -8.878  1.00  0.00     0.002 A 
HETATM   32  C18 UNL     1      -7.420  -1.866  -9.981  1.00  0.00     0.032 A 
HETATM   33  N5  UNL     1      -6.694  -1.784 -12.392  1.00  0.00    -0.340 N 
ATOM     34  H5  UNL     1      -6.894  -0.812 -12.628  1.00  0.00     0.167 HD
ENDBRANCH   6  24
TORSDOF 4
ENDMDL
MODEL 3
REMARK VINA RESULT: -9.043274460      4.010      6.319
REMARK  4 active torsions:
REMARK  status: ('A' for Active; 'I' for Inactive)
REMARK    1  A    between atoms: C6_11  and  S1_12 
REMARK    2  A    between atoms: S1_12  and  N3_15 
REMARK    3  A    between atoms: N3_15  and  C7_17 
REMARK    4  A    between atoms: C12_22  and  C13_23 
ROOT
HETATM    1  C7  UNL     1     -12.967  -0.712 -13.428  1.00  0.00     0.056 A 
HETATM    2  C8  UNL     1     -13.752   0.349 -13.864  1.00  0.00     0.031 A 
HETATM    3  C9  UNL     1     -13.720   0.832 -15.171  1.00  0.00     0.002 A 
HETATM    4  C10 UNL     1     -12.880   0.245 -16.081  1.00  0.00     0.001 A 
HETATM    5  C11 UNL     1     -12.091  -0.808 -15.678  1.00  0.00     0.017 A 
HETATM    6  C12 UNL     1     -12.131  -1.288 -14.365  1.00  0.00     0.035 A 
ENDROOT
BRANCH   1   7
HETATM    7  N3  UNL     1     -13.017  -1.115 -12.091  1.00  0.00    -0.280 N 
ATOM      8  H3  UNL     1     -12.665  -2.048 -11.878  1.00  0.00     0.179 HD
BRANCH   7   9
HETATM    9  S1  UNL     1     -13.616  -0.184 -10.758  1.00  0.00     0.264 S 
HETATM   10  O2  UNL     1     -14.882   0.543 -11.229  1.00  0.00    -0.200 OA
HETATM   11  O3  UNL     1     -13.980  -1.163  -9.682  1.00  0.00    -0.200 OA
BRANCH   9  12
HETATM   12  C6  UNL     1     -12.521   1.057 -10.246  1.00  0.00     0.098 A 
HETATM   13  C5  UNL     1     -12.887   2.396 -10.179  1.00  0.00     0.026 A 
HETATM   14  C4  UNL     1     -11.949   3.304  -9.762  1.00  0.00     0.004 A 
HETATM   15  C3  UNL     1     -10.672   2.955  -9.410  1.00  0.00     0.032 A 
HETATM   16  C2  UNL     1     -10.299   1.630  -9.473  1.00  0.00     0.065 A 
HETATM   17  N2  UNL     1      -9.144   0.977  -9.198  1.00  0.00    -0.297 N 
HETATM   18  C20 UNL     1     -11.222   0.683  -9.890  1.00  0.00     0.085 A 
HETATM   19  N1  UNL     1      -9.328  -0.298  -9.427  1.00  0.00    -0.265 N 
ATOM     20  H2  UNL     1      -8.279   1.406  -8.868  1.00  0.00     0.187 HD
HETATM   21  C1  UNL     1     -10.587  -0.532  -9.854  1.00  0.00     0.274 A 
ATOM     22  H1  UNL     1      -8.616  -1.018  -9.300  1.00  0.00     0.190 HD
HETATM   23  O1  UNL     1     -11.072  -1.662 -10.159  1.00  0.00    -0.266 OA
ENDBRANCH   9  12
ENDBRANCH   7   9
ENDBRANCH   1   7
BRANCH   6  24
HETATM   24  C13 UNL     1     -11.296  -2.441 -14.040  1.00  0.00     0.118 A 
HETATM   25  N4  UNL     1     -10.850  -2.887 -12.876  1.00  0.00    -0.340 N 
HETATM   26  C14 UNL     1     -10.130  -4.004 -13.043  1.00  0.00     0.060 A 
ATOM     27  H4  UNL     1     -11.029  -2.441 -11.976  1.00  0.00     0.167 HD
HETATM   28  C15 UNL     1      -9.451  -4.861 -12.190  1.00  0.00     0.032 A 
HETATM   29  C19 UNL     1     -10.116  -4.286 -14.387  1.00  0.00     0.060 A 
HETATM   30  C16 UNL     1      -8.771  -5.975 -12.648  1.00  0.00     0.002 A 
HETATM   31  C17 UNL     1      -8.759  -6.254 -13.999  1.00  0.00     0.002 A 
HETATM   32  C18 UNL     1      -9.432  -5.408 -14.857  1.00  0.00     0.032 A 
HETATM   33  N5  UNL     1     -10.834  -3.318 -14.967  1.00  0.00    -0.340 N 
ATOM     34  H5  UNL     1     -11.010  -3.248 -15.970  1.00  0.00     0.167 HD
ENDBRANCH   6  24
TORSDOF 4
ENDMDL
MODEL 4
REMARK VINA RESULT: -9.042565627      4.196      6.595
REMARK  4 active torsions:
REMARK  status: ('A' for Active; 'I' for Inactive)
REMARK    1  A    between atoms: C6_11  and  S1_12 
REMARK    2  A    between atoms: S1_12  and  N3_15 
REMARK    3  A    between atoms: N3_15  and  C7_17 
REMARK    4  A    between atoms: C12_22  and  C13_23 
ROOT
HETATM    1  C7  UNL     1     -12.233  -0.652 -13.203  1.00  0.00     0.056 A 
HETATM    2  C8  UNL     1     -13.045   0.469 -13.336  1.00  0.00     0.031 A 
HETATM    3  C9  UNL     1     -13.590   0.871 -14.554  1.00  0.00     0.002 A 
HETATM    4  C10 UNL     1     -13.324   0.139 -15.682  1.00  0.00     0.001 A 
HETATM    5  C11 UNL     1     -12.524  -0.976 -15.580  1.00  0.00     0.017 A 
HETATM    6  C12 UNL     1     -11.981  -1.374 -14.353  1.00  0.00     0.035 A 
ENDROOT
BRANCH   1   7
HETATM    7  N3  UNL     1     -11.682  -0.971 -11.959  1.00  0.00    -0.280 N 
ATOM      8  H3  UNL     1     -10.771  -1.428 -11.963  1.00  0.00     0.179 HD
BRANCH   7   9
HETATM    9  S1  UNL     1     -12.395  -0.665 -10.409  1.00  0.00     0.264 S 
HETATM   10  O2  UNL     1     -13.909  -0.871 -10.544  1.00  0.00    -0.200 OA
HETATM   11  O3  UNL     1     -11.838  -1.695  -9.471  1.00  0.00    -0.200 OA
BRANCH   9  12
HETATM   12  C6  UNL     1     -12.185   0.969  -9.873  1.00  0.00     0.098 A 
HETATM   13  C5  UNL     1     -13.255   1.830  -9.665  1.00  0.00     0.026 A 
HETATM   14  C4  UNL     1     -12.987   3.106  -9.241  1.00  0.00     0.004 A 
HETATM   15  C3  UNL     1     -11.718   3.568  -9.012  1.00  0.00     0.032 A 
HETATM   16  C2  UNL     1     -10.650   2.722  -9.214  1.00  0.00     0.065 A 
HETATM   17  N2  UNL     1      -9.310   2.870  -9.080  1.00  0.00    -0.297 N 
HETATM   18  C20 UNL     1     -10.884   1.424  -9.644  1.00  0.00     0.085 A 
HETATM   19  N1  UNL     1      -8.737   1.739  -9.403  1.00  0.00    -0.265 N 
ATOM     20  H2  UNL     1      -8.830   3.718  -8.778  1.00  0.00     0.187 HD
HETATM   21  C1  UNL     1      -9.658   0.818  -9.757  1.00  0.00     0.274 A 
ATOM     22  H1  UNL     1      -7.730   1.575  -9.390  1.00  0.00     0.190 HD
HETATM   23  O1  UNL     1      -9.421  -0.371 -10.122  1.00  0.00    -0.266 OA
ENDBRANCH   9  12
ENDBRANCH   7   9
ENDBRANCH   1   7
BRANCH   6  24
HETATM   24  C13 UNL     1     -11.185  -2.598 -14.330  1.00  0.00     0.118 A 
HETATM   25  N4  UNL     1     -10.641  -3.258 -13.320  1.00  0.00    -0.340 N 
HETATM   26  C14 UNL     1     -10.010  -4.356 -13.759  1.00  0.00     0.060 A 
ATOM     27  H4  UNL     1     -10.693  -2.971 -12.342  1.00  0.00     0.167 HD
HETATM   28  C15 UNL     1      -9.294  -5.375 -13.151  1.00  0.00     0.032 A 
HETATM   29  C19 UNL     1     -10.161  -4.398 -15.123  1.00  0.00     0.060 A 
HETATM   30  C16 UNL     1      -8.735  -6.417 -13.869  1.00  0.00     0.002 A 
HETATM   31  C17 UNL     1      -8.888  -6.454 -15.239  1.00  0.00     0.002 A 
HETATM   32  C18 UNL     1      -9.600  -5.445 -15.855  1.00  0.00     0.032 A 
HETATM   33  N5  UNL     1     -10.880  -3.315 -15.441  1.00  0.00    -0.340 N 
ATOM     34  H5  UNL     1     -11.161  -3.064 -16.389  1.00  0.00     0.167 HD
ENDBRANCH   6  24
TORSDOF 4
ENDMDL
MODEL 5
REMARK VINA RESULT: -8.921658573      3.882      5.355
REMARK  4 active torsions:
REMARK  status: ('A' for Active; 'I' for Inactive)
REMARK    1  A    between atoms: C6_11  and  S1_12 
REMARK    2  A    between atoms: S1_12  and  N3_15 
REMARK    3  A    between atoms: N3_15  and  C7_17 
REMARK    4  A    between atoms: C12_22  and  C13_23 
ROOT
HETATM    1  C7  UNL     1     -11.933  -0.315 -12.554  1.00  0.00     0.056 A 
HETATM    2  C8  UNL     1     -13.055   0.408 -12.945  1.00  0.00     0.031 A 
HETATM    3  C9  UNL     1     -13.822   0.076 -14.060  1.00  0.00     0.002 A 
HETATM    4  C10 UNL     1     -13.467  -1.010 -14.818  1.00  0.00     0.001 A 
HETATM    5  C11 UNL     1     -12.361  -1.744 -14.455  1.00  0.00     0.017 A 
HETATM    6  C12 UNL     1     -11.597  -1.405 -13.333  1.00  0.00     0.035 A 
ENDROOT
BRANCH   1   7
HETATM    7  N3  UNL     1     -11.183   0.103 -11.451  1.00  0.00    -0.280 N 
ATOM      8  H3  UNL     1     -10.489   0.831 -11.616  1.00  0.00     0.179 HD
BRANCH   7   9
HETATM    9  S1  UNL     1     -11.318  -0.495  -9.830  1.00  0.00     0.264 S 
HETATM   10  O2  UNL     1     -11.223   0.707  -8.881  1.00  0.00    -0.200 OA
HETATM   11  O3  UNL     1     -12.680  -1.110  -9.712  1.00  0.00    -0.200 OA
BRANCH   9  12
HETATM   12  C6  UNL     1     -10.020  -1.553  -9.384  1.00  0.00     0.098 A 
HETATM   13  C5  UNL     1     -10.237  -2.837  -8.900  1.00  0.00     0.026 A 
HETATM   14  C4  UNL     1      -9.145  -3.600  -8.574  1.00  0.00     0.004 A 
HETATM   15  C3  UNL     1      -7.856  -3.156  -8.705  1.00  0.00     0.032 A 
HETATM   16  C2  UNL     1      -7.630  -1.885  -9.185  1.00  0.00     0.065 A 
HETATM   17  N2  UNL     1      -6.505  -1.169  -9.426  1.00  0.00    -0.297 N 
HETATM   18  C20 UNL     1      -8.712  -1.085  -9.525  1.00  0.00     0.085 A 
HETATM   19  N1  UNL     1      -6.854   0.004  -9.888  1.00  0.00    -0.265 N 
ATOM     20  H2  UNL     1      -5.549  -1.491  -9.274  1.00  0.00     0.187 HD
HETATM   21  C1  UNL     1      -8.198   0.108  -9.968  1.00  0.00     0.274 A 
ATOM     22  H1  UNL     1      -6.200   0.741 -10.152  1.00  0.00     0.190 HD
HETATM   23  O1  UNL     1      -8.845   1.118 -10.375  1.00  0.00    -0.266 OA
ENDBRANCH   9  12
ENDBRANCH   7   9
ENDBRANCH   1   7
BRANCH   6  24
HETATM   24  C13 UNL     1     -10.471  -2.270 -12.994  1.00  0.00     0.118 A 
HETATM   25  N4  UNL     1      -9.167  -2.045 -13.021  1.00  0.00    -0.340 N 
HETATM   26  C14 UNL     1      -8.493  -3.123 -12.599  1.00  0.00     0.060 A 
ATOM     27  H4  UNL     1      -8.735  -1.171 -13.322  1.00  0.00     0.167 HD
HETATM   28  C15 UNL     1      -7.151  -3.427 -12.432  1.00  0.00     0.032 A 
HETATM   29  C19 UNL     1      -9.417  -4.089 -12.287  1.00  0.00     0.060 A 
HETATM   30  C16 UNL     1      -6.723  -4.657 -11.965  1.00  0.00     0.002 A 
HETATM   31  C17 UNL     1      -7.656  -5.625 -11.653  1.00  0.00     0.002 A 
HETATM   32  C18 UNL     1      -8.995  -5.333 -11.816  1.00  0.00     0.032 A 
HETATM   33  N5  UNL     1     -10.612  -3.540 -12.537  1.00  0.00    -0.340 N 
ATOM     34  H5  UNL     1     -11.506  -4.013 -12.402  1.00  0.00     0.167 HD
ENDBRANCH   6  24
TORSDOF 4
ENDMDL
