MODEL 1
REMARK VINA RESULT: -10.094797401      0.000      0.000
REMARK  8 active torsions:
REMARK  status: ('A' for Active; 'I' for Inactive)
REMARK    1  A    between atoms: N1_1  and  C1_4 
REMARK    2  A    between atoms: C3_9  and  C4_10 
REMARK       I    between atoms: C4_10  and  N3_12 
REMARK    3  A    between atoms: N3_12  and  C5_14 
REMARK    4  A    between atoms: C8_17  and  N4_18 
REMARK       I    between atoms: N4_18  and  C9_20 
REMARK       I    between atoms: C9_20  and  N5_22 
REMARK    5  A    between atoms: N5_22  and  C10_24 
REMARK    6  A    between atoms: C13_27  and  N6_28 
REMARK       I    between atoms: N6_28  and  C14_30 
REMARK    7  A    between atoms: C14_30  and  C15_32 
REMARK    8  A    between atoms: C18_35  and  N7_36 
ROOT
HETATM    1  N4  UNL     1      -7.814 -27.506 -15.650  1.00  0.00    -0.309 N 
ATOM      2  H4  UNL     1      -7.826 -28.131 -14.844  1.00  0.00     0.170 HD
HETATM    3  C9  UNL     1      -8.293 -26.212 -15.451  1.00  0.00     0.325 C 
HETATM    4  O3  UNL     1      -8.296 -25.428 -16.428  1.00  0.00    -0.247 OA
HETATM    5  N5  UNL     1      -8.769 -25.767 -14.184  1.00  0.00    -0.309 N 
ATOM      6  H5  UNL     1      -8.744 -26.428 -13.409  1.00  0.00     0.170 HD
ENDROOT
BRANCH   1   7
HETATM    7  C8  UNL     1      -7.316 -28.032 -16.852  1.00  0.00     0.036 A 
HETATM    8  C7  UNL     1      -6.024 -27.922 -17.304  1.00  0.00     0.032 A 
HETATM    9  C6  UNL     1      -5.619 -28.463 -18.530  1.00  0.00     0.032 A 
HETATM   10  C5  UNL     1      -6.489 -29.137 -19.351  1.00  0.00     0.035 A 
HETATM   11  C25 UNL     1      -7.776 -29.254 -18.916  1.00  0.00     0.032 A 
HETATM   12  C24 UNL     1      -8.195 -28.728 -17.712  1.00  0.00     0.032 A 
BRANCH  10  13
HETATM   13  N3  UNL     1      -6.037 -29.631 -20.583  1.00  0.00    -0.323 N 
HETATM   14  C4  UNL     1      -5.500 -30.911 -20.741  1.00  0.00     0.262 C 
HETATM   15  O2  UNL     1      -5.427 -31.651 -19.692  1.00  0.00    -0.267 OA
ATOM     16  H3  UNL     1      -6.103 -29.027 -21.402  1.00  0.00     0.169 HD
BRANCH  14  17
HETATM   17  C3  UNL     1      -5.013 -31.521 -21.948  1.00  0.00     0.101 A 
HETATM   18  C1  UNL     1      -3.758 -31.514 -22.476  1.00  0.00     0.137 A 
HETATM   19  N2  UNL     1      -3.847 -32.195 -23.664  1.00  0.00    -0.245 N 
HETATM   20  O1  UNL     1      -5.053 -32.584 -23.841  1.00  0.00    -0.247 OA
ATOM     21  H2  UNL     1      -3.072 -32.365 -24.305  1.00  0.00     0.196 HD
HETATM   22  C2  UNL     1      -5.809 -32.220 -22.860  1.00  0.00     0.188 A 
BRANCH  18  23
HETATM   23  N1  UNL     1      -2.644 -31.054 -22.084  1.00  0.00    -0.383 N 
ATOM     24  H12 UNL     1      -1.966 -31.350 -21.382  1.00  0.00     0.157 HD
ATOM     25  H11 UNL     1      -2.250 -30.220 -22.517  1.00  0.00     0.157 HD
ENDBRANCH  18  23
ENDBRANCH  14  17
ENDBRANCH  10  13
ENDBRANCH   1   7
BRANCH   5  26
HETATM   26  C10 UNL     1      -9.271 -24.475 -13.931  1.00  0.00     0.036 A 
HETATM   27  C11 UNL     1      -9.348 -24.042 -12.591  1.00  0.00     0.032 A 
HETATM   28  C12 UNL     1      -9.846 -22.817 -12.241  1.00  0.00     0.032 A 
HETATM   29  C13 UNL     1     -10.312 -21.914 -13.200  1.00  0.00     0.035 A 
HETATM   30  C22 UNL     1     -10.242 -22.322 -14.502  1.00  0.00     0.032 A 
HETATM   31  C23 UNL     1      -9.728 -23.587 -14.855  1.00  0.00     0.032 A 
BRANCH  29  32
HETATM   32  N6  UNL     1     -10.802 -20.654 -12.755  1.00  0.00    -0.323 N 
HETATM   33  C14 UNL     1     -10.114 -19.656 -12.087  1.00  0.00     0.256 C 
HETATM   34  O4  UNL     1      -8.911 -19.743 -11.785  1.00  0.00    -0.267 OA
ATOM     35  H6  UNL     1     -11.785 -20.463 -12.953  1.00  0.00     0.169 HD
BRANCH  33  36
HETATM   36  C15 UNL     1     -10.792 -18.414 -11.697  1.00  0.00     0.032 A 
HETATM   37  C16 UNL     1     -10.178 -17.524 -10.820  1.00  0.00     0.019 A 
HETATM   38  C17 UNL     1     -10.767 -16.349 -10.412  1.00  0.00     0.030 A 
HETATM   39  C18 UNL     1     -12.034 -16.000 -10.875  1.00  0.00     0.034 A 
HETATM   40  C20 UNL     1     -12.643 -16.880 -11.742  1.00  0.00     0.030 A 
HETATM   41  C21 UNL     1     -12.046 -18.068 -12.154  1.00  0.00     0.019 A 
BRANCH  39  42
HETATM   42  N7  UNL     1     -12.671 -14.795 -10.473  1.00  0.00    -0.333 N 
HETATM   43  C19 UNL     1     -13.311 -14.615  -9.383  1.00  0.00     0.201 C 
HETATM   44  N8  UNL     1     -13.431 -15.672  -8.455  1.00  0.00    -0.066 NA
HETATM   45  N9  UNL     1     -13.901 -13.357  -9.110  1.00  0.00    -0.066 NA
ATOM     46  H7  UNL     1     -12.611 -14.003 -11.113  1.00  0.00     0.168 HD
ENDBRANCH  39  42
ENDBRANCH  33  36
ENDBRANCH  29  32
ENDBRANCH   5  26
TORSDOF 8
ENDMDL
MODEL 2
REMARK VINA RESULT: -10.088485653      1.637      2.121
REMARK  8 active torsions:
REMARK  status: ('A' for Active; 'I' for Inactive)
REMARK    1  A    between atoms: N1_1  and  C1_4 
REMARK    2  A    between atoms: C3_9  and  C4_10 
REMARK       I    between atoms: C4_10  and  N3_12 
REMARK    3  A    between atoms: N3_12  and  C5_14 
REMARK    4  A    between atoms: C8_17  and  N4_18 
REMARK       I    between atoms: N4_18  and  C9_20 
REMARK       I    between atoms: C9_20  and  N5_22 
REMARK    5  A    between atoms: N5_22  and  C10_24 
REMARK    6  A    between atoms: C13_27  and  N6_28 
REMARK       I    between atoms: N6_28  and  C14_30 
REMARK    7  A    between atoms: C14_30  and  C15_32 
REMARK    8  A    between atoms: C18_35  and  N7_36 
ROOT
HETATM    1  N4  UNL     1      -7.674 -28.128 -16.838  1.00  0.00    -0.309 N 
ATOM      2  H4  UNL     1      -8.061 -28.861 -16.244  1.00  0.00     0.170 HD
HETATM    3  C9  UNL     1      -8.023 -26.815 -16.525  1.00  0.00     0.325 C 
HETATM    4  O3  UNL     1      -7.568 -25.896 -17.245  1.00  0.00    -0.247 OA
HETATM    5  N5  UNL     1      -8.870 -26.498 -15.425  1.00  0.00    -0.309 N 
ATOM      6  H5  UNL     1      -9.216 -27.268 -14.854  1.00  0.00     0.170 HD
ENDROOT
BRANCH   1   7
HETATM    7  C8  UNL     1      -6.841 -28.538 -17.890  1.00  0.00     0.036 A 
HETATM    8  C7  UNL     1      -7.234 -29.255 -18.994  1.00  0.00     0.032 A 
HETATM    9  C6  UNL     1      -6.329 -29.641 -19.988  1.00  0.00     0.032 A 
HETATM   10  C5  UNL     1      -4.994 -29.323 -19.921  1.00  0.00     0.035 A 
HETATM   11  C25 UNL     1      -4.589 -28.612 -18.831  1.00  0.00     0.032 A 
HETATM   12  C24 UNL     1      -5.466 -28.223 -17.840  1.00  0.00     0.032 A 
BRANCH  10  13
HETATM   13  N3  UNL     1      -4.126 -29.763 -20.930  1.00  0.00    -0.323 N 
HETATM   14  C4  UNL     1      -3.598 -31.056 -20.972  1.00  0.00     0.262 C 
HETATM   15  O2  UNL     1      -3.939 -31.860 -20.028  1.00  0.00    -0.267 OA
ATOM     16  H3  UNL     1      -3.867 -29.108 -21.668  1.00  0.00     0.169 HD
BRANCH  14  17
HETATM   17  C3  UNL     1      -2.709 -31.614 -21.954  1.00  0.00     0.101 A 
HETATM   18  C1  UNL     1      -2.996 -32.354 -23.060  1.00  0.00     0.137 A 
HETATM   19  N2  UNL     1      -1.785 -32.679 -23.619  1.00  0.00    -0.245 N 
HETATM   20  O1  UNL     1      -0.844 -32.178 -22.913  1.00  0.00    -0.247 OA
ATOM     21  H2  UNL     1      -1.656 -33.234 -24.465  1.00  0.00     0.196 HD
HETATM   22  C2  UNL     1      -1.315 -31.527 -21.902  1.00  0.00     0.188 A 
BRANCH  18  23
HETATM   23  N1  UNL     1      -4.075 -32.730 -23.609  1.00  0.00    -0.383 N 
ATOM     24  H12 UNL     1      -4.328 -32.993 -24.561  1.00  0.00     0.157 HD
ATOM     25  H11 UNL     1      -4.924 -32.839 -23.055  1.00  0.00     0.157 HD
ENDBRANCH  18  23
ENDBRANCH  14  17
ENDBRANCH  10  13
ENDBRANCH   1   7
BRANCH   5  26
HETATM   26  C10 UNL     1      -9.261 -25.191 -15.071  1.00  0.00     0.036 A 
HETATM   27  C11 UNL     1      -9.241 -24.837 -13.706  1.00  0.00     0.032 A 
HETATM   28  C12 UNL     1      -9.628 -23.603 -13.260  1.00  0.00     0.032 A 
HETATM   29  C13 UNL     1     -10.070 -22.611 -14.140  1.00  0.00     0.035 A 
HETATM   30  C22 UNL     1     -10.094 -22.943 -15.464  1.00  0.00     0.032 A 
HETATM   31  C23 UNL     1      -9.694 -24.218 -15.917  1.00  0.00     0.032 A 
BRANCH  29  32
HETATM   32  N6  UNL     1     -10.443 -21.350 -13.597  1.00  0.00    -0.323 N 
HETATM   33  C14 UNL     1     -11.611 -20.638 -13.812  1.00  0.00     0.256 C 
HETATM   34  O4  UNL     1     -12.531 -21.043 -14.543  1.00  0.00    -0.267 OA
ATOM     35  H6  UNL     1      -9.764 -20.915 -12.971  1.00  0.00     0.169 HD
BRANCH  33  36
HETATM   36  C15 UNL     1     -11.821 -19.336 -13.167  1.00  0.00     0.032 A 
HETATM   37  C16 UNL     1     -11.010 -18.938 -12.108  1.00  0.00     0.019 A 
HETATM   38  C17 UNL     1     -11.164 -17.734 -11.459  1.00  0.00     0.030 A 
HETATM   39  C18 UNL     1     -12.163 -16.846 -11.852  1.00  0.00     0.034 A 
HETATM   40  C20 UNL     1     -12.966 -17.238 -12.900  1.00  0.00     0.030 A 
HETATM   41  C21 UNL     1     -12.809 -18.457 -13.555  1.00  0.00     0.019 A 
BRANCH  39  42
HETATM   42  N7  UNL     1     -12.349 -15.596 -11.203  1.00  0.00    -0.333 N 
HETATM   43  C19 UNL     1     -12.892 -15.419 -10.062  1.00  0.00     0.201 C 
HETATM   44  N8  UNL     1     -13.370 -16.528  -9.330  1.00  0.00    -0.066 NA
HETATM   45  N9  UNL     1     -13.016 -14.111  -9.533  1.00  0.00    -0.066 NA
ATOM     46  H7  UNL     1     -12.020 -14.765 -11.694  1.00  0.00     0.168 HD
ENDBRANCH  39  42
ENDBRANCH  33  36
ENDBRANCH  29  32
ENDBRANCH   5  26
TORSDOF 8
ENDMDL
MODEL 3
REMARK VINA RESULT: -10.055669574      2.836     15.525
REMARK  8 active torsions:
REMARK  status: ('A' for Active; 'I' for Inactive)
REMARK    1  A    between atoms: N1_1  and  C1_4 
REMARK    2  A    between atoms: C3_9  and  C4_10 
REMARK       I    between atoms: C4_10  and  N3_12 
REMARK    3  A    between atoms: N3_12  and  C5_14 
REMARK    4  A    between atoms: C8_17  and  N4_18 
REMARK       I    between atoms: N4_18  and  C9_20 
REMARK       I    between atoms: C9_20  and  N5_22 
REMARK    5  A    between atoms: N5_22  and  C10_24 
REMARK    6  A    between atoms: C13_27  and  N6_28 
REMARK       I    between atoms: N6_28  and  C14_30 
REMARK    7  A    between atoms: C14_30  and  C15_32 
REMARK    8  A    between atoms: C18_35  and  N7_36 
ROOT
HETATM    1  N4  UNL     1      -8.848 -21.577  -9.575  1.00  0.00    -0.309 N 
ATOM      2  H4  UNL     1      -8.523 -22.009  -8.711  1.00  0.00     0.170 HD
HETATM    3  C9  UNL     1      -8.585 -22.263 -10.760  1.00  0.00     0.325 C 
HETATM    4  O3  UNL     1      -8.967 -21.748 -11.836  1.00  0.00    -0.247 OA
HETATM    5  N5  UNL     1      -7.906 -23.515 -10.776  1.00  0.00    -0.309 N 
ATOM      6  H5  UNL     1      -7.617 -23.910  -9.882  1.00  0.00     0.170 HD
ENDROOT
BRANCH   1   7
HETATM    7  C8  UNL     1      -9.517 -20.349  -9.456  1.00  0.00     0.036 A 
HETATM    8  C7  UNL     1      -8.949 -19.107  -9.603  1.00  0.00     0.032 A 
HETATM    9  C6  UNL     1      -9.690 -17.930  -9.446  1.00  0.00     0.032 A 
HETATM   10  C5  UNL     1     -11.029 -17.948  -9.139  1.00  0.00     0.035 A 
HETATM   11  C25 UNL     1     -11.606 -19.174  -8.990  1.00  0.00     0.032 A 
HETATM   12  C24 UNL     1     -10.893 -20.345  -9.140  1.00  0.00     0.032 A 
BRANCH  10  13
HETATM   13  N3  UNL     1     -11.715 -16.738  -8.962  1.00  0.00    -0.323 N 
HETATM   14  C4  UNL     1     -12.234 -15.993 -10.024  1.00  0.00     0.262 C 
HETATM   15  O2  UNL     1     -12.059 -16.460 -11.210  1.00  0.00    -0.267 OA
ATOM     16  H3  UNL     1     -11.842 -16.386  -8.014  1.00  0.00     0.169 HD
BRANCH  14  17
HETATM   17  C3  UNL     1     -12.954 -14.751  -9.962  1.00  0.00     0.101 A 
HETATM   18  C1  UNL     1     -13.004 -13.732 -10.863  1.00  0.00     0.137 A 
HETATM   19  N2  UNL     1     -13.790 -12.763 -10.292  1.00  0.00    -0.245 N 
HETATM   20  O1  UNL     1     -14.186 -13.160  -9.143  1.00  0.00    -0.247 OA
ATOM     21  H2  UNL     1     -14.022 -11.866 -10.719  1.00  0.00     0.196 HD
HETATM   22  C2  UNL     1     -13.730 -14.338  -8.874  1.00  0.00     0.188 A 
BRANCH  18  23
HETATM   23  N1  UNL     1     -12.516 -13.561 -12.021  1.00  0.00    -0.383 N 
ATOM     24  H12 UNL     1     -12.669 -12.871 -12.756  1.00  0.00     0.157 HD
ATOM     25  H11 UNL     1     -11.796 -14.190 -12.375  1.00  0.00     0.157 HD
ENDBRANCH  18  23
ENDBRANCH  14  17
ENDBRANCH  10  13
ENDBRANCH   1   7
BRANCH   5  26
HETATM   26  C10 UNL     1      -7.607 -24.244 -11.944  1.00  0.00     0.036 A 
HETATM   27  C11 UNL     1      -8.282 -25.465 -12.156  1.00  0.00     0.032 A 
HETATM   28  C12 UNL     1      -8.041 -26.257 -13.245  1.00  0.00     0.032 A 
HETATM   29  C13 UNL     1      -7.105 -25.902 -14.219  1.00  0.00     0.035 A 
HETATM   30  C22 UNL     1      -6.446 -24.721 -14.024  1.00  0.00     0.032 A 
HETATM   31  C23 UNL     1      -6.698 -23.909 -12.898  1.00  0.00     0.032 A 
BRANCH  29  32
HETATM   32  N6  UNL     1      -6.923 -26.775 -15.328  1.00  0.00    -0.323 N 
HETATM   33  C14 UNL     1      -7.544 -26.728 -16.564  1.00  0.00     0.256 C 
HETATM   34  O4  UNL     1      -8.379 -25.861 -16.875  1.00  0.00    -0.267 OA
ATOM     35  H6  UNL     1      -6.251 -27.531 -15.194  1.00  0.00     0.169 HD
BRANCH  33  36
HETATM   36  C15 UNL     1      -7.234 -27.728 -17.594  1.00  0.00     0.032 A 
HETATM   37  C16 UNL     1      -5.915 -27.957 -17.975  1.00  0.00     0.019 A 
HETATM   38  C17 UNL     1      -5.564 -28.875 -18.938  1.00  0.00     0.030 A 
HETATM   39  C18 UNL     1      -6.543 -29.627 -19.584  1.00  0.00     0.034 A 
HETATM   40  C20 UNL     1      -7.848 -29.401 -19.208  1.00  0.00     0.030 A 
HETATM   41  C21 UNL     1      -8.202 -28.472 -18.233  1.00  0.00     0.019 A 
BRANCH  39  42
HETATM   42  N7  UNL     1      -6.215 -30.582 -20.583  1.00  0.00    -0.333 N 
HETATM   43  C19 UNL     1      -5.598 -30.340 -21.674  1.00  0.00     0.201 C 
HETATM   44  N8  UNL     1      -5.180 -29.025 -21.970  1.00  0.00    -0.066 NA
HETATM   45  N9  UNL     1      -5.337 -31.392 -22.587  1.00  0.00    -0.066 NA
ATOM     46  H7  UNL     1      -6.497 -31.548 -20.413  1.00  0.00     0.168 HD
ENDBRANCH  39  42
ENDBRANCH  33  36
ENDBRANCH  29  32
ENDBRANCH   5  26
TORSDOF 8
ENDMDL
MODEL 4
REMARK VINA RESULT: -9.944573395      4.074      7.752
REMARK  8 active torsions:
REMARK  status: ('A' for Active; 'I' for Inactive)
REMARK    1  A    between atoms: N1_1  and  C1_4 
REMARK    2  A    between atoms: C3_9  and  C4_10 
REMARK       I    between atoms: C4_10  and  N3_12 
REMARK    3  A    between atoms: N3_12  and  C5_14 
REMARK    4  A    between atoms: C8_17  and  N4_18 
REMARK       I    between atoms: N4_18  and  C9_20 
REMARK       I    between atoms: C9_20  and  N5_22 
REMARK    5  A    between atoms: N5_22  and  C10_24 
REMARK    6  A    between atoms: C13_27  and  N6_28 
REMARK       I    between atoms: N6_28  and  C14_30 
REMARK    7  A    between atoms: C14_30  and  C15_32 
REMARK    8  A    between atoms: C18_35  and  N7_36 
ROOT
HETATM    1  N4  UNL     1      -8.129 -21.359 -10.041  1.00  0.00    -0.309 N 
ATOM      2  H4  UNL     1      -7.432 -21.364  -9.296  1.00  0.00     0.170 HD
HETATM    3  C9  UNL     1      -8.987 -20.262 -10.093  1.00  0.00     0.325 C 
HETATM    4  O3  UNL     1      -9.856 -20.236 -10.994  1.00  0.00    -0.247 OA
HETATM    5  N5  UNL     1      -8.899 -19.186  -9.163  1.00  0.00    -0.309 N 
ATOM      6  H5  UNL     1      -8.175 -19.235  -8.448  1.00  0.00     0.170 HD
ENDROOT
BRANCH   1   7
HETATM    7  C8  UNL     1      -8.129 -22.457 -10.914  1.00  0.00     0.036 A 
HETATM    8  C7  UNL     1      -9.094 -23.432 -10.980  1.00  0.00     0.032 A 
HETATM    9  C6  UNL     1      -9.004 -24.506 -11.872  1.00  0.00     0.032 A 
HETATM   10  C5  UNL     1      -7.944 -24.649 -12.735  1.00  0.00     0.035 A 
HETATM   11  C25 UNL     1      -6.977 -23.689 -12.680  1.00  0.00     0.032 A 
HETATM   12  C24 UNL     1      -7.049 -22.623 -11.809  1.00  0.00     0.032 A 
BRANCH  10  13
HETATM   13  N3  UNL     1      -7.888 -25.763 -13.584  1.00  0.00    -0.323 N 
HETATM   14  C4  UNL     1      -8.504 -25.798 -14.838  1.00  0.00     0.262 C 
HETATM   15  O2  UNL     1      -9.148 -24.747 -15.205  1.00  0.00    -0.267 OA
ATOM     16  H3  UNL     1      -7.373 -26.586 -13.273  1.00  0.00     0.169 HD
BRANCH  14  17
HETATM   17  C3  UNL     1      -8.509 -26.875 -15.789  1.00  0.00     0.101 A 
HETATM   18  C1  UNL     1      -7.758 -27.042 -16.913  1.00  0.00     0.137 A 
HETATM   19  N2  UNL     1      -8.195 -28.209 -17.486  1.00  0.00    -0.245 N 
HETATM   20  O1  UNL     1      -9.130 -28.710 -16.771  1.00  0.00    -0.247 OA
ATOM     21  H2  UNL     1      -7.831 -28.614 -18.349  1.00  0.00     0.196 HD
HETATM   22  C2  UNL     1      -9.374 -27.972 -15.740  1.00  0.00     0.188 A 
BRANCH  18  23
HETATM   23  N1  UNL     1      -6.814 -26.382 -17.443  1.00  0.00    -0.383 N 
ATOM     24  H12 UNL     1      -6.383 -26.387 -18.367  1.00  0.00     0.157 HD
ATOM     25  H11 UNL     1      -6.333 -25.655 -16.914  1.00  0.00     0.157 HD
ENDBRANCH  18  23
ENDBRANCH  14  17
ENDBRANCH  10  13
ENDBRANCH   1   7
BRANCH   5  26
HETATM   26  C10 UNL     1      -9.746 -18.060  -9.165  1.00  0.00     0.036 A 
HETATM   27  C11 UNL     1     -11.105 -18.249  -8.837  1.00  0.00     0.032 A 
HETATM   28  C12 UNL     1     -12.010 -17.224  -8.837  1.00  0.00     0.032 A 
HETATM   29  C13 UNL     1     -11.640 -15.917  -9.165  1.00  0.00     0.035 A 
HETATM   30  C22 UNL     1     -10.326 -15.723  -9.485  1.00  0.00     0.032 A 
HETATM   31  C23 UNL     1      -9.397 -16.784  -9.484  1.00  0.00     0.032 A 
BRANCH  29  32
HETATM   32  N6  UNL     1     -12.640 -14.905  -9.129  1.00  0.00    -0.323 N 
HETATM   33  C14 UNL     1     -13.074 -14.096 -10.164  1.00  0.00     0.256 C 
HETATM   34  O4  UNL     1     -12.620 -14.164 -11.320  1.00  0.00    -0.267 OA
ATOM     35  H6  UNL     1     -13.093 -14.759  -8.227  1.00  0.00     0.169 HD
BRANCH  33  36
HETATM   36  C15 UNL     1     -14.121 -13.092  -9.938  1.00  0.00     0.032 A 
HETATM   37  C16 UNL     1     -15.092 -13.298  -8.962  1.00  0.00     0.019 A 
HETATM   38  C17 UNL     1     -16.102 -12.398  -8.709  1.00  0.00     0.030 A 
HETATM   39  C18 UNL     1     -16.189 -11.215  -9.441  1.00  0.00     0.034 A 
HETATM   40  C20 UNL     1     -15.229 -11.009 -10.406  1.00  0.00     0.030 A 
HETATM   41  C21 UNL     1     -14.208 -11.922 -10.661  1.00  0.00     0.019 A 
BRANCH  39  42
HETATM   42  N7  UNL     1     -17.219 -10.265  -9.206  1.00  0.00    -0.333 N 
HETATM   43  C19 UNL     1     -18.359 -10.240  -9.780  1.00  0.00     0.201 C 
HETATM   44  N8  UNL     1     -18.683 -11.220 -10.743  1.00  0.00    -0.066 NA
HETATM   45  N9  UNL     1     -19.295  -9.230  -9.450  1.00  0.00    -0.066 NA
ATOM     46  H7  UNL     1     -17.030  -9.537  -8.517  1.00  0.00     0.168 HD
ENDBRANCH  39  42
ENDBRANCH  33  36
ENDBRANCH  29  32
ENDBRANCH   5  26
TORSDOF 8
ENDMDL
MODEL 5
REMARK VINA RESULT: -9.882031575      2.248     15.767
REMARK  8 active torsions:
REMARK  status: ('A' for Active; 'I' for Inactive)
REMARK    1  A    between atoms: N1_1  and  C1_4 
REMARK    2  A    between atoms: C3_9  and  C4_10 
REMARK       I    between atoms: C4_10  and  N3_12 
REMARK    3  A    between atoms: N3_12  and  C5_14 
REMARK    4  A    between atoms: C8_17  and  N4_18 
REMARK       I    between atoms: N4_18  and  C9_20 
REMARK       I    between atoms: C9_20  and  N5_22 
REMARK    5  A    between atoms: N5_22  and  C10_24 
REMARK    6  A    between atoms: C13_27  and  N6_28 
REMARK       I    between atoms: N6_28  and  C14_30 
REMARK    7  A    between atoms: C14_30  and  C15_32 
REMARK    8  A    between atoms: C18_35  and  N7_36 
ROOT
HETATM    1  N4  UNL     1      -9.727 -23.521 -12.468  1.00  0.00    -0.309 N 
ATOM      2  H4  UNL     1      -9.989 -24.138 -11.698  1.00  0.00     0.170 HD
HETATM    3  C9  UNL     1      -9.176 -24.124 -13.597  1.00  0.00     0.325 C 
HETATM    4  O3  UNL     1      -8.839 -23.387 -14.553  1.00  0.00    -0.247 OA
HETATM    5  N5  UNL     1      -8.992 -25.533 -13.691  1.00  0.00    -0.309 N 
ATOM      6  H5  UNL     1      -9.285 -26.104 -12.899  1.00  0.00     0.170 HD
ENDROOT
BRANCH   1   7
HETATM    7  C8  UNL     1      -9.958 -22.149 -12.286  1.00  0.00     0.036 A 
HETATM    8  C7  UNL     1      -9.309 -21.337 -11.388  1.00  0.00     0.032 A 
HETATM    9  C6  UNL     1      -9.619 -19.978 -11.259  1.00  0.00     0.032 A 
HETATM   10  C5  UNL     1     -10.587 -19.377 -12.026  1.00  0.00     0.035 A 
HETATM   11  C25 UNL     1     -11.239 -20.170 -12.922  1.00  0.00     0.032 A 
HETATM   12  C24 UNL     1     -10.949 -21.511 -13.063  1.00  0.00     0.032 A 
BRANCH  10  13
HETATM   13  N3  UNL     1     -10.878 -18.019 -11.833  1.00  0.00    -0.323 N 
HETATM   14  C4  UNL     1     -11.933 -17.571 -11.034  1.00  0.00     0.262 C 
HETATM   15  O2  UNL     1     -12.657 -18.466 -10.460  1.00  0.00    -0.267 OA
ATOM     16  H3  UNL     1     -10.292 -17.326 -12.298  1.00  0.00     0.169 HD
BRANCH  14  17
HETATM   17  C3  UNL     1     -12.319 -16.214 -10.761  1.00  0.00     0.101 A 
HETATM   18  C1  UNL     1     -12.876 -15.680  -9.640  1.00  0.00     0.137 A 
HETATM   19  N2  UNL     1     -13.095 -14.355  -9.923  1.00  0.00    -0.245 N 
HETATM   20  O1  UNL     1     -12.703 -14.105 -11.114  1.00  0.00    -0.247 OA
ATOM     21  H2  UNL     1     -13.507 -13.676  -9.283  1.00  0.00     0.196 HD
HETATM   22  C2  UNL     1     -12.227 -15.164 -11.680  1.00  0.00     0.188 A 
BRANCH  18  23
HETATM   23  N1  UNL     1     -13.171 -16.148  -8.499  1.00  0.00    -0.383 N 
ATOM     24  H12 UNL     1     -13.199 -15.752  -7.559  1.00  0.00     0.157 HD
ATOM     25  H11 UNL     1     -13.475 -17.117  -8.402  1.00  0.00     0.157 HD
ENDBRANCH  18  23
ENDBRANCH  14  17
ENDBRANCH  10  13
ENDBRANCH   1   7
BRANCH   5  26
HETATM   26  C10 UNL     1      -8.432 -26.191 -14.804  1.00  0.00     0.036 A 
HETATM   27  C11 UNL     1      -7.583 -27.292 -14.568  1.00  0.00     0.032 A 
HETATM   28  C12 UNL     1      -6.970 -27.979 -15.580  1.00  0.00     0.032 A 
HETATM   29  C13 UNL     1      -7.152 -27.627 -16.920  1.00  0.00     0.035 A 
HETATM   30  C22 UNL     1      -7.973 -26.563 -17.161  1.00  0.00     0.032 A 
HETATM   31  C23 UNL     1      -8.601 -25.858 -16.112  1.00  0.00     0.032 A 
BRANCH  29  32
HETATM   32  N6  UNL     1      -6.490 -28.401 -17.914  1.00  0.00    -0.323 N 
HETATM   33  C14 UNL     1      -5.133 -28.468 -18.182  1.00  0.00     0.256 C 
HETATM   34  O4  UNL     1      -4.280 -27.827 -17.543  1.00  0.00    -0.267 OA
ATOM     35  H6  UNL     1      -7.090 -28.978 -18.503  1.00  0.00     0.169 HD
BRANCH  33  36
HETATM   36  C15 UNL     1      -4.627 -29.324 -19.262  1.00  0.00     0.032 A 
HETATM   37  C16 UNL     1      -3.983 -30.522 -18.965  1.00  0.00     0.019 A 
HETATM   38  C17 UNL     1      -3.481 -31.361 -19.933  1.00  0.00     0.030 A 
HETATM   39  C18 UNL     1      -3.604 -31.033 -21.281  1.00  0.00     0.034 A 
HETATM   40  C20 UNL     1      -4.241 -29.847 -21.577  1.00  0.00     0.030 A 
HETATM   41  C21 UNL     1      -4.748 -28.999 -20.595  1.00  0.00     0.019 A 
BRANCH  39  42
HETATM   42  N7  UNL     1      -3.096 -31.876 -22.306  1.00  0.00    -0.333 N 
HETATM   43  C19 UNL     1      -1.875 -31.962 -22.667  1.00  0.00     0.201 C 
HETATM   44  N8  UNL     1      -0.895 -31.172 -22.028  1.00  0.00    -0.066 NA
HETATM   45  N9  UNL     1      -1.507 -32.847 -23.709  1.00  0.00    -0.066 NA
ATOM     46  H7  UNL     1      -3.768 -32.466 -22.797  1.00  0.00     0.168 HD
ENDBRANCH  39  42
ENDBRANCH  33  36
ENDBRANCH  29  32
ENDBRANCH   5  26
TORSDOF 8
ENDMDL
