MODEL 1
REMARK VINA RESULT: -6.207723141      0.000      0.000
REMARK  7 active torsions:
REMARK  status: ('A' for Active; 'I' for Inactive)
REMARK    1  A    between atoms: C3_3  and  C4_4 
REMARK    2  A    between atoms: C4_4  and  C5_5 
REMARK    3  A    between atoms: C6_6  and  C7_7 
REMARK    4  A    between atoms: C7_7  and  C8_8 
REMARK    5  A    between atoms: C8_8  and  C9_9 
REMARK    6  A    between atoms: C12_15  and  O1_16 
REMARK    7  A    between atoms: C14_19  and  O2_21 
ROOT
HETATM    1  C5  UNL     1      27.958  -5.139  31.157  1.00  0.00     0.065 C 
HETATM    2  C6  UNL     1      26.601  -4.746  30.720  1.00  0.00     0.002 C 
HETATM    3  C11 UNL     1      25.824  -5.843  30.378  1.00  0.00     0.021 C 
HETATM    4  C12 UNL     1      26.442  -7.179  30.486  1.00  0.00     0.144 C 
HETATM    5  C13 UNL     1      27.643  -7.047  29.530  1.00  0.00     0.074 C 
HETATM    6  C14 UNL     1      28.633  -6.081  30.227  1.00  0.00     0.065 C 
HETATM    7  C15 UNL     1      29.476  -7.078  31.047  1.00  0.00     0.046 C 
ENDROOT
BRANCH   2   8
HETATM    8  C7  UNL     1      25.983  -3.478  30.574  1.00  0.00    -0.064 C 
BRANCH   8   9
HETATM    9  C8  UNL     1      25.438  -2.358  30.445  1.00  0.00    -0.049 C 
BRANCH   9  10
HETATM   10  C9  UNL     1      24.977  -1.139  30.388  1.00  0.00     0.053 C 
HETATM   11  C10 UNL     1      24.559  -0.394  29.109  1.00  0.00     0.078 C 
HETATM   12  N1  UNL     1      24.871  -0.397  31.506  1.00  0.00    -0.396 N 
ATOM     13  H12 UNL     1      25.148  -0.891  32.354  1.00  0.00     0.156 HD
ATOM     14  H11 UNL     1      24.511   0.556  31.462  1.00  0.00     0.156 HD
ENDBRANCH   9  10
ENDBRANCH   8   9
ENDBRANCH   2   8
BRANCH   1  15
HETATM   15  C4  UNL     1      28.745  -3.960  31.567  1.00  0.00     0.040 C 
BRANCH  15  16
HETATM   16  C3  UNL     1      28.741  -3.569  32.994  1.00  0.00    -0.030 C 
HETATM   17  C2  UNL     1      28.369  -2.328  33.287  1.00  0.00    -0.035 C 
HETATM   18  C1  UNL     1      28.329  -1.840  34.682  1.00  0.00     0.036 C 
ENDBRANCH  15  16
ENDBRANCH   1  15
BRANCH   6  19
HETATM   19  O2  UNL     1      29.358  -5.494  29.206  1.00  0.00    -0.389 OA
ATOM     20  H2  UNL     1      30.269  -5.311  29.404  1.00  0.00     0.210 HD
ENDBRANCH   6  19
BRANCH   4  21
HETATM   21  O1  UNL     1      25.576  -8.093  29.953  1.00  0.00    -0.392 OA
ATOM     22  H1  UNL     1      25.767  -8.177  29.026  1.00  0.00     0.210 HD
ENDBRANCH   4  21
TORSDOF 7
ENDMDL
MODEL 2
REMARK VINA RESULT: -6.090731043      1.506      1.558
REMARK  7 active torsions:
REMARK  status: ('A' for Active; 'I' for Inactive)
REMARK    1  A    between atoms: C3_3  and  C4_4 
REMARK    2  A    between atoms: C4_4  and  C5_5 
REMARK    3  A    between atoms: C6_6  and  C7_7 
REMARK    4  A    between atoms: C7_7  and  C8_8 
REMARK    5  A    between atoms: C8_8  and  C9_9 
REMARK    6  A    between atoms: C12_15  and  O1_16 
REMARK    7  A    between atoms: C14_19  and  O2_21 
ROOT
HETATM    1  C5  UNL     1      27.245  -4.819  30.883  1.00  0.00     0.065 C 
HETATM    2  C6  UNL     1      25.927  -4.985  30.234  1.00  0.00     0.002 C 
HETATM    3  C11 UNL     1      25.497  -6.304  30.253  1.00  0.00     0.021 C 
HETATM    4  C12 UNL     1      26.385  -7.304  30.880  1.00  0.00     0.144 C 
HETATM    5  C13 UNL     1      27.664  -7.161  30.032  1.00  0.00     0.074 C 
HETATM    6  C14 UNL     1      28.269  -5.786  30.407  1.00  0.00     0.065 C 
HETATM    7  C15 UNL     1      29.173  -6.184  31.591  1.00  0.00     0.046 C 
ENDROOT
BRANCH   2   8
HETATM    8  C7  UNL     1      25.062  -4.060  29.597  1.00  0.00    -0.064 C 
BRANCH   8   9
HETATM    9  C8  UNL     1      24.298  -3.243  29.034  1.00  0.00    -0.049 C 
BRANCH   9  10
HETATM   10  C9  UNL     1      23.495  -2.324  28.573  1.00  0.00     0.053 C 
HETATM   11  C10 UNL     1      22.309  -2.560  27.623  1.00  0.00     0.078 C 
HETATM   12  N1  UNL     1      23.691  -1.029  28.883  1.00  0.00    -0.396 N 
ATOM     13  H12 UNL     1      24.478  -0.872  29.513  1.00  0.00     0.156 HD
ATOM     14  H11 UNL     1      23.064  -0.310  28.523  1.00  0.00     0.156 HD
ENDBRANCH   9  10
ENDBRANCH   8   9
ENDBRANCH   2   8
BRANCH   1  15
HETATM   15  C4  UNL     1      27.654  -3.401  30.900  1.00  0.00     0.040 C 
BRANCH  15  16
HETATM   16  C3  UNL     1      27.559  -2.653  32.173  1.00  0.00    -0.030 C 
HETATM   17  C2  UNL     1      28.554  -2.794  33.042  1.00  0.00    -0.035 C 
HETATM   18  C1  UNL     1      28.555  -2.089  34.340  1.00  0.00     0.036 C 
ENDBRANCH  15  16
ENDBRANCH   1  15
BRANCH   6  19
HETATM   19  O2  UNL     1      28.996  -5.387  29.301  1.00  0.00    -0.389 OA
ATOM     20  H2  UNL     1      28.705  -4.583  28.888  1.00  0.00     0.210 HD
ENDBRANCH   6  19
BRANCH   4  21
HETATM   21  O1  UNL     1      25.860  -8.544  30.648  1.00  0.00    -0.392 OA
ATOM     22  H1  UNL     1      25.731  -8.973  31.486  1.00  0.00     0.210 HD
ENDBRANCH   4  21
TORSDOF 7
ENDMDL
MODEL 3
REMARK VINA RESULT: -5.738598589      4.543      7.109
REMARK  7 active torsions:
REMARK  status: ('A' for Active; 'I' for Inactive)
REMARK    1  A    between atoms: C3_3  and  C4_4 
REMARK    2  A    between atoms: C4_4  and  C5_5 
REMARK    3  A    between atoms: C6_6  and  C7_7 
REMARK    4  A    between atoms: C7_7  and  C8_8 
REMARK    5  A    between atoms: C8_8  and  C9_9 
REMARK    6  A    between atoms: C12_15  and  O1_16 
REMARK    7  A    between atoms: C14_19  and  O2_21 
ROOT
HETATM    1  C5  UNL     1      29.349  -6.898  30.062  1.00  0.00     0.065 C 
HETATM    2  C6  UNL     1      30.731  -7.339  30.353  1.00  0.00     0.002 C 
HETATM    3  C11 UNL     1      30.908  -7.652  31.693  1.00  0.00     0.021 C 
HETATM    4  C12 UNL     1      29.746  -7.496  32.591  1.00  0.00     0.144 C 
HETATM    5  C13 UNL     1      29.419  -6.000  32.423  1.00  0.00     0.074 C 
HETATM    6  C14 UNL     1      28.851  -5.850  30.990  1.00  0.00     0.065 C 
HETATM    7  C15 UNL     1      27.350  -6.083  31.252  1.00  0.00     0.046 C 
ENDROOT
BRANCH   2   8
HETATM    8  C7  UNL     1      31.876  -7.472  29.528  1.00  0.00    -0.064 C 
BRANCH   8   9
HETATM    9  C8  UNL     1      32.888  -7.589  28.800  1.00  0.00    -0.049 C 
BRANCH   9  10
HETATM   10  C9  UNL     1      33.852  -7.748  27.936  1.00  0.00     0.053 C 
HETATM   11  C10 UNL     1      33.802  -7.356  26.449  1.00  0.00     0.078 C 
HETATM   12  N1  UNL     1      35.005  -8.338  28.302  1.00  0.00    -0.396 N 
ATOM     13  H12 UNL     1      35.039  -8.597  29.287  1.00  0.00     0.156 HD
ATOM     14  H11 UNL     1      35.760  -8.461  27.627  1.00  0.00     0.156 HD
ENDBRANCH   9  10
ENDBRANCH   8   9
ENDBRANCH   2   8
BRANCH   1  15
HETATM   15  C4  UNL     1      29.172  -6.624  28.623  1.00  0.00     0.040 C 
BRANCH  15  16
HETATM   16  C3  UNL     1      29.908  -5.490  28.023  1.00  0.00    -0.030 C 
HETATM   17  C2  UNL     1      30.398  -5.656  26.800  1.00  0.00    -0.035 C 
HETATM   18  C1  UNL     1      31.147  -4.583  26.112  1.00  0.00     0.036 C 
ENDBRANCH  15  16
ENDBRANCH   1  15
BRANCH   6  19
HETATM   19  O2  UNL     1      29.123  -4.546  30.619  1.00  0.00    -0.389 OA
ATOM     20  H2  UNL     1      28.600  -3.880  31.049  1.00  0.00     0.210 HD
ENDBRANCH   6  19
BRANCH   4  21
HETATM   21  O1  UNL     1      30.171  -7.694  33.875  1.00  0.00    -0.392 OA
ATOM     22  H1  UNL     1      30.644  -8.518  33.907  1.00  0.00     0.210 HD
ENDBRANCH   4  21
TORSDOF 7
ENDMDL
MODEL 4
REMARK VINA RESULT: -5.694817120      2.857      5.234
REMARK  7 active torsions:
REMARK  status: ('A' for Active; 'I' for Inactive)
REMARK    1  A    between atoms: C3_3  and  C4_4 
REMARK    2  A    between atoms: C4_4  and  C5_5 
REMARK    3  A    between atoms: C6_6  and  C7_7 
REMARK    4  A    between atoms: C7_7  and  C8_8 
REMARK    5  A    between atoms: C8_8  and  C9_9 
REMARK    6  A    between atoms: C12_15  and  O1_16 
REMARK    7  A    between atoms: C14_19  and  O2_21 
ROOT
HETATM    1  C5  UNL     1      26.240  -2.845  30.659  1.00  0.00     0.065 C 
HETATM    2  C6  UNL     1      27.121  -3.909  30.131  1.00  0.00     0.002 C 
HETATM    3  C11 UNL     1      27.522  -3.656  28.827  1.00  0.00     0.021 C 
HETATM    4  C12 UNL     1      27.023  -2.424  28.185  1.00  0.00     0.144 C 
HETATM    5  C13 UNL     1      25.497  -2.631  28.253  1.00  0.00     0.074 C 
HETATM    6  C14 UNL     1      25.119  -2.494  29.748  1.00  0.00     0.065 C 
HETATM    7  C15 UNL     1      24.854  -0.978  29.840  1.00  0.00     0.046 C 
ENDROOT
BRANCH   2   8
HETATM    8  C7  UNL     1      27.596  -5.117  30.703  1.00  0.00    -0.064 C 
BRANCH   8   9
HETATM    9  C8  UNL     1      28.015  -6.183  31.208  1.00  0.00    -0.049 C 
BRANCH   9  10
HETATM   10  C9  UNL     1      28.577  -7.229  31.747  1.00  0.00     0.053 C 
HETATM   11  C10 UNL     1      30.089  -7.439  31.939  1.00  0.00     0.078 C 
HETATM   12  N1  UNL     1      27.829  -8.271  32.156  1.00  0.00    -0.396 N 
ATOM     13  H12 UNL     1      26.827  -8.131  32.029  1.00  0.00     0.156 HD
ATOM     14  H11 UNL     1      28.268  -9.088  32.578  1.00  0.00     0.156 HD
ENDBRANCH   9  10
ENDBRANCH   8   9
ENDBRANCH   2   8
BRANCH   1  15
HETATM   15  C4  UNL     1      25.873  -3.109  32.064  1.00  0.00     0.040 C 
BRANCH  15  16
HETATM   16  C3  UNL     1      26.558  -2.345  33.129  1.00  0.00    -0.030 C 
HETATM   17  C2  UNL     1      27.823  -2.655  33.389  1.00  0.00    -0.035 C 
HETATM   18  C1  UNL     1      28.596  -1.950  34.432  1.00  0.00     0.036 C 
ENDBRANCH  15  16
ENDBRANCH   1  15
BRANCH   6  19
HETATM   19  O2  UNL     1      23.966  -3.241  29.908  1.00  0.00    -0.389 OA
ATOM     20  H2  UNL     1      23.510  -3.466  29.105  1.00  0.00     0.210 HD
ENDBRANCH   6  19
BRANCH   4  21
HETATM   21  O1  UNL     1      27.394  -2.448  26.870  1.00  0.00    -0.392 OA
ATOM     22  H1  UNL     1      26.961  -3.184  26.453  1.00  0.00     0.210 HD
ENDBRANCH   4  21
TORSDOF 7
ENDMDL
MODEL 5
REMARK VINA RESULT: -5.647088764      1.964      2.136
REMARK  7 active torsions:
REMARK  status: ('A' for Active; 'I' for Inactive)
REMARK    1  A    between atoms: C3_3  and  C4_4 
REMARK    2  A    between atoms: C4_4  and  C5_5 
REMARK    3  A    between atoms: C6_6  and  C7_7 
REMARK    4  A    between atoms: C7_7  and  C8_8 
REMARK    5  A    between atoms: C8_8  and  C9_9 
REMARK    6  A    between atoms: C12_15  and  O1_16 
REMARK    7  A    between atoms: C14_19  and  O2_21 
ROOT
HETATM    1  C5  UNL     1      26.967  -4.493  30.595  1.00  0.00     0.065 C 
HETATM    2  C6  UNL     1      25.634  -4.800  30.033  1.00  0.00     0.002 C 
HETATM    3  C11 UNL     1      25.297  -6.136  30.190  1.00  0.00     0.021 C 
HETATM    4  C12 UNL     1      26.278  -7.016  30.855  1.00  0.00     0.144 C 
HETATM    5  C13 UNL     1      27.504  -6.871  29.933  1.00  0.00     0.074 C 
HETATM    6  C14 UNL     1      28.031  -5.432  30.153  1.00  0.00     0.065 C 
HETATM    7  C15 UNL     1      29.014  -5.662  31.318  1.00  0.00     0.046 C 
ENDROOT
BRANCH   2   8
HETATM    8  C7  UNL     1      24.680  -3.993  29.363  1.00  0.00    -0.064 C 
BRANCH   8   9
HETATM    9  C8  UNL     1      23.837  -3.281  28.771  1.00  0.00    -0.049 C 
BRANCH   9  10
HETATM   10  C9  UNL     1      23.002  -2.433  28.238  1.00  0.00     0.053 C 
HETATM   11  C10 UNL     1      21.993  -2.746  27.120  1.00  0.00     0.078 C 
HETATM   12  N1  UNL     1      23.000  -1.144  28.625  1.00  0.00    -0.396 N 
ATOM     13  H12 UNL     1      23.669  -0.937  29.366  1.00  0.00     0.156 HD
ATOM     14  H11 UNL     1      22.347  -0.481  28.209  1.00  0.00     0.156 HD
ENDBRANCH   9  10
ENDBRANCH   8   9
ENDBRANCH   2   8
BRANCH   1  15
HETATM   15  C4  UNL     1      27.279  -3.056  30.465  1.00  0.00     0.040 C 
BRANCH  15  16
HETATM   16  C3  UNL     1      27.328  -2.230  31.691  1.00  0.00    -0.030 C 
HETATM   17  C2  UNL     1      26.855  -0.990  31.613  1.00  0.00    -0.035 C 
HETATM   18  C1  UNL     1      26.857  -0.085  32.781  1.00  0.00     0.036 C 
ENDBRANCH  15  16
ENDBRANCH   1  15
BRANCH   6  19
HETATM   19  O2  UNL     1      28.677  -5.091  28.979  1.00  0.00    -0.389 OA
ATOM     20  H2  UNL     1      28.480  -4.226  28.639  1.00  0.00     0.210 HD
ENDBRANCH   6  19
BRANCH   4  21
HETATM   21  O1  UNL     1      25.828  -8.304  30.762  1.00  0.00    -0.392 OA
ATOM     22  H1  UNL     1      26.298  -8.829  31.400  1.00  0.00     0.210 HD
ENDBRANCH   4  21
TORSDOF 7
ENDMDL
