MODEL 1
REMARK VINA RESULT: -7.195595042      0.000      0.000
REMARK  4 active torsions:
REMARK  status: ('A' for Active; 'I' for Inactive)
REMARK    1  A    between atoms: C2_2  and  C3_3 
REMARK    2  A    between atoms: C5_5  and  C6_6 
REMARK    3  A    between atoms: C6_6  and  C7_7 
REMARK    4  A    between atoms: C9_16  and  C10_17 
ROOT
HETATM    1  C7  UNL     1      30.102  -6.702  30.625  1.00  0.00     0.056 A 
HETATM    2  N1  UNL     1      30.779  -7.081  31.761  1.00  0.00    -0.194 N 
ATOM      3  H1  UNL     1      31.795  -7.113  31.850  1.00  0.00     0.184 HD
HETATM    4  C8  UNL     1      29.921  -7.402  32.729  1.00  0.00     0.676 A 
HETATM    5  N2  UNL     1      30.245  -7.792  33.909  1.00  0.00    -0.234 N 
ATOM      6  H21 UNL     1      29.588  -8.037  34.650  1.00  0.00     0.174 HD
ATOM      7  H22 UNL     1      31.188  -7.917  34.275  1.00  0.00     0.174 HD
HETATM    8  N3  UNL     1      28.686  -7.238  32.250  1.00  0.00    -0.193 N 
ATOM      9  H3  UNL     1      27.819  -7.405  32.761  1.00  0.00     0.184 HD
HETATM   10  C9  UNL     1      28.784  -6.808  30.949  1.00  0.00     0.057 A 
ENDROOT
BRANCH   1  11
HETATM   11  C6  UNL     1      30.810  -6.251  29.407  1.00  0.00     0.127 C 
BRANCH  11  12
HETATM   12  C5  UNL     1      31.953  -7.090  28.997  1.00  0.00     0.084 A 
HETATM   13  C4  UNL     1      32.713  -6.820  27.833  1.00  0.00     0.062 A 
HETATM   14  C3  UNL     1      33.708  -7.767  27.713  1.00  0.00     0.034 A 
HETATM   15  N4  UNL     1      33.525  -8.565  28.781  1.00  0.00    -0.265 N 
HETATM   16  O1  UNL     1      32.513  -8.140  29.485  1.00  0.00    -0.242 OA
ATOM     17  H4  UNL     1      34.094  -9.381  29.006  1.00  0.00     0.194 HD
BRANCH  14  18
HETATM   18  C2  UNL     1      34.706  -7.795  26.619  1.00  0.00     0.054 C 
HETATM   19  C1  UNL     1      36.102  -8.141  27.068  1.00  0.00     0.011 C 
ENDBRANCH  14  18
ENDBRANCH  11  12
ENDBRANCH   1  11
BRANCH  10  20
HETATM   20  C10 UNL     1      27.627  -6.549  30.087  1.00  0.00    -0.006 C 
HETATM   21  C11 UNL     1      27.707  -7.455  28.865  1.00  0.00     0.021 C 
HETATM   22  C12 UNL     1      27.349  -5.117  29.760  1.00  0.00     0.021 C 
HETATM   23  C13 UNL     1      26.351  -7.041  30.820  1.00  0.00     0.021 C 
ENDBRANCH  10  20
TORSDOF 4
ENDMDL
MODEL 2
REMARK VINA RESULT: -6.985518400      2.820      3.986
REMARK  4 active torsions:
REMARK  status: ('A' for Active; 'I' for Inactive)
REMARK    1  A    between atoms: C2_2  and  C3_3 
REMARK    2  A    between atoms: C5_5  and  C6_6 
REMARK    3  A    between atoms: C6_6  and  C7_7 
REMARK    4  A    between atoms: C9_16  and  C10_17 
ROOT
HETATM    1  C7  UNL     1      28.067  -4.303  31.191  1.00  0.00     0.056 A 
HETATM    2  N1  UNL     1      28.759  -4.041  32.352  1.00  0.00    -0.194 N 
ATOM      3  H1  UNL     1      29.423  -4.678  32.790  1.00  0.00     0.184 HD
HETATM    4  C8  UNL     1      28.437  -2.836  32.822  1.00  0.00     0.676 A 
HETATM    5  N2  UNL     1      28.915  -2.303  33.888  1.00  0.00    -0.234 N 
ATOM      6  H21 UNL     1      28.669  -1.381  34.248  1.00  0.00     0.174 HD
ATOM      7  H22 UNL     1      29.597  -2.714  34.525  1.00  0.00     0.174 HD
HETATM    8  N3  UNL     1      27.544  -2.298  31.988  1.00  0.00    -0.193 N 
ATOM      9  H3  UNL     1      27.112  -1.378  32.085  1.00  0.00     0.184 HD
HETATM   10  C9  UNL     1      27.306  -3.196  30.977  1.00  0.00     0.057 A 
ENDROOT
BRANCH   1  11
HETATM   11  C6  UNL     1      28.266  -5.556  30.430  1.00  0.00     0.127 C 
BRANCH  11  12
HETATM   12  C5  UNL     1      29.495  -6.304  30.760  1.00  0.00     0.084 A 
HETATM   13  C4  UNL     1      30.544  -6.489  29.827  1.00  0.00     0.062 A 
HETATM   14  C3  UNL     1      31.553  -7.219  30.419  1.00  0.00     0.034 A 
HETATM   15  N4  UNL     1      31.096  -7.452  31.664  1.00  0.00    -0.265 N 
HETATM   16  O1  UNL     1      29.919  -6.911  31.812  1.00  0.00    -0.242 OA
ATOM     17  H4  UNL     1      31.596  -7.974  32.383  1.00  0.00     0.194 HD
BRANCH  14  18
HETATM   18  C2  UNL     1      32.817  -7.596  29.746  1.00  0.00     0.054 C 
HETATM   19  C1  UNL     1      32.626  -8.387  28.477  1.00  0.00     0.011 C 
ENDBRANCH  14  18
ENDBRANCH  11  12
ENDBRANCH   1  11
BRANCH  10  20
HETATM   20  C10 UNL     1      26.354  -2.962  29.886  1.00  0.00    -0.006 C 
HETATM   21  C11 UNL     1      25.266  -4.027  29.941  1.00  0.00     0.021 C 
HETATM   22  C12 UNL     1      26.939  -2.766  28.524  1.00  0.00     0.021 C 
HETATM   23  C13 UNL     1      25.588  -1.646  30.180  1.00  0.00     0.021 C 
ENDBRANCH  10  20
TORSDOF 4
ENDMDL
MODEL 3
REMARK VINA RESULT: -6.887246321      3.475      5.445
REMARK  4 active torsions:
REMARK  status: ('A' for Active; 'I' for Inactive)
REMARK    1  A    between atoms: C2_2  and  C3_3 
REMARK    2  A    between atoms: C5_5  and  C6_6 
REMARK    3  A    between atoms: C6_6  and  C7_7 
REMARK    4  A    between atoms: C9_16  and  C10_17 
ROOT
HETATM    1  C7  UNL     1      26.660  -3.758  30.707  1.00  0.00     0.056 A 
HETATM    2  N1  UNL     1      26.750  -3.699  32.079  1.00  0.00    -0.194 N 
ATOM      3  H1  UNL     1      27.095  -4.453  32.673  1.00  0.00     0.184 HD
HETATM    4  C8  UNL     1      26.323  -2.517  32.522  1.00  0.00     0.676 A 
HETATM    5  N2  UNL     1      26.285  -2.155  33.754  1.00  0.00    -0.234 N 
ATOM      6  H21 UNL     1      25.959  -1.250  34.093  1.00  0.00     0.174 HD
ATOM      7  H22 UNL     1      26.567  -2.707  34.563  1.00  0.00     0.174 HD
HETATM    8  N3  UNL     1      25.953  -1.794  31.462  1.00  0.00    -0.193 N 
ATOM      9  H3  UNL     1      25.584  -0.843  31.486  1.00  0.00     0.184 HD
HETATM   10  C9  UNL     1      26.155  -2.550  30.335  1.00  0.00     0.057 A 
ENDROOT
BRANCH   1  11
HETATM   11  C6  UNL     1      27.111  -4.944  29.945  1.00  0.00     0.127 C 
BRANCH  11  12
HETATM   12  C5  UNL     1      27.852  -5.951  30.730  1.00  0.00     0.084 A 
HETATM   13  C4  UNL     1      29.258  -6.097  30.642  1.00  0.00     0.062 A 
HETATM   14  C3  UNL     1      29.662  -7.108  31.487  1.00  0.00     0.034 A 
HETATM   15  N4  UNL     1      28.516  -7.537  32.048  1.00  0.00    -0.265 N 
HETATM   16  O1  UNL     1      27.510  -6.848  31.587  1.00  0.00    -0.242 OA
ATOM     17  H4  UNL     1      28.445  -8.291  32.733  1.00  0.00     0.194 HD
BRANCH  14  18
HETATM   18  C2  UNL     1      31.069  -7.535  31.666  1.00  0.00     0.054 C 
HETATM   19  C1  UNL     1      31.977  -7.156  30.525  1.00  0.00     0.011 C 
ENDBRANCH  14  18
ENDBRANCH  11  12
ENDBRANCH   1  11
BRANCH  10  20
HETATM   20  C10 UNL     1      25.834  -2.095  28.979  1.00  0.00    -0.006 C 
HETATM   21  C11 UNL     1      24.604  -2.844  28.483  1.00  0.00     0.021 C 
HETATM   22  C12 UNL     1      26.964  -2.073  28.000  1.00  0.00     0.021 C 
HETATM   23  C13 UNL     1      25.353  -0.622  29.059  1.00  0.00     0.021 C 
ENDBRANCH  10  20
TORSDOF 4
ENDMDL
MODEL 4
REMARK VINA RESULT: -6.831329481      2.029      6.591
REMARK  4 active torsions:
REMARK  status: ('A' for Active; 'I' for Inactive)
REMARK    1  A    between atoms: C2_2  and  C3_3 
REMARK    2  A    between atoms: C5_5  and  C6_6 
REMARK    3  A    between atoms: C6_6  and  C7_7 
REMARK    4  A    between atoms: C9_16  and  C10_17 
ROOT
HETATM    1  C7  UNL     1      33.895  -7.949  27.264  1.00  0.00     0.056 A 
HETATM    2  N1  UNL     1      35.085  -8.388  27.799  1.00  0.00    -0.194 N 
ATOM      3  H1  UNL     1      35.167  -8.996  28.614  1.00  0.00     0.184 HD
HETATM    4  C8  UNL     1      36.114  -7.906  27.102  1.00  0.00     0.676 A 
HETATM    5  N2  UNL     1      37.352  -8.136  27.352  1.00  0.00    -0.234 N 
ATOM      6  H21 UNL     1      38.139  -7.768  26.818  1.00  0.00     0.174 HD
ATOM      7  H22 UNL     1      37.728  -8.709  28.107  1.00  0.00     0.174 HD
HETATM    8  N3  UNL     1      35.621  -7.156  26.114  1.00  0.00    -0.193 N 
ATOM      9  H3  UNL     1      36.168  -6.656  25.412  1.00  0.00     0.184 HD
HETATM   10  C9  UNL     1      34.251  -7.174  26.203  1.00  0.00     0.057 A 
ENDROOT
BRANCH   1  11
HETATM   11  C6  UNL     1      32.588  -8.370  27.815  1.00  0.00     0.127 C 
BRANCH  11  12
HETATM   12  C5  UNL     1      32.233  -7.771  29.117  1.00  0.00     0.084 A 
HETATM   13  C4  UNL     1      30.921  -7.330  29.416  1.00  0.00     0.062 A 
HETATM   14  C3  UNL     1      30.895  -6.823  30.698  1.00  0.00     0.034 A 
HETATM   15  N4  UNL     1      32.163  -6.965  31.127  1.00  0.00    -0.265 N 
HETATM   16  O1  UNL     1      32.890  -7.511  30.192  1.00  0.00    -0.242 OA
ATOM     17  H4  UNL     1      32.504  -6.688  32.048  1.00  0.00     0.194 HD
BRANCH  14  18
HETATM   18  C2  UNL     1      29.685  -6.279  31.357  1.00  0.00     0.054 C 
HETATM   19  C1  UNL     1      28.650  -7.319  31.698  1.00  0.00     0.011 C 
ENDBRANCH  14  18
ENDBRANCH  11  12
ENDBRANCH   1  11
BRANCH  10  20
HETATM   20  C10 UNL     1      33.365  -6.435  25.298  1.00  0.00    -0.006 C 
HETATM   21  C11 UNL     1      34.208  -5.545  24.396  1.00  0.00     0.021 C 
HETATM   22  C12 UNL     1      32.206  -5.732  25.930  1.00  0.00     0.021 C 
HETATM   23  C13 UNL     1      32.722  -7.446  24.312  1.00  0.00     0.021 C 
ENDBRANCH  10  20
TORSDOF 4
ENDMDL
MODEL 5
REMARK VINA RESULT: -6.807192705      2.642      3.656
REMARK  4 active torsions:
REMARK  status: ('A' for Active; 'I' for Inactive)
REMARK    1  A    between atoms: C2_2  and  C3_3 
REMARK    2  A    between atoms: C5_5  and  C6_6 
REMARK    3  A    between atoms: C6_6  and  C7_7 
REMARK    4  A    between atoms: C9_16  and  C10_17 
ROOT
HETATM    1  C7  UNL     1      27.884  -4.753  31.201  1.00  0.00     0.056 A 
HETATM    2  N1  UNL     1      28.788  -4.045  31.960  1.00  0.00    -0.194 N 
ATOM      3  H1  UNL     1      29.786  -4.249  32.018  1.00  0.00     0.184 HD
HETATM    4  C8  UNL     1      28.176  -3.054  32.608  1.00  0.00     0.676 A 
HETATM    5  N2  UNL     1      28.748  -2.215  33.394  1.00  0.00    -0.234 N 
ATOM      6  H21 UNL     1      28.280  -1.457  33.890  1.00  0.00     0.174 HD
ATOM      7  H22 UNL     1      29.738  -2.183  33.639  1.00  0.00     0.174 HD
HETATM    8  N3  UNL     1      26.880  -3.097  32.287  1.00  0.00    -0.193 N 
ATOM      9  H3  UNL     1      26.158  -2.462  32.629  1.00  0.00     0.184 HD
HETATM   10  C9  UNL     1      26.687  -4.143  31.420  1.00  0.00     0.057 A 
ENDROOT
BRANCH   1  11
HETATM   11  C6  UNL     1      28.301  -5.883  30.342  1.00  0.00     0.127 C 
BRANCH  11  12
HETATM   12  C5  UNL     1      29.612  -6.475  30.674  1.00  0.00     0.084 A 
HETATM   13  C4  UNL     1      30.611  -6.704  29.697  1.00  0.00     0.062 A 
HETATM   14  C3  UNL     1      31.718  -7.260  30.303  1.00  0.00     0.034 A 
HETATM   15  N4  UNL     1      31.365  -7.351  31.598  1.00  0.00    -0.265 N 
HETATM   16  O1  UNL     1      30.156  -6.891  31.763  1.00  0.00    -0.242 OA
ATOM     17  H4  UNL     1      31.956  -7.725  32.341  1.00  0.00     0.194 HD
BRANCH  14  18
HETATM   18  C2  UNL     1      32.964  -7.624  29.591  1.00  0.00     0.054 C 
HETATM   19  C1  UNL     1      32.740  -8.330  28.278  1.00  0.00     0.011 C 
ENDBRANCH  14  18
ENDBRANCH  11  12
ENDBRANCH   1  11
BRANCH  10  20
HETATM   20  C10 UNL     1      25.380  -4.518  30.873  1.00  0.00    -0.006 C 
HETATM   21  C11 UNL     1      25.167  -6.012  31.078  1.00  0.00     0.021 C 
HETATM   22  C12 UNL     1      25.081  -4.050  29.484  1.00  0.00     0.021 C 
HETATM   23  C13 UNL     1      24.278  -3.871  31.753  1.00  0.00     0.021 C 
ENDBRANCH  10  20
TORSDOF 4
ENDMDL
