MODEL 1
REMARK VINA RESULT: -7.831276597      0.000      0.000
REMARK  4 active torsions:
REMARK  status: ('A' for Active; 'I' for Inactive)
REMARK    1  A    between atoms: C3_6  and  C4_7 
REMARK    2  A    between atoms: C4_7  and  C5_8 
REMARK    3  A    between atoms: C5_8  and  C6_9 
REMARK    4  A    between atoms: C6_9  and  C7_10 
ROOT
HETATM    1  C7  UNL     1      33.775  -7.858  27.552  1.00  0.00     0.016 A 
HETATM    2  N3  UNL     1      35.010  -8.386  27.739  1.00  0.00    -0.345 N 
ATOM      3  H3  UNL     1      35.156  -9.035  28.513  1.00  0.00     0.167 HD
HETATM    4  C8  UNL     1      36.051  -8.084  26.937  1.00  0.00     0.104 A 
HETATM    5  N4  UNL     1      37.200  -8.628  27.173  1.00  0.00    -0.385 N 
ATOM      6  H41 UNL     1      37.988  -8.399  26.567  1.00  0.00     0.157 HD
ATOM      7  H42 UNL     1      37.338  -9.276  27.949  1.00  0.00     0.157 HD
HETATM    8  C9  UNL     1      35.864  -7.210  25.889  1.00  0.00    -0.018 A 
HETATM    9  C10 UNL     1      37.029  -6.879  25.002  1.00  0.00     0.052 C 
HETATM   10  C11 UNL     1      34.634  -6.659  25.671  1.00  0.00     0.019 A 
HETATM   11  C12 UNL     1      33.591  -6.999  26.523  1.00  0.00    -0.039 A 
HETATM   12  C13 UNL     1      32.288  -6.390  26.267  1.00  0.00     0.050 C 
ENDROOT
BRANCH   1  13
HETATM   13  C6  UNL     1      32.685  -8.221  28.449  1.00  0.00     0.057 C 
BRANCH  13  14
HETATM   14  C5  UNL     1      32.752  -7.538  29.798  1.00  0.00     0.008 C 
BRANCH  14  15
HETATM   15  C4  UNL     1      31.743  -6.435  29.886  1.00  0.00     0.024 C 
BRANCH  15  16
HETATM   16  C3  UNL     1      30.349  -6.837  29.606  1.00  0.00     0.104 C 
HETATM   17  N2  UNL     1      29.596  -5.897  28.812  1.00  0.00    -0.136 NA
HETATM   18  N1  UNL     1      28.243  -6.221  29.093  1.00  0.00    -0.312 N 
HETATM   19  C2  UNL     1      28.137  -6.766  30.238  1.00  0.00    -0.002 C 
ATOM     20  H1  UNL     1      27.462  -6.042  28.463  1.00  0.00     0.181 HD
HETATM   21  C1  UNL     1      26.911  -7.267  30.935  1.00  0.00     0.064 C 
HETATM   22  C14 UNL     1      29.485  -6.849  30.849  1.00  0.00     0.076 C 
ENDBRANCH  15  16
ENDBRANCH  14  15
ENDBRANCH  13  14
ENDBRANCH   1  13
TORSDOF 4
ENDMDL
MODEL 2
REMARK VINA RESULT: -7.382951388      2.544      4.619
REMARK  4 active torsions:
REMARK  status: ('A' for Active; 'I' for Inactive)
REMARK    1  A    between atoms: C3_6  and  C4_7 
REMARK    2  A    between atoms: C4_7  and  C5_8 
REMARK    3  A    between atoms: C5_8  and  C6_9 
REMARK    4  A    between atoms: C6_9  and  C7_10 
ROOT
HETATM    1  C7  UNL     1      30.652  -6.529  29.665  1.00  0.00     0.016 A 
HETATM    2  N3  UNL     1      31.023  -6.198  28.403  1.00  0.00    -0.345 N 
ATOM      3  H3  UNL     1      30.424  -5.575  27.861  1.00  0.00     0.167 HD
HETATM    4  C8  UNL     1      32.157  -6.664  27.841  1.00  0.00     0.104 A 
HETATM    5  N4  UNL     1      32.450  -6.303  26.634  1.00  0.00    -0.385 N 
ATOM      6  H41 UNL     1      33.308  -6.656  26.208  1.00  0.00     0.157 HD
ATOM      7  H42 UNL     1      31.846  -5.680  26.098  1.00  0.00     0.157 HD
HETATM    8  C9  UNL     1      32.973  -7.504  28.564  1.00  0.00    -0.018 A 
HETATM    9  C10 UNL     1      34.233  -8.018  27.930  1.00  0.00     0.052 C 
HETATM   10  C11 UNL     1      32.631  -7.860  29.838  1.00  0.00     0.019 A 
HETATM   11  C12 UNL     1      31.454  -7.356  30.376  1.00  0.00    -0.039 A 
HETATM   12  C13 UNL     1      31.112  -7.757  31.739  1.00  0.00     0.050 C 
ENDROOT
BRANCH   1  13
HETATM   13  C6  UNL     1      29.417  -5.995  30.223  1.00  0.00     0.057 C 
BRANCH  13  14
HETATM   14  C5  UNL     1      28.237  -6.071  29.277  1.00  0.00     0.008 C 
BRANCH  14  15
HETATM   15  C4  UNL     1      27.055  -6.697  29.951  1.00  0.00     0.024 C 
BRANCH  15  16
HETATM   16  C3  UNL     1      26.443  -5.885  31.024  1.00  0.00     0.104 C 
HETATM   17  N2  UNL     1      25.053  -6.173  31.281  1.00  0.00    -0.136 NA
HETATM   18  N1  UNL     1      24.580  -5.005  31.934  1.00  0.00    -0.312 N 
HETATM   19  C2  UNL     1      25.275  -3.990  31.606  1.00  0.00    -0.002 C 
ATOM     20  H1  UNL     1      23.790  -4.982  32.579  1.00  0.00     0.181 HD
HETATM   21  C1  UNL     1      25.135  -2.568  32.050  1.00  0.00     0.064 C 
HETATM   22  C14 UNL     1      26.322  -4.423  30.651  1.00  0.00     0.076 C 
ENDBRANCH  15  16
ENDBRANCH  14  15
ENDBRANCH  13  14
ENDBRANCH   1  13
TORSDOF 4
ENDMDL
MODEL 3
REMARK VINA RESULT: -7.374099634      3.666      5.950
REMARK  4 active torsions:
REMARK  status: ('A' for Active; 'I' for Inactive)
REMARK    1  A    between atoms: C3_6  and  C4_7 
REMARK    2  A    between atoms: C4_7  and  C5_8 
REMARK    3  A    between atoms: C5_8  and  C6_9 
REMARK    4  A    between atoms: C6_9  and  C7_10 
ROOT
HETATM    1  C7  UNL     1      29.628  -6.431  30.772  1.00  0.00     0.016 A 
HETATM    2  N3  UNL     1      29.969  -6.103  29.501  1.00  0.00    -0.345 N 
ATOM      3  H3  UNL     1      29.320  -5.547  28.944  1.00  0.00     0.167 HD
HETATM    4  C8  UNL     1      31.138  -6.487  28.948  1.00  0.00     0.104 A 
HETATM    5  N4  UNL     1      31.399  -6.135  27.731  1.00  0.00    -0.385 N 
ATOM      6  H41 UNL     1      32.283  -6.426  27.312  1.00  0.00     0.157 HD
ATOM      7  H42 UNL     1      30.744  -5.579  27.181  1.00  0.00     0.157 HD
HETATM    8  C9  UNL     1      32.022  -7.237  29.691  1.00  0.00    -0.018 A 
HETATM    9  C10 UNL     1      33.320  -7.660  29.067  1.00  0.00     0.052 C 
HETATM   10  C11 UNL     1      31.712  -7.586  30.974  1.00  0.00     0.019 A 
HETATM   11  C12 UNL     1      30.497  -7.169  31.502  1.00  0.00    -0.039 A 
HETATM   12  C13 UNL     1      30.190  -7.561  32.876  1.00  0.00     0.050 C 
ENDROOT
BRANCH   1  13
HETATM   13  C6  UNL     1      28.353  -5.987  31.319  1.00  0.00     0.057 C 
BRANCH  13  14
HETATM   14  C5  UNL     1      27.948  -4.597  30.876  1.00  0.00     0.008 C 
BRANCH  14  15
HETATM   15  C4  UNL     1      28.237  -3.593  31.947  1.00  0.00     0.024 C 
BRANCH  15  16
HETATM   16  C3  UNL     1      27.188  -2.570  32.146  1.00  0.00     0.104 C 
HETATM   17  N2  UNL     1      25.893  -3.093  32.506  1.00  0.00    -0.136 NA
HETATM   18  N1  UNL     1      24.997  -2.050  32.159  1.00  0.00    -0.312 N 
HETATM   19  C2  UNL     1      25.483  -1.325  31.231  1.00  0.00    -0.002 C 
ATOM     20  H1  UNL     1      24.087  -1.900  32.593  1.00  0.00     0.181 HD
HETATM   21  C1  UNL     1      24.890  -0.125  30.563  1.00  0.00     0.064 C 
HETATM   22  C14 UNL     1      26.814  -1.861  30.862  1.00  0.00     0.076 C 
ENDBRANCH  15  16
ENDBRANCH  14  15
ENDBRANCH  13  14
ENDBRANCH   1  13
TORSDOF 4
ENDMDL
MODEL 4
REMARK VINA RESULT: -7.368587649      2.563      4.684
REMARK  4 active torsions:
REMARK  status: ('A' for Active; 'I' for Inactive)
REMARK    1  A    between atoms: C3_6  and  C4_7 
REMARK    2  A    between atoms: C4_7  and  C5_8 
REMARK    3  A    between atoms: C5_8  and  C6_9 
REMARK    4  A    between atoms: C6_9  and  C7_10 
ROOT
HETATM    1  C7  UNL     1      30.632  -6.492  29.740  1.00  0.00     0.016 A 
HETATM    2  N3  UNL     1      30.991  -6.167  28.474  1.00  0.00    -0.345 N 
ATOM      3  H3  UNL     1      30.402  -5.526  27.943  1.00  0.00     0.167 HD
HETATM    4  C8  UNL     1      32.102  -6.664  27.891  1.00  0.00     0.104 A 
HETATM    5  N4  UNL     1      32.385  -6.309  26.681  1.00  0.00    -0.385 N 
ATOM      6  H41 UNL     1      33.225  -6.685  26.240  1.00  0.00     0.157 HD
ATOM      7  H42 UNL     1      31.790  -5.667  26.156  1.00  0.00     0.157 HD
HETATM    8  C9  UNL     1      32.905  -7.530  28.599  1.00  0.00    -0.018 A 
HETATM    9  C10 UNL     1      34.139  -8.078  27.943  1.00  0.00     0.052 C 
HETATM   10  C11 UNL     1      32.575  -7.879  29.877  1.00  0.00     0.019 A 
HETATM   11  C12 UNL     1      31.421  -7.343  30.437  1.00  0.00    -0.039 A 
HETATM   12  C13 UNL     1      31.091  -7.737  31.803  1.00  0.00     0.050 C 
ENDROOT
BRANCH   1  13
HETATM   13  C6  UNL     1      29.422  -5.923  30.321  1.00  0.00     0.057 C 
BRANCH  13  14
HETATM   14  C5  UNL     1      28.143  -6.470  29.721  1.00  0.00     0.008 C 
BRANCH  14  15
HETATM   15  C4  UNL     1      27.087  -6.623  30.771  1.00  0.00     0.024 C 
BRANCH  15  16
HETATM   16  C3  UNL     1      25.977  -5.650  30.690  1.00  0.00     0.104 C 
HETATM   17  N2  UNL     1      24.739  -6.187  30.180  1.00  0.00    -0.136 NA
HETATM   18  N1  UNL     1      24.030  -5.040  29.736  1.00  0.00    -0.312 N 
HETATM   19  C2  UNL     1      24.833  -4.101  29.431  1.00  0.00    -0.002 C 
ATOM     20  H1  UNL     1      23.014  -4.977  29.672  1.00  0.00     0.181 HD
HETATM   21  C1  UNL     1      24.528  -2.726  28.924  1.00  0.00     0.064 C 
HETATM   22  C14 UNL     1      26.219  -4.574  29.654  1.00  0.00     0.076 C 
ENDBRANCH  15  16
ENDBRANCH  14  15
ENDBRANCH  13  14
ENDBRANCH   1  13
TORSDOF 4
ENDMDL
MODEL 5
REMARK VINA RESULT: -7.331354581      2.093      2.905
REMARK  4 active torsions:
REMARK  status: ('A' for Active; 'I' for Inactive)
REMARK    1  A    between atoms: C3_6  and  C4_7 
REMARK    2  A    between atoms: C4_7  and  C5_8 
REMARK    3  A    between atoms: C5_8  and  C6_9 
REMARK    4  A    between atoms: C6_9  and  C7_10 
ROOT
HETATM    1  C7  UNL     1      32.628  -7.115  27.988  1.00  0.00     0.016 A 
HETATM    2  N3  UNL     1      31.725  -6.201  27.556  1.00  0.00    -0.345 N 
ATOM      3  H3  UNL     1      30.904  -6.009  28.130  1.00  0.00     0.167 HD
HETATM    4  C8  UNL     1      31.875  -5.535  26.392  1.00  0.00     0.104 A 
HETATM    5  N4  UNL     1      30.975  -4.675  26.044  1.00  0.00    -0.385 N 
ATOM      6  H41 UNL     1      31.088  -4.172  25.163  1.00  0.00     0.157 HD
ATOM      7  H42 UNL     1      30.157  -4.489  26.624  1.00  0.00     0.157 HD
HETATM    8  C9  UNL     1      32.980  -5.786  25.609  1.00  0.00    -0.018 A 
HETATM    9  C10 UNL     1      33.139  -5.041  24.315  1.00  0.00     0.052 C 
HETATM   10  C11 UNL     1      33.911  -6.701  26.013  1.00  0.00     0.019 A 
HETATM   11  C12 UNL     1      33.715  -7.362  27.219  1.00  0.00    -0.039 A 
HETATM   12  C13 UNL     1      34.724  -8.337  27.623  1.00  0.00     0.050 C 
ENDROOT
BRANCH   1  13
HETATM   13  C6  UNL     1      32.417  -7.803  29.255  1.00  0.00     0.057 C 
BRANCH  13  14
HETATM   14  C5  UNL     1      32.124  -6.872  30.413  1.00  0.00     0.008 C 
BRANCH  14  15
HETATM   15  C4  UNL     1      30.865  -7.277  31.115  1.00  0.00     0.024 C 
BRANCH  15  16
HETATM   16  C3  UNL     1      29.617  -7.011  30.369  1.00  0.00     0.104 C 
HETATM   17  N2  UNL     1      29.515  -5.682  29.817  1.00  0.00    -0.136 NA
HETATM   18  N1  UNL     1      28.121  -5.506  29.612  1.00  0.00    -0.312 N 
HETATM   19  C2  UNL     1      27.451  -6.237  30.410  1.00  0.00    -0.002 C 
ATOM     20  H1  UNL     1      27.713  -4.879  28.920  1.00  0.00     0.181 HD
HETATM   21  C1  UNL     1      25.966  -6.372  30.544  1.00  0.00     0.064 C 
HETATM   22  C14 UNL     1      28.395  -6.997  31.262  1.00  0.00     0.076 C 
ENDBRANCH  15  16
ENDBRANCH  14  15
ENDBRANCH  13  14
ENDBRANCH   1  13
TORSDOF 4
ENDMDL
