MODEL 1
REMARK VINA RESULT: -7.758983614      0.000      0.000
REMARK  5 active torsions:
REMARK  status: ('A' for Active; 'I' for Inactive)
REMARK    1  A    between atoms: C5_7  and  C6_8 
REMARK    2  A    between atoms: C6_8  and  C7_9 
REMARK    3  A    between atoms: C7_9  and  C8_10 
REMARK    4  A    between atoms: C8_10  and  C9_11 
REMARK    5  A    between atoms: C11_13  and  N2_14 
ROOT
HETATM    1  C6  UNL     1      29.268  -6.415  31.576  1.00  0.00     0.076 C 
ENDROOT
BRANCH   1   2
HETATM    2  C5  UNL     1      30.438  -6.779  30.726  1.00  0.00     0.083 A 
HETATM    3  N1  UNL     1      30.541  -6.394  29.445  1.00  0.00    -0.343 N 
HETATM    4  C4  UNL     1      31.698  -6.876  28.957  1.00  0.00     0.080 A 
ATOM      5  H1  UNL     1      29.860  -5.834  28.931  1.00  0.00     0.167 HD
HETATM    6  C3  UNL     1      32.523  -6.960  27.857  1.00  0.00     0.058 A 
HETATM    7  C13 UNL     1      32.297  -7.576  30.004  1.00  0.00     0.134 A 
HETATM    8  C2  UNL     1      33.624  -7.706  28.220  1.00  0.00     0.009 A 
HETATM    9  C1  UNL     1      34.791  -8.060  27.347  1.00  0.00     0.068 C 
HETATM   10  N6  UNL     1      33.460  -8.055  29.498  1.00  0.00    -0.344 N 
ATOM     11  H6  UNL     1      34.128  -8.615  30.029  1.00  0.00     0.167 HD
HETATM   12  N5  UNL     1      31.505  -7.503  31.081  1.00  0.00    -0.330 N 
ATOM     13  H5  UNL     1      31.681  -7.919  31.996  1.00  0.00     0.168 HD
ENDBRANCH   1   2
BRANCH   1  14
HETATM   14  C7  UNL     1      28.437  -5.332  30.919  1.00  0.00     0.009 C 
BRANCH  14  15
HETATM   15  C8  UNL     1      28.570  -4.048  31.667  1.00  0.00     0.026 C 
BRANCH  15  16
HETATM   16  C9  UNL     1      27.248  -3.457  32.036  1.00  0.00     0.089 C 
HETATM   17  C10 UNL     1      26.077  -4.144  31.363  1.00  0.00     0.101 C 
HETATM   18  C11 UNL     1      24.863  -3.436  31.830  1.00  0.00     0.077 C 
HETATM   19  N3  UNL     1      24.965  -2.046  32.072  1.00  0.00    -0.343 N 
HETATM   20  C12 UNL     1      26.026  -1.466  31.620  1.00  0.00     0.177 C 
ATOM     21  H3  UNL     1      24.242  -1.531  32.574  1.00  0.00     0.167 HD
HETATM   22  N4  UNL     1      27.156  -2.044  31.640  1.00  0.00    -0.381 N 
ATOM     23  H4  UNL     1      27.998  -1.529  31.384  1.00  0.00     0.160 HD
BRANCH  18  24
HETATM   24  N2  UNL     1      23.787  -4.113  31.990  1.00  0.00    -0.389 N 
ATOM     25  H22 UNL     1      23.287  -4.577  31.232  1.00  0.00     0.157 HD
ATOM     26  H21 UNL     1      23.403  -4.198  32.931  1.00  0.00     0.157 HD
ENDBRANCH  18  24
ENDBRANCH  15  16
ENDBRANCH  14  15
ENDBRANCH   1  14
TORSDOF 5
ENDMDL
MODEL 2
REMARK VINA RESULT: -7.713389782      3.382      5.309
REMARK  5 active torsions:
REMARK  status: ('A' for Active; 'I' for Inactive)
REMARK    1  A    between atoms: C5_7  and  C6_8 
REMARK    2  A    between atoms: C6_8  and  C7_9 
REMARK    3  A    between atoms: C7_9  and  C8_10 
REMARK    4  A    between atoms: C8_10  and  C9_11 
REMARK    5  A    between atoms: C11_13  and  N2_14 
ROOT
HETATM    1  C6  UNL     1      32.838  -8.319  28.320  1.00  0.00     0.076 C 
ENDROOT
BRANCH   1   2
HETATM    2  C5  UNL     1      34.143  -8.075  27.639  1.00  0.00     0.083 A 
HETATM    3  N1  UNL     1      34.228  -7.450  26.456  1.00  0.00    -0.343 N 
HETATM    4  C4  UNL     1      35.527  -7.386  26.111  1.00  0.00     0.080 A 
ATOM      5  H1  UNL     1      33.445  -7.087  25.912  1.00  0.00     0.167 HD
HETATM    6  C3  UNL     1      36.435  -6.964  25.165  1.00  0.00     0.058 A 
HETATM    7  C13 UNL     1      36.231  -8.005  27.144  1.00  0.00     0.134 A 
HETATM    8  C2  UNL     1      37.691  -7.318  25.608  1.00  0.00     0.009 A 
HETATM    9  C1  UNL     1      38.991  -7.063  24.905  1.00  0.00     0.068 C 
HETATM   10  N6  UNL     1      37.536  -7.933  26.783  1.00  0.00    -0.344 N 
ATOM     11  H6  UNL     1      38.305  -8.303  27.341  1.00  0.00     0.167 HD
HETATM   12  N5  UNL     1      35.360  -8.421  28.072  1.00  0.00    -0.330 N 
ATOM     13  H5  UNL     1      35.582  -8.907  28.941  1.00  0.00     0.168 HD
ENDBRANCH   1   2
BRANCH   1  14
HETATM   14  C7  UNL     1      32.725  -7.495  29.586  1.00  0.00     0.009 C 
BRANCH  14  15
HETATM   15  C8  UNL     1      31.771  -6.365  29.389  1.00  0.00     0.026 C 
BRANCH  15  16
HETATM   16  C9  UNL     1      30.678  -6.349  30.407  1.00  0.00     0.089 C 
HETATM   17  C10 UNL     1      30.881  -7.360  31.518  1.00  0.00     0.101 C 
HETATM   18  C11 UNL     1      29.717  -7.213  32.422  1.00  0.00     0.077 C 
HETATM   19  N3  UNL     1      28.472  -6.877  31.841  1.00  0.00    -0.343 N 
HETATM   20  C12 UNL     1      28.396  -6.981  30.557  1.00  0.00     0.177 C 
ATOM     21  H3  UNL     1      27.680  -6.569  32.405  1.00  0.00     0.167 HD
HETATM   22  N4  UNL     1      29.375  -6.677  29.810  1.00  0.00    -0.381 N 
ATOM     23  H4  UNL     1      29.258  -6.659  28.797  1.00  0.00     0.160 HD
BRANCH  18  24
HETATM   24  N2  UNL     1      29.895  -7.398  33.678  1.00  0.00    -0.389 N 
ATOM     25  H22 UNL     1      30.618  -6.932  34.226  1.00  0.00     0.157 HD
ATOM     26  H21 UNL     1      29.279  -8.049  34.164  1.00  0.00     0.157 HD
ENDBRANCH  18  24
ENDBRANCH  15  16
ENDBRANCH  14  15
ENDBRANCH   1  14
TORSDOF 5
ENDMDL
MODEL 3
REMARK VINA RESULT: -7.690678779      1.156      1.897
REMARK  5 active torsions:
REMARK  status: ('A' for Active; 'I' for Inactive)
REMARK    1  A    between atoms: C5_7  and  C6_8 
REMARK    2  A    between atoms: C6_8  and  C7_9 
REMARK    3  A    between atoms: C7_9  and  C8_10 
REMARK    4  A    between atoms: C8_10  and  C9_11 
REMARK    5  A    between atoms: C11_13  and  N2_14 
ROOT
HETATM    1  C6  UNL     1      29.264  -6.404  30.714  1.00  0.00     0.076 C 
ENDROOT
BRANCH   1   2
HETATM    2  C5  UNL     1      30.532  -6.790  30.031  1.00  0.00     0.083 A 
HETATM    3  N1  UNL     1      30.797  -6.444  28.763  1.00  0.00    -0.343 N 
HETATM    4  C4  UNL     1      32.006  -6.938  28.440  1.00  0.00     0.080 A 
ATOM      5  H1  UNL     1      30.188  -5.902  28.150  1.00  0.00     0.167 HD
HETATM    6  C3  UNL     1      32.965  -7.053  27.457  1.00  0.00     0.058 A 
HETATM    7  C13 UNL     1      32.466  -7.604  29.576  1.00  0.00     0.134 A 
HETATM    8  C2  UNL     1      34.010  -7.784  27.980  1.00  0.00     0.009 A 
HETATM    9  C1  UNL     1      35.277  -8.161  27.273  1.00  0.00     0.068 C 
HETATM   10  N6  UNL     1      33.684  -8.095  29.237  1.00  0.00    -0.344 N 
ATOM     11  H6  UNL     1      34.278  -8.636  29.865  1.00  0.00     0.167 HD
HETATM   12  N5  UNL     1      31.544  -7.501  30.541  1.00  0.00    -0.330 N 
ATOM     13  H5  UNL     1      31.603  -7.888  31.483  1.00  0.00     0.168 HD
ENDBRANCH   1   2
BRANCH   1  14
HETATM   14  C7  UNL     1      28.116  -6.338  29.728  1.00  0.00     0.009 C 
BRANCH  14  15
HETATM   15  C8  UNL     1      27.703  -4.922  29.502  1.00  0.00     0.026 C 
BRANCH  15  16
HETATM   16  C9  UNL     1      26.377  -4.605  30.114  1.00  0.00     0.089 C 
HETATM   17  C10 UNL     1      26.485  -3.817  31.403  1.00  0.00     0.101 C 
HETATM   18  C11 UNL     1      25.096  -3.598  31.867  1.00  0.00     0.077 C 
HETATM   19  N3  UNL     1      24.150  -4.618  31.611  1.00  0.00    -0.343 N 
HETATM   20  C12 UNL     1      24.627  -5.755  31.230  1.00  0.00     0.177 C 
ATOM     21  H3  UNL     1      23.148  -4.463  31.721  1.00  0.00     0.167 HD
HETATM   22  N4  UNL     1      25.633  -5.825  30.460  1.00  0.00    -0.381 N 
ATOM     23  H4  UNL     1      25.924  -6.726  30.081  1.00  0.00     0.160 HD
BRANCH  18  24
HETATM   24  N2  UNL     1      24.823  -2.504  32.476  1.00  0.00    -0.389 N 
ATOM     25  H22 UNL     1      24.309  -1.730  32.055  1.00  0.00     0.157 HD
ATOM     26  H21 UNL     1      25.136  -2.395  33.440  1.00  0.00     0.157 HD
ENDBRANCH  18  24
ENDBRANCH  15  16
ENDBRANCH  14  15
ENDBRANCH   1  14
TORSDOF 5
ENDMDL
MODEL 4
REMARK VINA RESULT: -7.656674417      1.522      1.824
REMARK  5 active torsions:
REMARK  status: ('A' for Active; 'I' for Inactive)
REMARK    1  A    between atoms: C5_7  and  C6_8 
REMARK    2  A    between atoms: C6_8  and  C7_9 
REMARK    3  A    between atoms: C7_9  and  C8_10 
REMARK    4  A    between atoms: C8_10  and  C9_11 
REMARK    5  A    between atoms: C11_13  and  N2_14 
ROOT
HETATM    1  C6  UNL     1      29.142  -6.502  31.854  1.00  0.00     0.076 C 
ENDROOT
BRANCH   1   2
HETATM    2  C5  UNL     1      30.292  -6.832  30.963  1.00  0.00     0.083 A 
HETATM    3  N1  UNL     1      30.375  -6.379  29.703  1.00  0.00    -0.343 N 
HETATM    4  C4  UNL     1      31.517  -6.846  29.167  1.00  0.00     0.080 A 
ATOM      5  H1  UNL     1      29.692  -5.784  29.234  1.00  0.00     0.167 HD
HETATM    6  C3  UNL     1      32.321  -6.879  28.048  1.00  0.00     0.058 A 
HETATM    7  C13 UNL     1      32.127  -7.609  30.163  1.00  0.00     0.134 A 
HETATM    8  C2  UNL     1      33.419  -7.655  28.349  1.00  0.00     0.009 A 
HETATM    9  C1  UNL     1      34.565  -7.974  27.435  1.00  0.00     0.068 C 
HETATM   10  N6  UNL     1      33.274  -8.072  29.609  1.00  0.00    -0.344 N 
ATOM     11  H6  UNL     1      33.946  -8.667  30.096  1.00  0.00     0.167 HD
HETATM   12  N5  UNL     1      31.356  -7.587  31.258  1.00  0.00    -0.330 N 
ATOM     13  H5  UNL     1      31.545  -8.054  32.145  1.00  0.00     0.168 HD
ENDBRANCH   1   2
BRANCH   1  14
HETATM   14  C7  UNL     1      28.087  -7.588  31.801  1.00  0.00     0.009 C 
BRANCH  14  15
HETATM   15  C8  UNL     1      27.071  -7.276  30.754  1.00  0.00     0.026 C 
BRANCH  15  16
HETATM   16  C9  UNL     1      26.523  -5.892  30.877  1.00  0.00     0.089 C 
HETATM   17  C10 UNL     1      25.022  -5.858  31.082  1.00  0.00     0.101 C 
HETATM   18  C11 UNL     1      24.654  -4.426  31.176  1.00  0.00     0.077 C 
HETATM   19  N3  UNL     1      25.393  -3.505  30.398  1.00  0.00    -0.343 N 
HETATM   20  C12 UNL     1      26.146  -4.011  29.480  1.00  0.00     0.177 C 
ATOM     21  H3  UNL     1      25.333  -2.499  30.552  1.00  0.00     0.167 HD
HETATM   22  N4  UNL     1      26.773  -5.099  29.664  1.00  0.00    -0.381 N 
ATOM     23  H4  UNL     1      27.449  -5.423  28.972  1.00  0.00     0.160 HD
BRANCH  18  24
HETATM   24  N2  UNL     1      23.690  -4.096  31.953  1.00  0.00    -0.389 N 
ATOM     25  H22 UNL     1      23.660  -4.313  32.949  1.00  0.00     0.157 HD
ATOM     26  H21 UNL     1      22.902  -3.584  31.557  1.00  0.00     0.157 HD
ENDBRANCH  18  24
ENDBRANCH  15  16
ENDBRANCH  14  15
ENDBRANCH   1  14
TORSDOF 5
ENDMDL
MODEL 5
REMARK VINA RESULT: -7.623730297      0.885      1.592
REMARK  5 active torsions:
REMARK  status: ('A' for Active; 'I' for Inactive)
REMARK    1  A    between atoms: C5_7  and  C6_8 
REMARK    2  A    between atoms: C6_8  and  C7_9 
REMARK    3  A    between atoms: C7_9  and  C8_10 
REMARK    4  A    between atoms: C8_10  and  C9_11 
REMARK    5  A    between atoms: C11_13  and  N2_14 
ROOT
HETATM    1  C6  UNL     1      29.024  -6.539  31.677  1.00  0.00     0.076 C 
ENDROOT
BRANCH   1   2
HETATM    2  C5  UNL     1      30.214  -6.864  30.838  1.00  0.00     0.083 A 
HETATM    3  N1  UNL     1      30.300  -6.507  29.549  1.00  0.00    -0.343 N 
HETATM    4  C4  UNL     1      31.481  -6.941  29.074  1.00  0.00     0.080 A 
ATOM      5  H1  UNL     1      29.593  -5.996  29.019  1.00  0.00     0.167 HD
HETATM    6  C3  UNL     1      32.313  -7.011  27.977  1.00  0.00     0.058 A 
HETATM    7  C13 UNL     1      32.113  -7.583  30.140  1.00  0.00     0.134 A 
HETATM    8  C2  UNL     1      33.450  -7.689  28.361  1.00  0.00     0.009 A 
HETATM    9  C1  UNL     1      34.635  -8.005  27.499  1.00  0.00     0.068 C 
HETATM   10  N6  UNL     1      33.300  -8.014  29.648  1.00  0.00    -0.344 N 
ATOM     11  H6  UNL     1      33.995  -8.524  30.194  1.00  0.00     0.167 HD
HETATM   12  N5  UNL     1      31.316  -7.523  31.214  1.00  0.00    -0.330 N 
ATOM     13  H5  UNL     1      31.510  -7.906  32.139  1.00  0.00     0.168 HD
ENDBRANCH   1   2
BRANCH   1  14
HETATM   14  C7  UNL     1      28.194  -5.444  31.040  1.00  0.00     0.009 C 
BRANCH  14  15
HETATM   15  C8  UNL     1      28.535  -4.119  31.635  1.00  0.00     0.026 C 
BRANCH  15  16
HETATM   16  C9  UNL     1      27.388  -3.162  31.603  1.00  0.00     0.089 C 
HETATM   17  C10 UNL     1      27.443  -2.124  32.705  1.00  0.00     0.101 C 
HETATM   18  C11 UNL     1      26.244  -1.274  32.528  1.00  0.00     0.077 C 
HETATM   19  N3  UNL     1      25.066  -1.892  32.048  1.00  0.00    -0.343 N 
HETATM   20  C12 UNL     1      25.058  -3.183  32.052  1.00  0.00     0.177 C 
ATOM     21  H3  UNL     1      24.268  -1.349  31.718  1.00  0.00     0.167 HD
HETATM   22  N4  UNL     1      26.100  -3.851  31.776  1.00  0.00    -0.381 N 
ATOM     23  H4  UNL     1      26.046  -4.864  31.674  1.00  0.00     0.160 HD
BRANCH  18  24
HETATM   24  N2  UNL     1      26.332  -0.029  32.819  1.00  0.00    -0.389 N 
ATOM     25  H22 UNL     1      26.421   0.330  33.769  1.00  0.00     0.157 HD
ATOM     26  H21 UNL     1      26.313   0.649  32.057  1.00  0.00     0.157 HD
ENDBRANCH  18  24
ENDBRANCH  15  16
ENDBRANCH  14  15
ENDBRANCH   1  14
TORSDOF 5
ENDMDL
