MODEL 1
REMARK VINA RESULT: -5.109574649      0.000      0.000
REMARK  8 active torsions:
REMARK  status: ('A' for Active; 'I' for Inactive)
REMARK    1  A    between atoms: C2_2  and  N1_3 
REMARK    2  A    between atoms: N1_3  and  C3_6 
REMARK    3  A    between atoms: C3_6  and  C4_7 
REMARK    4  A    between atoms: C4_7  and  S1_8 
REMARK    5  A    between atoms: S1_8  and  C5_9 
REMARK    6  A    between atoms: C5_9  and  N3_13 
REMARK    7  A    between atoms: N3_13  and  C6_15 
REMARK    8  A    between atoms: C6_15  and  C9_18 
ROOT
HETATM    1  C5  UNL     1      25.234  -5.474  31.005  1.00  0.00     0.134 C 
HETATM    2  N2  UNL     1      24.706  -6.488  30.475  1.00  0.00    -0.380 N 
ATOM      3  H21 UNL     1      25.273  -7.325  30.344  1.00  0.00     0.158 HD
ATOM      4  H22 UNL     1      23.734  -6.493  30.168  1.00  0.00     0.158 HD
ENDROOT
BRANCH   1   5
HETATM    5  S1  UNL     1      24.247  -4.016  31.234  1.00  0.00    -0.093 SA
BRANCH   5   6
HETATM    6  C4  UNL     1      25.147  -2.878  32.310  1.00  0.00     0.110 C 
BRANCH   6   7
HETATM    7  C3  UNL     1      25.728  -1.727  31.501  1.00  0.00     0.242 C 
BRANCH   7   8
HETATM    8  N1  UNL     1      24.851  -0.586  31.486  1.00  0.00    -0.075 N 
ATOM      9  H12 UNL     1      25.089   0.084  32.216  1.00  0.00     0.277 HD
ATOM     10  H11 UNL     1      23.911  -0.827  31.800  1.00  0.00     0.277 HD
BRANCH   8  11
HETATM   11  C2  UNL     1      24.839   0.032  30.168  1.00  0.00     0.228 C 
HETATM   12  C1  UNL     1      25.663  -0.826  29.239  1.00  0.00     0.034 C 
ENDBRANCH   8  11
ENDBRANCH   7   8
ENDBRANCH   6   7
ENDBRANCH   5   6
ENDBRANCH   1   5
BRANCH   1  13
HETATM   13  N3  UNL     1      26.574  -5.466  31.428  1.00  0.00    -0.362 N 
ATOM     14  H3  UNL     1      26.718  -5.642  32.422  1.00  0.00     0.162 HD
BRANCH  13  15
HETATM   15  C6  UNL     1      27.760  -5.249  30.669  1.00  0.00     0.031 C 
HETATM   16  C7  UNL     1      27.446  -4.406  29.439  1.00  0.00     0.039 C 
HETATM   17  C8  UNL     1      28.614  -4.258  31.538  1.00  0.00     0.039 C 
BRANCH  15  18
HETATM   18  C9  UNL     1      28.658  -6.392  30.433  1.00  0.00    -0.027 C 
HETATM   19  C10 UNL     1      28.516  -7.394  31.578  1.00  0.00     0.017 C 
HETATM   20  C11 UNL     1      28.161  -7.089  29.152  1.00  0.00     0.017 C 
HETATM   21  C12 UNL     1      30.111  -6.141  30.265  1.00  0.00     0.017 C 
ENDBRANCH  15  18
ENDBRANCH  13  15
ENDBRANCH   1  13
TORSDOF 8
ENDMDL
MODEL 2
REMARK VINA RESULT: -5.103879901      2.351      5.704
REMARK  8 active torsions:
REMARK  status: ('A' for Active; 'I' for Inactive)
REMARK    1  A    between atoms: C2_2  and  N1_3 
REMARK    2  A    between atoms: N1_3  and  C3_6 
REMARK    3  A    between atoms: C3_6  and  C4_7 
REMARK    4  A    between atoms: C4_7  and  S1_8 
REMARK    5  A    between atoms: S1_8  and  C5_9 
REMARK    6  A    between atoms: C5_9  and  N3_13 
REMARK    7  A    between atoms: N3_13  and  C6_15 
REMARK    8  A    between atoms: C6_15  and  C9_18 
ROOT
HETATM    1  C5  UNL     1      26.684  -6.716  30.653  1.00  0.00     0.134 C 
HETATM    2  N2  UNL     1      26.082  -7.790  30.920  1.00  0.00    -0.380 N 
ATOM      3  H21 UNL     1      25.336  -7.775  31.615  1.00  0.00     0.158 HD
ATOM      4  H22 UNL     1      26.323  -8.672  30.469  1.00  0.00     0.158 HD
ENDROOT
BRANCH   1   5
HETATM    5  S1  UNL     1      27.983  -6.742  29.444  1.00  0.00    -0.093 SA
BRANCH   5   6
HETATM    6  C4  UNL     1      29.495  -6.121  30.214  1.00  0.00     0.110 C 
BRANCH   6   7
HETATM    7  C3  UNL     1      29.948  -7.054  31.328  1.00  0.00     0.242 C 
BRANCH   7   8
HETATM    8  N1  UNL     1      31.363  -7.305  31.276  1.00  0.00    -0.075 N 
ATOM      9  H12 UNL     1      31.577  -8.294  31.406  1.00  0.00     0.277 HD
ATOM     10  H11 UNL     1      31.843  -6.936  32.096  1.00  0.00     0.277 HD
BRANCH   8  11
HETATM   11  C2  UNL     1      31.930  -6.787  30.039  1.00  0.00     0.228 C 
HETATM   12  C1  UNL     1      32.580  -7.935  29.304  1.00  0.00     0.034 C 
ENDBRANCH   8  11
ENDBRANCH   7   8
ENDBRANCH   6   7
ENDBRANCH   5   6
ENDBRANCH   1   5
BRANCH   1  13
HETATM   13  N3  UNL     1      26.351  -5.501  31.274  1.00  0.00    -0.362 N 
ATOM     14  H3  UNL     1      26.664  -5.405  32.240  1.00  0.00     0.162 HD
BRANCH  13  15
HETATM   15  C6  UNL     1      25.639  -4.383  30.750  1.00  0.00     0.031 C 
HETATM   16  C7  UNL     1      24.597  -4.853  29.743  1.00  0.00     0.039 C 
HETATM   17  C8  UNL     1      24.747  -3.884  31.941  1.00  0.00     0.039 C 
BRANCH  15  18
HETATM   18  C9  UNL     1      26.407  -3.193  30.347  1.00  0.00    -0.027 C 
HETATM   19  C10 UNL     1      25.564  -1.941  30.584  1.00  0.00     0.017 C 
HETATM   20  C11 UNL     1      27.624  -3.109  31.287  1.00  0.00     0.017 C 
HETATM   21  C12 UNL     1      26.916  -3.104  28.956  1.00  0.00     0.017 C 
ENDBRANCH  15  18
ENDBRANCH  13  15
ENDBRANCH   1  13
TORSDOF 8
ENDMDL
MODEL 3
REMARK VINA RESULT: -5.095135397      2.386      5.727
REMARK  8 active torsions:
REMARK  status: ('A' for Active; 'I' for Inactive)
REMARK    1  A    between atoms: C2_2  and  N1_3 
REMARK    2  A    between atoms: N1_3  and  C3_6 
REMARK    3  A    between atoms: C3_6  and  C4_7 
REMARK    4  A    between atoms: C4_7  and  S1_8 
REMARK    5  A    between atoms: S1_8  and  C5_9 
REMARK    6  A    between atoms: C5_9  and  N3_13 
REMARK    7  A    between atoms: N3_13  and  C6_15 
REMARK    8  A    between atoms: C6_15  and  C9_18 
ROOT
HETATM    1  C5  UNL     1      26.731  -6.623  30.389  1.00  0.00     0.134 C 
HETATM    2  N2  UNL     1      25.803  -7.475  30.390  1.00  0.00    -0.380 N 
ATOM      3  H21 UNL     1      25.015  -7.343  31.023  1.00  0.00     0.158 HD
ATOM      4  H22 UNL     1      25.820  -8.294  29.782  1.00  0.00     0.158 HD
ENDROOT
BRANCH   1   5
HETATM    5  S1  UNL     1      28.103  -6.853  29.286  1.00  0.00    -0.093 SA
BRANCH   5   6
HETATM    6  C4  UNL     1      29.580  -6.152  30.055  1.00  0.00     0.110 C 
BRANCH   6   7
HETATM    7  C3  UNL     1      30.057  -7.037  31.198  1.00  0.00     0.242 C 
BRANCH   7   8
HETATM    8  N1  UNL     1      31.474  -7.277  31.136  1.00  0.00    -0.075 N 
ATOM      9  H12 UNL     1      31.695  -8.267  31.241  1.00  0.00     0.277 HD
ATOM     10  H11 UNL     1      31.954  -6.925  31.965  1.00  0.00     0.277 HD
BRANCH   8  11
HETATM   11  C2  UNL     1      32.034  -6.724  29.912  1.00  0.00     0.228 C 
HETATM   12  C1  UNL     1      32.782  -7.825  29.199  1.00  0.00     0.034 C 
ENDBRANCH   8  11
ENDBRANCH   7   8
ENDBRANCH   6   7
ENDBRANCH   5   6
ENDBRANCH   1   5
BRANCH   1  13
HETATM   13  N3  UNL     1      26.708  -5.495  31.226  1.00  0.00    -0.362 N 
ATOM     14  H3  UNL     1      27.209  -5.596  32.108  1.00  0.00     0.162 HD
BRANCH  13  15
HETATM   15  C6  UNL     1      26.085  -4.230  31.021  1.00  0.00     0.031 C 
HETATM   16  C7  UNL     1      25.699  -4.069  29.555  1.00  0.00     0.039 C 
HETATM   17  C8  UNL     1      24.684  -4.356  31.720  1.00  0.00     0.039 C 
BRANCH  15  18
HETATM   18  C9  UNL     1      26.695  -3.042  31.641  1.00  0.00    -0.027 C 
HETATM   19  C10 UNL     1      28.181  -3.302  31.882  1.00  0.00     0.017 C 
HETATM   20  C11 UNL     1      26.592  -1.901  30.612  1.00  0.00     0.017 C 
HETATM   21  C12 UNL     1      26.141  -2.535  32.922  1.00  0.00     0.017 C 
ENDBRANCH  15  18
ENDBRANCH  13  15
ENDBRANCH   1  13
TORSDOF 8
ENDMDL
MODEL 4
REMARK VINA RESULT: -5.090787137      1.235      1.980
REMARK  8 active torsions:
REMARK  status: ('A' for Active; 'I' for Inactive)
REMARK    1  A    between atoms: C2_2  and  N1_3 
REMARK    2  A    between atoms: N1_3  and  C3_6 
REMARK    3  A    between atoms: C3_6  and  C4_7 
REMARK    4  A    between atoms: C4_7  and  S1_8 
REMARK    5  A    between atoms: S1_8  and  C5_9 
REMARK    6  A    between atoms: C5_9  and  N3_13 
REMARK    7  A    between atoms: N3_13  and  C6_15 
REMARK    8  A    between atoms: C6_15  and  C9_18 
ROOT
HETATM    1  C5  UNL     1      25.276  -5.518  30.989  1.00  0.00     0.134 C 
HETATM    2  N2  UNL     1      24.773  -6.574  30.521  1.00  0.00    -0.380 N 
ATOM      3  H21 UNL     1      25.362  -7.401  30.431  1.00  0.00     0.158 HD
ATOM      4  H22 UNL     1      23.799  -6.623  30.224  1.00  0.00     0.158 HD
ENDROOT
BRANCH   1   5
HETATM    5  S1  UNL     1      24.252  -4.077  31.146  1.00  0.00    -0.093 SA
BRANCH   5   6
HETATM    6  C4  UNL     1      24.978  -2.990  32.392  1.00  0.00     0.110 C 
BRANCH   6   7
HETATM    7  C3  UNL     1      25.751  -1.860  31.728  1.00  0.00     0.242 C 
BRANCH   7   8
HETATM    8  N1  UNL     1      26.867  -1.430  32.528  1.00  0.00    -0.075 N 
ATOM      9  H12 UNL     1      26.873  -0.419  32.658  1.00  0.00     0.277 HD
ATOM     10  H11 UNL     1      27.751  -1.524  32.027  1.00  0.00     0.277 HD
BRANCH   8  11
HETATM   11  C2  UNL     1      26.888  -2.138  33.800  1.00  0.00     0.228 C 
HETATM   12  C1  UNL     1      28.301  -2.109  34.330  1.00  0.00     0.034 C 
ENDBRANCH   8  11
ENDBRANCH   7   8
ENDBRANCH   6   7
ENDBRANCH   5   6
ENDBRANCH   1   5
BRANCH   1  13
HETATM   13  N3  UNL     1      26.619  -5.451  31.399  1.00  0.00    -0.362 N 
ATOM     14  H3  UNL     1      26.772  -5.531  32.404  1.00  0.00     0.162 HD
BRANCH  13  15
HETATM   15  C6  UNL     1      27.797  -5.286  30.614  1.00  0.00     0.031 C 
HETATM   16  C7  UNL     1      27.486  -4.457  29.373  1.00  0.00     0.039 C 
HETATM   17  C8  UNL     1      28.699  -4.309  31.448  1.00  0.00     0.039 C 
BRANCH  15  18
HETATM   18  C9  UNL     1      28.652  -6.463  30.382  1.00  0.00    -0.027 C 
HETATM   19  C10 UNL     1      28.499  -7.438  31.548  1.00  0.00     0.017 C 
HETATM   20  C11 UNL     1      28.109  -7.165  29.124  1.00  0.00     0.017 C 
HETATM   21  C12 UNL     1      30.109  -6.263  30.184  1.00  0.00     0.017 C 
ENDBRANCH  15  18
ENDBRANCH  13  15
ENDBRANCH   1  13
TORSDOF 8
ENDMDL
MODEL 5
REMARK VINA RESULT: -5.085046733      1.818      1.962
REMARK  8 active torsions:
REMARK  status: ('A' for Active; 'I' for Inactive)
REMARK    1  A    between atoms: C2_2  and  N1_3 
REMARK    2  A    between atoms: N1_3  and  C3_6 
REMARK    3  A    between atoms: C3_6  and  C4_7 
REMARK    4  A    between atoms: C4_7  and  S1_8 
REMARK    5  A    between atoms: S1_8  and  C5_9 
REMARK    6  A    between atoms: C5_9  and  N3_13 
REMARK    7  A    between atoms: N3_13  and  C6_15 
REMARK    8  A    between atoms: C6_15  and  C9_18 
ROOT
HETATM    1  C5  UNL     1      25.060  -3.966  31.525  1.00  0.00     0.134 C 
HETATM    2  N2  UNL     1      23.883  -4.302  31.225  1.00  0.00    -0.380 N 
ATOM      3  H21 UNL     1      23.688  -5.281  31.020  1.00  0.00     0.158 HD
ATOM      4  H22 UNL     1      23.124  -3.623  31.173  1.00  0.00     0.158 HD
ENDROOT
BRANCH   1   5
HETATM    5  S1  UNL     1      25.399  -2.261  31.880  1.00  0.00    -0.093 SA
BRANCH   5   6
HETATM    6  C4  UNL     1      26.527  -2.183  33.290  1.00  0.00     0.110 C 
BRANCH   6   7
HETATM    7  C3  UNL     1      27.309  -0.878  33.276  1.00  0.00     0.242 C 
BRANCH   7   8
HETATM    8  N1  UNL     1      26.478   0.243  32.926  1.00  0.00    -0.075 N 
ATOM      9  H12 UNL     1      26.005   0.632  33.741  1.00  0.00     0.277 HD
ATOM     10  H11 UNL     1      25.656  -0.046  32.396  1.00  0.00     0.277 HD
BRANCH   8  11
HETATM   11  C2  UNL     1      27.251   1.251  32.216  1.00  0.00     0.228 C 
HETATM   12  C1  UNL     1      26.949   1.124  30.742  1.00  0.00     0.034 C 
ENDBRANCH   8  11
ENDBRANCH   7   8
ENDBRANCH   6   7
ENDBRANCH   5   6
ENDBRANCH   1   5
BRANCH   1  13
HETATM   13  N3  UNL     1      26.106  -4.902  31.596  1.00  0.00    -0.362 N 
ATOM     14  H3  UNL     1      26.106  -5.493  32.426  1.00  0.00     0.162 HD
BRANCH  13  15
HETATM   15  C6  UNL     1      27.167  -5.143  30.676  1.00  0.00     0.031 C 
HETATM   16  C7  UNL     1      27.017  -4.241  29.457  1.00  0.00     0.039 C 
HETATM   17  C8  UNL     1      28.443  -4.549  31.372  1.00  0.00     0.039 C 
BRANCH  15  18
HETATM   18  C9  UNL     1      27.531  -6.539  30.380  1.00  0.00    -0.027 C 
HETATM   19  C10 UNL     1      28.460  -7.064  31.474  1.00  0.00     0.017 C 
HETATM   20  C11 UNL     1      26.231  -7.362  30.451  1.00  0.00     0.017 C 
HETATM   21  C12 UNL     1      28.183  -6.852  29.084  1.00  0.00     0.017 C 
ENDBRANCH  15  18
ENDBRANCH  13  15
ENDBRANCH   1  13
TORSDOF 8
ENDMDL
