MODEL 1
REMARK VINA RESULT: -7.028335261      0.000      0.000
REMARK  10 active torsions:
REMARK  status: ('A' for Active; 'I' for Inactive)
REMARK    1  A    between atoms: C2_2  and  N1_3 
REMARK    2  A    between atoms: N1_3  and  C3_5 
REMARK    3  A    between atoms: C4_6  and  N2_7 
REMARK    4  A    between atoms: N2_7  and  C5_9 
REMARK    5  A    between atoms: C5_9  and  C6_10 
REMARK    6  A    between atoms: C6_10  and  O1_11 
REMARK    7  A    between atoms: C7_13  and  C8_14 
REMARK    8  A    between atoms: C8_14  and  N3_15 
REMARK    9  A    between atoms: C9_20  and  N4_21 
REMARK   10  A    between atoms: C12_26  and  N6_27 
ROOT
HETATM    1  C3  UNL     1     -25.552 -21.943 -21.221  1.00  0.00     0.154 C 
HETATM    2  C4  UNL     1     -24.876 -23.059 -20.416  1.00  0.00     0.134 C 
HETATM    3  C7  UNL     1     -23.545 -23.071 -21.139  1.00  0.00     0.174 C 
HETATM    4  O2  UNL     1     -23.235 -21.774 -21.379  1.00  0.00    -0.355 OA
HETATM    5  C9  UNL     1     -24.431 -20.993 -21.140  1.00  0.00     0.255 C 
ENDROOT
BRANCH   5   6
HETATM    6  N4  UNL     1     -24.296 -19.941 -22.093  1.00  0.00    -0.298 N 
HETATM    7  C10 UNL     1     -24.291 -19.850 -23.410  1.00  0.00     0.188 A 
HETATM    8  N5  UNL     1     -24.108 -18.581 -23.762  1.00  0.00    -0.346 N 
HETATM    9  C11 UNL     1     -23.992 -17.825 -22.673  1.00  0.00     0.122 A 
ATOM     10  H5  UNL     1     -24.064 -18.239 -24.721  1.00  0.00     0.167 HD
HETATM   11  C12 UNL     1     -23.787 -16.475 -22.399  1.00  0.00     0.131 A 
HETATM   12  C14 UNL     1     -24.107 -18.675 -21.612  1.00  0.00     0.142 A 
HETATM   13  N7  UNL     1     -23.703 -16.005 -21.129  1.00  0.00    -0.337 N 
HETATM   14  C13 UNL     1     -23.819 -16.865 -20.089  1.00  0.00     0.183 A 
ATOM     15  H7  UNL     1     -23.554 -15.010 -20.959  1.00  0.00     0.168 HD
HETATM   16  N8  UNL     1     -24.016 -18.167 -20.356  1.00  0.00    -0.336 N 
ATOM     17  H8  UNL     1     -24.103 -18.811 -19.569  1.00  0.00     0.168 HD
BRANCH  11  18
HETATM   18  N6  UNL     1     -23.690 -15.705 -23.425  1.00  0.00    -0.383 N 
ATOM     19  H62 UNL     1     -22.824 -15.611 -23.955  1.00  0.00     0.157 HD
ATOM     20  H61 UNL     1     -24.534 -15.189 -23.672  1.00  0.00     0.157 HD
ENDBRANCH  11  18
ENDBRANCH   5   6
BRANCH   1  21
HETATM   21  N1  UNL     1     -26.787 -21.698 -20.622  1.00  0.00    -0.392 N 
ATOM     22  H1  UNL     1     -26.794 -21.136 -19.770  1.00  0.00     0.159 HD
BRANCH  21  23
HETATM   23  C2  UNL     1     -28.026 -22.166 -21.103  1.00  0.00     0.051 C 
HETATM   24  C1  UNL     1     -28.689 -23.318 -20.422  1.00  0.00     0.054 C 
ENDBRANCH  21  23
ENDBRANCH   1  21
BRANCH   2  25
HETATM   25  N2  UNL     1     -25.415 -24.236 -20.077  1.00  0.00    -0.411 N 
ATOM     26  H2  UNL     1     -25.834 -24.825 -20.797  1.00  0.00     0.153 HD
BRANCH  25  27
HETATM   27  C5  UNL     1     -25.408 -24.671 -18.733  1.00  0.00     0.140 C 
BRANCH  27  28
HETATM   28  C6  UNL     1     -25.799 -23.506 -17.788  1.00  0.00     0.183 C 
BRANCH  28  29
HETATM   29  O1  UNL     1     -27.039 -23.845 -17.191  1.00  0.00    -0.399 OA
ATOM     30  H1  UNL     1     -27.562 -23.053 -17.155  1.00  0.00     0.209 HD
ENDBRANCH  28  29
ENDBRANCH  27  28
ENDBRANCH  25  27
ENDBRANCH   2  25
BRANCH   3  31
HETATM   31  C8  UNL     1     -23.474 -23.955 -22.325  1.00  0.00     0.263 C 
BRANCH  31  32
HETATM   32  N3  UNL     1     -22.562 -25.053 -22.098  1.00  0.00    -0.077 N 
ATOM     33  H33 UNL     1     -22.875 -25.651 -21.335  1.00  0.00     0.274 HD
ATOM     34  H32 UNL     1     -22.600 -25.735 -22.855  1.00  0.00     0.274 HD
ATOM     35  H31 UNL     1     -21.612 -24.713 -21.946  1.00  0.00     0.274 HD
ENDBRANCH  31  32
ENDBRANCH   3  31
TORSDOF 10
ENDMDL
MODEL 2
REMARK VINA RESULT: -6.993518533      2.302      6.740
REMARK  10 active torsions:
REMARK  status: ('A' for Active; 'I' for Inactive)
REMARK    1  A    between atoms: C2_2  and  N1_3 
REMARK    2  A    between atoms: N1_3  and  C3_5 
REMARK    3  A    between atoms: C4_6  and  N2_7 
REMARK    4  A    between atoms: N2_7  and  C5_9 
REMARK    5  A    between atoms: C5_9  and  C6_10 
REMARK    6  A    between atoms: C6_10  and  O1_11 
REMARK    7  A    between atoms: C7_13  and  C8_14 
REMARK    8  A    between atoms: C8_14  and  N3_15 
REMARK    9  A    between atoms: C9_20  and  N4_21 
REMARK   10  A    between atoms: C12_26  and  N6_27 
ROOT
HETATM    1  C3  UNL     1     -24.777 -19.799 -22.270  1.00  0.00     0.154 C 
HETATM    2  C4  UNL     1     -23.783 -18.835 -21.612  1.00  0.00     0.134 C 
HETATM    3  C7  UNL     1     -24.500 -18.653 -20.290  1.00  0.00     0.174 C 
HETATM    4  O2  UNL     1     -24.980 -19.874 -19.951  1.00  0.00    -0.355 OA
HETATM    5  C9  UNL     1     -24.883 -20.717 -21.125  1.00  0.00     0.255 C 
ENDROOT
BRANCH   5   6
HETATM    6  N4  UNL     1     -26.016 -21.569 -20.976  1.00  0.00    -0.298 N 
HETATM    7  C10 UNL     1     -27.077 -21.873 -21.701  1.00  0.00     0.188 A 
HETATM    8  N5  UNL     1     -27.831 -22.741 -21.035  1.00  0.00    -0.346 N 
HETATM    9  C11 UNL     1     -27.269 -23.016 -19.861  1.00  0.00     0.122 A 
ATOM     10  H5  UNL     1     -28.708 -23.137 -21.373  1.00  0.00     0.167 HD
HETATM   11  C12 UNL     1     -27.570 -23.816 -18.761  1.00  0.00     0.131 A 
HETATM   12  C14 UNL     1     -26.121 -22.279 -19.812  1.00  0.00     0.142 A 
HETATM   13  N7  UNL     1     -26.763 -23.871 -17.671  1.00  0.00    -0.337 N 
HETATM   14  C13 UNL     1     -25.629 -23.130 -17.642  1.00  0.00     0.183 A 
ATOM     15  H7  UNL     1     -27.009 -24.466 -16.880  1.00  0.00     0.168 HD
HETATM   16  N8  UNL     1     -25.341 -22.361 -18.704  1.00  0.00    -0.336 N 
ATOM     17  H8  UNL     1     -24.486 -21.805 -18.677  1.00  0.00     0.168 HD
BRANCH  11  18
HETATM   18  N6  UNL     1     -28.656 -24.500 -18.848  1.00  0.00    -0.383 N 
ATOM     19  H62 UNL     1     -29.540 -24.170 -18.461  1.00  0.00     0.157 HD
ATOM     20  H61 UNL     1     -28.576 -25.398 -19.324  1.00  0.00     0.157 HD
ENDBRANCH  11  18
ENDBRANCH   5   6
BRANCH   1  21
HETATM   21  N1  UNL     1     -24.225 -20.183 -23.491  1.00  0.00    -0.392 N 
ATOM     22  H1  UNL     1     -23.286 -20.580 -23.479  1.00  0.00     0.159 HD
BRANCH  21  23
HETATM   23  C2  UNL     1     -24.866 -20.066 -24.740  1.00  0.00     0.051 C 
HETATM   24  C1  UNL     1     -25.990 -20.990 -25.078  1.00  0.00     0.054 C 
ENDBRANCH  21  23
ENDBRANCH   1  21
BRANCH   2  25
HETATM   25  N2  UNL     1     -23.227 -17.756 -22.175  1.00  0.00    -0.411 N 
ATOM     26  H2  UNL     1     -22.264 -17.507 -21.947  1.00  0.00     0.153 HD
BRANCH  25  27
HETATM   27  C5  UNL     1     -23.959 -16.957 -23.082  1.00  0.00     0.140 C 
BRANCH  27  28
HETATM   28  C6  UNL     1     -23.674 -15.455 -22.828  1.00  0.00     0.183 C 
BRANCH  28  29
HETATM   29  O1  UNL     1     -23.029 -15.354 -21.571  1.00  0.00    -0.399 OA
ATOM     30  H1  UNL     1     -22.133 -15.084 -21.733  1.00  0.00     0.209 HD
ENDBRANCH  28  29
ENDBRANCH  27  28
ENDBRANCH  25  27
ENDBRANCH   2  25
BRANCH   3  31
HETATM   31  C8  UNL     1     -25.501 -17.562 -20.255  1.00  0.00     0.263 C 
BRANCH  31  32
HETATM   32  N3  UNL     1     -25.010 -16.433 -19.498  1.00  0.00    -0.077 N 
ATOM     33  H33 UNL     1     -25.179 -16.548 -18.499  1.00  0.00     0.274 HD
ATOM     34  H32 UNL     1     -23.991 -16.407 -19.480  1.00  0.00     0.274 HD
ATOM     35  H31 UNL     1     -25.402 -15.559 -19.849  1.00  0.00     0.274 HD
ENDBRANCH  31  32
ENDBRANCH   3  31
TORSDOF 10
ENDMDL
MODEL 3
REMARK VINA RESULT: -6.937849633      2.953      6.342
REMARK  10 active torsions:
REMARK  status: ('A' for Active; 'I' for Inactive)
REMARK    1  A    between atoms: C2_2  and  N1_3 
REMARK    2  A    between atoms: N1_3  and  C3_5 
REMARK    3  A    between atoms: C4_6  and  N2_7 
REMARK    4  A    between atoms: N2_7  and  C5_9 
REMARK    5  A    between atoms: C5_9  and  C6_10 
REMARK    6  A    between atoms: C6_10  and  O1_11 
REMARK    7  A    between atoms: C7_13  and  C8_14 
REMARK    8  A    between atoms: C8_14  and  N3_15 
REMARK    9  A    between atoms: C9_20  and  N4_21 
REMARK   10  A    between atoms: C12_26  and  N6_27 
ROOT
HETATM    1  C3  UNL     1     -24.294 -22.590 -21.030  1.00  0.00     0.154 C 
HETATM    2  C4  UNL     1     -24.883 -21.180 -20.905  1.00  0.00     0.134 C 
HETATM    3  C7  UNL     1     -25.001 -20.863 -22.381  1.00  0.00     0.174 C 
HETATM    4  O2  UNL     1     -25.426 -22.003 -22.978  1.00  0.00    -0.355 OA
HETATM    5  C9  UNL     1     -25.269 -23.078 -22.019  1.00  0.00     0.255 C 
ENDROOT
BRANCH   5   6
HETATM    6  N4  UNL     1     -24.960 -24.186 -22.861  1.00  0.00    -0.298 N 
HETATM    7  C10 UNL     1     -24.158 -25.233 -22.796  1.00  0.00     0.188 A 
HETATM    8  N5  UNL     1     -24.277 -25.948 -23.910  1.00  0.00    -0.346 N 
HETATM    9  C11 UNL     1     -25.162 -25.373 -24.720  1.00  0.00     0.122 A 
ATOM     10  H5  UNL     1     -23.766 -26.806 -24.113  1.00  0.00     0.167 HD
HETATM   11  C12 UNL     1     -25.690 -25.631 -25.983  1.00  0.00     0.131 A 
HETATM   12  C14 UNL     1     -25.599 -24.257 -24.068  1.00  0.00     0.142 A 
HETATM   13  N7  UNL     1     -26.607 -24.814 -26.558  1.00  0.00    -0.337 N 
HETATM   14  C13 UNL     1     -27.027 -23.710 -25.895  1.00  0.00     0.183 A 
ATOM     15  H7  UNL     1     -26.977 -25.029 -27.484  1.00  0.00     0.168 HD
HETATM   16  N8  UNL     1     -26.516 -23.463 -24.677  1.00  0.00    -0.336 N 
ATOM     17  H8  UNL     1     -26.836 -22.631 -24.181  1.00  0.00     0.168 HD
BRANCH  11  18
HETATM   18  N6  UNL     1     -25.258 -26.696 -26.563  1.00  0.00    -0.383 N 
ATOM     19  H62 UNL     1     -24.855 -26.680 -27.499  1.00  0.00     0.157 HD
ATOM     20  H61 UNL     1     -25.349 -27.559 -26.028  1.00  0.00     0.157 HD
ENDBRANCH  11  18
ENDBRANCH   5   6
BRANCH   1  21
HETATM   21  N1  UNL     1     -24.211 -23.113 -19.740  1.00  0.00    -0.392 N 
ATOM     22  H1  UNL     1     -23.344 -22.960 -19.225  1.00  0.00     0.159 HD
BRANCH  21  23
HETATM   23  C2  UNL     1     -25.233 -23.836 -19.093  1.00  0.00     0.051 C 
HETATM   24  C1  UNL     1     -25.861 -23.276 -17.860  1.00  0.00     0.054 C 
ENDBRANCH  21  23
ENDBRANCH   1  21
BRANCH   2  25
HETATM   25  N2  UNL     1     -24.459 -20.208 -20.089  1.00  0.00    -0.411 N 
ATOM     26  H2  UNL     1     -23.641 -20.365 -19.499  1.00  0.00     0.153 HD
BRANCH  25  27
HETATM   27  C5  UNL     1     -25.132 -18.966 -20.036  1.00  0.00     0.140 C 
BRANCH  27  28
HETATM   28  C6  UNL     1     -24.115 -17.799 -20.115  1.00  0.00     0.183 C 
BRANCH  28  29
HETATM   29  O1  UNL     1     -22.949 -18.207 -19.421  1.00  0.00    -0.399 OA
ATOM     30  H1  UNL     1     -23.219 -18.489 -18.555  1.00  0.00     0.209 HD
ENDBRANCH  28  29
ENDBRANCH  27  28
ENDBRANCH  25  27
ENDBRANCH   2  25
BRANCH   3  31
HETATM   31  C8  UNL     1     -23.802 -20.252 -22.998  1.00  0.00     0.263 C 
BRANCH  31  32
HETATM   32  N3  UNL     1     -24.117 -18.967 -23.580  1.00  0.00    -0.077 N 
ATOM     33  H33 UNL     1     -25.102 -18.731 -23.459  1.00  0.00     0.274 HD
ATOM     34  H32 UNL     1     -23.708 -18.201 -23.045  1.00  0.00     0.274 HD
ATOM     35  H31 UNL     1     -23.838 -18.931 -24.560  1.00  0.00     0.274 HD
ENDBRANCH  31  32
ENDBRANCH   3  31
TORSDOF 10
ENDMDL
MODEL 4
REMARK VINA RESULT: -6.719550312      2.458      6.444
REMARK  10 active torsions:
REMARK  status: ('A' for Active; 'I' for Inactive)
REMARK    1  A    between atoms: C2_2  and  N1_3 
REMARK    2  A    between atoms: N1_3  and  C3_5 
REMARK    3  A    between atoms: C4_6  and  N2_7 
REMARK    4  A    between atoms: N2_7  and  C5_9 
REMARK    5  A    between atoms: C5_9  and  C6_10 
REMARK    6  A    between atoms: C6_10  and  O1_11 
REMARK    7  A    between atoms: C7_13  and  C8_14 
REMARK    8  A    between atoms: C8_14  and  N3_15 
REMARK    9  A    between atoms: C9_20  and  N4_21 
REMARK   10  A    between atoms: C12_26  and  N6_27 
ROOT
HETATM    1  C3  UNL     1     -24.556 -21.885 -22.376  1.00  0.00     0.154 C 
HETATM    2  C4  UNL     1     -25.124 -21.343 -21.059  1.00  0.00     0.134 C 
HETATM    3  C7  UNL     1     -25.898 -22.575 -20.635  1.00  0.00     0.174 C 
HETATM    4  O2  UNL     1     -25.117 -23.637 -20.949  1.00  0.00    -0.355 OA
HETATM    5  C9  UNL     1     -24.065 -23.157 -21.822  1.00  0.00     0.255 C 
ENDROOT
BRANCH   5   6
HETATM    6  N4  UNL     1     -23.843 -24.283 -22.668  1.00  0.00    -0.298 N 
HETATM    7  C10 UNL     1     -24.602 -25.144 -23.320  1.00  0.00     0.188 A 
HETATM    8  N5  UNL     1     -23.829 -26.019 -23.955  1.00  0.00    -0.346 N 
HETATM    9  C11 UNL     1     -22.549 -25.737 -23.725  1.00  0.00     0.122 A 
ATOM     10  H5  UNL     1     -24.166 -26.789 -24.532  1.00  0.00     0.167 HD
HETATM   11  C12 UNL     1     -21.316 -26.271 -24.092  1.00  0.00     0.131 A 
HETATM   12  C14 UNL     1     -22.546 -24.642 -22.911  1.00  0.00     0.142 A 
HETATM   13  N7  UNL     1     -20.145 -25.735 -23.665  1.00  0.00    -0.337 N 
HETATM   14  C13 UNL     1     -20.164 -24.649 -22.856  1.00  0.00     0.183 A 
ATOM     15  H7  UNL     1     -19.257 -26.147 -23.951  1.00  0.00     0.168 HD
HETATM   16  N8  UNL     1     -21.354 -24.135 -22.504  1.00  0.00    -0.336 N 
ATOM     17  H8  UNL     1     -21.363 -23.317 -21.894  1.00  0.00     0.168 HD
BRANCH  11  18
HETATM   18  N6  UNL     1     -21.360 -27.299 -24.866  1.00  0.00    -0.383 N 
ATOM     19  H62 UNL     1     -22.182 -27.523 -25.427  1.00  0.00     0.157 HD
ATOM     20  H61 UNL     1     -20.522 -27.879 -24.878  1.00  0.00     0.157 HD
ENDBRANCH  11  18
ENDBRANCH   5   6
BRANCH   1  21
HETATM   21  N1  UNL     1     -23.699 -20.908 -22.883  1.00  0.00    -0.392 N 
ATOM     22  H1  UNL     1     -22.771 -20.834 -22.466  1.00  0.00     0.159 HD
BRANCH  21  23
HETATM   23  C2  UNL     1     -24.017 -20.016 -23.926  1.00  0.00     0.051 C 
HETATM   24  C1  UNL     1     -25.185 -20.308 -24.811  1.00  0.00     0.054 C 
ENDBRANCH  21  23
ENDBRANCH   1  21
BRANCH   2  25
HETATM   25  N2  UNL     1     -25.696 -20.149 -20.868  1.00  0.00    -0.411 N 
ATOM     26  H2  UNL     1     -26.494 -19.874 -21.442  1.00  0.00     0.153 HD
BRANCH  25  27
HETATM   27  C5  UNL     1     -25.206 -19.264 -19.881  1.00  0.00     0.140 C 
BRANCH  27  28
HETATM   28  C6  UNL     1     -24.078 -18.376 -20.466  1.00  0.00     0.183 C 
BRANCH  28  29
HETATM   29  O1  UNL     1     -23.054 -18.298 -19.491  1.00  0.00    -0.399 OA
ATOM     30  H1  UNL     1     -22.274 -17.973 -19.925  1.00  0.00     0.209 HD
ENDBRANCH  28  29
ENDBRANCH  27  28
ENDBRANCH  25  27
ENDBRANCH   2  25
BRANCH   3  31
HETATM   31  C8  UNL     1     -27.287 -22.657 -21.141  1.00  0.00     0.263 C 
BRANCH  31  32
HETATM   32  N3  UNL     1     -28.076 -23.565 -20.339  1.00  0.00    -0.077 N 
ATOM     33  H33 UNL     1     -28.988 -23.170 -20.111  1.00  0.00     0.274 HD
ATOM     34  H32 UNL     1     -28.389 -24.370 -20.881  1.00  0.00     0.274 HD
ATOM     35  H31 UNL     1     -27.568 -23.849 -19.502  1.00  0.00     0.274 HD
ENDBRANCH  31  32
ENDBRANCH   3  31
TORSDOF 10
ENDMDL
MODEL 5
REMARK VINA RESULT: -6.712096073      2.447      6.331
REMARK  10 active torsions:
REMARK  status: ('A' for Active; 'I' for Inactive)
REMARK    1  A    between atoms: C2_2  and  N1_3 
REMARK    2  A    between atoms: N1_3  and  C3_5 
REMARK    3  A    between atoms: C4_6  and  N2_7 
REMARK    4  A    between atoms: N2_7  and  C5_9 
REMARK    5  A    between atoms: C5_9  and  C6_10 
REMARK    6  A    between atoms: C6_10  and  O1_11 
REMARK    7  A    between atoms: C7_13  and  C8_14 
REMARK    8  A    between atoms: C8_14  and  N3_15 
REMARK    9  A    between atoms: C9_20  and  N4_21 
REMARK   10  A    between atoms: C12_26  and  N6_27 
ROOT
HETATM    1  C3  UNL     1     -25.297 -21.097 -23.181  1.00  0.00     0.154 C 
HETATM    2  C4  UNL     1     -24.322 -19.972 -23.546  1.00  0.00     0.134 C 
HETATM    3  C7  UNL     1     -23.649 -19.822 -22.198  1.00  0.00     0.174 C 
HETATM    4  O2  UNL     1     -23.488 -21.079 -21.716  1.00  0.00    -0.355 OA
HETATM    5  C9  UNL     1     -24.300 -21.961 -22.529  1.00  0.00     0.255 C 
ENDROOT
BRANCH   5   6
HETATM    6  N4  UNL     1     -24.701 -22.951 -21.585  1.00  0.00    -0.298 N 
HETATM    7  C10 UNL     1     -24.383 -24.209 -21.337  1.00  0.00     0.188 A 
HETATM    8  N5  UNL     1     -25.106 -24.651 -20.313  1.00  0.00    -0.346 N 
HETATM    9  C11 UNL     1     -25.908 -23.683 -19.879  1.00  0.00     0.122 A 
ATOM     10  H5  UNL     1     -25.054 -25.591 -19.921  1.00  0.00     0.167 HD
HETATM   11  C12 UNL     1     -26.868 -23.540 -18.879  1.00  0.00     0.131 A 
HETATM   12  C14 UNL     1     -25.661 -22.604 -20.676  1.00  0.00     0.142 A 
HETATM   13  N7  UNL     1     -27.544 -22.379 -18.692  1.00  0.00    -0.337 N 
HETATM   14  C13 UNL     1     -27.285 -21.319 -19.497  1.00  0.00     0.183 A 
ATOM     15  H7  UNL     1     -28.241 -22.303 -17.952  1.00  0.00     0.168 HD
HETATM   16  N8  UNL     1     -26.358 -21.459 -20.459  1.00  0.00    -0.336 N 
ATOM     17  H8  UNL     1     -26.167 -20.658 -21.061  1.00  0.00     0.168 HD
BRANCH  11  18
HETATM   18  N6  UNL     1     -27.068 -24.577 -18.144  1.00  0.00    -0.383 N 
ATOM     19  H62 UNL     1     -27.438 -25.450 -18.522  1.00  0.00     0.157 HD
ATOM     20  H61 UNL     1     -26.838 -24.470 -17.157  1.00  0.00     0.157 HD
ENDBRANCH  11  18
ENDBRANCH   5   6
BRANCH   1  21
HETATM   21  N1  UNL     1     -25.954 -21.464 -24.355  1.00  0.00    -0.392 N 
ATOM     22  H1  UNL     1     -26.154 -20.729 -25.033  1.00  0.00     0.159 HD
BRANCH  21  23
HETATM   23  C2  UNL     1     -26.362 -22.775 -24.676  1.00  0.00     0.051 C 
HETATM   24  C1  UNL     1     -26.738 -23.102 -26.084  1.00  0.00     0.054 C 
ENDBRANCH  21  23
ENDBRANCH   1  21
BRANCH   2  25
HETATM   25  N2  UNL     1     -24.609 -18.857 -24.229  1.00  0.00    -0.411 N 
ATOM     26  H2  UNL     1     -25.083 -18.085 -23.759  1.00  0.00     0.153 HD
BRANCH  25  27
HETATM   27  C5  UNL     1     -24.264 -18.739 -25.594  1.00  0.00     0.140 C 
BRANCH  27  28
HETATM   28  C6  UNL     1     -25.452 -18.156 -26.402  1.00  0.00     0.183 C 
BRANCH  28  29
HETATM   29  O1  UNL     1     -26.636 -18.748 -25.896  1.00  0.00    -0.399 OA
ATOM     30  H1  UNL     1     -27.268 -18.051 -25.766  1.00  0.00     0.209 HD
ENDBRANCH  28  29
ENDBRANCH  27  28
ENDBRANCH  25  27
ENDBRANCH   2  25
BRANCH   3  31
HETATM   31  C8  UNL     1     -24.304 -18.880 -21.262  1.00  0.00     0.263 C 
BRANCH  31  32
HETATM   32  N3  UNL     1     -23.444 -18.584 -20.139  1.00  0.00    -0.077 N 
ATOM     33  H33 UNL     1     -23.164 -19.432 -19.646  1.00  0.00     0.274 HD
ATOM     34  H32 UNL     1     -22.523 -18.271 -20.443  1.00  0.00     0.274 HD
ATOM     35  H31 UNL     1     -23.882 -17.910 -19.511  1.00  0.00     0.274 HD
ENDBRANCH  31  32
ENDBRANCH   3  31
TORSDOF 10
ENDMDL
