MODEL 1
REMARK VINA RESULT: -7.336524542      0.000      0.000
REMARK  10 active torsions:
REMARK  status: ('A' for Active; 'I' for Inactive)
REMARK    1  A    between atoms: C2_2  and  C3_3 
REMARK    2  A    between atoms: C4_4  and  C5_5 
REMARK    3  A    between atoms: C7_11  and  N3_12 
REMARK    4  A    between atoms: N3_12  and  C8_13 
REMARK    5  A    between atoms: N3_12  and  C10_17 
REMARK    6  A    between atoms: C8_13  and  C9_14 
REMARK    7  A    between atoms: C9_14  and  O1_15 
REMARK    8  A    between atoms: C10_17  and  C11_18 
REMARK    9  A    between atoms: C11_18  and  O2_19 
REMARK   10  A    between atoms: C12_23  and  N5_24 
REMARK       I    between atoms: N5_24  and  C13_26 
REMARK       I    between atoms: C13_26  and  N6_27 
REMARK       I    between atoms: C13_26  and  N7_31 
ROOT
HETATM    1  C5  UNL     1     -24.750 -19.959 -20.786  1.00  0.00     0.163 A 
HETATM    2  N1  UNL     1     -23.882 -20.538 -21.622  1.00  0.00    -0.319 N 
ATOM      3  H1  UNL     1     -23.175 -20.032 -22.155  1.00  0.00     0.169 HD
HETATM    4  C6  UNL     1     -24.057 -21.867 -21.670  1.00  0.00     0.153 A 
HETATM    5  N2  UNL     1     -23.447 -22.864 -22.346  1.00  0.00    -0.174 N 
ATOM      6  H2  UNL     1     -22.677 -22.641 -22.976  1.00  0.00     0.186 HD
HETATM    7  C7  UNL     1     -23.834 -24.151 -22.205  1.00  0.00     0.683 A 
HETATM    8  N4  UNL     1     -24.836 -24.424 -21.383  1.00  0.00    -0.174 N 
ATOM      9  H4  UNL     1     -25.121 -25.398 -21.285  1.00  0.00     0.186 HD
HETATM   10  C12 UNL     1     -25.514 -23.479 -20.657  1.00  0.00     0.150 A 
HETATM   11  C14 UNL     1     -25.104 -22.159 -20.813  1.00  0.00     0.124 A 
HETATM   12  N8  UNL     1     -25.494 -20.990 -20.299  1.00  0.00    -0.329 N 
ATOM     13  H8  UNL     1     -26.254 -20.882 -19.627  1.00  0.00     0.168 HD
ENDROOT
BRANCH  10  14
HETATM   14  N5  UNL     1     -26.430 -23.828 -19.932  1.00  0.00    -0.325 N 
HETATM   15  C13 UNL     1     -27.251 -23.427 -18.894  1.00  0.00     0.481 C 
HETATM   16  N6  UNL     1     -26.657 -23.533 -17.566  1.00  0.00    -0.033 N 
HETATM   17  N7  UNL     1     -28.468 -24.276 -18.832  1.00  0.00    -0.033 N 
ATOM     18  H63 UNL     1     -26.321 -24.483 -17.404  1.00  0.00     0.278 HD
ATOM     19  H62 UNL     1     -25.772 -23.025 -17.534  1.00  0.00     0.278 HD
ATOM     20  H61 UNL     1     -27.263 -23.237 -16.801  1.00  0.00     0.278 HD
ATOM     21  H73 UNL     1     -28.965 -24.292 -19.722  1.00  0.00     0.278 HD
ATOM     22  H72 UNL     1     -28.235 -25.267 -18.769  1.00  0.00     0.278 HD
ATOM     23  H71 UNL     1     -29.074 -23.980 -18.066  1.00  0.00     0.278 HD
ATOM     24  H5  UNL     1     -26.691 -24.779 -20.189  1.00  0.00     0.165 HD
ENDBRANCH  10  14
BRANCH   7  25
HETATM   25  N3  UNL     1     -23.131 -25.123 -22.961  1.00  0.00    -0.213 N 
BRANCH  25  26
HETATM   26  C8  UNL     1     -23.911 -26.121 -23.661  1.00  0.00     0.167 C 
BRANCH  26  27
HETATM   27  C9  UNL     1     -24.877 -25.466 -24.639  1.00  0.00     0.184 C 
BRANCH  27  28
HETATM   28  O1  UNL     1     -24.883 -26.182 -25.846  1.00  0.00    -0.399 OA
ATOM     29  H1  UNL     1     -24.047 -26.072 -26.285  1.00  0.00     0.209 HD
ENDBRANCH  27  28
ENDBRANCH  26  27
ENDBRANCH  25  26
BRANCH  25  30
HETATM   30  C10 UNL     1     -21.694 -25.065 -22.998  1.00  0.00     0.167 C 
BRANCH  30  31
HETATM   31  C11 UNL     1     -21.100 -26.073 -23.955  1.00  0.00     0.184 C 
BRANCH  31  32
HETATM   32  O2  UNL     1     -20.281 -26.988 -23.311  1.00  0.00    -0.399 OA
ATOM     33  H2  UNL     1     -20.776 -27.685 -22.899  1.00  0.00     0.209 HD
ENDBRANCH  31  32
ENDBRANCH  30  31
ENDBRANCH  25  30
ENDBRANCH   7  25
BRANCH   1  34
HETATM   34  C4  UNL     1     -24.873 -18.567 -20.472  1.00  0.00    -0.030 C 
HETATM   35  C3  UNL     1     -24.975 -17.380 -20.227  1.00  0.00    -0.099 C 
BRANCH  35  36
HETATM   36  C2  UNL     1     -25.095 -15.941 -19.920  1.00  0.00     0.090 C 
HETATM   37  C1  UNL     1     -23.834 -15.404 -19.287  1.00  0.00     0.018 C 
ENDBRANCH  35  36
ENDBRANCH   1  34
TORSDOF 10
ENDMDL
MODEL 2
REMARK VINA RESULT: -7.275604118      0.102      2.037
REMARK  10 active torsions:
REMARK  status: ('A' for Active; 'I' for Inactive)
REMARK    1  A    between atoms: C2_2  and  C3_3 
REMARK    2  A    between atoms: C4_4  and  C5_5 
REMARK    3  A    between atoms: C7_11  and  N3_12 
REMARK    4  A    between atoms: N3_12  and  C8_13 
REMARK    5  A    between atoms: N3_12  and  C10_17 
REMARK    6  A    between atoms: C8_13  and  C9_14 
REMARK    7  A    between atoms: C9_14  and  O1_15 
REMARK    8  A    between atoms: C10_17  and  C11_18 
REMARK    9  A    between atoms: C11_18  and  O2_19 
REMARK   10  A    between atoms: C12_23  and  N5_24 
REMARK       I    between atoms: N5_24  and  C13_26 
REMARK       I    between atoms: C13_26  and  N6_27 
REMARK       I    between atoms: C13_26  and  N7_31 
ROOT
HETATM    1  C5  UNL     1     -24.733 -20.004 -20.809  1.00  0.00     0.163 A 
HETATM    2  N1  UNL     1     -23.866 -20.593 -21.640  1.00  0.00    -0.319 N 
ATOM      3  H1  UNL     1     -23.142 -20.097 -22.159  1.00  0.00     0.169 HD
HETATM    4  C6  UNL     1     -24.069 -21.917 -21.704  1.00  0.00     0.153 A 
HETATM    5  N2  UNL     1     -23.470 -22.920 -22.383  1.00  0.00    -0.174 N 
ATOM      6  H2  UNL     1     -22.687 -22.707 -23.000  1.00  0.00     0.186 HD
HETATM    7  C7  UNL     1     -23.887 -24.199 -22.260  1.00  0.00     0.683 A 
HETATM    8  N4  UNL     1     -24.906 -24.460 -21.455  1.00  0.00    -0.174 N 
ATOM      9  H4  UNL     1     -25.213 -25.429 -21.370  1.00  0.00     0.186 HD
HETATM   10  C12 UNL     1     -25.573 -23.508 -20.728  1.00  0.00     0.150 A 
HETATM   11  C14 UNL     1     -25.133 -22.196 -20.864  1.00  0.00     0.124 A 
HETATM   12  N8  UNL     1     -25.506 -21.023 -20.343  1.00  0.00    -0.329 N 
ATOM     13  H8  UNL     1     -26.272 -20.907 -19.680  1.00  0.00     0.168 HD
ENDROOT
BRANCH  10  14
HETATM   14  N5  UNL     1     -26.506 -23.844 -20.018  1.00  0.00    -0.325 N 
HETATM   15  C13 UNL     1     -27.314 -23.448 -18.968  1.00  0.00     0.481 C 
HETATM   16  N6  UNL     1     -26.730 -23.630 -17.644  1.00  0.00    -0.033 N 
HETATM   17  N7  UNL     1     -28.566 -24.247 -18.941  1.00  0.00    -0.033 N 
ATOM     18  H63 UNL     1     -26.436 -24.599 -17.517  1.00  0.00     0.278 HD
ATOM     19  H62 UNL     1     -25.825 -23.162 -17.590  1.00  0.00     0.278 HD
ATOM     20  H61 UNL     1     -27.325 -23.338 -16.870  1.00  0.00     0.278 HD
ATOM     21  H73 UNL     1     -29.059 -24.208 -19.833  1.00  0.00     0.278 HD
ATOM     22  H72 UNL     1     -28.375 -25.249 -18.915  1.00  0.00     0.278 HD
ATOM     23  H71 UNL     1     -29.162 -23.955 -18.167  1.00  0.00     0.278 HD
ATOM     24  H5  UNL     1     -26.806 -24.774 -20.312  1.00  0.00     0.165 HD
ENDBRANCH  10  14
BRANCH   7  25
HETATM   25  N3  UNL     1     -23.194 -25.179 -23.017  1.00  0.00    -0.213 N 
BRANCH  25  26
HETATM   26  C8  UNL     1     -21.747 -25.155 -22.981  1.00  0.00     0.167 C 
BRANCH  26  27
HETATM   27  C9  UNL     1     -21.164 -26.132 -23.993  1.00  0.00     0.184 C 
BRANCH  27  28
HETATM   28  O1  UNL     1     -20.398 -27.099 -23.325  1.00  0.00    -0.399 OA
ATOM     29  H1  UNL     1     -20.865 -27.399 -22.554  1.00  0.00     0.209 HD
ENDBRANCH  27  28
ENDBRANCH  26  27
ENDBRANCH  25  26
BRANCH  25  30
HETATM   30  C10 UNL     1     -23.957 -26.141 -23.768  1.00  0.00     0.167 C 
BRANCH  30  31
HETATM   31  C11 UNL     1     -24.895 -25.488 -24.757  1.00  0.00     0.184 C 
BRANCH  31  32
HETATM   32  O2  UNL     1     -24.896 -26.133 -25.983  1.00  0.00    -0.399 OA
ATOM     33  H2  UNL     1     -25.357 -26.962 -25.953  1.00  0.00     0.209 HD
ENDBRANCH  31  32
ENDBRANCH  30  31
ENDBRANCH  25  30
ENDBRANCH   7  25
BRANCH   1  34
HETATM   34  C4  UNL     1     -24.831 -18.613 -20.482  1.00  0.00    -0.030 C 
HETATM   35  C3  UNL     1     -24.932 -17.430 -20.218  1.00  0.00    -0.099 C 
BRANCH  35  36
HETATM   36  C2  UNL     1     -25.044 -15.994 -19.897  1.00  0.00     0.090 C 
HETATM   37  C1  UNL     1     -23.770 -15.464 -19.284  1.00  0.00     0.018 C 
ENDBRANCH  35  36
ENDBRANCH   1  34
TORSDOF 10
ENDMDL
MODEL 3
REMARK VINA RESULT: -7.252811863      3.897      7.457
REMARK  10 active torsions:
REMARK  status: ('A' for Active; 'I' for Inactive)
REMARK    1  A    between atoms: C2_2  and  C3_3 
REMARK    2  A    between atoms: C4_4  and  C5_5 
REMARK    3  A    between atoms: C7_11  and  N3_12 
REMARK    4  A    between atoms: N3_12  and  C8_13 
REMARK    5  A    between atoms: N3_12  and  C10_17 
REMARK    6  A    between atoms: C8_13  and  C9_14 
REMARK    7  A    between atoms: C9_14  and  O1_15 
REMARK    8  A    between atoms: C10_17  and  C11_18 
REMARK    9  A    between atoms: C11_18  and  O2_19 
REMARK   10  A    between atoms: C12_23  and  N5_24 
REMARK       I    between atoms: N5_24  and  C13_26 
REMARK       I    between atoms: C13_26  and  N6_27 
REMARK       I    between atoms: C13_26  and  N7_31 
ROOT
HETATM    1  C5  UNL     1     -22.683 -23.111 -22.364  1.00  0.00     0.163 A 
HETATM    2  N1  UNL     1     -22.351 -21.828 -22.542  1.00  0.00    -0.319 N 
ATOM      3  H1  UNL     1     -21.515 -21.515 -23.035  1.00  0.00     0.169 HD
HETATM    4  C6  UNL     1     -23.255 -21.005 -21.990  1.00  0.00     0.153 A 
HETATM    5  N2  UNL     1     -23.362 -19.661 -21.905  1.00  0.00    -0.174 N 
ATOM      6  H2  UNL     1     -22.642 -19.075 -22.326  1.00  0.00     0.186 HD
HETATM    7  C7  UNL     1     -24.405 -19.077 -21.274  1.00  0.00     0.683 A 
HETATM    8  N4  UNL     1     -25.332 -19.852 -20.732  1.00  0.00    -0.174 N 
ATOM      9  H4  UNL     1     -26.114 -19.401 -20.258  1.00  0.00     0.186 HD
HETATM   10  C12 UNL     1     -25.306 -21.222 -20.769  1.00  0.00     0.150 A 
HETATM   11  C14 UNL     1     -24.227 -21.809 -21.422  1.00  0.00     0.124 A 
HETATM   12  N8  UNL     1     -23.851 -23.067 -21.666  1.00  0.00    -0.329 N 
ATOM     13  H8  UNL     1     -24.374 -23.891 -21.368  1.00  0.00     0.168 HD
ENDROOT
BRANCH  10  14
HETATM   14  N5  UNL     1     -26.203 -21.851 -20.233  1.00  0.00    -0.325 N 
HETATM   15  C13 UNL     1     -26.511 -22.671 -19.163  1.00  0.00     0.481 C 
HETATM   16  N6  UNL     1     -26.143 -24.071 -19.340  1.00  0.00    -0.033 N 
HETATM   17  N7  UNL     1     -27.977 -22.693 -18.926  1.00  0.00    -0.033 N 
ATOM     18  H63 UNL     1     -26.555 -24.440 -20.198  1.00  0.00     0.278 HD
ATOM     19  H62 UNL     1     -25.153 -24.150 -19.572  1.00  0.00     0.278 HD
ATOM     20  H61 UNL     1     -26.371 -24.676 -18.551  1.00  0.00     0.278 HD
ATOM     21  H73 UNL     1     -28.355 -21.754 -18.804  1.00  0.00     0.278 HD
ATOM     22  H72 UNL     1     -28.492 -22.957 -19.766  1.00  0.00     0.278 HD
ATOM     23  H71 UNL     1     -28.205 -23.298 -18.137  1.00  0.00     0.278 HD
ATOM     24  H5  UNL     1     -27.051 -21.722 -20.785  1.00  0.00     0.165 HD
ENDBRANCH  10  14
BRANCH   7  25
HETATM   25  N3  UNL     1     -24.425 -17.659 -21.238  1.00  0.00    -0.213 N 
BRANCH  25  26
HETATM   26  C8  UNL     1     -23.824 -16.951 -22.348  1.00  0.00     0.167 C 
BRANCH  26  27
HETATM   27  C9  UNL     1     -24.827 -16.002 -22.991  1.00  0.00     0.184 C 
BRANCH  27  28
HETATM   28  O1  UNL     1     -24.435 -14.675 -22.756  1.00  0.00    -0.399 OA
ATOM     29  H1  UNL     1     -24.424 -14.196 -23.577  1.00  0.00     0.209 HD
ENDBRANCH  27  28
ENDBRANCH  26  27
ENDBRANCH  25  26
BRANCH  25  30
HETATM   30  C10 UNL     1     -25.040 -17.004 -20.114  1.00  0.00     0.167 C 
BRANCH  30  31
HETATM   31  C11 UNL     1     -24.112 -16.019 -19.440  1.00  0.00     0.184 C 
BRANCH  31  32
HETATM   32  O2  UNL     1     -24.514 -14.707 -19.629  1.00  0.00    -0.399 OA
ATOM     33  H2  UNL     1     -23.790 -14.139 -19.863  1.00  0.00     0.209 HD
ENDBRANCH  31  32
ENDBRANCH  30  31
ENDBRANCH  25  30
ENDBRANCH   7  25
BRANCH   1  34
HETATM   34  C4  UNL     1     -21.971 -24.273 -22.805  1.00  0.00    -0.030 C 
HETATM   35  C3  UNL     1     -21.372 -25.255 -23.201  1.00  0.00    -0.099 C 
BRANCH  35  36
HETATM   36  C2  UNL     1     -20.647 -26.450 -23.672  1.00  0.00     0.090 C 
HETATM   37  C1  UNL     1     -21.248 -26.994 -24.948  1.00  0.00     0.018 C 
ENDBRANCH  35  36
ENDBRANCH   1  34
TORSDOF 10
ENDMDL
MODEL 4
REMARK VINA RESULT: -7.240610332      3.902      7.520
REMARK  10 active torsions:
REMARK  status: ('A' for Active; 'I' for Inactive)
REMARK    1  A    between atoms: C2_2  and  C3_3 
REMARK    2  A    between atoms: C4_4  and  C5_5 
REMARK    3  A    between atoms: C7_11  and  N3_12 
REMARK    4  A    between atoms: N3_12  and  C8_13 
REMARK    5  A    between atoms: N3_12  and  C10_17 
REMARK    6  A    between atoms: C8_13  and  C9_14 
REMARK    7  A    between atoms: C9_14  and  O1_15 
REMARK    8  A    between atoms: C10_17  and  C11_18 
REMARK    9  A    between atoms: C11_18  and  O2_19 
REMARK   10  A    between atoms: C12_23  and  N5_24 
REMARK       I    between atoms: N5_24  and  C13_26 
REMARK       I    between atoms: C13_26  and  N6_27 
REMARK       I    between atoms: C13_26  and  N7_31 
ROOT
HETATM    1  C5  UNL     1     -22.678 -23.116 -22.370  1.00  0.00     0.163 A 
HETATM    2  N1  UNL     1     -22.348 -21.834 -22.560  1.00  0.00    -0.319 N 
ATOM      3  H1  UNL     1     -21.517 -21.524 -23.062  1.00  0.00     0.169 HD
HETATM    4  C6  UNL     1     -23.248 -21.008 -22.006  1.00  0.00     0.153 A 
HETATM    5  N2  UNL     1     -23.357 -19.663 -21.929  1.00  0.00    -0.174 N 
ATOM      6  H2  UNL     1     -22.641 -19.080 -22.360  1.00  0.00     0.186 HD
HETATM    7  C7  UNL     1     -24.394 -19.077 -21.293  1.00  0.00     0.683 A 
HETATM    8  N4  UNL     1     -25.316 -19.848 -20.738  1.00  0.00    -0.174 N 
ATOM      9  H4  UNL     1     -26.095 -19.395 -20.260  1.00  0.00     0.186 HD
HETATM   10  C12 UNL     1     -25.288 -21.219 -20.766  1.00  0.00     0.150 A 
HETATM   11  C14 UNL     1     -24.214 -21.809 -21.423  1.00  0.00     0.124 A 
HETATM   12  N8  UNL     1     -23.839 -23.069 -21.663  1.00  0.00    -0.329 N 
ATOM     13  H8  UNL     1     -24.358 -23.891 -21.355  1.00  0.00     0.168 HD
ENDROOT
BRANCH  10  14
HETATM   14  N5  UNL     1     -26.180 -21.845 -20.218  1.00  0.00    -0.325 N 
HETATM   15  C13 UNL     1     -26.476 -22.665 -19.144  1.00  0.00     0.481 C 
HETATM   16  N6  UNL     1     -26.115 -24.066 -19.326  1.00  0.00    -0.033 N 
HETATM   17  N7  UNL     1     -27.939 -22.682 -18.887  1.00  0.00    -0.033 N 
ATOM     18  H63 UNL     1     -26.541 -24.433 -20.178  1.00  0.00     0.278 HD
ATOM     19  H62 UNL     1     -25.128 -24.148 -19.572  1.00  0.00     0.278 HD
ATOM     20  H61 UNL     1     -26.334 -24.671 -18.534  1.00  0.00     0.278 HD
ATOM     21  H73 UNL     1     -28.312 -21.742 -18.759  1.00  0.00     0.278 HD
ATOM     22  H72 UNL     1     -28.466 -22.944 -19.720  1.00  0.00     0.278 HD
ATOM     23  H71 UNL     1     -28.157 -23.287 -18.095  1.00  0.00     0.278 HD
ATOM     24  H5  UNL     1     -27.035 -21.713 -20.757  1.00  0.00     0.165 HD
ENDBRANCH  10  14
BRANCH   7  25
HETATM   25  N3  UNL     1     -24.415 -17.659 -21.266  1.00  0.00    -0.213 N 
BRANCH  25  26
HETATM   26  C8  UNL     1     -25.048 -17.019 -20.132  1.00  0.00     0.167 C 
BRANCH  26  27
HETATM   27  C9  UNL     1     -24.098 -16.031 -19.468  1.00  0.00     0.184 C 
BRANCH  27  28
HETATM   28  O1  UNL     1     -24.569 -14.723 -19.663  1.00  0.00    -0.399 OA
ATOM     29  H1  UNL     1     -24.032 -14.114 -19.168  1.00  0.00     0.209 HD
ENDBRANCH  27  28
ENDBRANCH  26  27
ENDBRANCH  25  26
BRANCH  25  30
HETATM   30  C10 UNL     1     -23.809 -16.936 -22.352  1.00  0.00     0.167 C 
BRANCH  30  31
HETATM   31  C11 UNL     1     -24.779 -15.999 -23.036  1.00  0.00     0.184 C 
BRANCH  31  32
HETATM   32  O2  UNL     1     -24.498 -14.669 -22.770  1.00  0.00    -0.399 OA
ATOM     33  H2  UNL     1     -24.791 -14.406 -21.906  1.00  0.00     0.209 HD
ENDBRANCH  31  32
ENDBRANCH  30  31
ENDBRANCH  25  30
ENDBRANCH   7  25
BRANCH   1  34
HETATM   34  C4  UNL     1     -21.968 -24.280 -22.810  1.00  0.00    -0.030 C 
HETATM   35  C3  UNL     1     -21.367 -25.261 -23.204  1.00  0.00    -0.099 C 
BRANCH  35  36
HETATM   36  C2  UNL     1     -20.642 -26.457 -23.675  1.00  0.00     0.090 C 
HETATM   37  C1  UNL     1     -21.231 -26.991 -24.959  1.00  0.00     0.018 C 
ENDBRANCH  35  36
ENDBRANCH   1  34
TORSDOF 10
ENDMDL
MODEL 5
REMARK VINA RESULT: -6.883651358      4.162      5.968
REMARK  10 active torsions:
REMARK  status: ('A' for Active; 'I' for Inactive)
REMARK    1  A    between atoms: C2_2  and  C3_3 
REMARK    2  A    between atoms: C4_4  and  C5_5 
REMARK    3  A    between atoms: C7_11  and  N3_12 
REMARK    4  A    between atoms: N3_12  and  C8_13 
REMARK    5  A    between atoms: N3_12  and  C10_17 
REMARK    6  A    between atoms: C8_13  and  C9_14 
REMARK    7  A    between atoms: C9_14  and  O1_15 
REMARK    8  A    between atoms: C10_17  and  C11_18 
REMARK    9  A    between atoms: C11_18  and  O2_19 
REMARK   10  A    between atoms: C12_23  and  N5_24 
REMARK       I    between atoms: N5_24  and  C13_26 
REMARK       I    between atoms: C13_26  and  N6_27 
REMARK       I    between atoms: C13_26  and  N7_31 
ROOT
HETATM    1  C5  UNL     1     -24.142 -19.059 -24.333  1.00  0.00     0.163 A 
HETATM    2  N1  UNL     1     -24.395 -20.328 -23.995  1.00  0.00    -0.319 N 
ATOM      3  H1  UNL     1     -24.532 -21.084 -24.665  1.00  0.00     0.169 HD
HETATM    4  C6  UNL     1     -24.445 -20.481 -22.663  1.00  0.00     0.153 A 
HETATM    5  N2  UNL     1     -24.664 -21.540 -21.853  1.00  0.00    -0.174 N 
ATOM      6  H2  UNL     1     -24.836 -22.456 -22.266  1.00  0.00     0.186 HD
HETATM    7  C7  UNL     1     -24.659 -21.411 -20.509  1.00  0.00     0.683 A 
HETATM    8  N4  UNL     1     -24.435 -20.214 -19.988  1.00  0.00    -0.174 N 
ATOM      9  H4  UNL     1     -24.434 -20.127 -18.972  1.00  0.00     0.186 HD
HETATM   10  C12 UNL     1     -24.203 -19.084 -20.730  1.00  0.00     0.150 A 
HETATM   11  C14 UNL     1     -24.211 -19.233 -22.113  1.00  0.00     0.124 A 
HETATM   12  N8  UNL     1     -24.033 -18.404 -23.145  1.00  0.00    -0.329 N 
ATOM     13  H8  UNL     1     -23.839 -17.407 -23.055  1.00  0.00     0.168 HD
ENDROOT
BRANCH  10  14
HETATM   14  N5  UNL     1     -24.014 -18.023 -20.159  1.00  0.00    -0.325 N 
HETATM   15  C13 UNL     1     -24.274 -16.666 -20.204  1.00  0.00     0.481 C 
HETATM   16  N6  UNL     1     -23.410 -15.907 -21.101  1.00  0.00    -0.033 N 
HETATM   17  N7  UNL     1     -24.066 -16.049 -18.869  1.00  0.00    -0.033 N 
ATOM     18  H63 UNL     1     -22.429 -16.072 -20.871  1.00  0.00     0.278 HD
ATOM     19  H62 UNL     1     -23.440 -16.304 -22.040  1.00  0.00     0.278 HD
ATOM     20  H61 UNL     1     -23.601 -14.906 -21.134  1.00  0.00     0.278 HD
ATOM     21  H73 UNL     1     -24.615 -16.515 -18.146  1.00  0.00     0.278 HD
ATOM     22  H72 UNL     1     -23.134 -16.245 -18.502  1.00  0.00     0.278 HD
ATOM     23  H71 UNL     1     -24.257 -15.048 -18.902  1.00  0.00     0.278 HD
ATOM     24  H5  UNL     1     -23.449 -18.208 -19.330  1.00  0.00     0.165 HD
ENDBRANCH  10  14
BRANCH   7  25
HETATM   25  N3  UNL     1     -24.902 -22.582 -19.747  1.00  0.00    -0.213 N 
BRANCH  25  26
HETATM   26  C8  UNL     1     -25.385 -22.414 -18.393  1.00  0.00     0.167 C 
BRANCH  26  27
HETATM   27  C9  UNL     1     -25.702 -23.762 -17.760  1.00  0.00     0.184 C 
BRANCH  27  28
HETATM   28  O1  UNL     1     -26.999 -23.736 -17.224  1.00  0.00    -0.399 OA
ATOM     29  H1  UNL     1     -27.421 -24.575 -17.370  1.00  0.00     0.209 HD
ENDBRANCH  27  28
ENDBRANCH  26  27
ENDBRANCH  25  26
BRANCH  25  30
HETATM   30  C10 UNL     1     -24.664 -23.865 -20.354  1.00  0.00     0.167 C 
BRANCH  30  31
HETATM   31  C11 UNL     1     -23.211 -24.277 -20.282  1.00  0.00     0.184 C 
BRANCH  31  32
HETATM   32  O2  UNL     1     -23.024 -25.405 -19.500  1.00  0.00    -0.399 OA
ATOM     33  H2  UNL     1     -23.009 -26.202 -20.016  1.00  0.00     0.209 HD
ENDBRANCH  31  32
ENDBRANCH  30  31
ENDBRANCH  25  30
ENDBRANCH   7  25
BRANCH   1  34
HETATM   34  C4  UNL     1     -24.016 -18.509 -25.650  1.00  0.00    -0.030 C 
HETATM   35  C3  UNL     1     -23.890 -18.054 -26.771  1.00  0.00    -0.099 C 
BRANCH  35  36
HETATM   36  C2  UNL     1     -23.742 -17.494 -28.128  1.00  0.00     0.090 C 
HETATM   37  C1  UNL     1     -23.996 -16.005 -28.141  1.00  0.00     0.018 C 
ENDBRANCH  35  36
ENDBRANCH   1  34
TORSDOF 10
ENDMDL
