MODEL 1
REMARK VINA RESULT: -7.097224252      0.000      0.000
REMARK  10 active torsions:
REMARK  status: ('A' for Active; 'I' for Inactive)
REMARK    1  A    between atoms: N1_1  and  N2_4 
REMARK    2  A    between atoms: N2_4  and  C1_6 
REMARK    3  A    between atoms: C2_9  and  N4_10 
REMARK    4  A    between atoms: N4_10  and  C3_12 
REMARK    5  A    between atoms: C3_12  and  C4_13 
REMARK    6  A    between atoms: C4_13  and  C5_14 
REMARK    7  A    between atoms: C5_14  and  C6_15 
REMARK    8  A    between atoms: C6_15  and  S1_16 
REMARK    9  A    between atoms: S1_16  and  N5_19 
REMARK   10  A    between atoms: N5_19  and  C7_21 
ROOT
HETATM    1  N4  UNL     1     -24.936 -23.543 -18.915  1.00  0.00    -0.394 N 
ATOM      2  H4  UNL     1     -24.220 -23.165 -18.294  1.00  0.00     0.155 HD
ENDROOT
BRANCH   1   3
HETATM    3  C2  UNL     1     -24.640 -23.966 -20.245  1.00  0.00     0.274 A 
HETATM    4  N3  UNL     1     -23.821 -23.001 -20.959  1.00  0.00    -0.332 N 
HETATM    5  C1  UNL     1     -22.753 -23.496 -21.425  1.00  0.00     0.198 A 
ATOM      6  H3  UNL     1     -24.080 -22.021 -21.073  1.00  0.00     0.165 HD
HETATM    7  N8  UNL     1     -22.687 -24.899 -21.100  1.00  0.00    -0.294 N 
HETATM    8  C8  UNL     1     -23.861 -25.204 -20.371  1.00  0.00     0.266 A 
ATOM      9  H8  UNL     1     -21.940 -25.547 -21.348  1.00  0.00     0.172 HD
HETATM   10  O3  UNL     1     -24.163 -26.325 -19.925  1.00  0.00    -0.269 OA
BRANCH   5  11
HETATM   11  N2  UNL     1     -21.745 -22.795 -22.172  1.00  0.00    -0.278 N 
ATOM     12  H2  UNL     1     -20.890 -23.280 -22.439  1.00  0.00     0.189 HD
BRANCH  11  13
HETATM   13  N1  UNL     1     -21.918 -21.467 -22.537  1.00  0.00    -0.343 N 
ATOM     14  H12 UNL     1     -21.703 -21.195 -23.496  1.00  0.00     0.176 HD
ATOM     15  H11 UNL     1     -22.250 -20.776 -21.865  1.00  0.00     0.176 HD
ENDBRANCH  11  13
ENDBRANCH   5  11
ENDBRANCH   1   3
BRANCH   1  16
HETATM   16  C3  UNL     1     -26.292 -23.680 -18.508  1.00  0.00     0.116 C 
BRANCH  16  17
HETATM   17  C4  UNL     1     -27.169 -22.795 -19.372  1.00  0.00     0.020 C 
BRANCH  17  18
HETATM   18  C5  UNL     1     -27.064 -21.332 -19.018  1.00  0.00     0.018 C 
BRANCH  18  19
HETATM   19  C6  UNL     1     -26.933 -20.558 -20.296  1.00  0.00     0.163 C 
BRANCH  19  20
HETATM   20  S1  UNL     1     -25.268 -20.012 -20.613  1.00  0.00     0.232 S 
HETATM   21  O1  UNL     1     -24.770 -20.503 -21.935  1.00  0.00    -0.206 OA
HETATM   22  O2  UNL     1     -24.372 -20.509 -19.492  1.00  0.00    -0.206 OA
BRANCH  20  23
HETATM   23  N5  UNL     1     -25.286 -18.294 -20.604  1.00  0.00    -0.262 N 
ATOM     24  H5  UNL     1     -25.968 -17.803 -20.026  1.00  0.00     0.180 HD
BRANCH  23  25
HETATM   25  C7  UNL     1     -24.452 -17.612 -21.317  1.00  0.00     0.191 A 
HETATM   26  N6  UNL     1     -23.415 -17.833 -22.113  1.00  0.00    -0.272 N 
HETATM   27  N7  UNL     1     -23.070 -16.627 -22.485  1.00  0.00    -0.265 N 
ATOM     28  H6  UNL     1     -22.990 -18.724 -22.372  1.00  0.00     0.189 HD
HETATM   29  S2  UNL     1     -24.300 -15.959 -21.576  1.00  0.00     0.041 SA
ATOM     30  H7  UNL     1     -22.342 -16.246 -23.089  1.00  0.00     0.195 HD
ENDBRANCH  23  25
ENDBRANCH  20  23
ENDBRANCH  19  20
ENDBRANCH  18  19
ENDBRANCH  17  18
ENDBRANCH  16  17
ENDBRANCH   1  16
TORSDOF 10
ENDMDL
MODEL 2
REMARK VINA RESULT: -6.764982022      1.658      1.903
REMARK  10 active torsions:
REMARK  status: ('A' for Active; 'I' for Inactive)
REMARK    1  A    between atoms: N1_1  and  N2_4 
REMARK    2  A    between atoms: N2_4  and  C1_6 
REMARK    3  A    between atoms: C2_9  and  N4_10 
REMARK    4  A    between atoms: N4_10  and  C3_12 
REMARK    5  A    between atoms: C3_12  and  C4_13 
REMARK    6  A    between atoms: C4_13  and  C5_14 
REMARK    7  A    between atoms: C5_14  and  C6_15 
REMARK    8  A    between atoms: C6_15  and  S1_16 
REMARK    9  A    between atoms: S1_16  and  N5_19 
REMARK   10  A    between atoms: N5_19  and  C7_21 
ROOT
HETATM    1  N4  UNL     1     -25.898 -23.647 -20.299  1.00  0.00    -0.394 N 
ATOM      2  H4  UNL     1     -26.864 -23.975 -20.268  1.00  0.00     0.155 HD
ENDROOT
BRANCH   1   3
HETATM    3  C2  UNL     1     -24.915 -24.262 -21.130  1.00  0.00     0.274 A 
HETATM    4  N3  UNL     1     -24.086 -23.286 -21.815  1.00  0.00    -0.332 N 
HETATM    5  C1  UNL     1     -22.847 -23.447 -21.609  1.00  0.00     0.198 A 
ATOM      6  H3  UNL     1     -24.464 -22.544 -22.404  1.00  0.00     0.165 HD
HETATM    7  N8  UNL     1     -22.643 -24.581 -20.744  1.00  0.00    -0.294 N 
HETATM    8  C8  UNL     1     -23.924 -25.102 -20.445  1.00  0.00     0.266 A 
ATOM      9  H8  UNL     1     -21.748 -24.941 -20.412  1.00  0.00     0.172 HD
HETATM   10  O3  UNL     1     -24.152 -26.093 -19.729  1.00  0.00    -0.269 OA
BRANCH   5  11
HETATM   11  N2  UNL     1     -21.784 -22.641 -22.146  1.00  0.00    -0.278 N 
ATOM     12  H2  UNL     1     -20.844 -23.030 -22.209  1.00  0.00     0.189 HD
BRANCH  11  13
HETATM   13  N1  UNL     1     -22.016 -21.344 -22.579  1.00  0.00    -0.343 N 
ATOM     14  H12 UNL     1     -22.261 -21.195 -23.557  1.00  0.00     0.176 HD
ATOM     15  H11 UNL     1     -21.945 -20.554 -21.938  1.00  0.00     0.176 HD
ENDBRANCH  11  13
ENDBRANCH   5  11
ENDBRANCH   1   3
BRANCH   1  16
HETATM   16  C3  UNL     1     -25.450 -22.547 -19.518  1.00  0.00     0.116 C 
BRANCH  16  17
HETATM   17  C4  UNL     1     -26.532 -21.486 -19.473  1.00  0.00     0.020 C 
BRANCH  17  18
HETATM   18  C5  UNL     1     -26.178 -20.245 -20.255  1.00  0.00     0.018 C 
BRANCH  18  19
HETATM   19  C6  UNL     1     -24.682 -20.154 -20.320  1.00  0.00     0.163 C 
BRANCH  19  20
HETATM   20  S1  UNL     1     -24.086 -18.476 -20.328  1.00  0.00     0.232 S 
HETATM   21  O1  UNL     1     -22.993 -18.276 -19.328  1.00  0.00    -0.206 OA
HETATM   22  O2  UNL     1     -25.249 -17.546 -20.035  1.00  0.00    -0.206 OA
BRANCH  20  23
HETATM   23  N5  UNL     1     -23.488 -18.157 -21.908  1.00  0.00    -0.262 N 
ATOM     24  H5  UNL     1     -22.617 -18.592 -22.211  1.00  0.00     0.180 HD
BRANCH  23  25
HETATM   25  C7  UNL     1     -24.121 -17.376 -22.718  1.00  0.00     0.191 A 
HETATM   26  N6  UNL     1     -25.001 -16.385 -22.657  1.00  0.00    -0.272 N 
HETATM   27  N7  UNL     1     -25.183 -16.079 -23.916  1.00  0.00    -0.265 N 
ATOM     28  H6  UNL     1     -25.431 -15.966 -21.832  1.00  0.00     0.189 HD
HETATM   29  S2  UNL     1     -24.105 -17.258 -24.394  1.00  0.00     0.041 SA
ATOM     30  H7  UNL     1     -25.755 -15.393 -24.409  1.00  0.00     0.195 HD
ENDBRANCH  23  25
ENDBRANCH  20  23
ENDBRANCH  19  20
ENDBRANCH  18  19
ENDBRANCH  17  18
ENDBRANCH  16  17
ENDBRANCH   1  16
TORSDOF 10
ENDMDL
MODEL 3
REMARK VINA RESULT: -6.760014336      2.222      3.061
REMARK  10 active torsions:
REMARK  status: ('A' for Active; 'I' for Inactive)
REMARK    1  A    between atoms: N1_1  and  N2_4 
REMARK    2  A    between atoms: N2_4  and  C1_6 
REMARK    3  A    between atoms: C2_9  and  N4_10 
REMARK    4  A    between atoms: N4_10  and  C3_12 
REMARK    5  A    between atoms: C3_12  and  C4_13 
REMARK    6  A    between atoms: C4_13  and  C5_14 
REMARK    7  A    between atoms: C5_14  and  C6_15 
REMARK    8  A    between atoms: C6_15  and  S1_16 
REMARK    9  A    between atoms: S1_16  and  N5_19 
REMARK   10  A    between atoms: N5_19  and  C7_21 
ROOT
HETATM    1  N4  UNL     1     -27.319 -22.974 -18.486  1.00  0.00    -0.394 N 
ATOM      2  H4  UNL     1     -27.549 -21.987 -18.366  1.00  0.00     0.155 HD
ENDROOT
BRANCH   1   3
HETATM    3  C2  UNL     1     -26.009 -23.483 -18.239  1.00  0.00     0.274 A 
HETATM    4  N3  UNL     1     -25.792 -24.771 -18.874  1.00  0.00    -0.332 N 
HETATM    5  C1  UNL     1     -24.781 -24.791 -19.636  1.00  0.00     0.198 A 
ATOM      6  H3  UNL     1     -26.394 -25.581 -18.721  1.00  0.00     0.165 HD
HETATM    7  N8  UNL     1     -24.142 -23.500 -19.628  1.00  0.00    -0.294 N 
HETATM    8  C8  UNL     1     -24.895 -22.678 -18.755  1.00  0.00     0.266 A 
ATOM      9  H8  UNL     1     -23.309 -23.229 -20.149  1.00  0.00     0.172 HD
HETATM   10  O3  UNL     1     -24.643 -21.490 -18.485  1.00  0.00    -0.269 OA
BRANCH   5  11
HETATM   11  N2  UNL     1     -24.314 -25.916 -20.400  1.00  0.00    -0.278 N 
ATOM     12  H2  UNL     1     -24.447 -26.859 -20.036  1.00  0.00     0.189 HD
BRANCH  11  13
HETATM   13  N1  UNL     1     -23.685 -25.739 -21.624  1.00  0.00    -0.343 N 
ATOM     14  H12 UNL     1     -22.876 -25.121 -21.670  1.00  0.00     0.176 HD
ATOM     15  H11 UNL     1     -24.021 -26.214 -22.462  1.00  0.00     0.176 HD
ENDBRANCH  11  13
ENDBRANCH   5  11
ENDBRANCH   1   3
BRANCH   1  16
HETATM   16  C3  UNL     1     -28.285 -23.928 -18.910  1.00  0.00     0.116 C 
BRANCH  16  17
HETATM   17  C4  UNL     1     -28.806 -23.542 -20.280  1.00  0.00     0.020 C 
BRANCH  17  18
HETATM   18  C5  UNL     1     -28.010 -22.434 -20.925  1.00  0.00     0.018 C 
BRANCH  18  19
HETATM   19  C6  UNL     1     -27.152 -23.044 -21.993  1.00  0.00     0.163 C 
BRANCH  19  20
HETATM   20  S1  UNL     1     -25.841 -21.968 -22.534  1.00  0.00     0.232 S 
HETATM   21  O1  UNL     1     -26.080 -21.464 -23.921  1.00  0.00    -0.206 OA
HETATM   22  O2  UNL     1     -24.529 -22.730 -22.466  1.00  0.00    -0.206 OA
BRANCH  20  23
HETATM   23  N5  UNL     1     -25.785 -20.645 -21.439  1.00  0.00    -0.262 N 
ATOM     24  H5  UNL     1     -26.590 -20.454 -20.843  1.00  0.00     0.180 HD
BRANCH  23  25
HETATM   25  C7  UNL     1     -24.743 -19.886 -21.358  1.00  0.00     0.191 A 
HETATM   26  N6  UNL     1     -23.490 -19.872 -21.793  1.00  0.00    -0.272 N 
HETATM   27  N7  UNL     1     -23.022 -18.756 -21.295  1.00  0.00    -0.265 N 
ATOM     28  H6  UNL     1     -23.010 -20.561 -22.372  1.00  0.00     0.189 HD
HETATM   29  S2  UNL     1     -24.490 -18.420 -20.577  1.00  0.00     0.041 SA
ATOM     30  H7  UNL     1     -22.120 -18.281 -21.332  1.00  0.00     0.195 HD
ENDBRANCH  23  25
ENDBRANCH  20  23
ENDBRANCH  19  20
ENDBRANCH  18  19
ENDBRANCH  17  18
ENDBRANCH  16  17
ENDBRANCH   1  16
TORSDOF 10
ENDMDL
MODEL 4
REMARK VINA RESULT: -6.757728406      1.500      1.589
REMARK  10 active torsions:
REMARK  status: ('A' for Active; 'I' for Inactive)
REMARK    1  A    between atoms: N1_1  and  N2_4 
REMARK    2  A    between atoms: N2_4  and  C1_6 
REMARK    3  A    between atoms: C2_9  and  N4_10 
REMARK    4  A    between atoms: N4_10  and  C3_12 
REMARK    5  A    between atoms: C3_12  and  C4_13 
REMARK    6  A    between atoms: C4_13  and  C5_14 
REMARK    7  A    between atoms: C5_14  and  C6_15 
REMARK    8  A    between atoms: C6_15  and  S1_16 
REMARK    9  A    between atoms: S1_16  and  N5_19 
REMARK   10  A    between atoms: N5_19  and  C7_21 
ROOT
HETATM    1  N4  UNL     1     -26.113 -23.899 -19.954  1.00  0.00    -0.394 N 
ATOM      2  H4  UNL     1     -27.073 -24.206 -20.116  1.00  0.00     0.155 HD
ENDROOT
BRANCH   1   3
HETATM    3  C2  UNL     1     -25.045 -24.259 -20.829  1.00  0.00     0.274 A 
HETATM    4  N3  UNL     1     -24.734 -23.204 -21.778  1.00  0.00    -0.332 N 
HETATM    5  C1  UNL     1     -23.519 -22.848 -21.751  1.00  0.00     0.198 A 
ATOM      6  H3  UNL     1     -25.425 -22.791 -22.404  1.00  0.00     0.165 HD
HETATM    7  N8  UNL     1     -22.807 -23.626 -20.769  1.00  0.00    -0.294 N 
HETATM    8  C8  UNL     1     -23.747 -24.514 -20.193  1.00  0.00     0.266 A 
ATOM      9  H8  UNL     1     -21.817 -23.552 -20.534  1.00  0.00     0.172 HD
HETATM   10  O3  UNL     1     -23.499 -25.352 -19.308  1.00  0.00    -0.269 OA
BRANCH   5  11
HETATM   11  N2  UNL     1     -22.912 -21.831 -22.567  1.00  0.00    -0.278 N 
ATOM     12  H2  UNL     1     -23.497 -21.267 -23.182  1.00  0.00     0.189 HD
BRANCH  11  13
HETATM   13  N1  UNL     1     -21.544 -21.606 -22.531  1.00  0.00    -0.343 N 
ATOM     14  H12 UNL     1     -20.925 -22.397 -22.357  1.00  0.00     0.176 HD
ATOM     15  H11 UNL     1     -21.160 -20.672 -22.676  1.00  0.00     0.176 HD
ENDBRANCH  11  13
ENDBRANCH   5  11
ENDBRANCH   1   3
BRANCH   1  16
HETATM   16  C3  UNL     1     -25.758 -23.086 -18.843  1.00  0.00     0.116 C 
BRANCH  16  17
HETATM   17  C4  UNL     1     -26.134 -21.646 -19.132  1.00  0.00     0.020 C 
BRANCH  17  18
HETATM   18  C5  UNL     1     -24.937 -20.747 -19.320  1.00  0.00     0.018 C 
BRANCH  18  19
HETATM   19  C6  UNL     1     -25.337 -19.635 -20.243  1.00  0.00     0.163 C 
BRANCH  19  20
HETATM   20  S1  UNL     1     -23.986 -18.553 -20.658  1.00  0.00     0.232 S 
HETATM   21  O1  UNL     1     -23.076 -19.172 -21.669  1.00  0.00    -0.206 OA
HETATM   22  O2  UNL     1     -23.221 -18.221 -19.389  1.00  0.00    -0.206 OA
BRANCH  20  23
HETATM   23  N5  UNL     1     -24.668 -17.112 -21.301  1.00  0.00    -0.262 N 
ATOM     24  H5  UNL     1     -25.555 -16.770 -20.932  1.00  0.00     0.180 HD
BRANCH  23  25
HETATM   25  C7  UNL     1     -24.078 -16.454 -22.243  1.00  0.00     0.191 A 
HETATM   26  N6  UNL     1     -22.871 -16.368 -22.787  1.00  0.00    -0.272 N 
HETATM   27  N7  UNL     1     -23.036 -15.464 -23.719  1.00  0.00    -0.265 N 
ATOM     28  H6  UNL     1     -22.024 -16.879 -22.540  1.00  0.00     0.189 HD
HETATM   29  S2  UNL     1     -24.645 -15.289 -23.313  1.00  0.00     0.041 SA
ATOM     30  H7  UNL     1     -22.426 -15.036 -24.415  1.00  0.00     0.195 HD
ENDBRANCH  23  25
ENDBRANCH  20  23
ENDBRANCH  19  20
ENDBRANCH  18  19
ENDBRANCH  17  18
ENDBRANCH  16  17
ENDBRANCH   1  16
TORSDOF 10
ENDMDL
MODEL 5
REMARK VINA RESULT: -6.657551370      2.364      3.063
REMARK  10 active torsions:
REMARK  status: ('A' for Active; 'I' for Inactive)
REMARK    1  A    between atoms: N1_1  and  N2_4 
REMARK    2  A    between atoms: N2_4  and  C1_6 
REMARK    3  A    between atoms: C2_9  and  N4_10 
REMARK    4  A    between atoms: N4_10  and  C3_12 
REMARK    5  A    between atoms: C3_12  and  C4_13 
REMARK    6  A    between atoms: C4_13  and  C5_14 
REMARK    7  A    between atoms: C5_14  and  C6_15 
REMARK    8  A    between atoms: C6_15  and  S1_16 
REMARK    9  A    between atoms: S1_16  and  N5_19 
REMARK   10  A    between atoms: N5_19  and  C7_21 
ROOT
HETATM    1  N4  UNL     1     -23.900 -23.243 -22.119  1.00  0.00    -0.394 N 
ATOM      2  H4  UNL     1     -24.219 -22.996 -23.056  1.00  0.00     0.155 HD
ENDROOT
BRANCH   1   3
HETATM    3  C2  UNL     1     -22.547 -23.611 -21.852  1.00  0.00     0.274 A 
HETATM    4  N3  UNL     1     -22.265 -24.983 -22.237  1.00  0.00    -0.332 N 
HETATM    5  C1  UNL     1     -21.289 -25.089 -23.037  1.00  0.00     0.198 A 
ATOM      6  H3  UNL     1     -22.801 -25.782 -21.898  1.00  0.00     0.165 HD
HETATM    7  N8  UNL     1     -20.745 -23.784 -23.314  1.00  0.00    -0.294 N 
HETATM    8  C8  UNL     1     -21.517 -22.855 -22.575  1.00  0.00     0.266 A 
ATOM      9  H8  UNL     1     -19.956 -23.570 -23.923  1.00  0.00     0.172 HD
HETATM   10  O3  UNL     1     -21.340 -21.624 -22.554  1.00  0.00    -0.269 OA
BRANCH   5  11
HETATM   11  N2  UNL     1     -20.776 -26.311 -23.594  1.00  0.00    -0.278 N 
ATOM     12  H2  UNL     1     -20.177 -26.909 -23.025  1.00  0.00     0.189 HD
BRANCH  11  13
HETATM   13  N1  UNL     1     -21.080 -26.689 -24.894  1.00  0.00    -0.343 N 
ATOM     14  H12 UNL     1     -21.512 -27.600 -25.046  1.00  0.00     0.176 HD
ATOM     15  H11 UNL     1     -20.879 -26.075 -25.682  1.00  0.00     0.176 HD
ENDBRANCH  11  13
ENDBRANCH   5  11
ENDBRANCH   1   3
BRANCH   1  16
HETATM   16  C3  UNL     1     -24.775 -23.241 -20.998  1.00  0.00     0.116 C 
BRANCH  16  17
HETATM   17  C4  UNL     1     -25.471 -21.898 -20.904  1.00  0.00     0.020 C 
BRANCH  17  18
HETATM   18  C5  UNL     1     -24.921 -21.022 -19.805  1.00  0.00     0.018 C 
BRANCH  18  19
HETATM   19  C6  UNL     1     -25.343 -19.611 -20.087  1.00  0.00     0.163 C 
BRANCH  19  20
HETATM   20  S1  UNL     1     -23.998 -18.574 -20.621  1.00  0.00     0.232 S 
HETATM   21  O1  UNL     1     -23.150 -19.257 -21.646  1.00  0.00    -0.206 OA
HETATM   22  O2  UNL     1     -23.164 -18.198 -19.409  1.00  0.00    -0.206 OA
BRANCH  20  23
HETATM   23  N5  UNL     1     -24.688 -17.153 -21.297  1.00  0.00    -0.262 N 
ATOM     24  H5  UNL     1     -25.592 -16.824 -20.955  1.00  0.00     0.180 HD
BRANCH  23  25
HETATM   25  C7  UNL     1     -24.085 -16.493 -22.229  1.00  0.00     0.191 A 
HETATM   26  N6  UNL     1     -22.870 -16.401 -22.752  1.00  0.00    -0.272 N 
HETATM   27  N7  UNL     1     -23.023 -15.498 -23.687  1.00  0.00    -0.265 N 
ATOM     28  H6  UNL     1     -22.025 -16.909 -22.491  1.00  0.00     0.189 HD
HETATM   29  S2  UNL     1     -24.639 -15.330 -23.308  1.00  0.00     0.041 SA
ATOM     30  H7  UNL     1     -22.402 -15.068 -24.372  1.00  0.00     0.195 HD
ENDBRANCH  23  25
ENDBRANCH  20  23
ENDBRANCH  19  20
ENDBRANCH  18  19
ENDBRANCH  17  18
ENDBRANCH  16  17
ENDBRANCH   1  16
TORSDOF 10
ENDMDL
