MODEL 1
REMARK VINA RESULT: -7.808566584      0.000      0.000
REMARK  9 active torsions:
REMARK  status: ('A' for Active; 'I' for Inactive)
REMARK    1  A    between atoms: O1_2  and  C2_3 
REMARK    2  A    between atoms: C4_7  and  N2_8 
REMARK    3  A    between atoms: C6_13  and  O2_14 
REMARK    4  A    between atoms: C8_16  and  C9_17 
REMARK    5  A    between atoms: C9_17  and  N4_18 
REMARK    6  A    between atoms: C9_17  and  N5_22 
REMARK    7  A    between atoms: N5_22  and  N6_24 
REMARK    8  A    between atoms: C12_32  and  N8_33 
REMARK    9  A    between atoms: N8_33  and  C13_35 
ROOT
HETATM    1  N2  UNL     1     -23.674 -20.203 -21.159  1.00  0.00    -0.324 N 
ATOM      2  H2  UNL     1     -22.706 -20.508 -21.269  1.00  0.00     0.169 HD
HETATM    3  C5  UNL     1     -24.486 -21.036 -20.625  1.00  0.00     0.178 A 
HETATM    4  N3  UNL     1     -24.059 -22.266 -20.226  1.00  0.00    -0.317 N 
ATOM      5  H3  UNL     1     -23.081 -22.522 -20.358  1.00  0.00     0.169 HD
HETATM    6  C6  UNL     1     -24.916 -23.166 -19.652  1.00  0.00     0.171 A 
HETATM    7  C8  UNL     1     -26.245 -22.854 -19.461  1.00  0.00     0.115 A 
HETATM    8  N7  UNL     1     -26.658 -21.627 -19.863  1.00  0.00    -0.317 N 
ATOM      9  H7  UNL     1     -27.637 -21.370 -19.734  1.00  0.00     0.169 HD
HETATM   10  C10 UNL     1     -25.809 -20.725 -20.433  1.00  0.00     0.290 A 
HETATM   11  O3  UNL     1     -26.324 -19.610 -20.764  1.00  0.00    -0.264 OA
ENDROOT
BRANCH   1  12
HETATM   12  C4  UNL     1     -23.989 -18.910 -21.611  1.00  0.00     0.108 A 
HETATM   13  N1  UNL     1     -24.089 -18.617 -22.902  1.00  0.00    -0.349 N 
HETATM   14  C3  UNL     1     -24.378 -17.380 -23.316  1.00  0.00     0.128 A 
ATOM     15  H1  UNL     1     -23.942 -19.353 -23.593  1.00  0.00     0.166 HD
HETATM   16  C2  UNL     1     -24.575 -16.393 -22.383  1.00  0.00     0.110 A 
HETATM   17  C12 UNL     1     -24.484 -16.638 -21.016  1.00  0.00     0.072 A 
HETATM   18  C11 UNL     1     -24.189 -17.907 -20.644  1.00  0.00     0.081 A 
BRANCH  16  19
HETATM   19  O1  UNL     1     -24.874 -15.118 -22.821  1.00  0.00    -0.352 OA
HETATM   20  C1  UNL     1     -24.378 -14.560 -24.006  1.00  0.00     0.210 C 
ENDBRANCH  16  19
BRANCH  17  21
HETATM   21  N8  UNL     1     -24.702 -15.566 -20.139  1.00  0.00    -0.332 N 
ATOM     22  H8  UNL     1     -25.624 -15.129 -20.153  1.00  0.00     0.168 HD
BRANCH  21  23
HETATM   23  C13 UNL     1     -23.761 -15.051 -19.253  1.00  0.00     0.353 C 
HETATM   24  O4  UNL     1     -23.750 -15.170 -18.036  1.00  0.00    -0.283 OA
ENDBRANCH  21  23
ENDBRANCH  17  21
ENDBRANCH   1  12
BRANCH   6  25
HETATM   25  O2  UNL     1     -24.360 -24.376 -19.289  1.00  0.00    -0.339 OA
HETATM   26  C7  UNL     1     -23.815 -25.317 -20.163  1.00  0.00     0.211 C 
ENDBRANCH   6  25
BRANCH   7  27
HETATM   27  C9  UNL     1     -27.251 -23.773 -18.891  1.00  0.00     0.350 C 
BRANCH  27  28
HETATM   28  N4  UNL     1     -26.990 -23.932 -17.473  1.00  0.00    -0.051 N 
ATOM     29  H43 UNL     1     -27.579 -24.647 -17.046  1.00  0.00     0.277 HD
ATOM     30  H42 UNL     1     -26.085 -24.365 -17.291  1.00  0.00     0.277 HD
ATOM     31  H41 UNL     1     -27.086 -23.025 -17.017  1.00  0.00     0.277 HD
ENDBRANCH  27  28
BRANCH  27  32
HETATM   32  N5  UNL     1     -28.593 -23.328 -19.083  1.00  0.00    -0.307 N 
ATOM     33  H5  UNL     1     -28.972 -22.533 -18.568  1.00  0.00     0.182 HD
BRANCH  32  34
HETATM   34  N6  UNL     1     -29.348 -24.019 -19.993  1.00  0.00    -0.347 N 
ATOM     35  H62 UNL     1     -29.677 -24.962 -19.787  1.00  0.00     0.176 HD
ATOM     36  H61 UNL     1     -29.557 -23.544 -20.871  1.00  0.00     0.176 HD
ENDBRANCH  32  34
ENDBRANCH  27  32
ENDBRANCH   7  27
TORSDOF 9
ENDMDL
MODEL 2
REMARK VINA RESULT: -7.396389281      1.860      3.114
REMARK  9 active torsions:
REMARK  status: ('A' for Active; 'I' for Inactive)
REMARK    1  A    between atoms: O1_2  and  C2_3 
REMARK    2  A    between atoms: C4_7  and  N2_8 
REMARK    3  A    between atoms: C6_13  and  O2_14 
REMARK    4  A    between atoms: C8_16  and  C9_17 
REMARK    5  A    between atoms: C9_17  and  N4_18 
REMARK    6  A    between atoms: C9_17  and  N5_22 
REMARK    7  A    between atoms: N5_22  and  N6_24 
REMARK    8  A    between atoms: C12_32  and  N8_33 
REMARK    9  A    between atoms: N8_33  and  C13_35 
ROOT
HETATM    1  N2  UNL     1     -23.344 -20.814 -22.053  1.00  0.00    -0.324 N 
ATOM      2  H2  UNL     1     -22.441 -21.230 -22.282  1.00  0.00     0.169 HD
HETATM    3  C5  UNL     1     -24.113 -21.486 -21.282  1.00  0.00     0.178 A 
HETATM    4  N3  UNL     1     -23.727 -22.699 -20.799  1.00  0.00    -0.317 N 
ATOM      5  H3  UNL     1     -22.814 -23.072 -21.058  1.00  0.00     0.169 HD
HETATM    6  C6  UNL     1     -24.539 -23.429 -19.973  1.00  0.00     0.171 A 
HETATM    7  C8  UNL     1     -25.779 -22.956 -19.604  1.00  0.00     0.115 A 
HETATM    8  N7  UNL     1     -26.154 -21.748 -20.092  1.00  0.00    -0.317 N 
ATOM      9  H7  UNL     1     -27.068 -21.374 -19.836  1.00  0.00     0.169 HD
HETATM   10  C10 UNL     1     -25.349 -21.015 -20.914  1.00  0.00     0.290 A 
HETATM   11  O3  UNL     1     -25.819 -19.898 -21.300  1.00  0.00    -0.264 OA
ENDROOT
BRANCH   1  12
HETATM   12  C4  UNL     1     -23.625 -19.556 -22.615  1.00  0.00     0.108 A 
HETATM   13  N1  UNL     1     -23.512 -18.431 -21.919  1.00  0.00    -0.349 N 
HETATM   14  C3  UNL     1     -23.793 -17.243 -22.464  1.00  0.00     0.128 A 
ATOM     15  H1  UNL     1     -23.204 -18.473 -20.948  1.00  0.00     0.166 HD
HETATM   16  C2  UNL     1     -24.207 -17.190 -23.771  1.00  0.00     0.110 A 
HETATM   17  C12 UNL     1     -24.344 -18.335 -24.552  1.00  0.00     0.072 A 
HETATM   18  C11 UNL     1     -24.048 -19.515 -23.956  1.00  0.00     0.081 A 
BRANCH  16  19
HETATM   19  O1  UNL     1     -24.494 -15.958 -24.325  1.00  0.00    -0.352 OA
HETATM   20  C1  UNL     1     -24.505 -14.758 -23.603  1.00  0.00     0.210 C 
ENDBRANCH  16  19
BRANCH  17  21
HETATM   21  N8  UNL     1     -24.773 -18.179 -25.877  1.00  0.00    -0.332 N 
ATOM     22  H8  UNL     1     -24.179 -17.634 -26.502  1.00  0.00     0.168 HD
BRANCH  21  23
HETATM   23  C13 UNL     1     -25.945 -18.711 -26.408  1.00  0.00     0.353 C 
HETATM   24  O4  UNL     1     -27.089 -18.339 -26.190  1.00  0.00    -0.283 OA
ENDBRANCH  21  23
ENDBRANCH  17  21
ENDBRANCH   1  12
BRANCH   6  25
HETATM   25  O2  UNL     1     -24.030 -24.639 -19.549  1.00  0.00    -0.339 OA
HETATM   26  C7  UNL     1     -23.866 -25.776 -20.341  1.00  0.00     0.211 C 
ENDBRANCH   6  25
BRANCH   7  27
HETATM   27  C9  UNL     1     -26.740 -23.688 -18.754  1.00  0.00     0.350 C 
BRANCH  27  28
HETATM   28  N4  UNL     1     -26.344 -23.541 -17.366  1.00  0.00    -0.051 N 
ATOM     29  H43 UNL     1     -26.892 -24.131 -16.740  1.00  0.00     0.277 HD
ATOM     30  H42 UNL     1     -25.428 -23.948 -17.178  1.00  0.00     0.277 HD
ATOM     31  H41 UNL     1     -26.391 -22.554 -17.114  1.00  0.00     0.277 HD
ENDBRANCH  27  28
BRANCH  27  32
HETATM   32  N5  UNL     1     -28.087 -23.246 -18.916  1.00  0.00    -0.307 N 
ATOM     33  H5  UNL     1     -28.445 -22.429 -18.421  1.00  0.00     0.182 HD
BRANCH  32  34
HETATM   34  N6  UNL     1     -28.876 -23.971 -19.769  1.00  0.00    -0.347 N 
ATOM     35  H62 UNL     1     -28.805 -24.989 -19.806  1.00  0.00     0.176 HD
ATOM     36  H61 UNL     1     -29.525 -23.445 -20.353  1.00  0.00     0.176 HD
ENDBRANCH  32  34
ENDBRANCH  27  32
ENDBRANCH   7  27
TORSDOF 9
ENDMDL
MODEL 3
REMARK VINA RESULT: -7.355350341      1.619      2.787
REMARK  9 active torsions:
REMARK  status: ('A' for Active; 'I' for Inactive)
REMARK    1  A    between atoms: O1_2  and  C2_3 
REMARK    2  A    between atoms: C4_7  and  N2_8 
REMARK    3  A    between atoms: C6_13  and  O2_14 
REMARK    4  A    between atoms: C8_16  and  C9_17 
REMARK    5  A    between atoms: C9_17  and  N4_18 
REMARK    6  A    between atoms: C9_17  and  N5_22 
REMARK    7  A    between atoms: N5_22  and  N6_24 
REMARK    8  A    between atoms: C12_32  and  N8_33 
REMARK    9  A    between atoms: N8_33  and  C13_35 
ROOT
HETATM    1  N2  UNL     1     -23.740 -20.324 -22.011  1.00  0.00    -0.324 N 
ATOM      2  H2  UNL     1     -22.972 -20.862 -22.413  1.00  0.00     0.169 HD
HETATM    3  C5  UNL     1     -24.594 -20.970 -21.309  1.00  0.00     0.178 A 
HETATM    4  N3  UNL     1     -24.468 -22.312 -21.120  1.00  0.00    -0.317 N 
ATOM      5  H3  UNL     1     -23.682 -22.804 -21.545  1.00  0.00     0.169 HD
HETATM    6  C6  UNL     1     -25.373 -23.015 -20.371  1.00  0.00     0.171 A 
HETATM    7  C8  UNL     1     -26.447 -22.382 -19.785  1.00  0.00     0.115 A 
HETATM    8  N7  UNL     1     -26.564 -21.046 -19.982  1.00  0.00    -0.317 N 
ATOM      9  H7  UNL     1     -27.351 -20.553 -19.560  1.00  0.00     0.169 HD
HETATM   10  C10 UNL     1     -25.665 -20.340 -20.724  1.00  0.00     0.290 A 
HETATM   11  O3  UNL     1     -25.889 -19.092 -20.829  1.00  0.00    -0.264 OA
ENDROOT
BRANCH   1  12
HETATM   12  C4  UNL     1     -23.759 -18.944 -22.279  1.00  0.00     0.108 A 
HETATM   13  N1  UNL     1     -23.428 -18.042 -21.363  1.00  0.00    -0.349 N 
HETATM   14  C3  UNL     1     -23.462 -16.733 -21.630  1.00  0.00     0.128 A 
ATOM     15  H1  UNL     1     -23.143 -18.354 -20.435  1.00  0.00     0.166 HD
HETATM   16  C2  UNL     1     -23.847 -16.317 -22.880  1.00  0.00     0.110 A 
HETATM   17  C12 UNL     1     -24.204 -17.214 -23.882  1.00  0.00     0.072 A 
HETATM   18  C11 UNL     1     -24.155 -18.530 -23.565  1.00  0.00     0.081 A 
BRANCH  16  19
HETATM   19  O1  UNL     1     -23.878 -14.961 -23.146  1.00  0.00    -0.352 OA
HETATM   20  C1  UNL     1     -22.956 -14.304 -23.969  1.00  0.00     0.210 C 
ENDBRANCH  16  19
BRANCH  17  21
HETATM   21  N8  UNL     1     -24.583 -16.693 -25.127  1.00  0.00    -0.332 N 
ATOM     22  H8  UNL     1     -23.846 -16.534 -25.813  1.00  0.00     0.168 HD
BRANCH  21  23
HETATM   23  C13 UNL     1     -25.886 -16.377 -25.501  1.00  0.00     0.353 C 
HETATM   24  O4  UNL     1     -26.761 -15.897 -24.794  1.00  0.00    -0.283 OA
ENDBRANCH  21  23
ENDBRANCH  17  21
ENDBRANCH   1  12
BRANCH   6  25
HETATM   25  O2  UNL     1     -25.130 -24.368 -20.253  1.00  0.00    -0.339 OA
HETATM   26  C7  UNL     1     -23.891 -24.954 -19.991  1.00  0.00     0.211 C 
ENDBRANCH   6  25
BRANCH   7  27
HETATM   27  C9  UNL     1     -27.497 -23.062 -18.998  1.00  0.00     0.350 C 
BRANCH  27  28
HETATM   28  N4  UNL     1     -28.252 -23.932 -19.878  1.00  0.00    -0.051 N 
ATOM     29  H43 UNL     1     -27.694 -24.275 -20.660  1.00  0.00     0.277 HD
ATOM     30  H42 UNL     1     -28.461 -24.833 -19.448  1.00  0.00     0.277 HD
ATOM     31  H41 UNL     1     -29.093 -23.442 -20.183  1.00  0.00     0.277 HD
ENDBRANCH  27  28
BRANCH  27  32
HETATM   32  N5  UNL     1     -26.980 -23.818 -17.905  1.00  0.00    -0.307 N 
ATOM     33  H5  UNL     1     -27.412 -24.693 -17.608  1.00  0.00     0.182 HD
BRANCH  32  34
HETATM   34  N6  UNL     1     -25.874 -23.314 -17.273  1.00  0.00    -0.347 N 
ATOM     35  H62 UNL     1     -25.420 -23.835 -16.523  1.00  0.00     0.176 HD
ATOM     36  H61 UNL     1     -25.539 -22.404 -17.590  1.00  0.00     0.176 HD
ENDBRANCH  32  34
ENDBRANCH  27  32
ENDBRANCH   7  27
TORSDOF 9
ENDMDL
MODEL 4
REMARK VINA RESULT: -7.272595271      2.419      7.725
REMARK  9 active torsions:
REMARK  status: ('A' for Active; 'I' for Inactive)
REMARK    1  A    between atoms: O1_2  and  C2_3 
REMARK    2  A    between atoms: C4_7  and  N2_8 
REMARK    3  A    between atoms: C6_13  and  O2_14 
REMARK    4  A    between atoms: C8_16  and  C9_17 
REMARK    5  A    between atoms: C9_17  and  N4_18 
REMARK    6  A    between atoms: C9_17  and  N5_22 
REMARK    7  A    between atoms: N5_22  and  N6_24 
REMARK    8  A    between atoms: C12_32  and  N8_33 
REMARK    9  A    between atoms: N8_33  and  C13_35 
ROOT
HETATM    1  N2  UNL     1     -24.140 -19.732 -20.414  1.00  0.00    -0.324 N 
ATOM      2  H2  UNL     1     -23.989 -19.616 -19.412  1.00  0.00     0.169 HD
HETATM    3  C5  UNL     1     -24.166 -18.667 -21.124  1.00  0.00     0.178 A 
HETATM    4  N3  UNL     1     -23.997 -17.444 -20.549  1.00  0.00    -0.317 N 
ATOM      5  H3  UNL     1     -23.851 -17.381 -19.542  1.00  0.00     0.169 HD
HETATM    6  C6  UNL     1     -24.022 -16.296 -21.296  1.00  0.00     0.171 A 
HETATM    7  C8  UNL     1     -24.220 -16.344 -22.658  1.00  0.00     0.115 A 
HETATM    8  N7  UNL     1     -24.387 -17.567 -23.219  1.00  0.00    -0.317 N 
ATOM      9  H7  UNL     1     -24.537 -17.632 -24.226  1.00  0.00     0.169 HD
HETATM   10  C10 UNL     1     -24.362 -18.714 -22.481  1.00  0.00     0.290 A 
HETATM   11  O3  UNL     1     -24.530 -19.796 -23.130  1.00  0.00    -0.264 OA
ENDROOT
BRANCH   1  12
HETATM   12  C4  UNL     1     -24.299 -21.047 -20.885  1.00  0.00     0.108 A 
HETATM   13  N1  UNL     1     -23.318 -21.704 -21.492  1.00  0.00    -0.349 N 
HETATM   14  C3  UNL     1     -23.488 -22.950 -21.944  1.00  0.00     0.128 A 
ATOM     15  H1  UNL     1     -22.414 -21.247 -21.617  1.00  0.00     0.166 HD
HETATM   16  C2  UNL     1     -24.705 -23.561 -21.774  1.00  0.00     0.110 A 
HETATM   17  C12 UNL     1     -25.772 -22.925 -21.146  1.00  0.00     0.072 A 
HETATM   18  C11 UNL     1     -25.552 -21.663 -20.704  1.00  0.00     0.081 A 
BRANCH  16  19
HETATM   19  O1  UNL     1     -24.871 -24.849 -22.245  1.00  0.00    -0.352 OA
HETATM   20  C1  UNL     1     -24.112 -25.408 -23.280  1.00  0.00     0.210 C 
ENDBRANCH  16  19
BRANCH  17  21
HETATM   21  N8  UNL     1     -26.976 -23.630 -21.018  1.00  0.00    -0.332 N 
ATOM     22  H8  UNL     1     -26.992 -24.595 -21.348  1.00  0.00     0.168 HD
BRANCH  21  23
HETATM   23  C13 UNL     1     -28.152 -23.117 -20.478  1.00  0.00     0.353 C 
HETATM   24  O4  UNL     1     -29.290 -23.525 -20.665  1.00  0.00    -0.283 OA
ENDBRANCH  21  23
ENDBRANCH  17  21
ENDBRANCH   1  12
BRANCH   6  25
HETATM   25  O2  UNL     1     -23.836 -15.122 -20.596  1.00  0.00    -0.339 OA
HETATM   26  C7  UNL     1     -23.791 -15.001 -19.207  1.00  0.00     0.211 C 
ENDBRANCH   6  25
BRANCH   7  27
HETATM   27  C9  UNL     1     -24.304 -15.161 -23.539  1.00  0.00     0.350 C 
BRANCH  27  28
HETATM   28  N4  UNL     1     -22.970 -14.624 -23.730  1.00  0.00    -0.051 N 
ATOM     29  H43 UNL     1     -22.981 -13.689 -24.138  1.00  0.00     0.277 HD
ATOM     30  H42 UNL     1     -22.516 -14.388 -22.848  1.00  0.00     0.277 HD
ATOM     31  H41 UNL     1     -22.426 -15.285 -24.284  1.00  0.00     0.277 HD
ENDBRANCH  27  28
BRANCH  27  32
HETATM   32  N5  UNL     1     -24.892 -15.443 -24.807  1.00  0.00    -0.307 N 
ATOM     33  H5  UNL     1     -24.363 -15.892 -25.554  1.00  0.00     0.182 HD
BRANCH  32  34
HETATM   34  N6  UNL     1     -26.203 -15.082 -24.973  1.00  0.00    -0.347 N 
ATOM     35  H62 UNL     1     -26.455 -14.305 -25.585  1.00  0.00     0.176 HD
ATOM     36  H61 UNL     1     -26.897 -15.624 -24.459  1.00  0.00     0.176 HD
ENDBRANCH  32  34
ENDBRANCH  27  32
ENDBRANCH   7  27
TORSDOF 9
ENDMDL
MODEL 5
REMARK VINA RESULT: -7.262473611      2.442      7.942
REMARK  9 active torsions:
REMARK  status: ('A' for Active; 'I' for Inactive)
REMARK    1  A    between atoms: O1_2  and  C2_3 
REMARK    2  A    between atoms: C4_7  and  N2_8 
REMARK    3  A    between atoms: C6_13  and  O2_14 
REMARK    4  A    between atoms: C8_16  and  C9_17 
REMARK    5  A    between atoms: C9_17  and  N4_18 
REMARK    6  A    between atoms: C9_17  and  N5_22 
REMARK    7  A    between atoms: N5_22  and  N6_24 
REMARK    8  A    between atoms: C12_32  and  N8_33 
REMARK    9  A    between atoms: N8_33  and  C13_35 
ROOT
HETATM    1  N2  UNL     1     -23.389 -19.271 -21.655  1.00  0.00    -0.324 N 
ATOM      2  H2  UNL     1     -22.800 -18.825 -20.951  1.00  0.00     0.169 HD
HETATM    3  C5  UNL     1     -23.762 -18.545 -22.642  1.00  0.00     0.178 A 
HETATM    4  N3  UNL     1     -23.380 -17.242 -22.731  1.00  0.00    -0.317 N 
ATOM      5  H3  UNL     1     -22.791 -16.843 -22.000  1.00  0.00     0.169 HD
HETATM    6  C6  UNL     1     -23.771 -16.455 -23.782  1.00  0.00     0.171 A 
HETATM    7  C8  UNL     1     -24.568 -16.961 -24.785  1.00  0.00     0.115 A 
HETATM    8  N7  UNL     1     -24.943 -18.260 -24.684  1.00  0.00    -0.317 N 
ATOM      9  H7  UNL     1     -25.535 -18.660 -25.413  1.00  0.00     0.169 HD
HETATM   10  C10 UNL     1     -24.556 -19.049 -23.642  1.00  0.00     0.290 A 
HETATM   11  O3  UNL     1     -24.976 -20.250 -23.668  1.00  0.00    -0.264 OA
ENDROOT
BRANCH   1  12
HETATM   12  C4  UNL     1     -23.714 -20.623 -21.448  1.00  0.00     0.108 A 
HETATM   13  N1  UNL     1     -23.123 -21.602 -22.123  1.00  0.00    -0.349 N 
HETATM   14  C3  UNL     1     -23.451 -22.882 -21.923  1.00  0.00     0.128 A 
ATOM     15  H1  UNL     1     -22.404 -21.372 -22.809  1.00  0.00     0.166 HD
HETATM   16  C2  UNL     1     -24.419 -23.187 -21.000  1.00  0.00     0.110 A 
HETATM   17  C12 UNL     1     -25.074 -22.205 -20.262  1.00  0.00     0.072 A 
HETATM   18  C11 UNL     1     -24.708 -20.922 -20.499  1.00  0.00     0.081 A 
BRANCH  16  19
HETATM   19  O1  UNL     1     -24.750 -24.513 -20.801  1.00  0.00    -0.352 OA
HETATM   20  C1  UNL     1     -23.893 -25.456 -20.220  1.00  0.00     0.210 C 
ENDBRANCH  16  19
BRANCH  17  21
HETATM   21  N8  UNL     1     -26.049 -22.614 -19.341  1.00  0.00    -0.332 N 
ATOM     22  H8  UNL     1     -26.998 -22.746 -19.690  1.00  0.00     0.168 HD
BRANCH  21  23
HETATM   23  C13 UNL     1     -25.823 -22.855 -17.989  1.00  0.00     0.353 C 
HETATM   24  O4  UNL     1     -24.763 -23.158 -17.460  1.00  0.00    -0.283 OA
ENDBRANCH  21  23
ENDBRANCH  17  21
ENDBRANCH   1  12
BRANCH   6  25
HETATM   25  O2  UNL     1     -23.314 -15.153 -23.757  1.00  0.00    -0.339 OA
HETATM   26  C7  UNL     1     -21.975 -14.760 -23.737  1.00  0.00     0.211 C 
ENDBRANCH   6  25
BRANCH   7  27
HETATM   27  C9  UNL     1     -25.074 -16.180 -25.932  1.00  0.00     0.350 C 
BRANCH  27  28
HETATM   28  N4  UNL     1     -26.045 -15.217 -25.451  1.00  0.00    -0.051 N 
ATOM     29  H43 UNL     1     -26.175 -14.438 -26.096  1.00  0.00     0.277 HD
ATOM     30  H42 UNL     1     -26.998 -15.580 -25.474  1.00  0.00     0.277 HD
ATOM     31  H41 UNL     1     -25.769 -14.908 -24.519  1.00  0.00     0.277 HD
ENDBRANCH  27  28
BRANCH  27  32
HETATM   32  N5  UNL     1     -24.044 -15.503 -26.650  1.00  0.00    -0.307 N 
ATOM     33  H5  UNL     1     -23.319 -16.013 -27.154  1.00  0.00     0.182 HD
BRANCH  32  34
HETATM   34  N6  UNL     1     -24.076 -14.134 -26.631  1.00  0.00    -0.347 N 
ATOM     35  H62 UNL     1     -24.703 -13.636 -25.998  1.00  0.00     0.176 HD
ATOM     36  H61 UNL     1     -23.448 -13.651 -27.273  1.00  0.00     0.176 HD
ENDBRANCH  32  34
ENDBRANCH  27  32
ENDBRANCH   7  27
TORSDOF 9
ENDMDL
