MODEL 1
REMARK VINA RESULT: -6.839158461      0.000      0.000
REMARK  12 active torsions:
REMARK  status: ('A' for Active; 'I' for Inactive)
REMARK    1  A    between atoms: C2_2  and  C3_3 
REMARK    2  A    between atoms: C3_3  and  C4_4 
REMARK    3  A    between atoms: C5_5  and  C6_6 
REMARK    4  A    between atoms: C7_7  and  N1_8 
REMARK    5  A    between atoms: N1_8  and  C10_11 
REMARK    6  A    between atoms: C10_11  and  C11_12 
REMARK    7  A    between atoms: C12_13  and  C13_14 
REMARK    8  A    between atoms: C13_14  and  N2_15 
REMARK       I    between atoms: N2_15  and  C14_17 
REMARK    9  A    between atoms: C14_17  and  C15_19 
REMARK   10  A    between atoms: C16_20  and  C17_21 
REMARK   11  A    between atoms: C18_22  and  C19_23 
REMARK   12  A    between atoms: C19_23  and  N3_24 
ROOT
HETATM    1  N2  UNL     1      16.009 -15.956  22.174  1.00  0.00    -0.347 N 
ATOM      2  H2  UNL     1      16.213 -15.391  22.999  1.00  0.00     0.163 HD
HETATM    3  C14 UNL     1      16.712 -15.707  20.962  1.00  0.00     0.242 C 
HETATM    4  O1  UNL     1      16.423 -16.434  19.978  1.00  0.00    -0.269 OA
ENDROOT
BRANCH   1   5
HETATM    5  C13 UNL     1      15.010 -16.998  22.254  1.00  0.00     0.217 C 
BRANCH   5   6
HETATM    6  C12 UNL     1      15.253 -17.887  23.391  1.00  0.00    -0.085 C 
HETATM    7  C11 UNL     1      15.472 -18.614  24.330  1.00  0.00    -0.076 C 
BRANCH   7   8
HETATM    8  C10 UNL     1      15.763 -19.510  25.468  1.00  0.00     0.346 C 
BRANCH   8   9
HETATM    9  N1  UNL     1      17.210 -19.657  25.505  1.00  0.00     0.001 N 
HETATM   10  C8  UNL     1      17.559 -20.234  26.786  1.00  0.00     0.291 C 
HETATM   11  C9  UNL     1      17.616 -20.498  24.395  1.00  0.00     0.291 C 
BRANCH   9  12
HETATM   12  C7  UNL     1      17.764 -18.385  25.325  1.00  0.00     0.130 C 
HETATM   13  C6  UNL     1      18.228 -17.283  25.154  1.00  0.00     0.015 C 
BRANCH  13  14
HETATM   14  C5  UNL     1      18.760 -15.990  24.933  1.00  0.00    -0.013 C 
HETATM   15  C4  UNL     1      19.207 -14.886  24.725  1.00  0.00    -0.092 C 
BRANCH  15  16
HETATM   16  C3  UNL     1      19.757 -13.557  24.450  1.00  0.00     0.094 C 
BRANCH  16  17
HETATM   17  C2  UNL     1      21.096 -13.367  25.158  1.00  0.00     0.007 C 
HETATM   18  C1  UNL     1      20.756 -12.951  26.588  1.00  0.00     0.006 C 
ENDBRANCH  16  17
ENDBRANCH  15  16
ENDBRANCH  13  14
ENDBRANCH   9  12
ENDBRANCH   8   9
ENDBRANCH   7   8
ENDBRANCH   5   6
ENDBRANCH   1   5
BRANCH   3  19
HETATM   19  C15 UNL     1      17.715 -14.656  20.895  1.00  0.00     0.083 C 
HETATM   20  C16 UNL     1      17.383 -13.386  20.800  1.00  0.00     0.070 C 
BRANCH  20  21
HETATM   21  C17 UNL     1      16.036 -12.909  20.754  1.00  0.00    -0.077 C 
HETATM   22  C18 UNL     1      14.886 -12.505  20.741  1.00  0.00    -0.072 C 
BRANCH  22  23
HETATM   23  C19 UNL     1      13.519 -12.026  20.742  1.00  0.00     0.368 C 
BRANCH  23  24
HETATM   24  N3  UNL     1      13.039 -11.888  22.117  1.00  0.00     0.125 N 
HETATM   25  C20 UNL     1      11.898 -12.742  22.279  1.00  0.00     0.399 C 
HETATM   26  N4  UNL     1      10.977 -12.035  23.115  1.00  0.00    -0.334 N 
HETATM   27  C21 UNL     1      11.498 -10.726  23.322  1.00  0.00     0.247 C 
ATOM     28  H4  UNL     1      10.104 -12.401  23.494  1.00  0.00     0.164 HD
HETATM   29  O2  UNL     1      11.128  -9.874  24.142  1.00  0.00    -0.272 OA
HETATM   30  C22 UNL     1      12.617 -10.535  22.348  1.00  0.00     0.377 C 
ENDBRANCH  23  24
ENDBRANCH  22  23
ENDBRANCH  20  21
ENDBRANCH   3  19
TORSDOF 12
ENDMDL
MODEL 2
REMARK VINA RESULT: -6.736524107      4.382      9.896
REMARK  12 active torsions:
REMARK  status: ('A' for Active; 'I' for Inactive)
REMARK    1  A    between atoms: C2_2  and  C3_3 
REMARK    2  A    between atoms: C3_3  and  C4_4 
REMARK    3  A    between atoms: C5_5  and  C6_6 
REMARK    4  A    between atoms: C7_7  and  N1_8 
REMARK    5  A    between atoms: N1_8  and  C10_11 
REMARK    6  A    between atoms: C10_11  and  C11_12 
REMARK    7  A    between atoms: C12_13  and  C13_14 
REMARK    8  A    between atoms: C13_14  and  N2_15 
REMARK       I    between atoms: N2_15  and  C14_17 
REMARK    9  A    between atoms: C14_17  and  C15_19 
REMARK   10  A    between atoms: C16_20  and  C17_21 
REMARK   11  A    between atoms: C18_22  and  C19_23 
REMARK   12  A    between atoms: C19_23  and  N3_24 
ROOT
HETATM    1  N2  UNL     1      19.216 -14.256  23.458  1.00  0.00    -0.347 N 
ATOM      2  H2  UNL     1      18.453 -14.205  24.133  1.00  0.00     0.163 HD
HETATM    3  C14 UNL     1      20.489 -13.718  23.796  1.00  0.00     0.242 C 
HETATM    4  O1  UNL     1      21.394 -13.809  22.928  1.00  0.00    -0.269 OA
ENDROOT
BRANCH   1   5
HETATM    5  C13 UNL     1      18.987 -14.875  22.170  1.00  0.00     0.217 C 
BRANCH   5   6
HETATM    6  C12 UNL     1      18.467 -13.913  21.199  1.00  0.00    -0.085 C 
HETATM    7  C11 UNL     1      18.053 -13.122  20.385  1.00  0.00    -0.076 C 
BRANCH   7   8
HETATM    8  C10 UNL     1      17.571 -12.142  19.390  1.00  0.00     0.346 C 
BRANCH   8   9
HETATM    9  N1  UNL     1      16.230 -12.568  19.022  1.00  0.00     0.001 N 
HETATM   10  C8  UNL     1      16.017 -12.199  17.639  1.00  0.00     0.291 C 
HETATM   11  C9  UNL     1      16.128 -13.999  19.231  1.00  0.00     0.291 C 
BRANCH   9  12
HETATM   12  C7  UNL     1      15.336 -11.928  19.888  1.00  0.00     0.130 C 
HETATM   13  C6  UNL     1      14.556 -11.394  20.640  1.00  0.00     0.015 C 
BRANCH  13  14
HETATM   14  C5  UNL     1      13.631 -10.789  21.524  1.00  0.00    -0.013 C 
HETATM   15  C4  UNL     1      12.852 -10.254  22.278  1.00  0.00    -0.092 C 
BRANCH  15  16
HETATM   16  C3  UNL     1      11.927  -9.596  23.204  1.00  0.00     0.094 C 
BRANCH  16  17
HETATM   17  C2  UNL     1      12.591  -8.393  23.869  1.00  0.00     0.007 C 
HETATM   18  C1  UNL     1      11.518  -7.764  24.757  1.00  0.00     0.006 C 
ENDBRANCH  16  17
ENDBRANCH  15  16
ENDBRANCH  13  14
ENDBRANCH   9  12
ENDBRANCH   8   9
ENDBRANCH   7   8
ENDBRANCH   5   6
ENDBRANCH   1   5
BRANCH   3  19
HETATM   19  C15 UNL     1      20.706 -13.098  25.094  1.00  0.00     0.083 C 
HETATM   20  C16 UNL     1      21.244 -13.758  26.097  1.00  0.00     0.070 C 
BRANCH  20  21
HETATM   21  C17 UNL     1      21.666 -15.122  26.026  1.00  0.00    -0.077 C 
HETATM   22  C18 UNL     1      22.028 -16.283  25.940  1.00  0.00    -0.072 C 
BRANCH  22  23
HETATM   23  C19 UNL     1      22.461 -17.661  25.822  1.00  0.00     0.368 C 
BRANCH  23  24
HETATM   24  N3  UNL     1      23.617 -17.745  24.929  1.00  0.00     0.125 N 
HETATM   25  C20 UNL     1      24.795 -17.466  25.697  1.00  0.00     0.399 C 
HETATM   26  N4  UNL     1      25.659 -16.701  24.851  1.00  0.00    -0.334 N 
HETATM   27  C21 UNL     1      24.943 -16.405  23.656  1.00  0.00     0.247 C 
ATOM     28  H4  UNL     1      26.615 -16.418  25.065  1.00  0.00     0.164 HD
HETATM   29  O2  UNL     1      25.385 -15.952  22.590  1.00  0.00    -0.272 OA
HETATM   30  C22 UNL     1      23.508 -16.746  23.903  1.00  0.00     0.377 C 
ENDBRANCH  23  24
ENDBRANCH  22  23
ENDBRANCH  20  21
ENDBRANCH   3  19
TORSDOF 12
ENDMDL
MODEL 3
REMARK VINA RESULT: -6.718856677      3.185      4.697
REMARK  12 active torsions:
REMARK  status: ('A' for Active; 'I' for Inactive)
REMARK    1  A    between atoms: C2_2  and  C3_3 
REMARK    2  A    between atoms: C3_3  and  C4_4 
REMARK    3  A    between atoms: C5_5  and  C6_6 
REMARK    4  A    between atoms: C7_7  and  N1_8 
REMARK    5  A    between atoms: N1_8  and  C10_11 
REMARK    6  A    between atoms: C10_11  and  C11_12 
REMARK    7  A    between atoms: C12_13  and  C13_14 
REMARK    8  A    between atoms: C13_14  and  N2_15 
REMARK       I    between atoms: N2_15  and  C14_17 
REMARK    9  A    between atoms: C14_17  and  C15_19 
REMARK   10  A    between atoms: C16_20  and  C17_21 
REMARK   11  A    between atoms: C18_22  and  C19_23 
REMARK   12  A    between atoms: C19_23  and  N3_24 
ROOT
HETATM    1  N2  UNL     1      17.002 -13.253  21.817  1.00  0.00    -0.347 N 
ATOM      2  H2  UNL     1      17.193 -12.275  22.035  1.00  0.00     0.163 HD
HETATM    3  C14 UNL     1      16.622 -13.617  20.495  1.00  0.00     0.242 C 
HETATM    4  O1  UNL     1      16.400 -14.836  20.282  1.00  0.00    -0.269 OA
ENDROOT
BRANCH   1   5
HETATM    5  C13 UNL     1      17.122 -14.250  22.858  1.00  0.00     0.217 C 
BRANCH   5   6
HETATM    6  C12 UNL     1      18.345 -14.063  23.640  1.00  0.00    -0.085 C 
HETATM    7  C11 UNL     1      19.359 -13.894  24.274  1.00  0.00    -0.076 C 
BRANCH   7   8
HETATM    8  C10 UNL     1      20.613 -13.685  25.027  1.00  0.00     0.346 C 
BRANCH   8   9
HETATM    9  N1  UNL     1      21.581 -14.612  24.462  1.00  0.00     0.001 N 
HETATM   10  C8  UNL     1      20.968 -15.236  23.308  1.00  0.00     0.291 C 
HETATM   11  C9  UNL     1      22.779 -13.874  24.115  1.00  0.00     0.291 C 
BRANCH   9  12
HETATM   12  C7  UNL     1      21.902 -15.539  25.460  1.00  0.00     0.130 C 
HETATM   13  C6  UNL     1      22.168 -16.328  26.335  1.00  0.00     0.015 C 
BRANCH  13  14
HETATM   14  C5  UNL     1      22.470 -17.238  27.377  1.00  0.00    -0.013 C 
HETATM   15  C4  UNL     1      22.743 -18.001  28.274  1.00  0.00    -0.092 C 
BRANCH  15  16
HETATM   16  C3  UNL     1      23.097 -18.923  29.356  1.00  0.00     0.094 C 
BRANCH  16  17
HETATM   17  C2  UNL     1      22.814 -18.294  30.717  1.00  0.00     0.007 C 
HETATM   18  C1  UNL     1      23.817 -17.152  30.866  1.00  0.00     0.006 C 
ENDBRANCH  16  17
ENDBRANCH  15  16
ENDBRANCH  13  14
ENDBRANCH   9  12
ENDBRANCH   8   9
ENDBRANCH   7   8
ENDBRANCH   5   6
ENDBRANCH   1   5
BRANCH   3  19
HETATM   19  C15 UNL     1      16.504 -12.604  19.457  1.00  0.00     0.083 C 
HETATM   20  C16 UNL     1      15.406 -11.895  19.301  1.00  0.00     0.070 C 
BRANCH  20  21
HETATM   21  C17 UNL     1      14.237 -12.036  20.111  1.00  0.00    -0.077 C 
HETATM   22  C18 UNL     1      13.229 -12.136  20.788  1.00  0.00    -0.072 C 
BRANCH  22  23
HETATM   23  C19 UNL     1      12.023 -12.244  21.585  1.00  0.00     0.368 C 
BRANCH  23  24
HETATM   24  N3  UNL     1      12.200 -11.543  22.856  1.00  0.00     0.125 N 
HETATM   25  C20 UNL     1      11.113 -11.902  23.719  1.00  0.00     0.399 C 
HETATM   26  N4  UNL     1      10.763 -10.719  24.444  1.00  0.00    -0.334 N 
HETATM   27  C21 UNL     1      11.529  -9.643  23.912  1.00  0.00     0.247 C 
ATOM     28  H4  UNL     1      10.086 -10.657  25.204  1.00  0.00     0.164 HD
HETATM   29  O2  UNL     1      11.686  -8.507  24.383  1.00  0.00    -0.272 OA
HETATM   30  C22 UNL     1      12.144 -10.124  22.637  1.00  0.00     0.377 C 
ENDBRANCH  23  24
ENDBRANCH  22  23
ENDBRANCH  20  21
ENDBRANCH   3  19
TORSDOF 12
ENDMDL
MODEL 4
REMARK VINA RESULT: -6.608116952      2.261      2.719
REMARK  12 active torsions:
REMARK  status: ('A' for Active; 'I' for Inactive)
REMARK    1  A    between atoms: C2_2  and  C3_3 
REMARK    2  A    between atoms: C3_3  and  C4_4 
REMARK    3  A    between atoms: C5_5  and  C6_6 
REMARK    4  A    between atoms: C7_7  and  N1_8 
REMARK    5  A    between atoms: N1_8  and  C10_11 
REMARK    6  A    between atoms: C10_11  and  C11_12 
REMARK    7  A    between atoms: C12_13  and  C13_14 
REMARK    8  A    between atoms: C13_14  and  N2_15 
REMARK       I    between atoms: N2_15  and  C14_17 
REMARK    9  A    between atoms: C14_17  and  C15_19 
REMARK   10  A    between atoms: C16_20  and  C17_21 
REMARK   11  A    between atoms: C18_22  and  C19_23 
REMARK   12  A    between atoms: C19_23  and  N3_24 
ROOT
HETATM    1  N2  UNL     1      16.044 -15.314  20.261  1.00  0.00    -0.347 N 
ATOM      2  H2  UNL     1      15.719 -15.449  19.304  1.00  0.00     0.163 HD
HETATM    3  C14 UNL     1      16.574 -14.052  20.651  1.00  0.00     0.242 C 
HETATM    4  O1  UNL     1      16.958 -13.941  21.843  1.00  0.00    -0.269 OA
ENDROOT
BRANCH   1   5
HETATM    5  C13 UNL     1      15.960 -16.409  21.202  1.00  0.00     0.217 C 
BRANCH   5   6
HETATM    6  C12 UNL     1      17.048 -17.368  21.007  1.00  0.00    -0.085 C 
HETATM    7  C11 UNL     1      17.949 -18.152  20.827  1.00  0.00    -0.076 C 
BRANCH   7   8
HETATM    8  C10 UNL     1      19.040 -19.117  20.584  1.00  0.00     0.346 C 
BRANCH   8   9
HETATM    9  N1  UNL     1      19.605 -19.424  21.888  1.00  0.00     0.001 N 
HETATM   10  C8  UNL     1      18.571 -20.066  22.673  1.00  0.00     0.291 C 
HETATM   11  C9  UNL     1      20.762 -20.278  21.701  1.00  0.00     0.291 C 
BRANCH   9  12
HETATM   12  C7  UNL     1      20.030 -18.217  22.454  1.00  0.00     0.130 C 
HETATM   13  C6  UNL     1      20.415 -17.176  22.930  1.00  0.00     0.015 C 
BRANCH  13  14
HETATM   14  C5  UNL     1      20.887 -15.959  23.479  1.00  0.00    -0.013 C 
HETATM   15  C4  UNL     1      21.275 -14.922  23.963  1.00  0.00    -0.092 C 
BRANCH  15  16
HETATM   16  C3  UNL     1      21.723 -13.658  24.553  1.00  0.00     0.094 C 
BRANCH  16  17
HETATM   17  C2  UNL     1      20.552 -12.911  25.187  1.00  0.00     0.007 C 
HETATM   18  C1  UNL     1      20.779 -12.987  26.696  1.00  0.00     0.006 C 
ENDBRANCH  16  17
ENDBRANCH  15  16
ENDBRANCH  13  14
ENDBRANCH   9  12
ENDBRANCH   8   9
ENDBRANCH   7   8
ENDBRANCH   5   6
ENDBRANCH   1   5
BRANCH   3  19
HETATM   19  C15 UNL     1      16.653 -12.959  19.695  1.00  0.00     0.083 C 
HETATM   20  C16 UNL     1      15.665 -12.104  19.534  1.00  0.00     0.070 C 
BRANCH  20  21
HETATM   21  C17 UNL     1      14.436 -12.152  20.262  1.00  0.00    -0.077 C 
HETATM   22  C18 UNL     1      13.375 -12.181  20.862  1.00  0.00    -0.072 C 
BRANCH  22  23
HETATM   23  C19 UNL     1      12.107 -12.209  21.563  1.00  0.00     0.368 C 
BRANCH  23  24
HETATM   24  N3  UNL     1      12.236 -11.535  22.855  1.00  0.00     0.125 N 
HETATM   25  C20 UNL     1      11.129 -11.930  23.676  1.00  0.00     0.399 C 
HETATM   26  N4  UNL     1      10.739 -10.769  24.417  1.00  0.00    -0.334 N 
HETATM   27  C21 UNL     1      11.505  -9.670  23.934  1.00  0.00     0.247 C 
ATOM     28  H4  UNL     1      10.039 -10.734  25.157  1.00  0.00     0.164 HD
HETATM   29  O2  UNL     1      11.631  -8.543  24.435  1.00  0.00    -0.272 OA
HETATM   30  C22 UNL     1      12.165 -10.113  22.667  1.00  0.00     0.377 C 
ENDBRANCH  23  24
ENDBRANCH  22  23
ENDBRANCH  20  21
ENDBRANCH   3  19
TORSDOF 12
ENDMDL
MODEL 5
REMARK VINA RESULT: -6.569306807      1.006      1.270
REMARK  12 active torsions:
REMARK  status: ('A' for Active; 'I' for Inactive)
REMARK    1  A    between atoms: C2_2  and  C3_3 
REMARK    2  A    between atoms: C3_3  and  C4_4 
REMARK    3  A    between atoms: C5_5  and  C6_6 
REMARK    4  A    between atoms: C7_7  and  N1_8 
REMARK    5  A    between atoms: N1_8  and  C10_11 
REMARK    6  A    between atoms: C10_11  and  C11_12 
REMARK    7  A    between atoms: C12_13  and  C13_14 
REMARK    8  A    between atoms: C13_14  and  N2_15 
REMARK       I    between atoms: N2_15  and  C14_17 
REMARK    9  A    between atoms: C14_17  and  C15_19 
REMARK   10  A    between atoms: C16_20  and  C17_21 
REMARK   11  A    between atoms: C18_22  and  C19_23 
REMARK   12  A    between atoms: C19_23  and  N3_24 
ROOT
HETATM    1  N2  UNL     1      16.746 -16.532  20.198  1.00  0.00    -0.347 N 
ATOM      2  H2  UNL     1      17.352 -16.591  19.380  1.00  0.00     0.163 HD
HETATM    3  C14 UNL     1      16.859 -15.420  21.078  1.00  0.00     0.242 C 
HETATM    4  O1  UNL     1      16.085 -15.397  22.069  1.00  0.00    -0.269 OA
ENDROOT
BRANCH   1   5
HETATM    5  C13 UNL     1      15.782 -17.582  20.446  1.00  0.00     0.217 C 
BRANCH   5   6
HETATM    6  C12 UNL     1      16.190 -18.430  21.566  1.00  0.00    -0.085 C 
HETATM    7  C11 UNL     1      16.544 -19.120  22.492  1.00  0.00    -0.076 C 
BRANCH   7   8
HETATM    8  C10 UNL     1      17.001 -19.969  23.612  1.00  0.00     0.346 C 
BRANCH   8   9
HETATM    9  N1  UNL     1      16.683 -19.237  24.827  1.00  0.00     0.001 N 
HETATM   10  C8  UNL     1      15.243 -19.114  24.900  1.00  0.00     0.291 C 
HETATM   11  C9  UNL     1      17.231 -19.961  25.958  1.00  0.00     0.291 C 
BRANCH   9  12
HETATM   12  C7  UNL     1      17.321 -17.994  24.745  1.00  0.00     0.130 C 
HETATM   13  C6  UNL     1      17.886 -16.930  24.662  1.00  0.00     0.015 C 
BRANCH  13  14
HETATM   14  C5  UNL     1      18.568 -15.693  24.555  1.00  0.00    -0.013 C 
HETATM   15  C4  UNL     1      19.168 -14.648  24.466  1.00  0.00    -0.092 C 
BRANCH  15  16
HETATM   16  C3  UNL     1      19.911 -13.389  24.375  1.00  0.00     0.094 C 
BRANCH  16  17
HETATM   17  C2  UNL     1      21.174 -13.442  25.230  1.00  0.00     0.007 C 
HETATM   18  C1  UNL     1      20.764 -12.936  26.612  1.00  0.00     0.006 C 
ENDBRANCH  16  17
ENDBRANCH  15  16
ENDBRANCH  13  14
ENDBRANCH   9  12
ENDBRANCH   8   9
ENDBRANCH   7   8
ENDBRANCH   5   6
ENDBRANCH   1   5
BRANCH   3  19
HETATM   19  C15 UNL     1      17.833 -14.371  20.818  1.00  0.00     0.083 C 
HETATM   20  C16 UNL     1      17.471 -13.120  20.628  1.00  0.00     0.070 C 
BRANCH  20  21
HETATM   21  C17 UNL     1      16.117 -12.662  20.657  1.00  0.00    -0.077 C 
HETATM   22  C18 UNL     1      14.955 -12.296  20.674  1.00  0.00    -0.072 C 
BRANCH  22  23
HETATM   23  C19 UNL     1      13.568 -11.875  20.691  1.00  0.00     0.368 C 
BRANCH  23  24
HETATM   24  N3  UNL     1      13.079 -11.826  22.069  1.00  0.00     0.125 N 
HETATM   25  C20 UNL     1      11.957 -12.713  22.176  1.00  0.00     0.399 C 
HETATM   26  N4  UNL     1      11.016 -12.074  23.044  1.00  0.00    -0.334 N 
HETATM   27  C21 UNL     1      11.507 -10.768  23.328  1.00  0.00     0.247 C 
ATOM     28  H4  UNL     1      10.150 -12.481  23.397  1.00  0.00     0.164 HD
HETATM   29  O2  UNL     1      11.113  -9.972  24.192  1.00  0.00    -0.272 OA
HETATM   30  C22 UNL     1      12.625 -10.497  22.373  1.00  0.00     0.377 C 
ENDBRANCH  23  24
ENDBRANCH  22  23
ENDBRANCH  20  21
ENDBRANCH   3  19
TORSDOF 12
ENDMDL
