MODEL 1
REMARK VINA RESULT: -6.446956096      0.000      0.000
REMARK  11 active torsions:
REMARK  status: ('A' for Active; 'I' for Inactive)
REMARK    1  A    between atoms: C2_2  and  N1_3 
REMARK    2  A    between atoms: C2_2  and  C9_14 
REMARK    3  A    between atoms: N1_3  and  C3_6 
REMARK    4  A    between atoms: C3_6  and  C4_7 
REMARK    5  A    between atoms: C5_8  and  C6_9 
REMARK    6  A    between atoms: C6_9  and  N2_10 
REMARK       I    between atoms: C9_14  and  N3_16 
REMARK    7  A    between atoms: N3_16  and  C10_18 
REMARK    8  A    between atoms: C11_19  and  C12_20 
REMARK    9  A    between atoms: C12_20  and  C13_21 
REMARK   10  A    between atoms: C14_22  and  C15_23 
REMARK   11  A    between atoms: C15_23  and  N4_24 
ROOT
HETATM    1  C9  UNL     1      19.850 -14.305  21.216  1.00  0.00     0.248 C 
HETATM    2  O2  UNL     1      20.217 -15.407  20.740  1.00  0.00    -0.271 OA
HETATM    3  N3  UNL     1      19.849 -14.034  22.612  1.00  0.00    -0.353 N 
ATOM      4  H3  UNL     1      19.536 -13.115  22.923  1.00  0.00     0.163 HD
ENDROOT
BRANCH   1   5
HETATM    5  C2  UNL     1      19.402 -13.255  20.274  1.00  0.00     0.274 C 
HETATM    6  C1  UNL     1      20.544 -12.275  20.120  1.00  0.00     0.050 C 
BRANCH   5   7
HETATM    7  N1  UNL     1      18.198 -12.599  20.745  1.00  0.00    -0.053 N 
ATOM      8  H12 UNL     1      17.576 -13.252  21.224  1.00  0.00     0.279 HD
ATOM      9  H11 UNL     1      18.392 -11.970  21.524  1.00  0.00     0.279 HD
BRANCH   7  10
HETATM   10  C3  UNL     1      17.517 -11.911  19.659  1.00  0.00     0.326 C 
BRANCH  10  11
HETATM   11  C4  UNL     1      16.077 -11.899  19.844  1.00  0.00    -0.077 C 
HETATM   12  C5  UNL     1      14.874 -11.881  20.005  1.00  0.00    -0.069 C 
BRANCH  12  13
HETATM   13  C6  UNL     1      13.424 -11.849  20.224  1.00  0.00     0.404 C 
BRANCH  13  14
HETATM   14  N2  UNL     1      13.183 -11.834  21.649  1.00  0.00     0.015 N 
HETATM   15  C7  UNL     1      13.023 -10.493  22.161  1.00  0.00     0.357 C 
HETATM   16  C8  UNL     1      11.949 -12.571  21.889  1.00  0.00     0.357 C 
HETATM   17  O1  UNL     1      14.241 -12.441  22.257  1.00  0.00    -0.064 OA
ENDBRANCH  13  14
ENDBRANCH  12  13
ENDBRANCH  10  11
ENDBRANCH   7  10
ENDBRANCH   5   7
ENDBRANCH   1   5
BRANCH   3  18
HETATM   18  C10 UNL     1      20.261 -14.977  23.604  1.00  0.00     0.098 A 
HETATM   19  C11 UNL     1      19.299 -15.331  24.759  1.00  0.00     0.030 A 
HETATM   20  C19 UNL     1      20.457 -14.526  25.057  1.00  0.00    -0.020 A 
HETATM   21  C20 UNL     1      21.750 -14.947  25.640  1.00  0.00     0.017 C 
HETATM   22  C21 UNL     1      20.217 -13.005  25.181  1.00  0.00     0.017 C 
BRANCH  19  23
HETATM   23  C12 UNL     1      19.055 -16.772  24.883  1.00  0.00     0.101 C 
BRANCH  23  24
HETATM   24  C13 UNL     1      17.730 -17.184  24.527  1.00  0.00    -0.104 C 
HETATM   25  C14 UNL     1      16.610 -17.558  24.195  1.00  0.00    -0.079 C 
BRANCH  25  26
HETATM   26  C15 UNL     1      15.274 -17.991  23.776  1.00  0.00     0.329 C 
BRANCH  26  27
HETATM   27  N4  UNL     1      15.266 -17.977  22.327  1.00  0.00    -0.069 N 
HETATM   28  C16 UNL     1      16.094 -19.025  21.769  1.00  0.00     0.272 C 
HETATM   29  C17 UNL     1      13.902 -18.231  21.908  1.00  0.00     0.272 C 
HETATM   30  C18 UNL     1      15.628 -16.661  21.817  1.00  0.00     0.272 C 
ENDBRANCH  26  27
ENDBRANCH  25  26
ENDBRANCH  23  24
ENDBRANCH  19  23
ENDBRANCH   3  18
TORSDOF 11
ENDMDL
MODEL 2
REMARK VINA RESULT: -6.432471117      2.785      5.181
REMARK  11 active torsions:
REMARK  status: ('A' for Active; 'I' for Inactive)
REMARK    1  A    between atoms: C2_2  and  N1_3 
REMARK    2  A    between atoms: C2_2  and  C9_14 
REMARK    3  A    between atoms: N1_3  and  C3_6 
REMARK    4  A    between atoms: C3_6  and  C4_7 
REMARK    5  A    between atoms: C5_8  and  C6_9 
REMARK    6  A    between atoms: C6_9  and  N2_10 
REMARK       I    between atoms: C9_14  and  N3_16 
REMARK    7  A    between atoms: N3_16  and  C10_18 
REMARK    8  A    between atoms: C11_19  and  C12_20 
REMARK    9  A    between atoms: C12_20  and  C13_21 
REMARK   10  A    between atoms: C14_22  and  C15_23 
REMARK   11  A    between atoms: C15_23  and  N4_24 
ROOT
HETATM    1  C9  UNL     1      20.302 -13.441  21.455  1.00  0.00     0.248 C 
HETATM    2  O2  UNL     1      21.329 -12.725  21.362  1.00  0.00    -0.271 OA
HETATM    3  N3  UNL     1      19.983 -14.177  22.628  1.00  0.00    -0.353 N 
ATOM      4  H3  UNL     1      19.131 -14.737  22.628  1.00  0.00     0.163 HD
ENDROOT
BRANCH   1   5
HETATM    5  C2  UNL     1      19.397 -13.511  20.286  1.00  0.00     0.274 C 
HETATM    6  C1  UNL     1      19.986 -12.629  19.209  1.00  0.00     0.050 C 
BRANCH   5   7
HETATM    7  N1  UNL     1      18.050 -13.098  20.634  1.00  0.00    -0.053 N 
ATOM      8  H12 UNL     1      17.467 -13.895  20.890  1.00  0.00     0.279 HD
ATOM      9  H11 UNL     1      18.028 -12.598  21.523  1.00  0.00     0.279 HD
BRANCH   7  10
HETATM   10  C3  UNL     1      17.450 -12.316  19.565  1.00  0.00     0.326 C 
BRANCH  10  11
HETATM   11  C4  UNL     1      16.031 -12.096  19.786  1.00  0.00    -0.077 C 
HETATM   12  C5  UNL     1      14.845 -11.921  19.976  1.00  0.00    -0.069 C 
BRANCH  12  13
HETATM   13  C6  UNL     1      13.408 -11.736  20.205  1.00  0.00     0.404 C 
BRANCH  13  14
HETATM   14  N2  UNL     1      13.169 -11.782  21.630  1.00  0.00     0.015 N 
HETATM   15  C7  UNL     1      12.978 -10.467  22.194  1.00  0.00     0.357 C 
HETATM   16  C8  UNL     1      11.954 -12.557  21.842  1.00  0.00     0.357 C 
HETATM   17  O1  UNL     1      14.242 -12.388  22.213  1.00  0.00    -0.064 OA
ENDBRANCH  13  14
ENDBRANCH  12  13
ENDBRANCH  10  11
ENDBRANCH   7  10
ENDBRANCH   5   7
ENDBRANCH   1   5
BRANCH   3  18
HETATM   18  C10 UNL     1      20.789 -14.178  23.808  1.00  0.00     0.098 A 
HETATM   19  C11 UNL     1      20.806 -15.430  24.714  1.00  0.00     0.030 A 
HETATM   20  C19 UNL     1      20.126 -14.251  25.190  1.00  0.00    -0.020 A 
HETATM   21  C20 UNL     1      20.611 -13.222  26.136  1.00  0.00     0.017 C 
HETATM   22  C21 UNL     1      18.588 -14.246  25.046  1.00  0.00     0.017 C 
BRANCH  19  23
HETATM   23  C12 UNL     1      22.158 -15.942  24.961  1.00  0.00     0.101 C 
BRANCH  23  24
HETATM   24  C13 UNL     1      22.295 -16.704  26.166  1.00  0.00    -0.104 C 
HETATM   25  C14 UNL     1      22.435 -17.330  27.212  1.00  0.00    -0.079 C 
BRANCH  25  26
HETATM   26  C15 UNL     1      22.627 -18.082  28.454  1.00  0.00     0.329 C 
BRANCH  26  27
HETATM   27  N4  UNL     1      23.887 -17.641  29.019  1.00  0.00    -0.069 N 
HETATM   28  C16 UNL     1      23.824 -16.273  29.486  1.00  0.00     0.272 C 
HETATM   29  C17 UNL     1      24.154 -18.482  30.169  1.00  0.00     0.272 C 
HETATM   30  C18 UNL     1      24.980 -17.850  28.078  1.00  0.00     0.272 C 
ENDBRANCH  26  27
ENDBRANCH  25  26
ENDBRANCH  23  24
ENDBRANCH  19  23
ENDBRANCH   3  18
TORSDOF 11
ENDMDL
MODEL 3
REMARK VINA RESULT: -6.340297158      2.241      2.927
REMARK  11 active torsions:
REMARK  status: ('A' for Active; 'I' for Inactive)
REMARK    1  A    between atoms: C2_2  and  N1_3 
REMARK    2  A    between atoms: C2_2  and  C9_14 
REMARK    3  A    between atoms: N1_3  and  C3_6 
REMARK    4  A    between atoms: C3_6  and  C4_7 
REMARK    5  A    between atoms: C5_8  and  C6_9 
REMARK    6  A    between atoms: C6_9  and  N2_10 
REMARK       I    between atoms: C9_14  and  N3_16 
REMARK    7  A    between atoms: N3_16  and  C10_18 
REMARK    8  A    between atoms: C11_19  and  C12_20 
REMARK    9  A    between atoms: C12_20  and  C13_21 
REMARK   10  A    between atoms: C14_22  and  C15_23 
REMARK   11  A    between atoms: C15_23  and  N4_24 
ROOT
HETATM    1  C9  UNL     1      19.720 -14.283  21.214  1.00  0.00     0.248 C 
HETATM    2  O2  UNL     1      20.225 -15.309  20.696  1.00  0.00    -0.271 OA
HETATM    3  N3  UNL     1      19.637 -14.095  22.620  1.00  0.00    -0.353 N 
ATOM      4  H3  UNL     1      19.213 -13.234  22.966  1.00  0.00     0.163 HD
ENDROOT
BRANCH   1   5
HETATM    5  C2  UNL     1      19.195 -13.235  20.310  1.00  0.00     0.274 C 
HETATM    6  C1  UNL     1      20.334 -12.284  20.016  1.00  0.00     0.050 C 
BRANCH   5   7
HETATM    7  N1  UNL     1      18.064 -12.544  20.900  1.00  0.00    -0.053 N 
ATOM      8  H12 UNL     1      17.978 -12.747  21.897  1.00  0.00     0.279 HD
ATOM      9  H11 UNL     1      18.227 -11.539  20.960  1.00  0.00     0.279 HD
BRANCH   7  10
HETATM   10  C3  UNL     1      16.834 -12.847  20.185  1.00  0.00     0.326 C 
BRANCH  10  11
HETATM   11  C4  UNL     1      16.853 -12.320  18.831  1.00  0.00    -0.077 C 
HETATM   12  C5  UNL     1      16.876 -11.885  17.698  1.00  0.00    -0.069 C 
BRANCH  12  13
HETATM   13  C6  UNL     1      16.930 -11.365  16.328  1.00  0.00     0.404 C 
BRANCH  13  14
HETATM   14  N2  UNL     1      15.601 -11.437  15.765  1.00  0.00     0.015 N 
HETATM   15  C7  UNL     1      15.425 -10.526  14.659  1.00  0.00     0.357 C 
HETATM   16  C8  UNL     1      15.408 -12.797  15.279  1.00  0.00     0.357 C 
HETATM   17  O1  UNL     1      14.712 -11.142  16.757  1.00  0.00    -0.064 OA
ENDBRANCH  13  14
ENDBRANCH  12  13
ENDBRANCH  10  11
ENDBRANCH   7  10
ENDBRANCH   5   7
ENDBRANCH   1   5
BRANCH   3  18
HETATM   18  C10 UNL     1      20.114 -15.043  23.577  1.00  0.00     0.098 A 
HETATM   19  C11 UNL     1      19.248 -15.372  24.814  1.00  0.00     0.030 A 
HETATM   20  C19 UNL     1      20.445 -14.592  25.005  1.00  0.00    -0.020 A 
HETATM   21  C20 UNL     1      21.775 -15.039  25.476  1.00  0.00     0.017 C 
HETATM   22  C21 UNL     1      20.250 -13.065  25.142  1.00  0.00     0.017 C 
BRANCH  19  23
HETATM   23  C12 UNL     1      18.985 -16.807  24.967  1.00  0.00     0.101 C 
BRANCH  23  24
HETATM   24  C13 UNL     1      17.694 -17.227  24.508  1.00  0.00    -0.104 C 
HETATM   25  C14 UNL     1      16.576 -17.584  24.151  1.00  0.00    -0.079 C 
BRANCH  25  26
HETATM   26  C15 UNL     1      15.244 -18.031  23.738  1.00  0.00     0.329 C 
BRANCH  26  27
HETATM   27  N4  UNL     1      15.225 -18.002  22.289  1.00  0.00    -0.069 N 
HETATM   28  C16 UNL     1      16.062 -19.033  21.714  1.00  0.00     0.272 C 
HETATM   29  C17 UNL     1      13.861 -18.268  21.876  1.00  0.00     0.272 C 
HETATM   30  C18 UNL     1      15.568 -16.676  21.790  1.00  0.00     0.272 C 
ENDBRANCH  26  27
ENDBRANCH  25  26
ENDBRANCH  23  24
ENDBRANCH  19  23
ENDBRANCH   3  18
TORSDOF 11
ENDMDL
MODEL 4
REMARK VINA RESULT: -6.286863051      0.774      1.141
REMARK  11 active torsions:
REMARK  status: ('A' for Active; 'I' for Inactive)
REMARK    1  A    between atoms: C2_2  and  N1_3 
REMARK    2  A    between atoms: C2_2  and  C9_14 
REMARK    3  A    between atoms: N1_3  and  C3_6 
REMARK    4  A    between atoms: C3_6  and  C4_7 
REMARK    5  A    between atoms: C5_8  and  C6_9 
REMARK    6  A    between atoms: C6_9  and  N2_10 
REMARK       I    between atoms: C9_14  and  N3_16 
REMARK    7  A    between atoms: N3_16  and  C10_18 
REMARK    8  A    between atoms: C11_19  and  C12_20 
REMARK    9  A    between atoms: C12_20  and  C13_21 
REMARK   10  A    between atoms: C14_22  and  C15_23 
REMARK   11  A    between atoms: C15_23  and  N4_24 
ROOT
HETATM    1  C9  UNL     1      19.846 -14.362  21.270  1.00  0.00     0.248 C 
HETATM    2  O2  UNL     1      20.231 -15.462  20.803  1.00  0.00    -0.271 OA
HETATM    3  N3  UNL     1      19.789 -14.099  22.666  1.00  0.00    -0.353 N 
ATOM      4  H3  UNL     1      19.465 -13.180  22.969  1.00  0.00     0.163 HD
ENDROOT
BRANCH   1   5
HETATM    5  C2  UNL     1      19.439 -13.307  20.316  1.00  0.00     0.274 C 
HETATM    6  C1  UNL     1      20.582 -12.321  20.224  1.00  0.00     0.050 C 
BRANCH   5   7
HETATM    7  N1  UNL     1      18.211 -12.659  20.735  1.00  0.00    -0.053 N 
ATOM      8  H12 UNL     1      17.609 -13.297  21.257  1.00  0.00     0.279 HD
ATOM      9  H11 UNL     1      18.380 -11.970  21.467  1.00  0.00     0.279 HD
BRANCH   7  10
HETATM   10  C3  UNL     1      17.514 -12.075  19.599  1.00  0.00     0.326 C 
BRANCH  10  11
HETATM   11  C4  UNL     1      16.083 -11.988  19.829  1.00  0.00    -0.077 C 
HETATM   12  C5  UNL     1      14.885 -11.910  20.013  1.00  0.00    -0.069 C 
BRANCH  12  13
HETATM   13  C6  UNL     1      13.438 -11.793  20.221  1.00  0.00     0.404 C 
BRANCH  13  14
HETATM   14  N2  UNL     1      13.180 -11.857  21.642  1.00  0.00     0.015 N 
HETATM   15  C7  UNL     1      12.946 -10.552  22.214  1.00  0.00     0.357 C 
HETATM   16  C8  UNL     1      11.984 -12.667  21.831  1.00  0.00     0.357 C 
HETATM   17  O1  UNL     1      14.262 -12.437  22.236  1.00  0.00    -0.064 OA
ENDBRANCH  13  14
ENDBRANCH  12  13
ENDBRANCH  10  11
ENDBRANCH   7  10
ENDBRANCH   5   7
ENDBRANCH   1   5
BRANCH   3  18
HETATM   18  C10 UNL     1      20.159 -15.048  23.668  1.00  0.00     0.098 A 
HETATM   19  C11 UNL     1      19.193 -15.326  24.842  1.00  0.00     0.030 A 
HETATM   20  C19 UNL     1      20.400 -14.585  25.111  1.00  0.00    -0.020 A 
HETATM   21  C20 UNL     1      21.675 -15.070  25.685  1.00  0.00     0.017 C 
HETATM   22  C21 UNL     1      20.250 -13.050  25.212  1.00  0.00     0.017 C 
BRANCH  19  23
HETATM   23  C12 UNL     1      18.868 -16.748  24.993  1.00  0.00     0.101 C 
BRANCH  23  24
HETATM   24  C13 UNL     1      17.584 -17.123  24.481  1.00  0.00    -0.104 C 
HETATM   25  C14 UNL     1      16.491 -17.480  24.053  1.00  0.00    -0.079 C 
BRANCH  25  26
HETATM   26  C15 UNL     1      15.197 -17.919  23.525  1.00  0.00     0.329 C 
BRANCH  26  27
HETATM   27  N4  UNL     1      15.101 -19.341  23.786  1.00  0.00    -0.069 N 
HETATM   28  C16 UNL     1      15.160 -19.639  25.201  1.00  0.00     0.272 C 
HETATM   29  C17 UNL     1      13.804 -19.775  23.304  1.00  0.00     0.272 C 
HETATM   30  C18 UNL     1      16.103 -20.079  23.027  1.00  0.00     0.272 C 
ENDBRANCH  26  27
ENDBRANCH  25  26
ENDBRANCH  23  24
ENDBRANCH  19  23
ENDBRANCH   3  18
TORSDOF 11
ENDMDL
MODEL 5
REMARK VINA RESULT: -6.222513895      2.768      4.330
REMARK  11 active torsions:
REMARK  status: ('A' for Active; 'I' for Inactive)
REMARK    1  A    between atoms: C2_2  and  N1_3 
REMARK    2  A    between atoms: C2_2  and  C9_14 
REMARK    3  A    between atoms: N1_3  and  C3_6 
REMARK    4  A    between atoms: C3_6  and  C4_7 
REMARK    5  A    between atoms: C5_8  and  C6_9 
REMARK    6  A    between atoms: C6_9  and  N2_10 
REMARK       I    between atoms: C9_14  and  N3_16 
REMARK    7  A    between atoms: N3_16  and  C10_18 
REMARK    8  A    between atoms: C11_19  and  C12_20 
REMARK    9  A    between atoms: C12_20  and  C13_21 
REMARK   10  A    between atoms: C14_22  and  C15_23 
REMARK   11  A    between atoms: C15_23  and  N4_24 
ROOT
HETATM    1  C9  UNL     1      20.309 -13.469  21.451  1.00  0.00     0.248 C 
HETATM    2  O2  UNL     1      21.336 -12.751  21.380  1.00  0.00    -0.271 OA
HETATM    3  N3  UNL     1      19.976 -14.221  22.611  1.00  0.00    -0.353 N 
ATOM      4  H3  UNL     1      19.124 -14.781  22.593  1.00  0.00     0.163 HD
ENDROOT
BRANCH   1   5
HETATM    5  C2  UNL     1      19.416 -13.524  20.271  1.00  0.00     0.274 C 
HETATM    6  C1  UNL     1      20.015 -12.623  19.214  1.00  0.00     0.050 C 
BRANCH   5   7
HETATM    7  N1  UNL     1      18.065 -13.120  20.610  1.00  0.00    -0.053 N 
ATOM      8  H12 UNL     1      17.482 -13.923  20.849  1.00  0.00     0.279 HD
ATOM      9  H11 UNL     1      18.031 -12.632  21.506  1.00  0.00     0.279 HD
BRANCH   7  10
HETATM   10  C3  UNL     1      17.473 -12.326  19.545  1.00  0.00     0.326 C 
BRANCH  10  11
HETATM   11  C4  UNL     1      16.055 -12.100  19.763  1.00  0.00    -0.077 C 
HETATM   12  C5  UNL     1      14.869 -11.919  19.951  1.00  0.00    -0.069 C 
BRANCH  12  13
HETATM   13  C6  UNL     1      13.434 -11.726  20.184  1.00  0.00     0.404 C 
BRANCH  13  14
HETATM   14  N2  UNL     1      13.196 -11.795  21.608  1.00  0.00     0.015 N 
HETATM   15  C7  UNL     1      12.987 -10.490  22.191  1.00  0.00     0.357 C 
HETATM   16  C8  UNL     1      11.990 -12.589  21.809  1.00  0.00     0.357 C 
HETATM   17  O1  UNL     1      14.277 -12.394  22.184  1.00  0.00    -0.064 OA
ENDBRANCH  13  14
ENDBRANCH  12  13
ENDBRANCH  10  11
ENDBRANCH   7  10
ENDBRANCH   5   7
ENDBRANCH   1   5
BRANCH   3  18
HETATM   18  C10 UNL     1      20.768 -14.237  23.800  1.00  0.00     0.098 A 
HETATM   19  C11 UNL     1      20.745 -15.486  24.710  1.00  0.00     0.030 A 
HETATM   20  C19 UNL     1      20.088 -14.290  25.174  1.00  0.00    -0.020 A 
HETATM   21  C20 UNL     1      20.588 -13.270  26.123  1.00  0.00     0.017 C 
HETATM   22  C21 UNL     1      18.552 -14.248  25.012  1.00  0.00     0.017 C 
BRANCH  19  23
HETATM   23  C12 UNL     1      22.081 -16.030  24.973  1.00  0.00     0.101 C 
BRANCH  23  24
HETATM   24  C13 UNL     1      22.193 -16.767  26.197  1.00  0.00    -0.104 C 
HETATM   25  C14 UNL     1      22.307 -17.426  27.225  1.00  0.00    -0.079 C 
BRANCH  25  26
HETATM   26  C15 UNL     1      22.426 -18.229  28.444  1.00  0.00     0.329 C 
BRANCH  26  27
HETATM   27  N4  UNL     1      21.704 -19.463  28.203  1.00  0.00    -0.069 N 
HETATM   28  C16 UNL     1      22.329 -20.266  27.174  1.00  0.00     0.272 C 
HETATM   29  C17 UNL     1      21.744 -20.226  29.435  1.00  0.00     0.272 C 
HETATM   30  C18 UNL     1      20.301 -19.197  27.915  1.00  0.00     0.272 C 
ENDBRANCH  26  27
ENDBRANCH  25  26
ENDBRANCH  23  24
ENDBRANCH  19  23
ENDBRANCH   3  18
TORSDOF 11
ENDMDL
