MODEL 1
REMARK VINA RESULT: -6.046127564      0.000      0.000
REMARK  11 active torsions:
REMARK  status: ('A' for Active; 'I' for Inactive)
REMARK    1  A    between atoms: C3_3  and  N1_4 
REMARK    2  A    between atoms: N2_7  and  C6_8 
REMARK    3  A    between atoms: N3_12  and  C9_13 
REMARK    4  A    between atoms: N3_12  and  C13_19 
REMARK    5  A    between atoms: C9_13  and  C10_14 
REMARK    6  A    between atoms: C11_15  and  C12_16 
REMARK    7  A    between atoms: C12_16  and  O2_17 
REMARK    8  A    between atoms: C13_19  and  C14_20 
REMARK    9  A    between atoms: C15_21  and  C16_22 
REMARK   10  A    between atoms: C16_22  and  C17_23 
REMARK   11  A    between atoms: C17_23  and  C18_24 
ROOT
HETATM    1  C1  UNL     1      20.430 -11.926  17.221  1.00  0.00     0.018 C 
HETATM    2  C2  UNL     1      20.405 -11.981  18.430  1.00  0.00    -0.072 C 
HETATM    3  C3  UNL     1      20.393 -12.038  19.891  1.00  0.00     0.158 C 
ENDROOT
BRANCH   3   4
HETATM    4  N1  UNL     1      19.298 -12.706  20.433  1.00  0.00    -0.314 N 
HETATM    5  C4  UNL     1      17.945 -12.158  20.226  1.00  0.00     0.152 C 
HETATM    6  C5  UNL     1      17.036 -12.343  21.385  1.00  0.00     0.148 C 
HETATM    7  N2  UNL     1      16.333 -13.576  21.500  1.00  0.00    -0.326 N 
HETATM    8  C8  UNL     1      16.494 -14.957  21.905  1.00  0.00     0.423 C 
HETATM    9  O1  UNL     1      15.461 -15.627  21.942  1.00  0.00    -0.239 OA
HETATM   10  N3  UNL     1      17.722 -15.641  22.271  1.00  0.00     0.060 N 
HETATM   11  C20 UNL     1      18.859 -15.008  21.835  1.00  0.00     0.290 C 
HETATM   12  C21 UNL     1      19.551 -13.934  21.190  1.00  0.00     0.272 C 
HETATM   13  O3  UNL     1      20.794 -14.092  21.311  1.00  0.00    -0.266 OA
BRANCH   7  14
HETATM   14  C6  UNL     1      14.948 -13.453  21.068  1.00  0.00     0.123 C 
HETATM   15  C7  UNL     1      14.281 -12.196  21.477  1.00  0.00     0.026 C 
ENDBRANCH   7  14
BRANCH  10  16
HETATM   16  C9  UNL     1      17.677 -17.048  21.818  1.00  0.00     0.350 C 
BRANCH  16  17
HETATM   17  C10 UNL     1      19.014 -17.504  21.536  1.00  0.00    -0.075 C 
HETATM   18  C11 UNL     1      20.141 -17.908  21.310  1.00  0.00    -0.079 C 
BRANCH  18  19
HETATM   19  C12 UNL     1      21.504 -18.392  21.049  1.00  0.00     0.257 C 
BRANCH  19  20
HETATM   20  O2  UNL     1      22.032 -17.841  19.893  1.00  0.00    -0.389 OA
ATOM     21  H2  UNL     1      21.888 -18.400  19.138  1.00  0.00     0.210 HD
ENDBRANCH  19  20
ENDBRANCH  18  19
ENDBRANCH  16  17
ENDBRANCH  10  16
BRANCH  10  22
HETATM   22  C13 UNL     1      17.572 -15.791  23.743  1.00  0.00     0.349 C 
BRANCH  22  23
HETATM   23  C14 UNL     1      18.474 -14.892  24.447  1.00  0.00    -0.077 C 
HETATM   24  C15 UNL     1      19.223 -14.162  25.046  1.00  0.00    -0.105 C 
BRANCH  24  25
HETATM   25  C16 UNL     1      20.127 -13.288  25.794  1.00  0.00     0.094 C 
BRANCH  25  26
HETATM   26  C17 UNL     1      21.499 -13.920  25.936  1.00  0.00     0.012 C 
BRANCH  26  27
HETATM   27  C18 UNL     1      21.975 -14.453  24.612  1.00  0.00    -0.004 C 
HETATM   28  C19 UNL     1      23.077 -13.632  24.014  1.00  0.00     0.005 C 
ENDBRANCH  26  27
ENDBRANCH  25  26
ENDBRANCH  24  25
ENDBRANCH  22  23
ENDBRANCH  10  22
ENDBRANCH   3   4
TORSDOF 11
ENDMDL
MODEL 2
REMARK VINA RESULT: -5.918016899      2.663      7.106
REMARK  11 active torsions:
REMARK  status: ('A' for Active; 'I' for Inactive)
REMARK    1  A    between atoms: C3_3  and  N1_4 
REMARK    2  A    between atoms: N2_7  and  C6_8 
REMARK    3  A    between atoms: N3_12  and  C9_13 
REMARK    4  A    between atoms: N3_12  and  C13_19 
REMARK    5  A    between atoms: C9_13  and  C10_14 
REMARK    6  A    between atoms: C11_15  and  C12_16 
REMARK    7  A    between atoms: C12_16  and  O2_17 
REMARK    8  A    between atoms: C13_19  and  C14_20 
REMARK    9  A    between atoms: C15_21  and  C16_22 
REMARK   10  A    between atoms: C16_22  and  C17_23 
REMARK   11  A    between atoms: C17_23  and  C18_24 
ROOT
HETATM    1  C1  UNL     1      14.772 -18.677  23.109  1.00  0.00     0.018 C 
HETATM    2  C2  UNL     1      15.505 -18.246  22.248  1.00  0.00    -0.072 C 
HETATM    3  C3  UNL     1      16.388 -17.742  21.197  1.00  0.00     0.158 C 
ENDROOT
BRANCH   3   4
HETATM    4  N1  UNL     1      16.879 -16.458  21.422  1.00  0.00    -0.314 N 
HETATM    5  C4  UNL     1      17.788 -16.223  22.558  1.00  0.00     0.152 C 
HETATM    6  C5  UNL     1      17.602 -14.905  23.215  1.00  0.00     0.148 C 
HETATM    7  N2  UNL     1      18.274 -13.776  22.665  1.00  0.00    -0.326 N 
HETATM    8  C8  UNL     1      18.206 -12.810  21.588  1.00  0.00     0.423 C 
HETATM    9  O1  UNL     1      19.018 -11.886  21.647  1.00  0.00    -0.239 OA
HETATM   10  N3  UNL     1      17.297 -12.803  20.455  1.00  0.00     0.060 N 
HETATM   11  C20 UNL     1      16.711 -14.018  20.206  1.00  0.00     0.290 C 
HETATM   12  C21 UNL     1      16.462 -15.396  20.503  1.00  0.00     0.272 C 
HETATM   13  O3  UNL     1      15.595 -15.853  19.713  1.00  0.00    -0.266 OA
BRANCH   7  14
HETATM   14  C6  UNL     1      19.465 -13.431  23.428  1.00  0.00     0.123 C 
HETATM   15  C7  UNL     1      19.436 -13.852  24.847  1.00  0.00     0.026 C 
ENDBRANCH   7  14
BRANCH  10  16
HETATM   16  C9  UNL     1      17.984 -12.277  19.254  1.00  0.00     0.350 C 
BRANCH  16  17
HETATM   17  C10 UNL     1      17.035 -12.142  18.180  1.00  0.00    -0.075 C 
HETATM   18  C11 UNL     1      16.245 -12.043  17.258  1.00  0.00    -0.079 C 
BRANCH  18  19
HETATM   19  C12 UNL     1      15.300 -11.913  16.140  1.00  0.00     0.257 C 
BRANCH  19  20
HETATM   20  O2  UNL     1      14.562 -10.744  16.224  1.00  0.00    -0.389 OA
ATOM     21  H2  UNL     1      14.169 -10.635  17.083  1.00  0.00     0.210 HD
ENDBRANCH  19  20
ENDBRANCH  18  19
ENDBRANCH  16  17
ENDBRANCH  10  16
BRANCH  10  22
HETATM   22  C13 UNL     1      16.380 -11.682  20.794  1.00  0.00     0.349 C 
BRANCH  22  23
HETATM   23  C14 UNL     1      15.069 -12.187  21.174  1.00  0.00    -0.077 C 
HETATM   24  C15 UNL     1      13.975 -12.592  21.475  1.00  0.00    -0.105 C 
BRANCH  24  25
HETATM   25  C16 UNL     1      12.636 -13.063  21.831  1.00  0.00     0.094 C 
BRANCH  25  26
HETATM   26  C17 UNL     1      11.941 -12.075  22.751  1.00  0.00     0.012 C 
BRANCH  26  27
HETATM   27  C18 UNL     1      12.031 -10.680  22.196  1.00  0.00    -0.004 C 
HETATM   28  C19 UNL     1      11.951  -9.624  23.255  1.00  0.00     0.005 C 
ENDBRANCH  26  27
ENDBRANCH  25  26
ENDBRANCH  24  25
ENDBRANCH  22  23
ENDBRANCH  10  22
ENDBRANCH   3   4
TORSDOF 11
ENDMDL
MODEL 3
REMARK VINA RESULT: -5.709663241      2.193      5.469
REMARK  11 active torsions:
REMARK  status: ('A' for Active; 'I' for Inactive)
REMARK    1  A    between atoms: C3_3  and  N1_4 
REMARK    2  A    between atoms: N2_7  and  C6_8 
REMARK    3  A    between atoms: N3_12  and  C9_13 
REMARK    4  A    between atoms: N3_12  and  C13_19 
REMARK    5  A    between atoms: C9_13  and  C10_14 
REMARK    6  A    between atoms: C11_15  and  C12_16 
REMARK    7  A    between atoms: C12_16  and  O2_17 
REMARK    8  A    between atoms: C13_19  and  C14_20 
REMARK    9  A    between atoms: C15_21  and  C16_22 
REMARK   10  A    between atoms: C16_22  and  C17_23 
REMARK   11  A    between atoms: C17_23  and  C18_24 
ROOT
HETATM    1  C1  UNL     1      18.538 -20.136  18.496  1.00  0.00     0.018 C 
HETATM    2  C2  UNL     1      19.266 -19.658  19.336  1.00  0.00    -0.072 C 
HETATM    3  C3  UNL     1      20.162 -19.087  20.341  1.00  0.00     0.158 C 
ENDROOT
BRANCH   3   4
HETATM    4  N1  UNL     1      19.520 -18.364  21.343  1.00  0.00    -0.314 N 
HETATM    5  C4  UNL     1      18.245 -18.864  21.888  1.00  0.00     0.152 C 
HETATM    6  C5  UNL     1      17.280 -17.793  22.241  1.00  0.00     0.148 C 
HETATM    7  N2  UNL     1      17.391 -17.180  23.522  1.00  0.00    -0.326 N 
HETATM    8  C8  UNL     1      18.153 -16.198  24.264  1.00  0.00     0.423 C 
HETATM    9  O1  UNL     1      17.723 -15.923  25.385  1.00  0.00    -0.239 OA
HETATM   10  N3  UNL     1      19.357 -15.502  23.844  1.00  0.00     0.060 N 
HETATM   11  C20 UNL     1      20.017 -16.113  22.807  1.00  0.00     0.290 C 
HETATM   12  C21 UNL     1      20.156 -17.129  21.809  1.00  0.00     0.272 C 
HETATM   13  O3  UNL     1      21.157 -16.885  21.087  1.00  0.00    -0.266 OA
BRANCH   7  14
HETATM   14  C6  UNL     1      16.400 -17.695  24.456  1.00  0.00     0.123 C 
HETATM   15  C7  UNL     1      15.190 -18.268  23.823  1.00  0.00     0.026 C 
ENDBRANCH   7  14
BRANCH  10  16
HETATM   16  C9  UNL     1      20.252 -15.287  25.003  1.00  0.00     0.350 C 
BRANCH  16  17
HETATM   17  C10 UNL     1      21.479 -14.682  24.555  1.00  0.00    -0.075 C 
HETATM   18  C11 UNL     1      22.506 -14.160  24.158  1.00  0.00    -0.079 C 
BRANCH  18  19
HETATM   19  C12 UNL     1      23.747 -13.541  23.670  1.00  0.00     0.257 C 
BRANCH  19  20
HETATM   20  O2  UNL     1      24.757 -14.475  23.506  1.00  0.00    -0.389 OA
ATOM     21  H2  UNL     1      25.584 -14.165  23.857  1.00  0.00     0.210 HD
ENDBRANCH  19  20
ENDBRANCH  18  19
ENDBRANCH  16  17
ENDBRANCH  10  16
BRANCH  10  22
HETATM   22  C13 UNL     1      18.854 -14.126  23.590  1.00  0.00     0.349 C 
BRANCH  22  23
HETATM   23  C14 UNL     1      19.335 -13.630  22.310  1.00  0.00    -0.077 C 
HETATM   24  C15 UNL     1      19.753 -13.227  21.253  1.00  0.00    -0.105 C 
BRANCH  24  25
HETATM   25  C16 UNL     1      20.284 -12.741  19.979  1.00  0.00     0.094 C 
BRANCH  25  26
HETATM   26  C17 UNL     1      19.166 -12.248  19.078  1.00  0.00     0.012 C 
BRANCH  26  27
HETATM   27  C18 UNL     1      17.918 -11.987  19.878  1.00  0.00    -0.004 C 
HETATM   28  C19 UNL     1      16.671 -12.419  19.169  1.00  0.00     0.005 C 
ENDBRANCH  26  27
ENDBRANCH  25  26
ENDBRANCH  24  25
ENDBRANCH  22  23
ENDBRANCH  10  22
ENDBRANCH   3   4
TORSDOF 11
ENDMDL
MODEL 4
REMARK VINA RESULT: -5.597363605      2.182      5.485
REMARK  11 active torsions:
REMARK  status: ('A' for Active; 'I' for Inactive)
REMARK    1  A    between atoms: C3_3  and  N1_4 
REMARK    2  A    between atoms: N2_7  and  C6_8 
REMARK    3  A    between atoms: N3_12  and  C9_13 
REMARK    4  A    between atoms: N3_12  and  C13_19 
REMARK    5  A    between atoms: C9_13  and  C10_14 
REMARK    6  A    between atoms: C11_15  and  C12_16 
REMARK    7  A    between atoms: C12_16  and  O2_17 
REMARK    8  A    between atoms: C13_19  and  C14_20 
REMARK    9  A    between atoms: C15_21  and  C16_22 
REMARK   10  A    between atoms: C16_22  and  C17_23 
REMARK   11  A    between atoms: C17_23  and  C18_24 
ROOT
HETATM    1  C1  UNL     1      20.782 -21.346  20.564  1.00  0.00     0.018 C 
HETATM    2  C2  UNL     1      20.354 -20.232  20.361  1.00  0.00    -0.072 C 
HETATM    3  C3  UNL     1      19.842 -18.888  20.097  1.00  0.00     0.158 C 
ENDROOT
BRANCH   3   4
HETATM    4  N1  UNL     1      19.284 -18.254  21.205  1.00  0.00    -0.314 N 
HETATM    5  C4  UNL     1      18.039 -18.788  21.789  1.00  0.00     0.152 C 
HETATM    6  C5  UNL     1      17.121 -17.743  22.306  1.00  0.00     0.148 C 
HETATM    7  N2  UNL     1      17.331 -17.256  23.628  1.00  0.00    -0.326 N 
HETATM    8  C8  UNL     1      18.160 -16.357  24.404  1.00  0.00     0.423 C 
HETATM    9  O1  UNL     1      17.813 -16.184  25.573  1.00  0.00    -0.239 OA
HETATM   10  N3  UNL     1      19.346 -15.640  23.968  1.00  0.00     0.060 N 
HETATM   11  C20 UNL     1      19.922 -16.158  22.835  1.00  0.00     0.290 C 
HETATM   12  C21 UNL     1      19.973 -17.077  21.739  1.00  0.00     0.272 C 
HETATM   13  O3  UNL     1      20.927 -16.779  20.975  1.00  0.00    -0.266 OA
BRANCH   7  14
HETATM   14  C6  UNL     1      16.396 -17.844  24.577  1.00  0.00     0.123 C 
HETATM   15  C7  UNL     1      15.195 -18.456  23.964  1.00  0.00     0.026 C 
ENDBRANCH   7  14
BRANCH  10  16
HETATM   16  C9  UNL     1      20.322 -15.547  25.076  1.00  0.00     0.350 C 
BRANCH  16  17
HETATM   17  C10 UNL     1      21.479 -14.812  24.635  1.00  0.00    -0.075 C 
HETATM   18  C11 UNL     1      22.468 -14.211  24.256  1.00  0.00    -0.079 C 
BRANCH  18  19
HETATM   19  C12 UNL     1      23.668 -13.489  23.810  1.00  0.00     0.257 C 
BRANCH  19  20
HETATM   20  O2  UNL     1      24.689 -14.356  23.459  1.00  0.00    -0.389 OA
ATOM     21  H2  UNL     1      25.500 -14.146  23.909  1.00  0.00     0.210 HD
ENDBRANCH  19  20
ENDBRANCH  18  19
ENDBRANCH  16  17
ENDBRANCH  10  16
BRANCH  10  22
HETATM   22  C13 UNL     1      18.853 -14.240  23.879  1.00  0.00     0.349 C 
BRANCH  22  23
HETATM   23  C14 UNL     1      18.271 -13.981  22.571  1.00  0.00    -0.077 C 
HETATM   24  C15 UNL     1      17.806 -13.774  21.478  1.00  0.00    -0.105 C 
BRANCH  24  25
HETATM   25  C16 UNL     1      17.266 -13.523  20.142  1.00  0.00     0.094 C 
BRANCH  25  26
HETATM   26  C17 UNL     1      17.857 -12.258  19.546  1.00  0.00     0.012 C 
BRANCH  26  27
HETATM   27  C18 UNL     1      19.290 -12.092  19.972  1.00  0.00    -0.004 C 
HETATM   28  C19 UNL     1      20.262 -12.350  18.861  1.00  0.00     0.005 C 
ENDBRANCH  26  27
ENDBRANCH  25  26
ENDBRANCH  24  25
ENDBRANCH  22  23
ENDBRANCH  10  22
ENDBRANCH   3   4
TORSDOF 11
ENDMDL
MODEL 5
REMARK VINA RESULT: -5.546839445      2.546      6.095
REMARK  11 active torsions:
REMARK  status: ('A' for Active; 'I' for Inactive)
REMARK    1  A    between atoms: C3_3  and  N1_4 
REMARK    2  A    between atoms: N2_7  and  C6_8 
REMARK    3  A    between atoms: N3_12  and  C9_13 
REMARK    4  A    between atoms: N3_12  and  C13_19 
REMARK    5  A    between atoms: C9_13  and  C10_14 
REMARK    6  A    between atoms: C11_15  and  C12_16 
REMARK    7  A    between atoms: C12_16  and  O2_17 
REMARK    8  A    between atoms: C13_19  and  C14_20 
REMARK    9  A    between atoms: C15_21  and  C16_22 
REMARK   10  A    between atoms: C16_22  and  C17_23 
REMARK   11  A    between atoms: C17_23  and  C18_24 
ROOT
HETATM    1  C1  UNL     1      13.032  -9.987  22.142  1.00  0.00     0.018 C 
HETATM    2  C2  UNL     1      13.441 -10.787  21.330  1.00  0.00    -0.072 C 
HETATM    3  C3  UNL     1      13.916 -11.750  20.339  1.00  0.00     0.158 C 
ENDROOT
BRANCH   3   4
HETATM    4  N1  UNL     1      15.215 -12.206  20.554  1.00  0.00    -0.314 N 
HETATM    5  C4  UNL     1      16.331 -11.565  19.834  1.00  0.00     0.152 C 
HETATM    6  C5  UNL     1      17.413 -12.504  19.443  1.00  0.00     0.148 C 
HETATM    7  N2  UNL     1      18.426 -12.801  20.400  1.00  0.00    -0.326 N 
HETATM    8  C8  UNL     1      18.695 -13.598  21.579  1.00  0.00     0.423 C 
HETATM    9  O1  UNL     1      19.862 -13.594  21.972  1.00  0.00    -0.239 OA
HETATM   10  N3  UNL     1      17.756 -14.397  22.346  1.00  0.00     0.060 N 
HETATM   11  C20 UNL     1      16.442 -14.060  22.139  1.00  0.00     0.290 C 
HETATM   12  C21 UNL     1      15.406 -13.310  21.498  1.00  0.00     0.272 C 
HETATM   13  O3  UNL     1      14.280 -13.737  21.862  1.00  0.00    -0.266 OA
BRANCH   7  14
HETATM   14  C6  UNL     1      19.652 -12.061  20.138  1.00  0.00     0.123 C 
HETATM   15  C7  UNL     1      20.262 -12.321  18.814  1.00  0.00     0.026 C 
ENDBRANCH   7  14
BRANCH  10  16
HETATM   16  C9  UNL     1      18.105 -14.353  23.784  1.00  0.00     0.350 C 
BRANCH  16  17
HETATM   17  C10 UNL     1      17.834 -15.635  24.382  1.00  0.00    -0.075 C 
HETATM   18  C11 UNL     1      17.627 -16.722  24.891  1.00  0.00    -0.079 C 
BRANCH  18  19
HETATM   19  C12 UNL     1      17.379 -18.040  25.493  1.00  0.00     0.257 C 
BRANCH  19  20
HETATM   20  O2  UNL     1      18.180 -18.257  26.602  1.00  0.00    -0.389 OA
ATOM     21  H2  UNL     1      18.933 -18.798  26.393  1.00  0.00     0.210 HD
ENDBRANCH  19  20
ENDBRANCH  18  19
ENDBRANCH  16  17
ENDBRANCH  10  16
BRANCH  10  22
HETATM   22  C13 UNL     1      18.150 -15.784  21.981  1.00  0.00     0.349 C 
BRANCH  22  23
HETATM   23  C14 UNL     1      17.260 -16.320  20.963  1.00  0.00    -0.077 C 
HETATM   24  C15 UNL     1      16.523 -16.783  20.128  1.00  0.00    -0.105 C 
BRANCH  24  25
HETATM   25  C16 UNL     1      15.636 -17.369  19.123  1.00  0.00     0.094 C 
BRANCH  25  26
HETATM   26  C17 UNL     1      16.327 -18.499  18.382  1.00  0.00     0.012 C 
BRANCH  26  27
HETATM   27  C18 UNL     1      16.113 -18.367  16.899  1.00  0.00    -0.004 C 
HETATM   28  C19 UNL     1      15.339 -17.139  16.527  1.00  0.00     0.005 C 
ENDBRANCH  26  27
ENDBRANCH  25  26
ENDBRANCH  24  25
ENDBRANCH  22  23
ENDBRANCH  10  22
ENDBRANCH   3   4
TORSDOF 11
ENDMDL
