MODEL 1
REMARK VINA RESULT: -8.592786838      0.000      0.000
REMARK  8 active torsions:
REMARK  status: ('A' for Active; 'I' for Inactive)
REMARK    1  A    between atoms: C3_3  and  C4_4 
REMARK    2  A    between atoms: C4_4  and  N1_5 
REMARK    3  A    between atoms: N1_5  and  C7_8 
REMARK    4  A    between atoms: C7_8  and  C8_9 
REMARK    5  A    between atoms: C11_12  and  N2_13 
REMARK       I    between atoms: N2_13  and  C12_15 
REMARK    6  A    between atoms: C12_15  and  C13_17 
REMARK    7  A    between atoms: C13_17  and  N3_18 
REMARK    8  A    between atoms: N3_18  and  N4_20 
ROOT
HETATM    1  C1  UNL     1      20.906 -12.952  25.971  1.00  0.00     0.112 C 
HETATM    2  C2  UNL     1      19.843 -13.799  25.386  1.00  0.00    -0.109 C 
HETATM    3  C3  UNL     1      18.962 -14.482  24.925  1.00  0.00    -0.079 C 
ENDROOT
BRANCH   3   4
HETATM    4  C4  UNL     1      17.891 -15.338  24.377  1.00  0.00     0.330 C 
BRANCH   4   5
HETATM    5  N1  UNL     1      18.106 -15.789  23.063  1.00  0.00    -0.061 N 
HETATM    6  C5  UNL     1      19.162 -16.836  23.198  1.00  0.00     0.273 C 
HETATM    7  C6  UNL     1      16.956 -16.581  22.714  1.00  0.00     0.273 C 
BRANCH   5   8
HETATM    8  C7  UNL     1      18.527 -14.842  22.023  1.00  0.00     0.277 C 
BRANCH   8   9
HETATM    9  C8  UNL     1      17.698 -13.747  21.641  1.00  0.00    -0.021 C 
HETATM   10  C9  UNL     1      16.564 -13.347  22.375  1.00  0.00     0.012 C 
HETATM   11  C10 UNL     1      15.387 -12.742  21.904  1.00  0.00     0.030 C 
HETATM   12  C11 UNL     1      15.029 -12.610  20.566  1.00  0.00     0.035 C 
HETATM   13  C14 UNL     1      15.815 -12.638  19.432  1.00  0.00     0.043 C 
HETATM   14  C15 UNL     1      17.195 -12.652  19.418  1.00  0.00    -0.000 A 
HETATM   15  C16 UNL     1      17.743 -12.107  18.289  1.00  0.00     0.016 A 
HETATM   16  C21 UNL     1      18.032 -13.130  20.456  1.00  0.00    -0.009 A 
HETATM   17  C17 UNL     1      16.810 -11.622  17.221  1.00  0.00     0.069 C 
HETATM   18  N6  UNL     1      19.075 -12.031  18.180  1.00  0.00    -0.368 N 
HETATM   19  C18 UNL     1      19.876 -12.476  19.157  1.00  0.00     0.095 A 
ATOM     20  H6  UNL     1      19.487 -11.626  17.340  1.00  0.00     0.165 HD
HETATM   21  C19 UNL     1      19.395 -13.051  20.354  1.00  0.00    -0.035 A 
HETATM   22  C20 UNL     1      20.194 -13.470  21.462  1.00  0.00     0.050 C 
BRANCH  12  23
HETATM   23  N2  UNL     1      13.751 -12.434  20.370  1.00  0.00    -0.326 N 
HETATM   24  C12 UNL     1      12.879 -12.060  21.424  1.00  0.00     0.241 C 
HETATM   25  O1  UNL     1      12.805 -10.832  21.712  1.00  0.00    -0.271 OA
ATOM     26  H2  UNL     1      13.369 -12.570  19.434  1.00  0.00     0.169 HD
BRANCH  24  27
HETATM   27  C13 UNL     1      12.067 -13.018  22.190  1.00  0.00     0.243 C 
BRANCH  27  28
HETATM   28  N3  UNL     1      10.854 -12.398  22.682  1.00  0.00    -0.314 N 
ATOM     29  H3  UNL     1      10.070 -12.270  22.043  1.00  0.00     0.182 HD
BRANCH  28  30
HETATM   30  N4  UNL     1      10.725 -11.968  24.004  1.00  0.00    -0.253 N 
HETATM   31  N5  UNL     1      10.716 -10.724  24.244  1.00  0.00    -0.331 N 
ATOM     32  H52 UNL     1      10.803 -10.060  23.473  1.00  0.00     0.178 HD
ATOM     33  H51 UNL     1      10.623 -10.409  25.210  1.00  0.00     0.178 HD
ATOM     34  H4  UNL     1      10.640 -12.643  24.763  1.00  0.00     0.207 HD
ENDBRANCH  28  30
ENDBRANCH  27  28
ENDBRANCH  24  27
ENDBRANCH  12  23
ENDBRANCH   8   9
ENDBRANCH   5   8
ENDBRANCH   4   5
ENDBRANCH   3   4
TORSDOF 8
ENDMDL
MODEL 2
REMARK VINA RESULT: -7.726321277      1.257      2.765
REMARK  8 active torsions:
REMARK  status: ('A' for Active; 'I' for Inactive)
REMARK    1  A    between atoms: C3_3  and  C4_4 
REMARK    2  A    between atoms: C4_4  and  N1_5 
REMARK    3  A    between atoms: N1_5  and  C7_8 
REMARK    4  A    between atoms: C7_8  and  C8_9 
REMARK    5  A    between atoms: C11_12  and  N2_13 
REMARK       I    between atoms: N2_13  and  C12_15 
REMARK    6  A    between atoms: C12_15  and  C13_17 
REMARK    7  A    between atoms: C13_17  and  N3_18 
REMARK    8  A    between atoms: N3_18  and  N4_20 
ROOT
HETATM    1  C1  UNL     1      15.670 -17.500  18.188  1.00  0.00     0.112 C 
HETATM    2  C2  UNL     1      16.001 -17.170  19.592  1.00  0.00    -0.109 C 
HETATM    3  C3  UNL     1      16.258 -16.884  20.735  1.00  0.00    -0.079 C 
ENDROOT
BRANCH   3   4
HETATM    4  C4  UNL     1      16.592 -16.516  22.126  1.00  0.00     0.330 C 
BRANCH   4   5
HETATM    5  N1  UNL     1      17.955 -16.259  22.360  1.00  0.00    -0.061 N 
HETATM    6  C5  UNL     1      18.125 -16.466  23.828  1.00  0.00     0.273 C 
HETATM    7  C6  UNL     1      18.674 -17.385  21.824  1.00  0.00     0.273 C 
BRANCH   5   8
HETATM    8  C7  UNL     1      18.525 -14.954  22.008  1.00  0.00     0.277 C 
BRANCH   8   9
HETATM    9  C8  UNL     1      17.691 -13.851  21.662  1.00  0.00    -0.021 C 
HETATM   10  C9  UNL     1      16.565 -13.470  22.418  1.00  0.00     0.012 C 
HETATM   11  C10 UNL     1      15.383 -12.855  21.975  1.00  0.00     0.030 C 
HETATM   12  C11 UNL     1      15.009 -12.693  20.643  1.00  0.00     0.035 C 
HETATM   13  C14 UNL     1      15.782 -12.693  19.501  1.00  0.00     0.043 C 
HETATM   14  C15 UNL     1      17.162 -12.705  19.471  1.00  0.00    -0.000 A 
HETATM   15  C16 UNL     1      17.697 -12.133  18.349  1.00  0.00     0.016 A 
HETATM   16  C21 UNL     1      18.012 -13.206  20.488  1.00  0.00    -0.009 A 
HETATM   17  C17 UNL     1      16.752 -11.624  17.303  1.00  0.00     0.069 C 
HETATM   18  N6  UNL     1      19.027 -12.052  18.227  1.00  0.00    -0.368 N 
HETATM   19  C18 UNL     1      19.840 -12.519  19.184  1.00  0.00     0.095 A 
ATOM     20  H6  UNL     1      19.430 -11.627  17.392  1.00  0.00     0.165 HD
HETATM   21  C19 UNL     1      19.373 -13.122  20.372  1.00  0.00    -0.035 A 
HETATM   22  C20 UNL     1      20.185 -13.567  21.461  1.00  0.00     0.050 C 
BRANCH  12  23
HETATM   23  N2  UNL     1      13.729 -12.514  20.466  1.00  0.00    -0.326 N 
HETATM   24  C12 UNL     1      12.879 -12.107  21.526  1.00  0.00     0.241 C 
HETATM   25  O1  UNL     1      12.817 -10.872  21.783  1.00  0.00    -0.271 OA
ATOM     26  H2  UNL     1      13.329 -12.671  19.541  1.00  0.00     0.169 HD
BRANCH  24  27
HETATM   27  C13 UNL     1      12.075 -13.040  22.331  1.00  0.00     0.243 C 
BRANCH  27  28
HETATM   28  N3  UNL     1      10.856 -12.411  22.796  1.00  0.00    -0.314 N 
ATOM     29  H3  UNL     1      10.068 -12.324  22.154  1.00  0.00     0.182 HD
BRANCH  28  30
HETATM   30  N4  UNL     1      10.725 -11.919  24.096  1.00  0.00    -0.253 N 
HETATM   31  N5  UNL     1      10.720 -10.665  24.277  1.00  0.00    -0.331 N 
ATOM     32  H52 UNL     1      10.812 -10.039  23.477  1.00  0.00     0.178 HD
ATOM     33  H51 UNL     1      10.625 -10.306  25.227  1.00  0.00     0.178 HD
ATOM     34  H4  UNL     1      10.635 -12.558  24.886  1.00  0.00     0.207 HD
ENDBRANCH  28  30
ENDBRANCH  27  28
ENDBRANCH  24  27
ENDBRANCH  12  23
ENDBRANCH   8   9
ENDBRANCH   5   8
ENDBRANCH   4   5
ENDBRANCH   3   4
TORSDOF 8
ENDMDL
MODEL 3
REMARK VINA RESULT: -7.610782461      3.448      7.221
REMARK  8 active torsions:
REMARK  status: ('A' for Active; 'I' for Inactive)
REMARK    1  A    between atoms: C3_3  and  C4_4 
REMARK    2  A    between atoms: C4_4  and  N1_5 
REMARK    3  A    between atoms: N1_5  and  C7_8 
REMARK    4  A    between atoms: C7_8  and  C8_9 
REMARK    5  A    between atoms: C11_12  and  N2_13 
REMARK       I    between atoms: N2_13  and  C12_15 
REMARK    6  A    between atoms: C12_15  and  C13_17 
REMARK    7  A    between atoms: C13_17  and  N3_18 
REMARK    8  A    between atoms: N3_18  and  N4_20 
ROOT
HETATM    1  C1  UNL     1      20.507 -12.260  19.347  1.00  0.00     0.112 C 
HETATM    2  C2  UNL     1      19.140 -12.171  19.907  1.00  0.00    -0.109 C 
HETATM    3  C3  UNL     1      18.021 -12.117  20.352  1.00  0.00    -0.079 C 
ENDROOT
BRANCH   3   4
HETATM    4  C4  UNL     1      16.642 -12.035  20.875  1.00  0.00     0.330 C 
BRANCH   4   5
HETATM    5  N1  UNL     1      15.850 -13.172  20.635  1.00  0.00    -0.061 N 
HETATM    6  C5  UNL     1      14.452 -12.649  20.598  1.00  0.00     0.273 C 
HETATM    7  C6  UNL     1      16.062 -13.527  19.256  1.00  0.00     0.273 C 
BRANCH   5   8
HETATM    8  C7  UNL     1      15.893 -14.306  21.565  1.00  0.00     0.277 C 
BRANCH   8   9
HETATM    9  C8  UNL     1      17.111 -14.702  22.192  1.00  0.00    -0.021 C 
HETATM   10  C9  UNL     1      17.758 -13.927  23.175  1.00  0.00     0.012 C 
HETATM   11  C10 UNL     1      19.131 -13.846  23.459  1.00  0.00     0.030 C 
HETATM   12  C11 UNL     1      20.150 -14.371  22.668  1.00  0.00     0.035 C 
HETATM   13  C14 UNL     1      20.108 -15.371  21.720  1.00  0.00     0.043 C 
HETATM   14  C15 UNL     1      19.024 -16.188  21.468  1.00  0.00    -0.000 A 
HETATM   15  C16 UNL     1      19.360 -17.413  20.958  1.00  0.00     0.016 A 
HETATM   16  C21 UNL     1      17.668 -15.873  21.728  1.00  0.00    -0.009 A 
HETATM   17  C17 UNL     1      20.809 -17.691  20.698  1.00  0.00     0.069 C 
HETATM   18  N6  UNL     1      18.393 -18.305  20.711  1.00  0.00    -0.368 N 
HETATM   19  C18 UNL     1      17.108 -18.019  20.957  1.00  0.00     0.095 A 
ATOM     20  H6  UNL     1      18.639 -19.218  20.330  1.00  0.00     0.165 HD
HETATM   21  C19 UNL     1      16.675 -16.782  21.483  1.00  0.00    -0.035 A 
HETATM   22  C20 UNL     1      15.332 -16.447  21.838  1.00  0.00     0.050 C 
BRANCH  12  23
HETATM   23  N2  UNL     1      21.316 -13.821  22.866  1.00  0.00    -0.326 N 
HETATM   24  C12 UNL     1      22.172 -14.243  23.916  1.00  0.00     0.241 C 
HETATM   25  O1  UNL     1      22.902 -15.251  23.703  1.00  0.00    -0.271 OA
ATOM     26  H2  UNL     1      21.621 -13.067  22.250  1.00  0.00     0.169 HD
BRANCH  24  27
HETATM   27  C13 UNL     1      22.251 -13.573  25.223  1.00  0.00     0.243 C 
BRANCH  27  28
HETATM   28  N3  UNL     1      21.774 -14.438  26.282  1.00  0.00    -0.314 N 
ATOM     29  H3  UNL     1      21.116 -14.065  26.966  1.00  0.00     0.182 HD
BRANCH  28  30
HETATM   30  N4  UNL     1      22.187 -15.767  26.396  1.00  0.00    -0.253 N 
HETATM   31  N5  UNL     1      22.805 -16.127  27.442  1.00  0.00    -0.331 N 
ATOM     32  H52 UNL     1      22.991 -15.446  28.178  1.00  0.00     0.178 HD
ATOM     33  H51 UNL     1      23.107 -17.098  27.525  1.00  0.00     0.178 HD
ATOM     34  H4  UNL     1      21.994 -16.436  25.651  1.00  0.00     0.207 HD
ENDBRANCH  28  30
ENDBRANCH  27  28
ENDBRANCH  24  27
ENDBRANCH  12  23
ENDBRANCH   8   9
ENDBRANCH   5   8
ENDBRANCH   4   5
ENDBRANCH   3   4
TORSDOF 8
ENDMDL
MODEL 4
REMARK VINA RESULT: -7.529107766      1.102      1.178
REMARK  8 active torsions:
REMARK  status: ('A' for Active; 'I' for Inactive)
REMARK    1  A    between atoms: C3_3  and  C4_4 
REMARK    2  A    between atoms: C4_4  and  N1_5 
REMARK    3  A    between atoms: N1_5  and  C7_8 
REMARK    4  A    between atoms: C7_8  and  C8_9 
REMARK    5  A    between atoms: C11_12  and  N2_13 
REMARK       I    between atoms: N2_13  and  C12_15 
REMARK    6  A    between atoms: C12_15  and  C13_17 
REMARK    7  A    between atoms: C13_17  and  N3_18 
REMARK    8  A    between atoms: N3_18  and  N4_20 
ROOT
HETATM    1  C1  UNL     1      21.154 -16.465  25.824  1.00  0.00     0.112 C 
HETATM    2  C2  UNL     1      20.017 -16.610  24.889  1.00  0.00    -0.109 C 
HETATM    3  C3  UNL     1      19.102 -16.740  24.114  1.00  0.00    -0.079 C 
ENDROOT
BRANCH   3   4
HETATM    4  C4  UNL     1      17.991 -16.877  23.150  1.00  0.00     0.330 C 
BRANCH   4   5
HETATM    5  N1  UNL     1      18.199 -16.241  21.913  1.00  0.00    -0.061 N 
HETATM    6  C5  UNL     1      19.203 -17.100  21.218  1.00  0.00     0.273 C 
HETATM    7  C6  UNL     1      17.016 -16.487  21.130  1.00  0.00     0.273 C 
BRANCH   5   8
HETATM    8  C7  UNL     1      18.672 -14.853  21.873  1.00  0.00     0.277 C 
BRANCH   8   9
HETATM    9  C8  UNL     1      17.795 -13.781  21.538  1.00  0.00    -0.021 C 
HETATM   10  C9  UNL     1      16.666 -13.441  22.309  1.00  0.00     0.012 C 
HETATM   11  C10 UNL     1      15.456 -12.869  21.881  1.00  0.00     0.030 C 
HETATM   12  C11 UNL     1      15.059 -12.721  20.555  1.00  0.00     0.035 C 
HETATM   13  C14 UNL     1      15.816 -12.694  19.403  1.00  0.00     0.043 C 
HETATM   14  C15 UNL     1      17.195 -12.656  19.354  1.00  0.00    -0.000 A 
HETATM   15  C16 UNL     1      17.693 -12.065  18.225  1.00  0.00     0.016 A 
HETATM   16  C21 UNL     1      18.076 -13.125  20.359  1.00  0.00    -0.009 A 
HETATM   17  C17 UNL     1      16.717 -11.591  17.192  1.00  0.00     0.069 C 
HETATM   18  N6  UNL     1      19.018 -11.936  18.086  1.00  0.00    -0.368 N 
HETATM   19  C18 UNL     1      19.860 -12.373  19.031  1.00  0.00     0.095 A 
ATOM     20  H6  UNL     1      19.394 -11.498  17.245  1.00  0.00     0.165 HD
HETATM   21  C19 UNL     1      19.431 -12.993  20.226  1.00  0.00    -0.035 A 
HETATM   22  C20 UNL     1      20.273 -13.407  21.304  1.00  0.00     0.050 C 
BRANCH  12  23
HETATM   23  N2  UNL     1      13.771 -12.589  20.395  1.00  0.00    -0.326 N 
HETATM   24  C12 UNL     1      12.943 -12.057  21.417  1.00  0.00     0.241 C 
HETATM   25  O1  UNL     1      12.863 -10.800  21.508  1.00  0.00    -0.271 OA
ATOM     26  H2  UNL     1      13.348 -12.875  19.513  1.00  0.00     0.169 HD
BRANCH  24  27
HETATM   27  C13 UNL     1      12.181 -12.887  22.364  1.00  0.00     0.243 C 
BRANCH  27  28
HETATM   28  N3  UNL     1      10.914 -12.269  22.695  1.00  0.00    -0.314 N 
ATOM     29  H3  UNL     1      10.274 -12.017  21.942  1.00  0.00     0.182 HD
BRANCH  28  30
HETATM   30  N4  UNL     1      10.540 -12.007  24.015  1.00  0.00    -0.253 N 
HETATM   31  N5  UNL     1      10.708 -10.840  24.478  1.00  0.00    -0.331 N 
ATOM     32  H52 UNL     1      11.110 -10.114  23.884  1.00  0.00     0.178 HD
ATOM     33  H51 UNL     1      10.435 -10.648  25.442  1.00  0.00     0.178 HD
ATOM     34  H4  UNL     1      10.139 -12.743  24.597  1.00  0.00     0.207 HD
ENDBRANCH  28  30
ENDBRANCH  27  28
ENDBRANCH  24  27
ENDBRANCH  12  23
ENDBRANCH   8   9
ENDBRANCH   5   8
ENDBRANCH   4   5
ENDBRANCH   3   4
TORSDOF 8
ENDMDL
MODEL 5
REMARK VINA RESULT: -7.496892709      2.574      4.425
REMARK  8 active torsions:
REMARK  status: ('A' for Active; 'I' for Inactive)
REMARK    1  A    between atoms: C3_3  and  C4_4 
REMARK    2  A    between atoms: C4_4  and  N1_5 
REMARK    3  A    between atoms: N1_5  and  C7_8 
REMARK    4  A    between atoms: C7_8  and  C8_9 
REMARK    5  A    between atoms: C11_12  and  N2_13 
REMARK       I    between atoms: N2_13  and  C12_15 
REMARK    6  A    between atoms: C12_15  and  C13_17 
REMARK    7  A    between atoms: C13_17  and  N3_18 
REMARK    8  A    between atoms: N3_18  and  N4_20 
ROOT
HETATM    1  C1  UNL     1      15.645 -17.308  18.413  1.00  0.00     0.112 C 
HETATM    2  C2  UNL     1      16.244 -17.920  19.619  1.00  0.00    -0.109 C 
HETATM    3  C3  UNL     1      16.738 -18.400  20.609  1.00  0.00    -0.079 C 
ENDROOT
BRANCH   3   4
HETATM    4  C4  UNL     1      17.368 -18.989  21.808  1.00  0.00     0.330 C 
BRANCH   4   5
HETATM    5  N1  UNL     1      18.503 -18.304  22.277  1.00  0.00    -0.061 N 
HETATM    6  C5  UNL     1      19.321 -19.358  22.947  1.00  0.00     0.273 C 
HETATM    7  C6  UNL     1      19.304 -18.011  21.118  1.00  0.00     0.273 C 
BRANCH   5   8
HETATM    8  C7  UNL     1      18.349 -17.180  23.207  1.00  0.00     0.277 C 
BRANCH   8   9
HETATM    9  C8  UNL     1      17.969 -15.886  22.746  1.00  0.00    -0.021 C 
HETATM   10  C9  UNL     1      16.633 -15.527  22.477  1.00  0.00     0.012 C 
HETATM   11  C10 UNL     1      16.150 -14.597  21.541  1.00  0.00     0.030 C 
HETATM   12  C11 UNL     1      16.906 -13.996  20.539  1.00  0.00     0.035 C 
HETATM   13  C14 UNL     1      18.271 -13.820  20.445  1.00  0.00     0.043 C 
HETATM   14  C15 UNL     1      19.181 -14.086  21.448  1.00  0.00    -0.000 A 
HETATM   15  C16 UNL     1      20.321 -13.333  21.376  1.00  0.00     0.016 A 
HETATM   16  C21 UNL     1      19.003 -15.008  22.509  1.00  0.00    -0.009 A 
HETATM   17  C17 UNL     1      20.459 -12.378  20.230  1.00  0.00     0.069 C 
HETATM   18  N6  UNL     1      21.260 -13.477  22.319  1.00  0.00    -0.368 N 
HETATM   19  C18 UNL     1      21.100 -14.342  23.329  1.00  0.00     0.095 A 
ATOM     20  H6  UNL     1      22.112 -12.918  22.268  1.00  0.00     0.165 HD
HETATM   21  C19 UNL     1      19.957 -15.157  23.479  1.00  0.00    -0.035 A 
HETATM   22  C20 UNL     1      19.694 -16.038  24.573  1.00  0.00     0.050 C 
BRANCH  12  23
HETATM   23  N2  UNL     1      16.202 -13.533  19.543  1.00  0.00    -0.326 N 
HETATM   24  C12 UNL     1      15.586 -12.256  19.595  1.00  0.00     0.241 C 
HETATM   25  O1  UNL     1      16.296 -11.254  19.302  1.00  0.00    -0.271 OA
ATOM     26  H2  UNL     1      16.090 -14.105  18.706  1.00  0.00     0.169 HD
BRANCH  24  27
HETATM   27  C13 UNL     1      14.179 -12.044  19.967  1.00  0.00     0.243 C 
BRANCH  27  28
HETATM   28  N3  UNL     1      13.645 -10.856  19.332  1.00  0.00    -0.314 N 
ATOM     29  H3  UNL     1      13.377 -10.898  18.350  1.00  0.00     0.182 HD
BRANCH  28  30
HETATM   30  N4  UNL     1      13.487  -9.653  20.025  1.00  0.00    -0.253 N 
HETATM   31  N5  UNL     1      14.454  -9.215  20.717  1.00  0.00    -0.331 N 
ATOM     32  H52 UNL     1      15.326  -9.744  20.758  1.00  0.00     0.178 HD
ATOM     33  H51 UNL     1      14.339  -8.338  21.223  1.00  0.00     0.178 HD
ATOM     34  H4  UNL     1      12.610  -9.137  19.975  1.00  0.00     0.207 HD
ENDBRANCH  28  30
ENDBRANCH  27  28
ENDBRANCH  24  27
ENDBRANCH  12  23
ENDBRANCH   8   9
ENDBRANCH   5   8
ENDBRANCH   4   5
ENDBRANCH   3   4
TORSDOF 8
ENDMDL
