MODEL 1
REMARK VINA RESULT: -6.537397840      0.000      0.000
REMARK  8 active torsions:
REMARK  status: ('A' for Active; 'I' for Inactive)
REMARK    1  A    between atoms: N1_2  and  C2_3 
REMARK    2  A    between atoms: C2_3  and  C3_4 
REMARK    3  A    between atoms: C3_4  and  C4_5 
REMARK    4  A    between atoms: C4_5  and  N2_6 
REMARK    5  A    between atoms: N2_6  and  C5_7 
REMARK    6  A    between atoms: C5_7  and  C6_8 
REMARK    7  A    between atoms: C6_8  and  O1_9 
REMARK    8  A    between atoms: N3_20  and  C16_21 
ROOT
HETATM    1  C3  UNL     1      18.827 -14.776  21.018  1.00  0.00     0.051 C 
ENDROOT
BRANCH   1   2
HETATM    2  C2  UNL     1      18.024 -13.640  20.648  1.00  0.00     0.213 C 
BRANCH   2   3
HETATM    3  N1  UNL     1      16.611 -13.653  20.549  1.00  0.00     0.014 N 
HETATM    4  C1  UNL     1      16.030 -14.839  19.954  1.00  0.00     0.289 C 
HETATM    5  C14 UNL     1      16.277 -12.588  19.560  1.00  0.00     0.272 C 
HETATM    6  C15 UNL     1      15.921 -11.298  20.266  1.00  0.00     0.154 C 
HETATM    7  N3  UNL     1      14.602 -11.521  20.869  1.00  0.00    -0.350 N 
HETATM    8  C17 UNL     1      14.439 -12.867  21.447  1.00  0.00     0.236 C 
HETATM    9  C18 UNL     1      15.868 -13.311  21.691  1.00  0.00     0.340 C 
HETATM   10  O2  UNL     1      16.201 -13.320  22.839  1.00  0.00    -0.263 OA
BRANCH   7  11
HETATM   11  C16 UNL     1      13.591 -10.553  20.897  1.00  0.00     0.183 C 
HETATM   12  N4  UNL     1      13.501  -9.620  19.847  1.00  0.00    -0.070 NA
HETATM   13  S1  UNL     1      12.554 -10.543  22.147  1.00  0.00    -0.044 SA
ENDBRANCH   7  11
ENDBRANCH   2   3
ENDBRANCH   1   2
BRANCH   1  14
HETATM   14  C4  UNL     1      19.990 -14.838  21.867  1.00  0.00     0.204 C 
BRANCH  14  15
HETATM   15  N2  UNL     1      19.952 -15.310  23.219  1.00  0.00    -0.045 N 
HETATM   16  C7  UNL     1      21.194 -15.872  23.653  1.00  0.00     0.243 C 
HETATM   17  C8  UNL     1      21.305 -16.047  25.147  1.00  0.00     0.028 C 
HETATM   18  C9  UNL     1      22.093 -14.902  25.732  1.00  0.00     0.002 C 
HETATM   19  C10 UNL     1      21.191 -14.007  26.592  1.00  0.00     0.000 C 
HETATM   20  C11 UNL     1      20.714 -12.857  25.798  1.00  0.00     0.002 C 
HETATM   21  C12 UNL     1      20.314 -13.138  24.387  1.00  0.00     0.028 C 
HETATM   22  C13 UNL     1      19.451 -14.288  24.133  1.00  0.00     0.243 C 
BRANCH  15  23
HETATM   23  C5  UNL     1      18.956 -16.365  23.283  1.00  0.00     0.268 C 
BRANCH  23  24
HETATM   24  C6  UNL     1      17.814 -16.069  24.234  1.00  0.00     0.192 C 
BRANCH  24  25
HETATM   25  O1  UNL     1      16.632 -16.237  23.466  1.00  0.00    -0.399 OA
ATOM     26  H1  UNL     1      16.696 -17.109  23.093  1.00  0.00     0.209 HD
ENDBRANCH  24  25
ENDBRANCH  23  24
ENDBRANCH  15  23
ENDBRANCH  14  15
ENDBRANCH   1  14
TORSDOF 8
ENDMDL
MODEL 2
REMARK VINA RESULT: -6.441197224      1.456      1.930
REMARK  8 active torsions:
REMARK  status: ('A' for Active; 'I' for Inactive)
REMARK    1  A    between atoms: N1_2  and  C2_3 
REMARK    2  A    between atoms: C2_3  and  C3_4 
REMARK    3  A    between atoms: C3_4  and  C4_5 
REMARK    4  A    between atoms: C4_5  and  N2_6 
REMARK    5  A    between atoms: N2_6  and  C5_7 
REMARK    6  A    between atoms: C5_7  and  C6_8 
REMARK    7  A    between atoms: C6_8  and  O1_9 
REMARK    8  A    between atoms: N3_20  and  C16_21 
ROOT
HETATM    1  C3  UNL     1      18.197 -15.469  21.553  1.00  0.00     0.051 C 
ENDROOT
BRANCH   1   2
HETATM    2  C2  UNL     1      17.196 -14.706  20.856  1.00  0.00     0.213 C 
BRANCH   2   3
HETATM    3  N1  UNL     1      17.056 -13.300  20.937  1.00  0.00     0.014 N 
HETATM    4  C1  UNL     1      18.220 -12.575  21.408  1.00  0.00     0.289 C 
HETATM    5  C14 UNL     1      16.059 -13.064  22.020  1.00  0.00     0.272 C 
HETATM    6  C15 UNL     1      14.675 -12.871  21.438  1.00  0.00     0.154 C 
HETATM    7  N3  UNL     1      14.689 -11.550  20.800  1.00  0.00    -0.350 N 
HETATM    8  C17 UNL     1      15.946 -11.250  20.093  1.00  0.00     0.236 C 
HETATM    9  C18 UNL     1      16.526 -12.626  19.825  1.00  0.00     0.340 C 
HETATM   10  O2  UNL     1      16.464 -12.981  18.685  1.00  0.00    -0.263 OA
BRANCH   7  11
HETATM   11  C16 UNL     1      13.613 -10.655  20.854  1.00  0.00     0.183 C 
HETATM   12  N4  UNL     1      13.531  -9.618  19.907  1.00  0.00    -0.070 NA
HETATM   13  S1  UNL     1      12.494 -10.849  22.016  1.00  0.00    -0.044 SA
ENDBRANCH   7  11
ENDBRANCH   2   3
ENDBRANCH   1   2
BRANCH   1  14
HETATM   14  C4  UNL     1      18.182 -15.989  22.898  1.00  0.00     0.204 C 
BRANCH  14  15
HETATM   15  N2  UNL     1      19.357 -16.101  23.710  1.00  0.00    -0.045 N 
HETATM   16  C7  UNL     1      20.563 -15.825  22.993  1.00  0.00     0.243 C 
HETATM   17  C8  UNL     1      21.764 -15.583  23.875  1.00  0.00     0.028 C 
HETATM   18  C9  UNL     1      21.996 -14.099  24.016  1.00  0.00     0.002 C 
HETATM   19  C10 UNL     1      21.707 -13.640  25.451  1.00  0.00     0.000 C 
HETATM   20  C11 UNL     1      20.330 -13.114  25.546  1.00  0.00     0.002 C 
HETATM   21  C12 UNL     1      19.274 -13.863  24.804  1.00  0.00     0.028 C 
HETATM   22  C13 UNL     1      19.241 -15.317  24.936  1.00  0.00     0.243 C 
BRANCH  15  23
HETATM   23  C5  UNL     1      19.436 -17.475  24.172  1.00  0.00     0.268 C 
BRANCH  23  24
HETATM   24  C6  UNL     1      18.917 -17.676  25.581  1.00  0.00     0.192 C 
BRANCH  24  25
HETATM   25  O1  UNL     1      17.782 -18.519  25.447  1.00  0.00    -0.399 OA
ATOM     26  H1  UNL     1      17.461 -18.652  26.332  1.00  0.00     0.209 HD
ENDBRANCH  24  25
ENDBRANCH  23  24
ENDBRANCH  15  23
ENDBRANCH  14  15
ENDBRANCH   1  14
TORSDOF 8
ENDMDL
MODEL 3
REMARK VINA RESULT: -6.422778230      1.252      1.684
REMARK  8 active torsions:
REMARK  status: ('A' for Active; 'I' for Inactive)
REMARK    1  A    between atoms: N1_2  and  C2_3 
REMARK    2  A    between atoms: C2_3  and  C3_4 
REMARK    3  A    between atoms: C3_4  and  C4_5 
REMARK    4  A    between atoms: C4_5  and  N2_6 
REMARK    5  A    between atoms: N2_6  and  C5_7 
REMARK    6  A    between atoms: C5_7  and  C6_8 
REMARK    7  A    between atoms: C6_8  and  O1_9 
REMARK    8  A    between atoms: N3_20  and  C16_21 
ROOT
HETATM    1  C3  UNL     1      18.025 -15.261  21.255  1.00  0.00     0.051 C 
ENDROOT
BRANCH   1   2
HETATM    2  C2  UNL     1      17.581 -14.262  20.319  1.00  0.00     0.213 C 
BRANCH   2   3
HETATM    3  N1  UNL     1      17.110 -12.976  20.679  1.00  0.00     0.014 N 
HETATM    4  C1  UNL     1      18.127 -12.009  21.043  1.00  0.00     0.289 C 
HETATM    5  C14 UNL     1      16.368 -13.172  21.958  1.00  0.00     0.272 C 
HETATM    6  C15 UNL     1      14.885 -13.318  21.696  1.00  0.00     0.154 C 
HETATM    7  N3  UNL     1      14.411 -11.982  21.319  1.00  0.00    -0.350 N 
HETATM    8  C17 UNL     1      15.348 -11.247  20.451  1.00  0.00     0.236 C 
HETATM    9  C18 UNL     1      16.180 -12.353  19.831  1.00  0.00     0.340 C 
HETATM   10  O2  UNL     1      15.946 -12.570  18.678  1.00  0.00    -0.263 OA
BRANCH   7  11
HETATM   11  C16 UNL     1      13.186 -11.449  21.739  1.00  0.00     0.183 C 
HETATM   12  N4  UNL     1      13.033 -10.053  21.821  1.00  0.00    -0.070 NA
HETATM   13  S1  UNL     1      11.981 -12.469  22.119  1.00  0.00    -0.044 SA
ENDBRANCH   7  11
ENDBRANCH   2   3
ENDBRANCH   1   2
BRANCH   1  14
HETATM   14  C4  UNL     1      19.319 -15.432  21.867  1.00  0.00     0.204 C 
BRANCH  14  15
HETATM   15  N2  UNL     1      19.497 -15.723  23.259  1.00  0.00    -0.045 N 
HETATM   16  C7  UNL     1      20.803 -16.220  23.565  1.00  0.00     0.243 C 
HETATM   17  C8  UNL     1      21.144 -16.198  25.034  1.00  0.00     0.028 C 
HETATM   18  C9  UNL     1      21.985 -14.983  25.339  1.00  0.00     0.002 C 
HETATM   19  C10 UNL     1      21.204 -13.986  26.205  1.00  0.00     0.000 C 
HETATM   20  C11 UNL     1      20.585 -12.952  25.351  1.00  0.00     0.002 C 
HETATM   21  C12 UNL     1      19.982 -13.416  24.067  1.00  0.00     0.028 C 
HETATM   22  C13 UNL     1      19.117 -14.592  24.099  1.00  0.00     0.243 C 
BRANCH  15  23
HETATM   23  C5  UNL     1      18.548 -16.764  23.610  1.00  0.00     0.268 C 
BRANCH  23  24
HETATM   24  C6  UNL     1      17.564 -16.353  24.687  1.00  0.00     0.192 C 
BRANCH  24  25
HETATM   25  O1  UNL     1      16.293 -16.777  24.217  1.00  0.00    -0.399 OA
ATOM     26  H1  UNL     1      16.141 -17.621  24.627  1.00  0.00     0.209 HD
ENDBRANCH  24  25
ENDBRANCH  23  24
ENDBRANCH  15  23
ENDBRANCH  14  15
ENDBRANCH   1  14
TORSDOF 8
ENDMDL
MODEL 4
REMARK VINA RESULT: -6.101563957      2.166      3.289
REMARK  8 active torsions:
REMARK  status: ('A' for Active; 'I' for Inactive)
REMARK    1  A    between atoms: N1_2  and  C2_3 
REMARK    2  A    between atoms: C2_3  and  C3_4 
REMARK    3  A    between atoms: C3_4  and  C4_5 
REMARK    4  A    between atoms: C4_5  and  N2_6 
REMARK    5  A    between atoms: N2_6  and  C5_7 
REMARK    6  A    between atoms: C5_7  and  C6_8 
REMARK    7  A    between atoms: C6_8  and  O1_9 
REMARK    8  A    between atoms: N3_20  and  C16_21 
ROOT
HETATM    1  C3  UNL     1      17.316 -14.808  20.757  1.00  0.00     0.051 C 
ENDROOT
BRANCH   1   2
HETATM    2  C2  UNL     1      16.695 -13.748  20.007  1.00  0.00     0.213 C 
BRANCH   2   3
HETATM    3  N1  UNL     1      16.258 -12.521  20.561  1.00  0.00     0.014 N 
HETATM    4  C1  UNL     1      17.301 -11.639  21.045  1.00  0.00     0.289 C 
HETATM    5  C14 UNL     1      15.531 -12.889  21.810  1.00  0.00     0.272 C 
HETATM    6  C15 UNL     1      14.041 -12.966  21.556  1.00  0.00     0.154 C 
HETATM    7  N3  UNL     1      13.591 -11.580  21.389  1.00  0.00    -0.350 N 
HETATM    8  C17 UNL     1      14.530 -10.744  20.621  1.00  0.00     0.236 C 
HETATM    9  C18 UNL     1      15.328 -11.762  19.830  1.00  0.00     0.340 C 
HETATM   10  O2  UNL     1      15.073 -11.802  18.663  1.00  0.00    -0.263 OA
BRANCH   7  11
HETATM   11  C16 UNL     1      12.384 -11.092  21.905  1.00  0.00     0.183 C 
HETATM   12  N4  UNL     1      11.970  -9.789  21.575  1.00  0.00    -0.070 NA
HETATM   13  S1  UNL     1      11.503 -12.055  22.872  1.00  0.00    -0.044 SA
ENDBRANCH   7  11
ENDBRANCH   2   3
ENDBRANCH   1   2
BRANCH   1  14
HETATM   14  C4  UNL     1      18.660 -14.900  21.272  1.00  0.00     0.204 C 
BRANCH  14  15
HETATM   15  N2  UNL     1      18.967 -14.908  22.671  1.00  0.00    -0.045 N 
HETATM   16  C7  UNL     1      17.824 -14.671  23.497  1.00  0.00     0.243 C 
HETATM   17  C8  UNL     1      18.028 -15.021  24.951  1.00  0.00     0.028 C 
HETATM   18  C9  UNL     1      17.435 -16.379  25.231  1.00  0.00     0.002 C 
HETATM   19  C10 UNL     1      18.538 -17.401  25.537  1.00  0.00     0.000 C 
HETATM   20  C11 UNL     1      18.883 -18.154  24.315  1.00  0.00     0.002 C 
HETATM   21  C12 UNL     1      18.959 -17.372  23.045  1.00  0.00     0.028 C 
HETATM   22  C13 UNL     1      19.697 -16.112  23.057  1.00  0.00     0.243 C 
BRANCH  15  23
HETATM   23  C5  UNL     1      19.906 -13.828  22.916  1.00  0.00     0.268 C 
BRANCH  23  24
HETATM   24  C6  UNL     1      21.146 -14.258  23.674  1.00  0.00     0.192 C 
BRANCH  24  25
HETATM   25  O1  UNL     1      22.235 -13.668  22.980  1.00  0.00    -0.399 OA
ATOM     26  H1  UNL     1      22.928 -13.583  23.625  1.00  0.00     0.209 HD
ENDBRANCH  24  25
ENDBRANCH  23  24
ENDBRANCH  15  23
ENDBRANCH  14  15
ENDBRANCH   1  14
TORSDOF 8
ENDMDL
MODEL 5
REMARK VINA RESULT: -6.090708935      1.671      2.768
REMARK  8 active torsions:
REMARK  status: ('A' for Active; 'I' for Inactive)
REMARK    1  A    between atoms: N1_2  and  C2_3 
REMARK    2  A    between atoms: C2_3  and  C3_4 
REMARK    3  A    between atoms: C3_4  and  C4_5 
REMARK    4  A    between atoms: C4_5  and  N2_6 
REMARK    5  A    between atoms: N2_6  and  C5_7 
REMARK    6  A    between atoms: C5_7  and  C6_8 
REMARK    7  A    between atoms: C6_8  and  O1_9 
REMARK    8  A    between atoms: N3_20  and  C16_21 
ROOT
HETATM    1  C3  UNL     1      19.091 -14.307  20.935  1.00  0.00     0.051 C 
ENDROOT
BRANCH   1   2
HETATM    2  C2  UNL     1      18.183 -13.282  20.494  1.00  0.00     0.213 C 
BRANCH   2   3
HETATM    3  N1  UNL     1      16.777 -13.432  20.416  1.00  0.00     0.014 N 
HETATM    4  C1  UNL     1      16.306 -14.673  19.835  1.00  0.00     0.289 C 
HETATM    5  C14 UNL     1      16.326 -12.412  19.427  1.00  0.00     0.272 C 
HETATM    6  C15 UNL     1      15.856 -11.158  20.132  1.00  0.00     0.154 C 
HETATM    7  N3  UNL     1      14.574 -11.505  20.756  1.00  0.00    -0.350 N 
HETATM    8  C17 UNL     1      14.551 -12.856  21.343  1.00  0.00     0.236 C 
HETATM    9  C18 UNL     1      16.020 -13.158  21.567  1.00  0.00     0.340 C 
HETATM   10  O2  UNL     1      16.369 -13.127  22.710  1.00  0.00    -0.263 OA
BRANCH   7  11
HETATM   11  C16 UNL     1      13.474 -10.639  20.794  1.00  0.00     0.183 C 
HETATM   12  N4  UNL     1      13.371  -9.611  19.839  1.00  0.00    -0.070 NA
HETATM   13  S1  UNL     1      12.350 -10.856  21.947  1.00  0.00    -0.044 SA
ENDBRANCH   7  11
ENDBRANCH   2   3
ENDBRANCH   1   2
BRANCH   1  14
HETATM   14  C4  UNL     1      20.267 -14.196  21.761  1.00  0.00     0.204 C 
BRANCH  14  15
HETATM   15  N2  UNL     1      20.273 -14.485  23.164  1.00  0.00    -0.045 N 
HETATM   16  C7  UNL     1      19.235 -13.811  23.880  1.00  0.00     0.243 C 
HETATM   17  C8  UNL     1      18.986 -14.355  25.265  1.00  0.00     0.028 C 
HETATM   18  C9  UNL     1      17.796 -15.282  25.236  1.00  0.00     0.002 C 
HETATM   19  C10 UNL     1      18.232 -16.732  25.487  1.00  0.00     0.000 C 
HETATM   20  C11 UNL     1      18.413 -17.436  24.202  1.00  0.00     0.002 C 
HETATM   21  C12 UNL     1      19.070 -16.667  23.103  1.00  0.00     0.028 C 
HETATM   22  C13 UNL     1      20.286 -15.923  23.417  1.00  0.00     0.243 C 
BRANCH  15  23
HETATM   23  C5  UNL     1      21.539 -14.017  23.699  1.00  0.00     0.268 C 
BRANCH  23  24
HETATM   24  C6  UNL     1      22.463 -15.133  24.144  1.00  0.00     0.192 C 
BRANCH  24  25
HETATM   25  O1  UNL     1      23.766 -14.716  23.766  1.00  0.00    -0.399 OA
ATOM     26  H1  UNL     1      24.201 -15.501  23.453  1.00  0.00     0.209 HD
ENDBRANCH  24  25
ENDBRANCH  23  24
ENDBRANCH  15  23
ENDBRANCH  14  15
ENDBRANCH   1  14
TORSDOF 8
ENDMDL
