MODEL 1
REMARK VINA RESULT: -7.080916910      0.000      0.000
REMARK  6 active torsions:
REMARK  status: ('A' for Active; 'I' for Inactive)
REMARK    1  A    between atoms: C3_3  and  N1_4 
REMARK    2  A    between atoms: N1_4  and  C4_5 
REMARK    3  A    between atoms: N1_4  and  C6_7 
REMARK    4  A    between atoms: N1_4  and  C10_14 
REMARK    5  A    between atoms: C6_7  and  C7_8 
REMARK    6  A    between atoms: C12_16  and  N2_17 
ROOT
HETATM    1  C1  UNL     1      15.497 -11.259  16.938  1.00  0.00     0.013 C 
HETATM    2  C2  UNL     1      15.831 -12.038  17.792  1.00  0.00    -0.089 C 
HETATM    3  C3  UNL     1      16.227 -12.970  18.850  1.00  0.00     0.330 C 
ENDROOT
BRANCH   3   4
HETATM    4  N1  UNL     1      16.075 -12.312  20.180  1.00  0.00    -0.046 N 
BRANCH   4   5
HETATM    5  C4  UNL     1      17.053 -11.301  20.345  1.00  0.00     0.235 C 
HETATM    6  C5  UNL     1      18.448 -11.671  19.822  1.00  0.00     0.035 C 
ENDBRANCH   4   5
BRANCH   4   7
HETATM    7  C6  UNL     1      14.771 -11.645  19.999  1.00  0.00     0.284 C 
BRANCH   7   8
HETATM    8  C7  UNL     1      14.081 -11.246  21.226  1.00  0.00     0.240 C 
HETATM    9  O1  UNL     1      12.706 -11.609  21.117  1.00  0.00    -0.371 OA
HETATM   10  C8  UNL     1      12.137 -11.142  22.312  1.00  0.00     0.182 C 
HETATM   11  C9  UNL     1      12.229  -9.610  22.264  1.00  0.00     0.137 C 
HETATM   12  S1  UNL     1      13.775  -9.465  21.343  1.00  0.00     0.048 S 
HETATM   13  O2  UNL     1      13.305  -8.929  19.798  1.00  0.00    -0.255 OA
ENDBRANCH   7   8
ENDBRANCH   4   7
BRANCH   4  14
HETATM   14  C10 UNL     1      15.985 -13.371  21.087  1.00  0.00     0.224 C 
HETATM   15  C11 UNL     1      16.368 -14.759  20.531  1.00  0.00     0.076 C 
HETATM   16  C12 UNL     1      16.495 -15.087  21.997  1.00  0.00     0.224 C 
HETATM   17  C18 UNL     1      16.910 -13.669  22.169  1.00  0.00    -0.028 C 
HETATM   18  C19 UNL     1      17.772 -13.175  23.036  1.00  0.00     0.018 C 
BRANCH  16  19
HETATM   19  N2  UNL     1      17.371 -16.137  22.339  1.00  0.00    -0.047 N 
HETATM   20  C13 UNL     1      18.767 -15.852  22.103  1.00  0.00     0.275 C 
HETATM   21  C14 UNL     1      17.009 -17.277  21.506  1.00  0.00     0.249 C 
HETATM   22  C15 UNL     1      16.080 -18.252  22.125  1.00  0.00     0.131 C 
HETATM   23  C16 UNL     1      15.206 -17.741  23.189  1.00  0.00     0.220 C 
HETATM   24  O3  UNL     1      14.018 -18.057  23.384  1.00  0.00    -0.274 OA
HETATM   25  N3  UNL     1      15.851 -16.780  24.060  1.00  0.00    -0.337 N 
HETATM   26  C17 UNL     1      17.261 -16.593  23.701  1.00  0.00     0.362 C 
ATOM     27  H3  UNL     1      15.383 -16.294  24.825  1.00  0.00     0.164 HD
ENDBRANCH  16  19
ENDBRANCH   4  14
ENDBRANCH   3   4
TORSDOF 6
ENDMDL
MODEL 2
REMARK VINA RESULT: -6.426764029      2.496      6.689
REMARK  6 active torsions:
REMARK  status: ('A' for Active; 'I' for Inactive)
REMARK    1  A    between atoms: C3_3  and  N1_4 
REMARK    2  A    between atoms: N1_4  and  C4_5 
REMARK    3  A    between atoms: N1_4  and  C6_7 
REMARK    4  A    between atoms: N1_4  and  C10_14 
REMARK    5  A    between atoms: C6_7  and  C7_8 
REMARK    6  A    between atoms: C12_16  and  N2_17 
ROOT
HETATM    1  C1  UNL     1      20.580 -12.524  25.128  1.00  0.00     0.013 C 
HETATM    2  C2  UNL     1      19.594 -13.151  24.839  1.00  0.00    -0.089 C 
HETATM    3  C3  UNL     1      18.405 -13.918  24.463  1.00  0.00     0.330 C 
ENDROOT
BRANCH   3   4
HETATM    4  N1  UNL     1      18.386 -14.122  22.986  1.00  0.00    -0.046 N 
BRANCH   4   5
HETATM    5  C4  UNL     1      19.639 -13.774  22.424  1.00  0.00     0.235 C 
HETATM    6  C5  UNL     1      19.980 -14.512  21.121  1.00  0.00     0.035 C 
ENDBRANCH   4   5
BRANCH   4   7
HETATM    7  C6  UNL     1      18.263 -15.591  22.922  1.00  0.00     0.284 C 
BRANCH   7   8
HETATM    8  C7  UNL     1      17.475 -16.214  23.986  1.00  0.00     0.240 C 
HETATM    9  O1  UNL     1      18.120 -17.421  24.388  1.00  0.00    -0.371 OA
HETATM   10  C8  UNL     1      17.263 -17.953  25.364  1.00  0.00     0.182 C 
HETATM   11  C9  UNL     1      15.962 -18.328  24.641  1.00  0.00     0.137 C 
HETATM   12  S1  UNL     1      15.964 -17.019  23.396  1.00  0.00     0.048 S 
HETATM   13  O2  UNL     1      16.347 -17.812  21.941  1.00  0.00    -0.255 OA
ENDBRANCH   7   8
ENDBRANCH   4   7
BRANCH   4  14
HETATM   14  C10 UNL     1      17.215 -13.492  22.559  1.00  0.00     0.224 C 
HETATM   15  C11 UNL     1      17.385 -12.046  22.046  1.00  0.00     0.076 C 
HETATM   16  C12 UNL     1      16.041 -12.324  21.423  1.00  0.00     0.224 C 
HETATM   17  C18 UNL     1      16.502 -13.734  21.314  1.00  0.00    -0.028 C 
HETATM   18  C19 UNL     1      16.214 -14.613  20.375  1.00  0.00     0.018 C 
BRANCH  16  19
HETATM   19  N2  UNL     1      15.713 -11.587  20.267  1.00  0.00    -0.047 N 
HETATM   20  C13 UNL     1      16.647 -11.737  19.176  1.00  0.00     0.275 C 
HETATM   21  C14 UNL     1      15.708 -10.181  20.651  1.00  0.00     0.249 C 
HETATM   22  C15 UNL     1      14.386  -9.622  21.018  1.00  0.00     0.131 C 
HETATM   23  C16 UNL     1      13.383 -10.577  21.507  1.00  0.00     0.220 C 
HETATM   24  O3  UNL     1      12.560 -10.383  22.420  1.00  0.00    -0.274 OA
HETATM   25  N3  UNL     1      13.407 -11.849  20.815  1.00  0.00    -0.337 N 
HETATM   26  C17 UNL     1      14.401 -11.854  19.736  1.00  0.00     0.362 C 
ATOM     27  H3  UNL     1      12.808 -12.642  21.049  1.00  0.00     0.164 HD
ENDBRANCH  16  19
ENDBRANCH   4  14
ENDBRANCH   3   4
TORSDOF 6
ENDMDL
MODEL 3
REMARK VINA RESULT: -6.424240468      3.698      6.676
REMARK  6 active torsions:
REMARK  status: ('A' for Active; 'I' for Inactive)
REMARK    1  A    between atoms: C3_3  and  N1_4 
REMARK    2  A    between atoms: N1_4  and  C4_5 
REMARK    3  A    between atoms: N1_4  and  C6_7 
REMARK    4  A    between atoms: N1_4  and  C10_14 
REMARK    5  A    between atoms: C6_7  and  C7_8 
REMARK    6  A    between atoms: C12_16  and  N2_17 
ROOT
HETATM    1  C1  UNL     1      20.397 -12.157  20.320  1.00  0.00     0.013 C 
HETATM    2  C2  UNL     1      19.747 -13.124  20.623  1.00  0.00    -0.089 C 
HETATM    3  C3  UNL     1      18.947 -14.287  21.011  1.00  0.00     0.330 C 
ENDROOT
BRANCH   3   4
HETATM    4  N1  UNL     1      18.374 -14.070  22.371  1.00  0.00    -0.046 N 
BRANCH   4   5
HETATM    5  C4  UNL     1      18.453 -15.261  23.135  1.00  0.00     0.235 C 
HETATM    6  C5  UNL     1      18.346 -16.553  22.313  1.00  0.00     0.035 C 
ENDBRANCH   4   5
BRANCH   4   7
HETATM    7  C6  UNL     1      19.359 -13.121  22.926  1.00  0.00     0.284 C 
BRANCH   7   8
HETATM    8  C7  UNL     1      19.795 -13.381  24.298  1.00  0.00     0.240 C 
HETATM    9  O1  UNL     1      20.207 -12.150  24.888  1.00  0.00    -0.371 OA
HETATM   10  C8  UNL     1      20.646 -12.520  26.169  1.00  0.00     0.182 C 
HETATM   11  C9  UNL     1      21.894 -13.390  25.964  1.00  0.00     0.137 C 
HETATM   12  S1  UNL     1      21.420 -14.172  24.408  1.00  0.00     0.048 S 
HETATM   13  O2  UNL     1      22.418 -13.444  23.239  1.00  0.00    -0.255 OA
ENDBRANCH   7   8
ENDBRANCH   4   7
BRANCH   4  14
HETATM   14  C10 UNL     1      17.143 -13.453  22.140  1.00  0.00     0.224 C 
HETATM   15  C11 UNL     1      17.210 -11.964  21.739  1.00  0.00     0.076 C 
HETATM   16  C12 UNL     1      15.810 -12.240  21.254  1.00  0.00     0.224 C 
HETATM   17  C18 UNL     1      16.294 -13.618  20.971  1.00  0.00    -0.028 C 
HETATM   18  C19 UNL     1      15.920 -14.425  19.999  1.00  0.00     0.018 C 
BRANCH  16  19
HETATM   19  N2  UNL     1      15.325 -11.422  20.214  1.00  0.00    -0.047 N 
HETATM   20  C13 UNL     1      16.108 -11.470  19.002  1.00  0.00     0.275 C 
HETATM   21  C14 UNL     1      15.358 -10.051  20.705  1.00  0.00     0.249 C 
HETATM   22  C15 UNL     1      14.091  -9.547  21.285  1.00  0.00     0.131 C 
HETATM   23  C16 UNL     1      13.170 -10.557  21.824  1.00  0.00     0.220 C 
HETATM   24  O3  UNL     1      12.474 -10.449  22.850  1.00  0.00    -0.274 OA
HETATM   25  N3  UNL     1      13.114 -11.771  21.036  1.00  0.00    -0.337 N 
HETATM   26  C17 UNL     1      13.957 -11.673  19.839  1.00  0.00     0.362 C 
ATOM     27  H3  UNL     1      12.559 -12.590  21.283  1.00  0.00     0.164 HD
ENDBRANCH  16  19
ENDBRANCH   4  14
ENDBRANCH   3   4
TORSDOF 6
ENDMDL
MODEL 4
REMARK VINA RESULT: -6.372720799      2.838      4.065
REMARK  6 active torsions:
REMARK  status: ('A' for Active; 'I' for Inactive)
REMARK    1  A    between atoms: C3_3  and  N1_4 
REMARK    2  A    between atoms: N1_4  and  C4_5 
REMARK    3  A    between atoms: N1_4  and  C6_7 
REMARK    4  A    between atoms: N1_4  and  C10_14 
REMARK    5  A    between atoms: C6_7  and  C7_8 
REMARK    6  A    between atoms: C12_16  and  N2_17 
ROOT
HETATM    1  C1  UNL     1      20.270 -11.754  19.240  1.00  0.00     0.013 C 
HETATM    2  C2  UNL     1      20.244 -12.359  20.280  1.00  0.00    -0.089 C 
HETATM    3  C3  UNL     1      20.188 -13.103  21.539  1.00  0.00     0.330 C 
ENDROOT
BRANCH   3   4
HETATM    4  N1  UNL     1      18.798 -13.590  21.773  1.00  0.00    -0.046 N 
BRANCH   4   5
HETATM    5  C4  UNL     1      18.403 -13.329  23.109  1.00  0.00     0.235 C 
HETATM    6  C5  UNL     1      19.565 -13.116  24.087  1.00  0.00     0.035 C 
ENDBRANCH   4   5
BRANCH   4   7
HETATM    7  C6  UNL     1      18.044 -12.671  20.899  1.00  0.00     0.284 C 
BRANCH   7   8
HETATM    8  C7  UNL     1      16.799 -12.136  21.454  1.00  0.00     0.240 C 
HETATM    9  O1  UNL     1      15.723 -12.989  21.070  1.00  0.00    -0.371 OA
HETATM   10  C8  UNL     1      14.588 -12.363  21.607  1.00  0.00     0.182 C 
HETATM   11  C9  UNL     1      14.431 -11.033  20.857  1.00  0.00     0.137 C 
HETATM   12  S1  UNL     1      16.180 -10.678  20.578  1.00  0.00     0.048 S 
HETATM   13  O2  UNL     1      16.413 -10.948  18.915  1.00  0.00    -0.255 OA
ENDBRANCH   7   8
ENDBRANCH   4   7
BRANCH   4  14
HETATM   14  C10 UNL     1      18.792 -14.893  21.270  1.00  0.00     0.224 C 
HETATM   15  C11 UNL     1      19.895 -15.824  21.819  1.00  0.00     0.076 C 
HETATM   16  C12 UNL     1      18.974 -16.893  21.289  1.00  0.00     0.224 C 
HETATM   17  C18 UNL     1      17.867 -15.958  21.626  1.00  0.00    -0.028 C 
HETATM   18  C19 UNL     1      16.651 -16.254  22.039  1.00  0.00     0.018 C 
BRANCH  16  19
HETATM   19  N2  UNL     1      19.053 -18.160  21.901  1.00  0.00    -0.047 N 
HETATM   20  C13 UNL     1      18.975 -18.134  23.343  1.00  0.00     0.275 C 
HETATM   21  C14 UNL     1      20.349 -18.722  21.542  1.00  0.00     0.249 C 
HETATM   22  C15 UNL     1      20.353 -19.623  20.366  1.00  0.00     0.131 C 
HETATM   23  C16 UNL     1      19.279 -19.423  19.384  1.00  0.00     0.220 C 
HETATM   24  O3  UNL     1      19.384 -19.508  18.146  1.00  0.00    -0.274 OA
HETATM   25  N3  UNL     1      17.999 -19.100  19.980  1.00  0.00    -0.337 N 
HETATM   26  C17 UNL     1      18.072 -19.111  21.445  1.00  0.00     0.362 C 
ATOM     27  H3  UNL     1      17.154 -18.891  19.448  1.00  0.00     0.164 HD
ENDBRANCH  16  19
ENDBRANCH   4  14
ENDBRANCH   3   4
TORSDOF 6
ENDMDL
MODEL 5
REMARK VINA RESULT: -6.349153976      3.209      7.114
REMARK  6 active torsions:
REMARK  status: ('A' for Active; 'I' for Inactive)
REMARK    1  A    between atoms: C3_3  and  N1_4 
REMARK    2  A    between atoms: N1_4  and  C4_5 
REMARK    3  A    between atoms: N1_4  and  C6_7 
REMARK    4  A    between atoms: N1_4  and  C10_14 
REMARK    5  A    between atoms: C6_7  and  C7_8 
REMARK    6  A    between atoms: C12_16  and  N2_17 
ROOT
HETATM    1  C1  UNL     1      20.575 -12.410  25.137  1.00  0.00     0.013 C 
HETATM    2  C2  UNL     1      19.817 -13.142  24.556  1.00  0.00    -0.089 C 
HETATM    3  C3  UNL     1      18.903 -14.022  23.826  1.00  0.00     0.330 C 
ENDROOT
BRANCH   3   4
HETATM    4  N1  UNL     1      18.865 -13.625  22.388  1.00  0.00    -0.046 N 
BRANCH   4   5
HETATM    5  C4  UNL     1      20.029 -12.892  22.048  1.00  0.00     0.235 C 
HETATM    6  C5  UNL     1      20.284 -12.766  20.540  1.00  0.00     0.035 C 
ENDBRANCH   4   5
BRANCH   4   7
HETATM    7  C6  UNL     1      18.969 -14.948  21.744  1.00  0.00     0.284 C 
BRANCH   7   8
HETATM    8  C7  UNL     1      19.716 -15.965  22.486  1.00  0.00     0.240 C 
HETATM    9  O1  UNL     1      20.902 -16.282  21.762  1.00  0.00    -0.371 OA
HETATM   10  C8  UNL     1      21.508 -17.289  22.530  1.00  0.00     0.182 C 
HETATM   11  C9  UNL     1      20.572 -18.504  22.466  1.00  0.00     0.137 C 
HETATM   12  S1  UNL     1      18.999 -17.623  22.371  1.00  0.00     0.048 S 
HETATM   13  O2  UNL     1      18.482 -17.841  20.765  1.00  0.00    -0.255 OA
ENDBRANCH   7   8
ENDBRANCH   4   7
BRANCH   4  14
HETATM   14  C10 UNL     1      17.596 -13.069  22.211  1.00  0.00     0.224 C 
HETATM   15  C11 UNL     1      17.569 -11.656  21.590  1.00  0.00     0.076 C 
HETATM   16  C12 UNL     1      16.134 -12.024  21.314  1.00  0.00     0.224 C 
HETATM   17  C18 UNL     1      16.629 -13.421  21.183  1.00  0.00    -0.028 C 
HETATM   18  C19 UNL     1      16.177 -14.371  20.389  1.00  0.00     0.018 C 
BRANCH  16  19
HETATM   19  N2  UNL     1      15.511 -11.380  20.226  1.00  0.00    -0.047 N 
HETATM   20  C13 UNL     1      16.257 -11.435  18.991  1.00  0.00     0.275 C 
HETATM   21  C14 UNL     1      15.370  -9.976  20.592  1.00  0.00     0.249 C 
HETATM   22  C15 UNL     1      14.064  -9.595  21.178  1.00  0.00     0.131 C 
HETATM   23  C16 UNL     1      13.306 -10.665  21.843  1.00  0.00     0.220 C 
HETATM   24  O3  UNL     1      12.632 -10.556  22.883  1.00  0.00    -0.274 OA
HETATM   25  N3  UNL     1      13.394 -11.944  21.169  1.00  0.00    -0.337 N 
HETATM   26  C17 UNL     1      14.180 -11.846  19.933  1.00  0.00     0.362 C 
ATOM     27  H3  UNL     1      12.964 -12.803  21.510  1.00  0.00     0.164 HD
ENDBRANCH  16  19
ENDBRANCH   4  14
ENDBRANCH   3   4
TORSDOF 6
ENDMDL
