MODEL 1
REMARK VINA RESULT: -6.493753180      0.000      0.000
REMARK  9 active torsions:
REMARK  status: ('A' for Active; 'I' for Inactive)
REMARK    1  A    between atoms: C2_2  and  N2_6 
REMARK    2  A    between atoms: C3_8  and  C4_9 
REMARK    3  A    between atoms: C3_8  and  C5_12 
REMARK    4  A    between atoms: C4_9  and  O1_10 
REMARK    5  A    between atoms: C5_12  and  C6_13 
REMARK    6  A    between atoms: C6_13  and  N3_14 
REMARK    7  A    between atoms: N3_14  and  C7_15 
REMARK    8  A    between atoms: C7_15  and  C8_16 
REMARK    9  A    between atoms: C8_16  and  N4_17 
ROOT
HETATM    1  N3  UNL     1      16.943 -12.912  20.649  1.00  0.00    -0.061 N 
HETATM    2  C16 UNL     1      16.133 -13.427  19.531  1.00  0.00     0.263 C 
HETATM    3  C17 UNL     1      15.649 -12.335  18.632  1.00  0.00     0.195 C 
HETATM    4  O2  UNL     1      16.758 -11.758  18.016  1.00  0.00    -0.388 OA
HETATM    5  C18 UNL     1      17.530 -11.173  19.004  1.00  0.00     0.195 C 
HETATM    6  C19 UNL     1      18.009 -12.153  20.035  1.00  0.00     0.263 C 
ENDROOT
BRANCH   1   7
HETATM    7  C6  UNL     1      16.060 -12.076  21.418  1.00  0.00     0.243 C 
BRANCH   7   8
HETATM    8  C5  UNL     1      14.816 -12.747  21.882  1.00  0.00     0.082 C 
BRANCH   8   9
HETATM    9  C3  UNL     1      13.712 -11.721  21.876  1.00  0.00     0.013 C 
HETATM   10  N2  UNL     1      13.964 -10.479  21.674  1.00  0.00    -0.352 N 
ATOM     11  H2  UNL     1      14.921 -10.165  21.514  1.00  0.00     0.166 HD
BRANCH  10  12
HETATM   12  C2  UNL     1      12.898  -9.555  21.679  1.00  0.00     0.070 C 
HETATM   13  C1  UNL     1      12.298  -9.059  22.963  1.00  0.00     0.088 C 
HETATM   14  N1  UNL     1      12.414  -9.114  20.577  1.00  0.00    -0.389 N 
ATOM     15  H12 UNL     1      11.643  -8.445  20.580  1.00  0.00     0.157 HD
ATOM     16  H11 UNL     1      12.822  -9.450  19.705  1.00  0.00     0.157 HD
ENDBRANCH  10  12
BRANCH   9  17
HETATM   17  C4  UNL     1      12.341 -12.193  22.111  1.00  0.00     0.216 C 
BRANCH  17  18
HETATM   18  O1  UNL     1      12.419 -13.593  22.282  1.00  0.00    -0.395 OA
ATOM     19  H1  UNL     1      12.288 -13.979  21.424  1.00  0.00     0.209 HD
ENDBRANCH  17  18
ENDBRANCH   9  17
ENDBRANCH   8   9
ENDBRANCH   7   8
ENDBRANCH   1   7
BRANCH   1  20
HETATM   20  C7  UNL     1      17.424 -14.056  21.351  1.00  0.00     0.265 C 
BRANCH  20  21
HETATM   21  C8  UNL     1      18.911 -14.252  21.251  1.00  0.00     0.265 C 
BRANCH  21  22
HETATM   22  N4  UNL     1      19.562 -14.233  22.540  1.00  0.00    -0.061 N 
HETATM   23  C9  UNL     1      20.582 -13.175  22.454  1.00  0.00     0.265 C 
HETATM   24  C10 UNL     1      21.519 -13.215  23.626  1.00  0.00     0.265 C 
HETATM   25  N5  UNL     1      20.822 -13.943  24.696  1.00  0.00    -0.066 N 
HETATM   26  C11 UNL     1      21.584 -13.819  25.901  1.00  0.00     0.272 C 
HETATM   27  C12 UNL     1      19.505 -13.365  24.789  1.00  0.00     0.265 C 
HETATM   28  C14 UNL     1      20.777 -15.330  24.272  1.00  0.00     0.265 C 
HETATM   29  C13 UNL     1      18.678 -13.850  23.611  1.00  0.00     0.265 C 
HETATM   30  C15 UNL     1      20.272 -15.448  22.836  1.00  0.00     0.265 C 
ENDBRANCH  21  22
ENDBRANCH  20  21
ENDBRANCH   1  20
TORSDOF 9
ENDMDL
MODEL 2
REMARK VINA RESULT: -6.339533708      2.055      3.333
REMARK  9 active torsions:
REMARK  status: ('A' for Active; 'I' for Inactive)
REMARK    1  A    between atoms: C2_2  and  N2_6 
REMARK    2  A    between atoms: C3_8  and  C4_9 
REMARK    3  A    between atoms: C3_8  and  C5_12 
REMARK    4  A    between atoms: C4_9  and  O1_10 
REMARK    5  A    between atoms: C5_12  and  C6_13 
REMARK    6  A    between atoms: C6_13  and  N3_14 
REMARK    7  A    between atoms: N3_14  and  C7_15 
REMARK    8  A    between atoms: C7_15  and  C8_16 
REMARK    9  A    between atoms: C8_16  and  N4_17 
ROOT
HETATM    1  N3  UNL     1      16.619 -15.709  21.562  1.00  0.00    -0.061 N 
HETATM    2  C16 UNL     1      15.819 -16.462  22.544  1.00  0.00     0.263 C 
HETATM    3  C17 UNL     1      14.448 -16.774  22.038  1.00  0.00     0.195 C 
HETATM    4  O2  UNL     1      14.574 -17.645  20.957  1.00  0.00    -0.388 OA
HETATM    5  C18 UNL     1      15.246 -16.972  19.953  1.00  0.00     0.195 C 
HETATM    6  C19 UNL     1      16.616 -16.516  20.363  1.00  0.00     0.263 C 
ENDROOT
BRANCH   1   7
HETATM    7  C6  UNL     1      15.932 -14.460  21.374  1.00  0.00     0.243 C 
BRANCH   7   8
HETATM    8  C5  UNL     1      16.625 -13.497  20.475  1.00  0.00     0.082 C 
BRANCH   8   9
HETATM    9  C3  UNL     1      15.718 -12.308  20.290  1.00  0.00     0.013 C 
HETATM   10  N2  UNL     1      15.159 -11.739  21.295  1.00  0.00    -0.352 N 
ATOM     11  H2  UNL     1      15.321 -12.085  22.241  1.00  0.00     0.166 HD
BRANCH  10  12
HETATM   12  C2  UNL     1      14.317 -10.629  21.074  1.00  0.00     0.070 C 
HETATM   13  C1  UNL     1      12.826 -10.738  21.212  1.00  0.00     0.088 C 
HETATM   14  N1  UNL     1      14.810  -9.492  20.746  1.00  0.00    -0.389 N 
ATOM     15  H12 UNL     1      14.202  -8.690  20.585  1.00  0.00     0.157 HD
ATOM     16  H11 UNL     1      15.824  -9.418  20.652  1.00  0.00     0.157 HD
ENDBRANCH  10  12
BRANCH   9  17
HETATM   17  C4  UNL     1      15.497 -11.825  18.921  1.00  0.00     0.216 C 
BRANCH  17  18
HETATM   18  O1  UNL     1      16.577 -10.969  18.615  1.00  0.00    -0.395 OA
ATOM     19  H1  UNL     1      17.276 -11.521  18.287  1.00  0.00     0.209 HD
ENDBRANCH  17  18
ENDBRANCH   9  17
ENDBRANCH   8   9
ENDBRANCH   7   8
ENDBRANCH   1   7
BRANCH   1  20
HETATM   20  C7  UNL     1      17.922 -15.579  22.128  1.00  0.00     0.265 C 
BRANCH  20  21
HETATM   21  C8  UNL     1      17.925 -15.041  23.532  1.00  0.00     0.265 C 
BRANCH  21  22
HETATM   22  N4  UNL     1      19.206 -14.492  23.913  1.00  0.00    -0.061 N 
HETATM   23  C9  UNL     1      19.595 -13.593  22.814  1.00  0.00     0.265 C 
HETATM   24  C10 UNL     1      21.025 -13.153  22.940  1.00  0.00     0.265 C 
HETATM   25  N5  UNL     1      21.400 -13.345  24.349  1.00  0.00    -0.066 N 
HETATM   26  C11 UNL     1      22.678 -12.738  24.564  1.00  0.00     0.272 C 
HETATM   27  C12 UNL     1      20.345 -12.752  25.134  1.00  0.00     0.265 C 
HETATM   28  C14 UNL     1      21.485 -14.780  24.549  1.00  0.00     0.265 C 
HETATM   29  C13 UNL     1      19.137 -13.673  25.095  1.00  0.00     0.265 C 
HETATM   30  C15 UNL     1      20.244 -15.483  24.004  1.00  0.00     0.265 C 
ENDBRANCH  21  22
ENDBRANCH  20  21
ENDBRANCH   1  20
TORSDOF 9
ENDMDL
MODEL 3
REMARK VINA RESULT: -6.339456222      2.081      3.513
REMARK  9 active torsions:
REMARK  status: ('A' for Active; 'I' for Inactive)
REMARK    1  A    between atoms: C2_2  and  N2_6 
REMARK    2  A    between atoms: C3_8  and  C4_9 
REMARK    3  A    between atoms: C3_8  and  C5_12 
REMARK    4  A    between atoms: C4_9  and  O1_10 
REMARK    5  A    between atoms: C5_12  and  C6_13 
REMARK    6  A    between atoms: C6_13  and  N3_14 
REMARK    7  A    between atoms: N3_14  and  C7_15 
REMARK    8  A    between atoms: C7_15  and  C8_16 
REMARK    9  A    between atoms: C8_16  and  N4_17 
ROOT
HETATM    1  N3  UNL     1      16.597 -15.791  21.584  1.00  0.00    -0.061 N 
HETATM    2  C16 UNL     1      15.748 -16.538  22.529  1.00  0.00     0.263 C 
HETATM    3  C17 UNL     1      14.386 -16.805  21.977  1.00  0.00     0.195 C 
HETATM    4  O2  UNL     1      14.521 -17.663  20.886  1.00  0.00    -0.388 OA
HETATM    5  C18 UNL     1      15.241 -16.993  19.914  1.00  0.00     0.195 C 
HETATM    6  C19 UNL     1      16.609 -16.579  20.372  1.00  0.00     0.263 C 
ENDROOT
BRANCH   1   7
HETATM    7  C6  UNL     1      15.948 -14.521  21.395  1.00  0.00     0.243 C 
BRANCH   7   8
HETATM    8  C5  UNL     1      16.624 -13.615  20.428  1.00  0.00     0.082 C 
BRANCH   8   9
HETATM    9  C3  UNL     1      15.746 -12.404  20.245  1.00  0.00     0.013 C 
HETATM   10  N2  UNL     1      15.185 -11.834  21.248  1.00  0.00    -0.352 N 
ATOM     11  H2  UNL     1      15.326 -12.195  22.192  1.00  0.00     0.166 HD
BRANCH  10  12
HETATM   12  C2  UNL     1      14.370 -10.704  21.028  1.00  0.00     0.070 C 
HETATM   13  C1  UNL     1      12.874 -10.787  21.124  1.00  0.00     0.088 C 
HETATM   14  N1  UNL     1      14.894  -9.570  20.738  1.00  0.00    -0.389 N 
ATOM     15  H12 UNL     1      14.305  -8.753  20.578  1.00  0.00     0.157 HD
ATOM     16  H11 UNL     1      15.910  -9.514  20.673  1.00  0.00     0.157 HD
ENDBRANCH  10  12
BRANCH   9  17
HETATM   17  C4  UNL     1      15.554 -11.901  18.878  1.00  0.00     0.216 C 
BRANCH  17  18
HETATM   18  O1  UNL     1      16.621 -11.012  18.621  1.00  0.00    -0.395 OA
ATOM     19  H1  UNL     1      16.257 -10.284  18.134  1.00  0.00     0.209 HD
ENDBRANCH  17  18
ENDBRANCH   9  17
ENDBRANCH   8   9
ENDBRANCH   7   8
ENDBRANCH   1   7
BRANCH   1  20
HETATM   20  C7  UNL     1      17.885 -15.705  22.190  1.00  0.00     0.265 C 
BRANCH  20  21
HETATM   21  C8  UNL     1      17.876 -15.058  23.548  1.00  0.00     0.265 C 
BRANCH  21  22
HETATM   22  N4  UNL     1      19.096 -14.335  23.826  1.00  0.00    -0.061 N 
HETATM   23  C9  UNL     1      20.153 -15.356  23.903  1.00  0.00     0.265 C 
HETATM   24  C10 UNL     1      21.431 -14.788  24.450  1.00  0.00     0.265 C 
HETATM   25  N5  UNL     1      21.361 -13.333  24.250  1.00  0.00    -0.066 N 
HETATM   26  C11 UNL     1      22.643 -12.771  24.554  1.00  0.00     0.272 C 
HETATM   27  C12 UNL     1      20.958 -13.129  22.881  1.00  0.00     0.265 C 
HETATM   28  C14 UNL     1      20.366 -12.847  25.187  1.00  0.00     0.265 C 
HETATM   29  C13 UNL     1      19.477 -13.444  22.761  1.00  0.00     0.265 C 
HETATM   30  C15 UNL     1      19.085 -13.674  25.103  1.00  0.00     0.265 C 
ENDBRANCH  21  22
ENDBRANCH  20  21
ENDBRANCH   1  20
TORSDOF 9
ENDMDL
MODEL 4
REMARK VINA RESULT: -6.272072875      2.519      3.391
REMARK  9 active torsions:
REMARK  status: ('A' for Active; 'I' for Inactive)
REMARK    1  A    between atoms: C2_2  and  N2_6 
REMARK    2  A    between atoms: C3_8  and  C4_9 
REMARK    3  A    between atoms: C3_8  and  C5_12 
REMARK    4  A    between atoms: C4_9  and  O1_10 
REMARK    5  A    between atoms: C5_12  and  C6_13 
REMARK    6  A    between atoms: C6_13  and  N3_14 
REMARK    7  A    between atoms: N3_14  and  C7_15 
REMARK    8  A    between atoms: C7_15  and  C8_16 
REMARK    9  A    between atoms: C8_16  and  N4_17 
ROOT
HETATM    1  N3  UNL     1      16.896 -13.292  20.599  1.00  0.00    -0.061 N 
HETATM    2  C16 UNL     1      16.381 -12.905  19.274  1.00  0.00     0.263 C 
HETATM    3  C17 UNL     1      16.684 -11.480  18.942  1.00  0.00     0.195 C 
HETATM    4  O2  UNL     1      18.066 -11.346  18.826  1.00  0.00    -0.388 OA
HETATM    5  C18 UNL     1      18.618 -11.613  20.066  1.00  0.00     0.195 C 
HETATM    6  C19 UNL     1      18.310 -12.995  20.565  1.00  0.00     0.263 C 
ENDROOT
BRANCH   1   7
HETATM    7  C6  UNL     1      16.194 -12.468  21.546  1.00  0.00     0.243 C 
BRANCH   7   8
HETATM    8  C5  UNL     1      14.830 -12.949  21.899  1.00  0.00     0.082 C 
BRANCH   8   9
HETATM    9  C3  UNL     1      13.881 -11.790  21.744  1.00  0.00     0.013 C 
HETATM   10  N2  UNL     1      14.308 -10.620  21.432  1.00  0.00    -0.352 N 
ATOM     11  H2  UNL     1      15.304 -10.457  21.284  1.00  0.00     0.166 HD
BRANCH  10  12
HETATM   12  C2  UNL     1      13.382  -9.564  21.299  1.00  0.00     0.070 C 
HETATM   13  C1  UNL     1      12.743  -8.929  22.499  1.00  0.00     0.088 C 
HETATM   14  N1  UNL     1      13.062  -9.121  20.140  1.00  0.00    -0.389 N 
ATOM     15  H12 UNL     1      12.392  -8.358  20.043  1.00  0.00     0.157 HD
ATOM     16  H11 UNL     1      13.497  -9.553  19.324  1.00  0.00     0.157 HD
ENDBRANCH  10  12
BRANCH   9  17
HETATM   17  C4  UNL     1      12.451 -12.044  21.963  1.00  0.00     0.216 C 
BRANCH  17  18
HETATM   18  O1  UNL     1      12.332 -13.410  22.303  1.00  0.00    -0.395 OA
ATOM     19  H1  UNL     1      11.403 -13.590  22.382  1.00  0.00     0.209 HD
ENDBRANCH  17  18
ENDBRANCH   9  17
ENDBRANCH   8   9
ENDBRANCH   7   8
ENDBRANCH   1   7
BRANCH   1  20
HETATM   20  C7  UNL     1      16.636 -14.688  20.734  1.00  0.00     0.265 C 
BRANCH  20  21
HETATM   21  C8  UNL     1      17.746 -15.452  21.401  1.00  0.00     0.265 C 
BRANCH  21  22
HETATM   22  N4  UNL     1      17.263 -16.361  22.414  1.00  0.00    -0.061 N 
HETATM   23  C9  UNL     1      15.844 -16.590  22.098  1.00  0.00     0.265 C 
HETATM   24  C10 UNL     1      15.137 -17.302  23.214  1.00  0.00     0.265 C 
HETATM   25  N5  UNL     1      16.176 -17.972  24.009  1.00  0.00    -0.066 N 
HETATM   26  C11 UNL     1      15.538 -18.839  24.953  1.00  0.00     0.272 C 
HETATM   27  C12 UNL     1      17.020 -18.669  23.071  1.00  0.00     0.265 C 
HETATM   28  C14 UNL     1      16.892 -16.916  24.702  1.00  0.00     0.265 C 
HETATM   29  C13 UNL     1      17.898 -17.652  22.361  1.00  0.00     0.265 C 
HETATM   30  C15 UNL     1      17.290 -15.801  23.739  1.00  0.00     0.265 C 
ENDBRANCH  21  22
ENDBRANCH  20  21
ENDBRANCH   1  20
TORSDOF 9
ENDMDL
MODEL 5
REMARK VINA RESULT: -6.248525900      2.863      3.767
REMARK  9 active torsions:
REMARK  status: ('A' for Active; 'I' for Inactive)
REMARK    1  A    between atoms: C2_2  and  N2_6 
REMARK    2  A    between atoms: C3_8  and  C4_9 
REMARK    3  A    between atoms: C3_8  and  C5_12 
REMARK    4  A    between atoms: C4_9  and  O1_10 
REMARK    5  A    between atoms: C5_12  and  C6_13 
REMARK    6  A    between atoms: C6_13  and  N3_14 
REMARK    7  A    between atoms: N3_14  and  C7_15 
REMARK    8  A    between atoms: C7_15  and  C8_16 
REMARK    9  A    between atoms: C8_16  and  N4_17 
ROOT
HETATM    1  N3  UNL     1      16.288 -12.446  20.947  1.00  0.00    -0.061 N 
HETATM    2  C16 UNL     1      16.325 -12.667  19.490  1.00  0.00     0.263 C 
HETATM    3  C17 UNL     1      16.953 -11.525  18.760  1.00  0.00     0.195 C 
HETATM    4  O2  UNL     1      18.295 -11.458  19.132  1.00  0.00    -0.388 OA
HETATM    5  C18 UNL     1      18.341 -11.165  20.483  1.00  0.00     0.195 C 
HETATM    6  C19 UNL     1      17.657 -12.196  21.334  1.00  0.00     0.263 C 
ENDROOT
BRANCH   1   7
HETATM    7  C6  UNL     1      15.451 -11.292  21.144  1.00  0.00     0.243 C 
BRANCH   7   8
HETATM    8  C5  UNL     1      14.175 -11.310  20.380  1.00  0.00     0.082 C 
BRANCH   8   9
HETATM    9  C3  UNL     1      13.092 -10.777  21.283  1.00  0.00     0.013 C 
HETATM   10  N2  UNL     1      12.649 -11.472  22.267  1.00  0.00    -0.352 N 
ATOM     11  H2  UNL     1      13.025 -12.402  22.454  1.00  0.00     0.166 HD
BRANCH  10  12
HETATM   12  C2  UNL     1      11.634 -10.933  23.085  1.00  0.00     0.070 C 
HETATM   13  C1  UNL     1      11.764  -9.567  23.695  1.00  0.00     0.088 C 
HETATM   14  N1  UNL     1      10.569 -11.603  23.329  1.00  0.00    -0.389 N 
ATOM     15  H12 UNL     1       9.835 -11.213  23.921  1.00  0.00     0.157 HD
ATOM     16  H11 UNL     1      10.480 -12.531  22.914  1.00  0.00     0.157 HD
ENDBRANCH  10  12
BRANCH   9  17
HETATM   17  C4  UNL     1      12.563  -9.438  20.997  1.00  0.00     0.216 C 
BRANCH  17  18
HETATM   18  O1  UNL     1      13.084  -9.058  19.740  1.00  0.00    -0.395 OA
ATOM     19  H1  UNL     1      12.593  -8.294  19.463  1.00  0.00     0.209 HD
ENDBRANCH  17  18
ENDBRANCH   9  17
ENDBRANCH   8   9
ENDBRANCH   7   8
ENDBRANCH   1   7
BRANCH   1  20
HETATM   20  C7  UNL     1      15.770 -13.646  21.517  1.00  0.00     0.265 C 
BRANCH  20  21
HETATM   21  C8  UNL     1      16.259 -14.899  20.845  1.00  0.00     0.265 C 
BRANCH  21  22
HETATM   22  N4  UNL     1      16.521 -15.967  21.783  1.00  0.00    -0.061 N 
HETATM   23  C9  UNL     1      15.204 -16.530  22.121  1.00  0.00     0.265 C 
HETATM   24  C10 UNL     1      15.289 -17.471  23.288  1.00  0.00     0.265 C 
HETATM   25  N5  UNL     1      16.692 -17.903  23.376  1.00  0.00    -0.066 N 
HETATM   26  C11 UNL     1      16.780 -18.965  24.332  1.00  0.00     0.272 C 
HETATM   27  C12 UNL     1      17.080 -18.298  22.045  1.00  0.00     0.265 C 
HETATM   28  C14 UNL     1      17.438 -16.748  23.839  1.00  0.00     0.265 C 
HETATM   29  C13 UNL     1      17.282 -17.046  21.208  1.00  0.00     0.265 C 
HETATM   30  C15 UNL     1      17.089 -15.507  23.022  1.00  0.00     0.265 C 
ENDBRANCH  21  22
ENDBRANCH  20  21
ENDBRANCH   1  20
TORSDOF 9
ENDMDL
