MODEL 1
REMARK VINA RESULT: -7.504166293      0.000      0.000
REMARK  6 active torsions:
REMARK  status: ('A' for Active; 'I' for Inactive)
REMARK    1  A    between atoms: C3_3  and  C4_4 
REMARK    2  A    between atoms: C4_4  and  C5_5 
REMARK    3  A    between atoms: C5_5  and  N1_6 
REMARK    4  A    between atoms: N3_10  and  C8_11 
REMARK    5  A    between atoms: C8_11  and  C9_12 
REMARK    6  A    between atoms: C9_12  and  N4_13 
ROOT
HETATM    1  N1  UNL     1      16.203 -11.912  19.195  1.00  0.00    -0.062 N 
HETATM    2  C6  UNL     1      15.023 -11.225  19.704  1.00  0.00     0.255 C 
HETATM    3  C7  UNL     1      15.005 -11.142  21.220  1.00  0.00     0.170 C 
HETATM    4  N2  UNL     1      15.263 -12.395  21.845  1.00  0.00    -0.045 NA
HETATM    5  N3  UNL     1      16.601 -12.814  21.772  1.00  0.00     0.015 N 
HETATM    6  C18 UNL     1      16.580 -13.839  20.697  1.00  0.00     0.288 C 
HETATM    7  C19 UNL     1      16.030 -13.310  19.420  1.00  0.00     0.267 C 
HETATM    8  C20 UNL     1      17.477 -11.776  21.338  1.00  0.00     0.288 C 
HETATM    9  C21 UNL     1      17.391 -11.418  19.904  1.00  0.00     0.267 C 
ENDROOT
BRANCH   5  10
HETATM   10  C8  UNL     1      16.922 -13.492  22.966  1.00  0.00     0.290 C 
BRANCH  10  11
HETATM   11  C9  UNL     1      17.650 -14.774  22.917  1.00  0.00     0.302 C 
BRANCH  11  12
HETATM   12  N4  UNL     1      19.084 -14.628  22.867  1.00  0.00     0.091 N 
HETATM   13  C10 UNL     1      19.783 -15.750  23.424  1.00  0.00     0.287 C 
HETATM   14  C11 UNL     1      21.208 -15.194  23.543  1.00  0.00     0.114 C 
HETATM   15  C12 UNL     1      21.685 -15.524  24.902  1.00  0.00     0.224 C 
HETATM   16  C16 UNL     1      21.069 -13.695  23.543  1.00  0.00     0.056 C 
HETATM   17  O1  UNL     1      21.860 -16.723  25.288  1.00  0.00    -0.273 OA
HETATM   18  N5  UNL     1      21.900 -14.350  25.652  1.00  0.00    -0.352 N 
HETATM   19  C13 UNL     1      21.813 -13.234  24.754  1.00  0.00     0.032 C 
ATOM     20  H5  UNL     1      22.084 -14.302  26.654  1.00  0.00     0.163 HD
HETATM   21  C14 UNL     1      23.232 -12.897  24.317  1.00  0.00     0.038 C 
HETATM   22  C15 UNL     1      21.132 -12.038  25.376  1.00  0.00     0.038 C 
HETATM   23  C17 UNL     1      19.551 -13.536  23.699  1.00  0.00     0.280 C 
ENDBRANCH  11  12
ENDBRANCH  10  11
ENDBRANCH   5  10
BRANCH   1  24
HETATM   24  C5  UNL     1      16.405 -11.509  17.840  1.00  0.00     0.241 C 
BRANCH  24  25
HETATM   25  C4  UNL     1      15.334 -11.564  16.841  1.00  0.00     0.054 C 
BRANCH  25  26
HETATM   26  C3  UNL     1      15.744 -12.009  15.522  1.00  0.00    -0.029 C 
HETATM   27  C2  UNL     1      16.156 -11.260  14.540  1.00  0.00    -0.035 C 
HETATM   28  C1  UNL     1      16.276  -9.783  14.600  1.00  0.00     0.036 C 
ENDBRANCH  25  26
ENDBRANCH  24  25
ENDBRANCH   1  24
TORSDOF 6
ENDMDL
MODEL 2
REMARK VINA RESULT: -7.297800672      2.173      4.272
REMARK  6 active torsions:
REMARK  status: ('A' for Active; 'I' for Inactive)
REMARK    1  A    between atoms: C3_3  and  C4_4 
REMARK    2  A    between atoms: C4_4  and  C5_5 
REMARK    3  A    between atoms: C5_5  and  N1_6 
REMARK    4  A    between atoms: N3_10  and  C8_11 
REMARK    5  A    between atoms: C8_11  and  C9_12 
REMARK    6  A    between atoms: C9_12  and  N4_13 
ROOT
HETATM    1  N1  UNL     1      14.777 -11.147  20.498  1.00  0.00    -0.062 N 
HETATM    2  C6  UNL     1      14.792 -11.661  19.135  1.00  0.00     0.255 C 
HETATM    3  C7  UNL     1      15.831 -12.749  18.933  1.00  0.00     0.170 C 
HETATM    4  N2  UNL     1      17.114 -12.387  19.433  1.00  0.00    -0.045 NA
HETATM    5  N3  UNL     1      17.215 -12.395  20.833  1.00  0.00     0.015 N 
HETATM    6  C18 UNL     1      17.143 -10.955  21.189  1.00  0.00     0.288 C 
HETATM    7  C19 UNL     1      15.914 -10.301  20.663  1.00  0.00     0.267 C 
HETATM    8  C20 UNL     1      16.103 -13.032  21.458  1.00  0.00     0.288 C 
HETATM    9  C21 UNL     1      14.831 -12.275  21.439  1.00  0.00     0.267 C 
ENDROOT
BRANCH   5  10
HETATM   10  C8  UNL     1      18.509 -12.831  21.185  1.00  0.00     0.290 C 
BRANCH  10  11
HETATM   11  C9  UNL     1      18.758 -14.258  21.466  1.00  0.00     0.302 C 
BRANCH  11  12
HETATM   12  N4  UNL     1      19.091 -14.531  22.842  1.00  0.00     0.091 N 
HETATM   13  C10 UNL     1      19.222 -13.341  23.634  1.00  0.00     0.287 C 
HETATM   14  C11 UNL     1      19.884 -13.891  24.904  1.00  0.00     0.114 C 
HETATM   15  C12 UNL     1      21.018 -12.997  25.218  1.00  0.00     0.224 C 
HETATM   16  C16 UNL     1      20.526 -15.193  24.506  1.00  0.00     0.056 C 
HETATM   17  O1  UNL     1      20.853 -11.778  25.540  1.00  0.00    -0.273 OA
HETATM   18  N5  UNL     1      22.241 -13.689  25.107  1.00  0.00    -0.352 N 
HETATM   19  C13 UNL     1      21.944 -15.085  24.964  1.00  0.00     0.032 C 
ATOM     20  H5  UNL     1      23.172 -13.271  25.125  1.00  0.00     0.163 HD
HETATM   21  C14 UNL     1      22.024 -15.706  26.352  1.00  0.00     0.038 C 
HETATM   22  C15 UNL     1      22.872 -15.782  23.997  1.00  0.00     0.038 C 
HETATM   23  C17 UNL     1      20.403 -15.132  22.978  1.00  0.00     0.280 C 
ENDBRANCH  11  12
ENDBRANCH  10  11
ENDBRANCH   5  10
BRANCH   1  24
HETATM   24  C5  UNL     1      13.503 -10.548  20.737  1.00  0.00     0.241 C 
BRANCH  24  25
HETATM   25  C4  UNL     1      13.264  -9.646  21.868  1.00  0.00     0.054 C 
BRANCH  25  26
HETATM   26  C3  UNL     1      12.132  -9.996  22.706  1.00  0.00    -0.029 C 
HETATM   27  C2  UNL     1      11.640  -9.294  23.684  1.00  0.00    -0.035 C 
HETATM   28  C1  UNL     1      12.167  -7.979  24.127  1.00  0.00     0.036 C 
ENDBRANCH  25  26
ENDBRANCH  24  25
ENDBRANCH   1  24
TORSDOF 6
ENDMDL
MODEL 3
REMARK VINA RESULT: -7.233604439      2.121      4.322
REMARK  6 active torsions:
REMARK  status: ('A' for Active; 'I' for Inactive)
REMARK    1  A    between atoms: C3_3  and  C4_4 
REMARK    2  A    between atoms: C4_4  and  C5_5 
REMARK    3  A    between atoms: C5_5  and  N1_6 
REMARK    4  A    between atoms: N3_10  and  C8_11 
REMARK    5  A    between atoms: C8_11  and  C9_12 
REMARK    6  A    between atoms: C9_12  and  N4_13 
ROOT
HETATM    1  N1  UNL     1      14.549 -11.276  20.450  1.00  0.00    -0.062 N 
HETATM    2  C6  UNL     1      14.325 -11.180  19.013  1.00  0.00     0.255 C 
HETATM    3  C7  UNL     1      15.470 -11.763  18.205  1.00  0.00     0.170 C 
HETATM    4  N2  UNL     1      16.744 -11.290  18.628  1.00  0.00    -0.045 NA
HETATM    5  N3  UNL     1      17.185 -11.826  19.848  1.00  0.00     0.015 N 
HETATM    6  C18 UNL     1      16.931 -10.728  20.816  1.00  0.00     0.288 C 
HETATM    7  C19 UNL     1      15.510 -10.287  20.815  1.00  0.00     0.267 C 
HETATM    8  C20 UNL     1      16.402 -12.940  20.272  1.00  0.00     0.288 C 
HETATM    9  C21 UNL     1      15.045 -12.622  20.770  1.00  0.00     0.267 C 
ENDROOT
BRANCH   5  10
HETATM   10  C8  UNL     1      18.584 -11.989  19.785  1.00  0.00     0.290 C 
BRANCH  10  11
HETATM   11  C9  UNL     1      19.232 -13.111  20.492  1.00  0.00     0.302 C 
BRANCH  11  12
HETATM   12  N4  UNL     1      19.885 -12.726  21.718  1.00  0.00     0.091 N 
HETATM   13  C10 UNL     1      21.115 -13.430  21.943  1.00  0.00     0.287 C 
HETATM   14  C11 UNL     1      21.400 -13.086  23.411  1.00  0.00     0.114 C 
HETATM   15  C12 UNL     1      21.737 -14.354  24.091  1.00  0.00     0.224 C 
HETATM   16  C16 UNL     1      20.078 -12.678  24.004  1.00  0.00     0.056 C 
HETATM   17  O1  UNL     1      22.775 -15.028  23.795  1.00  0.00    -0.273 OA
HETATM   18  N5  UNL     1      20.769 -14.668  25.066  1.00  0.00    -0.352 N 
HETATM   19  C13 UNL     1      19.921 -13.522  25.227  1.00  0.00     0.032 C 
ATOM     20  H5  UNL     1      20.686 -15.552  25.568  1.00  0.00     0.163 HD
HETATM   21  C14 UNL     1      20.463 -12.724  26.405  1.00  0.00     0.038 C 
HETATM   22  C15 UNL     1      18.472 -13.894  25.438  1.00  0.00     0.038 C 
HETATM   23  C17 UNL     1      19.110 -13.090  22.888  1.00  0.00     0.280 C 
ENDBRANCH  11  12
ENDBRANCH  10  11
ENDBRANCH   5  10
BRANCH   1  24
HETATM   24  C5  UNL     1      13.283 -11.200  21.105  1.00  0.00     0.241 C 
BRANCH  24  25
HETATM   25  C4  UNL     1      12.937 -10.099  22.010  1.00  0.00     0.054 C 
BRANCH  25  26
HETATM   26  C3  UNL     1      11.841 -10.372  22.922  1.00  0.00    -0.029 C 
HETATM   27  C2  UNL     1      11.385  -9.583  23.850  1.00  0.00    -0.035 C 
HETATM   28  C1  UNL     1      11.923  -8.233  24.148  1.00  0.00     0.036 C 
ENDBRANCH  25  26
ENDBRANCH  24  25
ENDBRANCH   1  24
TORSDOF 6
ENDMDL
MODEL 4
REMARK VINA RESULT: -7.118045983      2.276      4.008
REMARK  6 active torsions:
REMARK  status: ('A' for Active; 'I' for Inactive)
REMARK    1  A    between atoms: C3_3  and  C4_4 
REMARK    2  A    between atoms: C4_4  and  C5_5 
REMARK    3  A    between atoms: C5_5  and  N1_6 
REMARK    4  A    between atoms: N3_10  and  C8_11 
REMARK    5  A    between atoms: C8_11  and  C9_12 
REMARK    6  A    between atoms: C9_12  and  N4_13 
ROOT
HETATM    1  N1  UNL     1      15.161 -11.467  20.489  1.00  0.00    -0.062 N 
HETATM    2  C6  UNL     1      16.262 -10.514  20.441  1.00  0.00     0.255 C 
HETATM    3  C7  UNL     1      17.607 -11.187  20.241  1.00  0.00     0.170 C 
HETATM    4  N2  UNL     1      17.819 -12.277  21.133  1.00  0.00    -0.045 NA
HETATM    5  N3  UNL     1      17.072 -13.427  20.831  1.00  0.00     0.015 N 
HETATM    6  C18 UNL     1      15.967 -13.387  21.822  1.00  0.00     0.288 C 
HETATM    7  C19 UNL     1      15.194 -12.116  21.759  1.00  0.00     0.267 C 
HETATM    8  C20 UNL     1      16.473 -13.366  19.539  1.00  0.00     0.288 C 
HETATM    9  C21 UNL     1      15.322 -12.444  19.404  1.00  0.00     0.267 C 
ENDROOT
BRANCH   5  10
HETATM   10  C8  UNL     1      17.851 -14.560  21.145  1.00  0.00     0.290 C 
BRANCH  10  11
HETATM   11  C9  UNL     1      19.254 -14.399  21.572  1.00  0.00     0.302 C 
BRANCH  11  12
HETATM   12  N4  UNL     1      19.489 -14.763  22.947  1.00  0.00     0.091 N 
HETATM   13  C10 UNL     1      19.489 -13.635  23.835  1.00  0.00     0.287 C 
HETATM   14  C11 UNL     1      20.074 -14.251  25.112  1.00  0.00     0.114 C 
HETATM   15  C12 UNL     1      21.127 -13.330  25.588  1.00  0.00     0.224 C 
HETATM   16  C16 UNL     1      20.818 -15.485  24.674  1.00  0.00     0.056 C 
HETATM   17  O1  UNL     1      20.869 -12.150  25.986  1.00  0.00    -0.273 OA
HETATM   18  N5  UNL     1      22.393 -13.950  25.530  1.00  0.00    -0.352 N 
HETATM   19  C13 UNL     1      22.186 -15.344  25.258  1.00  0.00     0.032 C 
ATOM     20  H5  UNL     1      23.294 -13.490  25.660  1.00  0.00     0.163 HD
HETATM   21  C14 UNL     1      22.187 -16.069  26.597  1.00  0.00     0.038 C 
HETATM   22  C15 UNL     1      23.227 -15.915  24.324  1.00  0.00     0.038 C 
HETATM   23  C17 UNL     1      20.817 -15.307  23.150  1.00  0.00     0.280 C 
ENDBRANCH  11  12
ENDBRANCH  10  11
ENDBRANCH   5  10
BRANCH   1  24
HETATM   24  C5  UNL     1      13.955 -10.774  20.165  1.00  0.00     0.241 C 
BRANCH  24  25
HETATM   25  C4  UNL     1      12.812 -10.724  21.081  1.00  0.00     0.054 C 
BRANCH  25  26
HETATM   26  C3  UNL     1      12.655  -9.476  21.804  1.00  0.00    -0.029 C 
HETATM   27  C2  UNL     1      12.051  -9.305  22.944  1.00  0.00    -0.035 C 
HETATM   28  C1  UNL     1      11.396 -10.386  23.721  1.00  0.00     0.036 C 
ENDBRANCH  25  26
ENDBRANCH  24  25
ENDBRANCH   1  24
TORSDOF 6
ENDMDL
MODEL 5
REMARK VINA RESULT: -7.041510151      1.521      2.555
REMARK  6 active torsions:
REMARK  status: ('A' for Active; 'I' for Inactive)
REMARK    1  A    between atoms: C3_3  and  C4_4 
REMARK    2  A    between atoms: C4_4  and  C5_5 
REMARK    3  A    between atoms: C5_5  and  N1_6 
REMARK    4  A    between atoms: N3_10  and  C8_11 
REMARK    5  A    between atoms: C8_11  and  C9_12 
REMARK    6  A    between atoms: C9_12  and  N4_13 
ROOT
HETATM    1  N1  UNL     1      16.352 -12.171  19.816  1.00  0.00    -0.062 N 
HETATM    2  C6  UNL     1      17.727 -11.714  19.657  1.00  0.00     0.255 C 
HETATM    3  C7  UNL     1      18.717 -12.564  20.432  1.00  0.00     0.170 C 
HETATM    4  N2  UNL     1      18.326 -12.774  21.785  1.00  0.00    -0.045 NA
HETATM    5  N3  UNL     1      17.258 -13.670  21.947  1.00  0.00     0.015 N 
HETATM    6  C18 UNL     1      16.097 -12.778  22.198  1.00  0.00     0.288 C 
HETATM    7  C19 UNL     1      15.904 -11.779  21.112  1.00  0.00     0.267 C 
HETATM    8  C20 UNL     1      16.970 -14.400  20.756  1.00  0.00     0.288 C 
HETATM    9  C21 UNL     1      16.312 -13.633  19.674  1.00  0.00     0.267 C 
ENDROOT
BRANCH   5  10
HETATM   10  C8  UNL     1      17.466 -14.402  23.135  1.00  0.00     0.290 C 
BRANCH  10  11
HETATM   11  C9  UNL     1      17.751 -13.697  24.399  1.00  0.00     0.302 C 
BRANCH  11  12
HETATM   12  N4  UNL     1      18.962 -14.132  25.048  1.00  0.00     0.091 N 
HETATM   13  C10 UNL     1      19.973 -13.114  25.093  1.00  0.00     0.287 C 
HETATM   14  C11 UNL     1      21.207 -13.925  25.509  1.00  0.00     0.114 C 
HETATM   15  C12 UNL     1      22.302 -13.537  24.597  1.00  0.00     0.224 C 
HETATM   16  C16 UNL     1      20.902 -15.355  25.149  1.00  0.00     0.056 C 
HETATM   17  O1  UNL     1      22.783 -12.359  24.576  1.00  0.00    -0.273 OA
HETATM   18  N5  UNL     1      22.699 -14.631  23.802  1.00  0.00    -0.352 N 
HETATM   19  C13 UNL     1      22.065 -15.807  24.327  1.00  0.00     0.032 C 
ATOM     20  H5  UNL     1      23.326 -14.595  22.998  1.00  0.00     0.163 HD
HETATM   21  C14 UNL     1      23.060 -16.471  25.269  1.00  0.00     0.038 C 
HETATM   22  C15 UNL     1      21.616 -16.759  23.243  1.00  0.00     0.038 C 
HETATM   23  C17 UNL     1      19.629 -15.187  24.309  1.00  0.00     0.280 C 
ENDBRANCH  11  12
ENDBRANCH  10  11
ENDBRANCH   5  10
BRANCH   1  24
HETATM   24  C5  UNL     1      15.590 -11.687  18.710  1.00  0.00     0.241 C 
BRANCH  24  25
HETATM   25  C4  UNL     1      16.113 -11.691  17.339  1.00  0.00     0.054 C 
BRANCH  25  26
HETATM   26  C3  UNL     1      15.151 -11.336  16.312  1.00  0.00    -0.029 C 
HETATM   27  C2  UNL     1      15.340 -11.363  15.025  1.00  0.00    -0.035 C 
HETATM   28  C1  UNL     1      16.607 -11.767  14.367  1.00  0.00     0.036 C 
ENDBRANCH  25  26
ENDBRANCH  24  25
ENDBRANCH   1  24
TORSDOF 6
ENDMDL
