MODEL 1
REMARK VINA RESULT: -5.719466557      0.000      0.000
REMARK  2 active torsions:
REMARK  status: ('A' for Active; 'I' for Inactive)
REMARK    1  A    between atoms: C2_2  and  C5_5 
REMARK       I    between atoms: C5_5  and  N1_7 
REMARK    2  A    between atoms: N2_9  and  C6_11 
ROOT
HETATM    1  C5  UNL     1       2.159   8.922  12.480  1.00  0.00     0.243 C 
HETATM    2  O1  UNL     1       2.735   8.307  11.567  1.00  0.00    -0.271 OA
HETATM    3  N1  UNL     1       2.551  10.217  12.854  1.00  0.00    -0.267 N 
ATOM      4  H1  UNL     1       3.451  10.579  12.542  1.00  0.00     0.190 HD
HETATM    5  N2  UNL     1       1.795  10.949  13.582  1.00  0.00    -0.269 N 
ATOM      6  H2  UNL     1       0.896  10.580  13.891  1.00  0.00     0.190 HD
ENDROOT
BRANCH   5   7
HETATM    7  C6  UNL     1       2.175  12.263  13.971  1.00  0.00     0.190 C 
HETATM    8  N3  UNL     1       1.369  13.028  14.651  1.00  0.00    -0.360 N 
HETATM    9  C7  UNL     1       1.993  14.307  14.916  1.00  0.00     0.142 C 
ATOM     10  H3  UNL     1       0.431  12.764  14.953  1.00  0.00     0.162 HD
HETATM   11  C8  UNL     1       3.443  14.153  14.525  1.00  0.00     0.142 C 
HETATM   12  N4  UNL     1       3.399  12.944  13.717  1.00  0.00    -0.360 N 
ATOM     13  H4  UNL     1       4.127  12.635  13.073  1.00  0.00     0.162 HD
ENDBRANCH   5   7
BRANCH   1  14
HETATM   14  C2  UNL     1       1.024   8.273  13.200  1.00  0.00     0.032 C 
HETATM   15  C1  UNL     1       1.179   6.765  13.141  1.00  0.00     0.025 C 
HETATM   16  C3  UNL     1       1.015   8.704  14.663  1.00  0.00     0.025 C 
HETATM   17  C4  UNL     1      -0.261   8.630  12.510  1.00  0.00     0.025 C 
ENDBRANCH   1  14
TORSDOF 2
ENDMDL
MODEL 2
REMARK VINA RESULT: -5.704047489      0.043      1.188
REMARK  2 active torsions:
REMARK  status: ('A' for Active; 'I' for Inactive)
REMARK    1  A    between atoms: C2_2  and  C5_5 
REMARK       I    between atoms: C5_5  and  N1_7 
REMARK    2  A    between atoms: N2_9  and  C6_11 
ROOT
HETATM    1  C5  UNL     1       2.185   8.893  12.459  1.00  0.00     0.243 C 
HETATM    2  O1  UNL     1       2.774   8.275  11.556  1.00  0.00    -0.271 OA
HETATM    3  N1  UNL     1       2.576  10.186  12.839  1.00  0.00    -0.267 N 
ATOM      4  H1  UNL     1       3.483  10.545  12.542  1.00  0.00     0.190 HD
HETATM    5  N2  UNL     1       1.811  10.922  13.553  1.00  0.00    -0.269 N 
ATOM      6  H2  UNL     1       0.905  10.557  13.847  1.00  0.00     0.190 HD
ENDROOT
BRANCH   5   7
HETATM    7  C6  UNL     1       2.189  12.235  13.948  1.00  0.00     0.190 C 
HETATM    8  N3  UNL     1       1.385  12.993  14.640  1.00  0.00    -0.360 N 
HETATM    9  C7  UNL     1       2.008  14.272  14.908  1.00  0.00     0.142 C 
ATOM     10  H3  UNL     1       0.451  12.723  14.948  1.00  0.00     0.162 HD
HETATM   11  C8  UNL     1       3.455  14.126  14.504  1.00  0.00     0.142 C 
HETATM   12  N4  UNL     1       3.408  12.922  13.689  1.00  0.00    -0.360 N 
ATOM     13  H4  UNL     1       4.132  12.620  13.037  1.00  0.00     0.162 HD
ENDBRANCH   5   7
BRANCH   1  14
HETATM   14  C2  UNL     1       1.035   8.250  13.160  1.00  0.00     0.032 C 
HETATM   15  C1  UNL     1       1.013   8.690  14.612  1.00  0.00     0.025 C 
HETATM   16  C3  UNL     1      -0.278   8.664  12.505  1.00  0.00     0.025 C 
HETATM   17  C4  UNL     1       1.220   6.759  13.136  1.00  0.00     0.025 C 
ENDBRANCH   1  14
TORSDOF 2
ENDMDL
MODEL 3
REMARK VINA RESULT: -5.665465890      0.219      1.595
REMARK  2 active torsions:
REMARK  status: ('A' for Active; 'I' for Inactive)
REMARK    1  A    between atoms: C2_2  and  C5_5 
REMARK       I    between atoms: C5_5  and  N1_7 
REMARK    2  A    between atoms: N2_9  and  C6_11 
ROOT
HETATM    1  C5  UNL     1       2.170   9.108  12.482  1.00  0.00     0.243 C 
HETATM    2  O1  UNL     1       2.775   8.561  11.545  1.00  0.00    -0.271 OA
HETATM    3  N1  UNL     1       2.512  10.394  12.925  1.00  0.00    -0.267 N 
ATOM      4  H1  UNL     1       3.401  10.804  12.641  1.00  0.00     0.190 HD
HETATM    5  N2  UNL     1       1.724  11.062  13.681  1.00  0.00    -0.269 N 
ATOM      6  H2  UNL     1       0.836  10.646  13.962  1.00  0.00     0.190 HD
ENDROOT
BRANCH   5   7
HETATM    7  C6  UNL     1       2.053  12.367  14.140  1.00  0.00     0.190 C 
HETATM    8  N3  UNL     1       3.240  12.872  13.953  1.00  0.00    -0.360 N 
HETATM    9  C7  UNL     1       3.312  14.205  14.513  1.00  0.00     0.142 C 
ATOM     10  H3  UNL     1       4.008  12.396  13.480  1.00  0.00     0.162 HD
HETATM   11  C8  UNL     1       1.894  14.589  14.862  1.00  0.00     0.142 C 
HETATM   12  N4  UNL     1       1.228  13.297  14.832  1.00  0.00    -0.360 N 
ATOM     13  H4  UNL     1       0.317  13.091  15.242  1.00  0.00     0.162 HD
ENDBRANCH   5   7
BRANCH   1  14
HETATM   14  C2  UNL     1       1.053   8.383  13.157  1.00  0.00     0.032 C 
HETATM   15  C1  UNL     1       1.023   8.752  14.628  1.00  0.00     0.025 C 
HETATM   16  C3  UNL     1      -0.281   8.773  12.530  1.00  0.00     0.025 C 
HETATM   17  C4  UNL     1       1.300   6.905  13.059  1.00  0.00     0.025 C 
ENDBRANCH   1  14
TORSDOF 2
ENDMDL
MODEL 4
REMARK VINA RESULT: -5.606112576      0.033      1.187
REMARK  2 active torsions:
REMARK  status: ('A' for Active; 'I' for Inactive)
REMARK    1  A    between atoms: C2_2  and  C5_5 
REMARK       I    between atoms: C5_5  and  N1_7 
REMARK    2  A    between atoms: N2_9  and  C6_11 
ROOT
HETATM    1  C5  UNL     1       2.190   8.908  12.476  1.00  0.00     0.243 C 
HETATM    2  O1  UNL     1       2.776   8.297  11.568  1.00  0.00    -0.271 OA
HETATM    3  N1  UNL     1       2.570  10.205  12.853  1.00  0.00    -0.267 N 
ATOM      4  H1  UNL     1       3.470  10.573  12.546  1.00  0.00     0.190 HD
HETATM    5  N2  UNL     1       1.804  10.933  13.574  1.00  0.00    -0.269 N 
ATOM      6  H2  UNL     1       0.905  10.558  13.878  1.00  0.00     0.190 HD
ENDROOT
BRANCH   5   7
HETATM    7  C6  UNL     1       2.172  12.250  13.965  1.00  0.00     0.190 C 
HETATM    8  N3  UNL     1       1.356  13.009  14.642  1.00  0.00    -0.360 N 
HETATM    9  C7  UNL     1       1.970  14.292  14.910  1.00  0.00     0.142 C 
ATOM     10  H3  UNL     1       0.419  12.737  14.939  1.00  0.00     0.162 HD
HETATM   11  C8  UNL     1       3.423  14.149  14.526  1.00  0.00     0.142 C 
HETATM   12  N4  UNL     1       3.392  12.940  13.718  1.00  0.00    -0.360 N 
ATOM     13  H4  UNL     1       4.125  12.636  13.078  1.00  0.00     0.162 HD
ENDBRANCH   5   7
BRANCH   1  14
HETATM   14  C2  UNL     1       1.054   8.252  13.189  1.00  0.00     0.032 C 
HETATM   15  C1  UNL     1      -0.255   8.646  12.532  1.00  0.00     0.025 C 
HETATM   16  C3  UNL     1       1.197   6.735  13.119  1.00  0.00     0.025 C 
HETATM   17  C4  UNL     1       1.021   8.740  14.609  1.00  0.00     0.025 C 
ENDBRANCH   1  14
TORSDOF 2
ENDMDL
MODEL 5
REMARK VINA RESULT: -5.487919444      2.287      2.678
REMARK  2 active torsions:
REMARK  status: ('A' for Active; 'I' for Inactive)
REMARK    1  A    between atoms: C2_2  and  C5_5 
REMARK       I    between atoms: C5_5  and  N1_7 
REMARK    2  A    between atoms: N2_9  and  C6_11 
ROOT
HETATM    1  C5  UNL     1       2.392   7.677  12.701  1.00  0.00     0.243 C 
HETATM    2  O1  UNL     1       2.565   6.464  12.494  1.00  0.00    -0.271 OA
HETATM    3  N1  UNL     1       3.401   8.617  12.445  1.00  0.00    -0.267 N 
ATOM      4  H1  UNL     1       4.359   8.299  12.304  1.00  0.00     0.190 HD
HETATM    5  N2  UNL     1       3.137   9.867  12.385  1.00  0.00    -0.269 N 
ATOM      6  H2  UNL     1       2.176  10.178  12.527  1.00  0.00     0.190 HD
ENDROOT
BRANCH   5   7
HETATM    7  C6  UNL     1       4.146  10.835  12.126  1.00  0.00     0.190 C 
HETATM    8  N3  UNL     1       4.017  12.071  12.520  1.00  0.00    -0.360 N 
HETATM    9  C7  UNL     1       5.177  12.845  12.132  1.00  0.00     0.142 C 
ATOM     10  H3  UNL     1       3.213  12.440  13.029  1.00  0.00     0.162 HD
HETATM   11  C8  UNL     1       6.204  11.848  11.652  1.00  0.00     0.142 C 
HETATM   12  N4  UNL     1       5.385  10.664  11.446  1.00  0.00    -0.360 N 
ATOM     13  H4  UNL     1       5.654   9.844  10.903  1.00  0.00     0.162 HD
ENDBRANCH   5   7
BRANCH   1  14
HETATM   14  C2  UNL     1       1.081   8.150  13.236  1.00  0.00     0.032 C 
HETATM   15  C1  UNL     1       0.136   6.972  13.383  1.00  0.00     0.025 C 
HETATM   16  C3  UNL     1       1.274   8.793  14.605  1.00  0.00     0.025 C 
HETATM   17  C4  UNL     1       0.470   9.109  12.255  1.00  0.00     0.025 C 
ENDBRANCH   1  14
TORSDOF 2
ENDMDL
