MODEL 1
REMARK VINA RESULT: -6.346833652      0.000      0.000
REMARK  0 active torsions:
REMARK  status: ('A' for Active; 'I' for Inactive)
ROOT
HETATM    1  S1  UNL     1       4.144   7.156  13.131  1.00  0.00    -0.064 SA
HETATM    2  C1  UNL     1       3.468   8.501  12.490  1.00  0.00     0.098 C 
HETATM    3  C2  UNL     1       1.963   8.540  12.460  1.00  0.00     0.071 C 
HETATM    4  C3  UNL     1       1.391   8.195  13.768  1.00  0.00     0.007 C 
HETATM    5  C4  UNL     1       1.022   9.289  14.684  1.00  0.00     0.002 C 
HETATM    6  C5  UNL     1       0.668  10.597  14.078  1.00  0.00     0.026 C 
HETATM    7  C6  UNL     1       1.809  11.577  14.208  1.00  0.00     0.167 C 
HETATM    8  O1  UNL     1       2.128  12.193  13.000  1.00  0.00    -0.389 OA
HETATM    9  C7  UNL     1       3.511  12.326  12.916  1.00  0.00     0.196 C 
HETATM   10  C8  UNL     1       4.080  11.813  11.628  1.00  0.00     0.227 C 
HETATM   11  O2  UNL     1       3.664  10.540  11.296  1.00  0.00    -0.277 OA
HETATM   12  N1  UNL     1       4.256   9.572  11.989  1.00  0.00    -0.260 N 
ATOM     13  H1  UNL     1       5.261   9.598  12.159  1.00  0.00     0.195 HD
ENDROOT
TORSDOF 0
ENDMDL
MODEL 2
REMARK VINA RESULT: -5.924398736      2.569      4.510
REMARK  0 active torsions:
REMARK  status: ('A' for Active; 'I' for Inactive)
ROOT
HETATM    1  S1  UNL     1       2.406  12.866  14.600  1.00  0.00    -0.064 SA
HETATM    2  C1  UNL     1       2.034  11.577  13.663  1.00  0.00     0.098 C 
HETATM    3  C2  UNL     1       2.574  11.599  12.257  1.00  0.00     0.071 C 
HETATM    4  C3  UNL     1       4.009  11.909  12.237  1.00  0.00     0.007 C 
HETATM    5  C4  UNL     1       4.969  10.792  12.182  1.00  0.00     0.002 C 
HETATM    6  C5  UNL     1       4.508   9.526  11.558  1.00  0.00     0.026 C 
HETATM    7  C6  UNL     1       4.174   8.497  12.611  1.00  0.00     0.167 C 
HETATM    8  O1  UNL     1       2.921   7.922  12.421  1.00  0.00    -0.389 OA
HETATM    9  C7  UNL     1       2.318   7.738  13.661  1.00  0.00     0.196 C 
HETATM   10  C8  UNL     1       0.924   8.283  13.731  1.00  0.00     0.227 C 
HETATM   11  O2  UNL     1       0.804   9.585  13.289  1.00  0.00    -0.277 OA
HETATM   12  N1  UNL     1       1.247  10.498  14.147  1.00  0.00    -0.260 N 
ATOM     13  H1  UNL     1       1.025  10.426  15.140  1.00  0.00     0.195 HD
ENDROOT
TORSDOF 0
ENDMDL
MODEL 3
REMARK VINA RESULT: -5.882770747      2.154      3.365
REMARK  0 active torsions:
REMARK  status: ('A' for Active; 'I' for Inactive)
ROOT
HETATM    1  S1  UNL     1      -0.475   8.810  12.448  1.00  0.00    -0.064 SA
HETATM    2  C1  UNL     1       0.995   9.309  12.966  1.00  0.00     0.098 C 
HETATM    3  C2  UNL     1       1.742   8.358  13.864  1.00  0.00     0.071 C 
HETATM    4  C3  UNL     1       1.777   7.003  13.300  1.00  0.00     0.007 C 
HETATM    5  C4  UNL     1       2.961   6.597  12.522  1.00  0.00     0.002 C 
HETATM    6  C5  UNL     1       4.247   7.270  12.833  1.00  0.00     0.026 C 
HETATM    7  C6  UNL     1       4.573   8.316  11.795  1.00  0.00     0.167 C 
HETATM    8  O1  UNL     1       4.901   9.547  12.357  1.00  0.00    -0.389 OA
HETATM    9  C7  UNL     1       4.357  10.558  11.571  1.00  0.00     0.196 C 
HETATM   10  C8  UNL     1       3.570  11.563  12.356  1.00  0.00     0.227 C 
HETATM   11  O2  UNL     1       2.631  11.007  13.202  1.00  0.00    -0.277 OA
HETATM   12  N1  UNL     1       1.536  10.567  12.591  1.00  0.00    -0.260 N 
ATOM     13  H1  UNL     1       1.090  11.125  11.863  1.00  0.00     0.195 HD
ENDROOT
TORSDOF 0
ENDMDL
MODEL 4
REMARK VINA RESULT: -5.825788416      2.375      4.130
REMARK  0 active torsions:
REMARK  status: ('A' for Active; 'I' for Inactive)
ROOT
HETATM    1  S1  UNL     1       4.638  12.813  13.102  1.00  0.00    -0.064 SA
HETATM    2  C1  UNL     1       3.361  11.841  12.780  1.00  0.00     0.098 C 
HETATM    3  C2  UNL     1       3.472  10.982  11.548  1.00  0.00     0.071 C 
HETATM    4  C3  UNL     1       4.749  10.259  11.511  1.00  0.00     0.007 C 
HETATM    5  C4  UNL     1       4.788   8.875  12.016  1.00  0.00     0.002 C 
HETATM    6  C5  UNL     1       3.527   8.092  11.960  1.00  0.00     0.026 C 
HETATM    7  C6  UNL     1       2.880   8.014  13.322  1.00  0.00     0.167 C 
HETATM    8  O1  UNL     1       1.533   8.366  13.297  1.00  0.00    -0.389 OA
HETATM    9  C7  UNL     1       1.238   9.095  14.444  1.00  0.00     0.196 C 
HETATM   10  C8  UNL     1       0.524  10.382  14.163  1.00  0.00     0.227 C 
HETATM   11  O2  UNL     1       1.128  11.163  13.198  1.00  0.00    -0.277 OA
HETATM   12  N1  UNL     1       2.212  11.809  13.615  1.00  0.00    -0.260 N 
ATOM     13  H1  UNL     1       2.219  12.275  14.522  1.00  0.00     0.195 HD
ENDROOT
TORSDOF 0
ENDMDL
MODEL 5
REMARK VINA RESULT: -5.724192821      2.337      3.703
REMARK  0 active torsions:
REMARK  status: ('A' for Active; 'I' for Inactive)
ROOT
HETATM    1  S1  UNL     1       6.004  12.425  12.731  1.00  0.00    -0.064 SA
HETATM    2  C1  UNL     1       4.382  12.288  12.562  1.00  0.00     0.098 C 
HETATM    3  C2  UNL     1       3.902  11.451  11.405  1.00  0.00     0.071 C 
HETATM    4  C3  UNL     1       4.581  10.150  11.366  1.00  0.00     0.007 C 
HETATM    5  C4  UNL     1       3.915   8.991  11.987  1.00  0.00     0.002 C 
HETATM    6  C5  UNL     1       2.433   9.015  12.065  1.00  0.00     0.026 C 
HETATM    7  C6  UNL     1       1.973   9.363  13.460  1.00  0.00     0.167 C 
HETATM    8  O1  UNL     1       1.029  10.387  13.475  1.00  0.00    -0.389 OA
HETATM    9  C7  UNL     1       1.279  11.212  14.568  1.00  0.00     0.196 C 
HETATM   10  C8  UNL     1       1.346  12.666  14.213  1.00  0.00     0.227 C 
HETATM   11  O2  UNL     1       2.184  12.949  13.153  1.00  0.00    -0.277 OA
HETATM   12  N1  UNL     1       3.478  12.922  13.455  1.00  0.00    -0.260 N 
ATOM     13  H1  UNL     1       3.817  13.350  14.316  1.00  0.00     0.195 HD
ENDROOT
TORSDOF 0
ENDMDL
