MODEL 1
REMARK VINA RESULT: -4.669527163      0.000      0.000
REMARK  0 active torsions:
REMARK  status: ('A' for Active; 'I' for Inactive)
ROOT
HETATM    1  N1  UNL     1       0.162  11.129  14.240  1.00  0.00    -0.075 NA
HETATM    2  C1  UNL     1       0.739   9.952  13.706  1.00  0.00     0.150 C 
HETATM    3  N2  UNL     1       1.889   9.452  13.822  1.00  0.00    -0.363 N 
ATOM      4  H2  UNL     1       2.592   9.925  14.390  1.00  0.00     0.162 HD
HETATM    5  C2  UNL     1       2.215   8.237  13.167  1.00  0.00     0.042 C 
HETATM    6  C3  UNL     1       2.850   8.594  11.864  1.00  0.00     0.042 C 
HETATM    7  C4  UNL     1       3.836   7.648  11.318  1.00  0.00     0.076 C 
HETATM    8  S1  UNL     1       3.546   5.953  11.873  1.00  0.00    -0.169 SA
HETATM    9  C5  UNL     1       3.437   6.096  13.697  1.00  0.00     0.076 C 
HETATM   10  C6  UNL     1       3.122   7.492  14.114  1.00  0.00     0.042 C 
HETATM   11  C7  UNL     1       0.969   7.391  12.986  1.00  0.00     0.113 C 
HETATM   12  S2  UNL     1      -0.178   8.809  12.662  1.00  0.00    -0.095 SA
ENDROOT
TORSDOF 0
ENDMDL
MODEL 2
REMARK VINA RESULT: -4.500181159      2.385      4.221
REMARK  0 active torsions:
REMARK  status: ('A' for Active; 'I' for Inactive)
ROOT
HETATM    1  N1  UNL     1       3.894   5.737  10.839  1.00  0.00    -0.075 NA
HETATM    2  C1  UNL     1       3.430   6.779  11.676  1.00  0.00     0.150 C 
HETATM    3  N2  UNL     1       2.625   7.726  11.473  1.00  0.00    -0.363 N 
ATOM      4  H2  UNL     1       2.183   7.827  10.559  1.00  0.00     0.162 HD
HETATM    5  C2  UNL     1       2.329   8.654  12.504  1.00  0.00     0.042 C 
HETATM    6  C3  UNL     1       3.246   9.819  12.326  1.00  0.00     0.042 C 
HETATM    7  C4  UNL     1       2.756  11.131  12.779  1.00  0.00     0.076 C 
HETATM    8  S1  UNL     1       1.539  10.992  14.108  1.00  0.00    -0.169 SA
HETATM    9  C5  UNL     1       0.300   9.812  13.453  1.00  0.00     0.076 C 
HETATM   10  C6  UNL     1       0.867   8.987  12.348  1.00  0.00     0.042 C 
HETATM   11  C7  UNL     1       2.493   7.996  13.860  1.00  0.00     0.113 C 
HETATM   12  S2  UNL     1       3.949   6.952  13.391  1.00  0.00    -0.095 SA
ENDROOT
TORSDOF 0
ENDMDL
MODEL 3
REMARK VINA RESULT: -4.287865769      1.645      2.386
REMARK  0 active torsions:
REMARK  status: ('A' for Active; 'I' for Inactive)
ROOT
HETATM    1  N1  UNL     1      -1.580   9.880  12.374  1.00  0.00    -0.075 NA
HETATM    2  C1  UNL     1      -0.261   9.468  12.683  1.00  0.00     0.150 C 
HETATM    3  N2  UNL     1       0.536   8.690  12.096  1.00  0.00    -0.363 N 
ATOM      4  H2  UNL     1       0.252   8.235  11.228  1.00  0.00     0.162 HD
HETATM    5  C2  UNL     1       1.827   8.443  12.630  1.00  0.00     0.042 C 
HETATM    6  C3  UNL     1       1.731   7.204  13.458  1.00  0.00     0.042 C 
HETATM    7  C4  UNL     1       2.944   6.378  13.568  1.00  0.00     0.076 C 
HETATM    8  S1  UNL     1       4.458   7.344  13.360  1.00  0.00    -0.169 SA
HETATM    9  C5  UNL     1       4.195   8.247  11.787  1.00  0.00     0.076 C 
HETATM   10  C6  UNL     1       2.747   8.325  11.441  1.00  0.00     0.042 C 
HETATM   11  C7  UNL     1       2.294   9.638  13.438  1.00  0.00     0.113 C 
HETATM   12  S2  UNL     1       0.629  10.065  14.128  1.00  0.00    -0.095 SA
ENDROOT
TORSDOF 0
ENDMDL
MODEL 4
REMARK VINA RESULT: -3.932517137      1.307      1.334
REMARK  0 active torsions:
REMARK  status: ('A' for Active; 'I' for Inactive)
ROOT
HETATM    1  N1  UNL     1       2.045  11.960  12.799  1.00  0.00    -0.075 NA
HETATM    2  C1  UNL     1       2.159  10.550  12.746  1.00  0.00     0.150 C 
HETATM    3  N2  UNL     1       3.161   9.787  12.753  1.00  0.00    -0.363 N 
ATOM      4  H2  UNL     1       4.099  10.183  12.807  1.00  0.00     0.162 HD
HETATM    5  C2  UNL     1       2.994   8.379  12.686  1.00  0.00     0.042 C 
HETATM    6  C3  UNL     1       3.108   7.989  11.250  1.00  0.00     0.042 C 
HETATM    7  C4  UNL     1       3.624   6.642  10.962  1.00  0.00     0.076 C 
HETATM    8  S1  UNL     1       3.304   5.477  12.307  1.00  0.00    -0.169 SA
HETATM    9  C5  UNL     1       3.955   6.328  13.794  1.00  0.00     0.076 C 
HETATM   10  C6  UNL     1       4.067   7.798  13.573  1.00  0.00     0.042 C 
HETATM   11  C7  UNL     1       1.659   7.984  13.286  1.00  0.00     0.113 C 
HETATM   12  S2  UNL     1       0.728   9.462  12.670  1.00  0.00    -0.095 SA
ENDROOT
TORSDOF 0
ENDMDL
MODEL 5
REMARK VINA RESULT: -3.897719036      1.930      4.170
REMARK  0 active torsions:
REMARK  status: ('A' for Active; 'I' for Inactive)
ROOT
HETATM    1  N1  UNL     1       4.842   5.449  13.734  1.00  0.00    -0.075 NA
HETATM    2  C1  UNL     1       3.810   6.340  13.353  1.00  0.00     0.150 C 
HETATM    3  N2  UNL     1       2.858   6.850  14.001  1.00  0.00    -0.363 N 
ATOM      4  H2  UNL     1       2.743   6.629  14.990  1.00  0.00     0.162 HD
HETATM    5  C2  UNL     1       1.944   7.729  13.366  1.00  0.00     0.042 C 
HETATM    6  C3  UNL     1       0.779   6.908  12.920  1.00  0.00     0.042 C 
HETATM    7  C4  UNL     1      -0.528   7.581  12.853  1.00  0.00     0.076 C 
HETATM    8  S1  UNL     1      -0.374   9.360  12.571  1.00  0.00    -0.169 SA
HETATM    9  C5  UNL     1       0.794   9.916  13.870  1.00  0.00     0.076 C 
HETATM   10  C6  UNL     1       1.604   8.779  14.393  1.00  0.00     0.042 C 
HETATM   11  C7  UNL     1       2.621   8.440  12.210  1.00  0.00     0.113 C 
HETATM   12  S2  UNL     1       3.663   7.001  11.686  1.00  0.00    -0.095 SA
ENDROOT
TORSDOF 0
ENDMDL
