MODEL 1
REMARK VINA RESULT: -7.424998710      0.000      0.000
REMARK  10 active torsions:
REMARK  status: ('A' for Active; 'I' for Inactive)
REMARK    1  A    between atoms: N1_2  and  C2_5 
REMARK    2  A    between atoms: C2_5  and  C3_7 
REMARK    3  A    between atoms: N2_9  and  C5_10 
REMARK    4  A    between atoms: C5_10  and  C6_11 
REMARK    5  A    between atoms: C6_11  and  C7_12 
REMARK    6  A    between atoms: C7_12  and  C8_13 
REMARK    7  A    between atoms: C8_13  and  N3_14 
REMARK    8  A    between atoms: N4_21  and  C15_22 
REMARK    9  A    between atoms: C15_22  and  O1_23 
REMARK   10  A    between atoms: C15_22  and  N5_25 
ROOT
HETATM    1  C3  UNL     1      15.809 -11.714  19.870  1.00  0.00     0.065 C 
HETATM    2  C4  UNL     1      17.092 -10.940  20.070  1.00  0.00     0.288 C 
HETATM    3  N2  UNL     1      17.855 -11.604  21.105  1.00  0.00     0.089 N 
HETATM    4  C12 UNL     1      17.151 -12.814  21.478  1.00  0.00     0.279 C 
HETATM    5  C13 UNL     1      16.145 -13.076  20.383  1.00  0.00     0.048 C 
HETATM    6  C14 UNL     1      14.813 -13.586  20.911  1.00  0.00     0.134 C 
HETATM    7  N4  UNL     1      14.033 -12.431  21.214  1.00  0.00    -0.346 N 
HETATM    8  C21 UNL     1      14.688 -11.206  20.698  1.00  0.00     0.143 C 
ENDROOT
BRANCH   7   9
HETATM    9  C15 UNL     1      12.800 -12.397  21.914  1.00  0.00     0.217 C 
BRANCH   9  10
HETATM   10  O1  UNL     1      12.363 -13.542  22.363  1.00  0.00    -0.333 OA
ATOM     11  H1  UNL     1      12.017 -13.540  23.248  1.00  0.00     0.220 HD
ENDBRANCH   9  10
BRANCH   9  12
HETATM   12  N5  UNL     1      12.005 -11.314  22.181  1.00  0.00    -0.348 N 
HETATM   13  C16 UNL     1      12.358 -10.028  21.493  1.00  0.00     0.126 C 
HETATM   14  C17 UNL     1      12.704  -9.068  22.636  1.00  0.00     0.020 C 
HETATM   15  C18 UNL     1      11.574  -8.941  23.607  1.00  0.00     0.003 C 
HETATM   16  C19 UNL     1      11.312 -10.321  24.223  1.00  0.00     0.020 C 
HETATM   17  C20 UNL     1      10.863 -11.183  23.026  1.00  0.00     0.126 C 
ENDBRANCH   9  12
ENDBRANCH   7   9
BRANCH   1  18
HETATM   18  C2  UNL     1      15.375 -11.769  18.447  1.00  0.00     0.379 C 
HETATM   19  F1  UNL     1      15.749 -12.985  17.878  1.00  0.00    -0.218 F 
BRANCH  18  20
HETATM   20  N1  UNL     1      15.874 -10.736  17.596  1.00  0.00    -0.047 N 
HETATM   21  C1  UNL     1      15.373 -11.001  16.236  1.00  0.00     0.270 C 
ATOM     22  H12 UNL     1      16.889 -10.645  17.635  1.00  0.00     0.280 HD
ATOM     23  H11 UNL     1      15.643  -9.800  17.930  1.00  0.00     0.280 HD
ENDBRANCH  18  20
ENDBRANCH   1  18
BRANCH   3  24
HETATM   24  C5  UNL     1      19.167 -11.855  20.613  1.00  0.00     0.272 C 
BRANCH  24  25
HETATM   25  C6  UNL     1      19.927 -12.975  21.200  1.00  0.00     0.032 C 
BRANCH  25  26
HETATM   26  C7  UNL     1      20.754 -12.738  22.396  1.00  0.00     0.029 C 
BRANCH  26  27
HETATM   27  C8  UNL     1      20.126 -13.086  23.694  1.00  0.00     0.236 C 
BRANCH  27  28
HETATM   28  N3  UNL     1      21.121 -13.052  24.770  1.00  0.00    -0.079 N 
HETATM   29  C9  UNL     1      20.892 -11.966  25.682  1.00  0.00     0.271 C 
HETATM   30  C10 UNL     1      21.081 -14.291  25.519  1.00  0.00     0.271 C 
HETATM   31  C11 UNL     1      22.436 -12.922  24.200  1.00  0.00     0.271 C 
ENDBRANCH  27  28
ENDBRANCH  26  27
ENDBRANCH  25  26
ENDBRANCH  24  25
ENDBRANCH   3  24
TORSDOF 10
ENDMDL
MODEL 2
REMARK VINA RESULT: -7.424456592      2.516      4.232
REMARK  10 active torsions:
REMARK  status: ('A' for Active; 'I' for Inactive)
REMARK    1  A    between atoms: N1_2  and  C2_5 
REMARK    2  A    between atoms: C2_5  and  C3_7 
REMARK    3  A    between atoms: N2_9  and  C5_10 
REMARK    4  A    between atoms: C5_10  and  C6_11 
REMARK    5  A    between atoms: C6_11  and  C7_12 
REMARK    6  A    between atoms: C7_12  and  C8_13 
REMARK    7  A    between atoms: C8_13  and  N3_14 
REMARK    8  A    between atoms: N4_21  and  C15_22 
REMARK    9  A    between atoms: C15_22  and  O1_23 
REMARK   10  A    between atoms: C15_22  and  N5_25 
ROOT
HETATM    1  C3  UNL     1      14.869 -11.687  20.677  1.00  0.00     0.065 C 
HETATM    2  C4  UNL     1      16.202 -11.183  21.184  1.00  0.00     0.288 C 
HETATM    3  N2  UNL     1      17.235 -12.045  20.649  1.00  0.00     0.089 N 
HETATM    4  C12 UNL     1      16.610 -12.992  19.748  1.00  0.00     0.279 C 
HETATM    5  C13 UNL     1      15.235 -12.448  19.446  1.00  0.00     0.048 C 
HETATM    6  C14 UNL     1      14.170 -13.532  19.380  1.00  0.00     0.134 C 
HETATM    7  N4  UNL     1      13.696 -13.711  20.713  1.00  0.00    -0.346 N 
HETATM    8  C21 UNL     1      14.222 -12.649  21.603  1.00  0.00     0.143 C 
ENDROOT
BRANCH   7   9
HETATM    9  C15 UNL     1      12.846 -14.744  21.182  1.00  0.00     0.217 C 
BRANCH   9  10
HETATM   10  O1  UNL     1      12.409 -14.617  22.406  1.00  0.00    -0.333 OA
ATOM     11  H1  UNL     1      11.534 -14.258  22.502  1.00  0.00     0.220 HD
ENDBRANCH   9  10
BRANCH   9  12
HETATM   12  N5  UNL     1      12.423 -15.864  20.517  1.00  0.00    -0.348 N 
HETATM   13  C16 UNL     1      13.368 -17.030  20.483  1.00  0.00     0.126 C 
HETATM   14  C17 UNL     1      13.686 -17.221  18.997  1.00  0.00     0.020 C 
HETATM   15  C18 UNL     1      12.442 -17.430  18.193  1.00  0.00     0.003 C 
HETATM   16  C19 UNL     1      11.567 -16.177  18.325  1.00  0.00     0.020 C 
HETATM   17  C20 UNL     1      11.206 -16.132  19.823  1.00  0.00     0.126 C 
ENDBRANCH   9  12
ENDBRANCH   7   9
BRANCH   1  18
HETATM   18  C2  UNL     1      13.911 -10.591  20.367  1.00  0.00     0.379 C 
HETATM   19  F1  UNL     1      13.761 -10.461  18.987  1.00  0.00    -0.218 F 
BRANCH  18  20
HETATM   20  N1  UNL     1      14.243  -9.299  20.876  1.00  0.00    -0.047 N 
HETATM   21  C1  UNL     1      13.291  -8.989  21.957  1.00  0.00     0.270 C 
ATOM     22  H12 UNL     1      14.270  -8.582  20.152  1.00  0.00     0.280 HD
ATOM     23  H11 UNL     1      15.217  -9.227  21.172  1.00  0.00     0.280 HD
ENDBRANCH  18  20
ENDBRANCH   1  18
BRANCH   3  24
HETATM   24  C5  UNL     1      18.216 -11.235  20.010  1.00  0.00     0.272 C 
BRANCH  24  25
HETATM   25  C6  UNL     1      19.556 -11.811  19.790  1.00  0.00     0.032 C 
BRANCH  25  26
HETATM   26  C7  UNL     1      20.326 -12.309  20.944  1.00  0.00     0.029 C 
BRANCH  26  27
HETATM   27  C8  UNL     1      20.040 -13.705  21.356  1.00  0.00     0.236 C 
BRANCH  27  28
HETATM   28  N3  UNL     1      20.102 -13.830  22.816  1.00  0.00    -0.079 N 
HETATM   29  C9  UNL     1      18.848 -13.513  23.438  1.00  0.00     0.271 C 
HETATM   30  C10 UNL     1      20.461 -15.186  23.180  1.00  0.00     0.271 C 
HETATM   31  C11 UNL     1      21.120 -12.951  23.327  1.00  0.00     0.271 C 
ENDBRANCH  27  28
ENDBRANCH  26  27
ENDBRANCH  25  26
ENDBRANCH  24  25
ENDBRANCH   3  24
TORSDOF 10
ENDMDL
MODEL 3
REMARK VINA RESULT: -7.405231550      1.684      2.120
REMARK  10 active torsions:
REMARK  status: ('A' for Active; 'I' for Inactive)
REMARK    1  A    between atoms: N1_2  and  C2_5 
REMARK    2  A    between atoms: C2_5  and  C3_7 
REMARK    3  A    between atoms: N2_9  and  C5_10 
REMARK    4  A    between atoms: C5_10  and  C6_11 
REMARK    5  A    between atoms: C6_11  and  C7_12 
REMARK    6  A    between atoms: C7_12  and  C8_13 
REMARK    7  A    between atoms: C8_13  and  N3_14 
REMARK    8  A    between atoms: N4_21  and  C15_22 
REMARK    9  A    between atoms: C15_22  and  O1_23 
REMARK   10  A    between atoms: C15_22  and  N5_25 
ROOT
HETATM    1  C3  UNL     1      16.622 -11.772  19.586  1.00  0.00     0.065 C 
HETATM    2  C4  UNL     1      18.081 -11.551  19.257  1.00  0.00     0.288 C 
HETATM    3  N2  UNL     1      18.807 -11.454  20.505  1.00  0.00     0.089 N 
HETATM    4  C12 UNL     1      17.880 -11.713  21.588  1.00  0.00     0.279 C 
HETATM    5  C13 UNL     1      16.663 -12.349  20.962  1.00  0.00     0.048 C 
HETATM    6  C14 UNL     1      15.359 -11.867  21.579  1.00  0.00     0.134 C 
HETATM    7  N4  UNL     1      14.988 -10.690  20.864  1.00  0.00    -0.346 N 
HETATM    8  C21 UNL     1      15.847 -10.510  19.670  1.00  0.00     0.143 C 
ENDROOT
BRANCH   7   9
HETATM    9  C15 UNL     1      13.956  -9.779  21.202  1.00  0.00     0.217 C 
BRANCH   9  10
HETATM   10  O1  UNL     1      14.259  -8.512  21.121  1.00  0.00    -0.333 OA
ATOM     11  H1  UNL     1      14.089  -8.094  20.284  1.00  0.00     0.220 HD
ENDBRANCH   9  10
BRANCH   9  12
HETATM   12  N5  UNL     1      12.677 -10.056  21.607  1.00  0.00    -0.348 N 
HETATM   13  C16 UNL     1      11.932  -8.953  22.301  1.00  0.00     0.126 C 
HETATM   14  C17 UNL     1      11.660  -9.503  23.705  1.00  0.00     0.020 C 
HETATM   15  C18 UNL     1      10.910 -10.796  23.651  1.00  0.00     0.003 C 
HETATM   16  C19 UNL     1      11.774 -11.823  22.909  1.00  0.00     0.020 C 
HETATM   17  C20 UNL     1      11.898 -11.244  21.486  1.00  0.00     0.126 C 
ENDBRANCH   9  12
ENDBRANCH   7   9
BRANCH   1  18
HETATM   18  C2  UNL     1      15.943 -12.696  18.636  1.00  0.00     0.379 C 
HETATM   19  F1  UNL     1      14.809 -12.087  18.102  1.00  0.00    -0.218 F 
BRANCH  18  20
HETATM   20  N1  UNL     1      15.531 -13.956  19.168  1.00  0.00    -0.047 N 
HETATM   21  C1  UNL     1      14.089 -14.101  18.901  1.00  0.00     0.270 C 
ATOM     22  H12 UNL     1      15.766 -14.067  20.154  1.00  0.00     0.280 HD
ATOM     23  H11 UNL     1      16.082 -14.737  18.811  1.00  0.00     0.280 HD
ENDBRANCH  18  20
ENDBRANCH   1  18
BRANCH   3  24
HETATM   24  C5  UNL     1      19.893 -12.374  20.472  1.00  0.00     0.272 C 
BRANCH  24  25
HETATM   25  C6  UNL     1      20.042 -13.313  21.600  1.00  0.00     0.032 C 
BRANCH  25  26
HETATM   26  C7  UNL     1      20.900 -12.944  22.739  1.00  0.00     0.029 C 
BRANCH  26  27
HETATM   27  C8  UNL     1      20.292 -13.102  24.083  1.00  0.00     0.236 C 
BRANCH  27  28
HETATM   28  N3  UNL     1      21.314 -12.971  25.126  1.00  0.00    -0.079 N 
HETATM   29  C9  UNL     1      22.568 -12.514  24.597  1.00  0.00     0.271 C 
HETATM   30  C10 UNL     1      20.874 -12.026  26.132  1.00  0.00     0.271 C 
HETATM   31  C11 UNL     1      21.506 -14.243  25.769  1.00  0.00     0.271 C 
ENDBRANCH  27  28
ENDBRANCH  26  27
ENDBRANCH  25  26
ENDBRANCH  24  25
ENDBRANCH   3  24
TORSDOF 10
ENDMDL
MODEL 4
REMARK VINA RESULT: -7.374319018      2.367      4.019
REMARK  10 active torsions:
REMARK  status: ('A' for Active; 'I' for Inactive)
REMARK    1  A    between atoms: N1_2  and  C2_5 
REMARK    2  A    between atoms: C2_5  and  C3_7 
REMARK    3  A    between atoms: N2_9  and  C5_10 
REMARK    4  A    between atoms: C5_10  and  C6_11 
REMARK    5  A    between atoms: C6_11  and  C7_12 
REMARK    6  A    between atoms: C7_12  and  C8_13 
REMARK    7  A    between atoms: C8_13  and  N3_14 
REMARK    8  A    between atoms: N4_21  and  C15_22 
REMARK    9  A    between atoms: C15_22  and  O1_23 
REMARK   10  A    between atoms: C15_22  and  N5_25 
ROOT
HETATM    1  C3  UNL     1      15.476 -12.055  20.766  1.00  0.00     0.065 C 
HETATM    2  C4  UNL     1      16.729 -11.594  21.475  1.00  0.00     0.288 C 
HETATM    3  N2  UNL     1      17.723 -12.638  21.344  1.00  0.00     0.089 N 
HETATM    4  C12 UNL     1      17.177 -13.677  20.494  1.00  0.00     0.279 C 
HETATM    5  C13 UNL     1      15.983 -13.070  19.796  1.00  0.00     0.048 C 
HETATM    6  C14 UNL     1      14.817 -14.039  19.668  1.00  0.00     0.134 C 
HETATM    7  N4  UNL     1      14.055 -13.911  20.867  1.00  0.00    -0.346 N 
HETATM    8  C21 UNL     1      14.524 -12.753  21.664  1.00  0.00     0.143 C 
ENDROOT
BRANCH   7   9
HETATM    9  C15 UNL     1      12.993 -14.748  21.292  1.00  0.00     0.217 C 
BRANCH   9  10
HETATM   10  O1  UNL     1      12.463 -14.459  22.450  1.00  0.00    -0.333 OA
ATOM     11  H1  UNL     1      11.558 -14.722  22.573  1.00  0.00     0.220 HD
ENDBRANCH   9  10
BRANCH   9  12
HETATM   12  N5  UNL     1      12.448 -15.825  20.645  1.00  0.00    -0.348 N 
HETATM   13  C16 UNL     1      12.965 -17.180  21.031  1.00  0.00     0.126 C 
HETATM   14  C17 UNL     1      13.603 -17.724  19.749  1.00  0.00     0.020 C 
HETATM   15  C18 UNL     1      12.624 -17.753  18.619  1.00  0.00     0.003 C 
HETATM   16  C19 UNL     1      12.170 -16.315  18.339  1.00  0.00     0.020 C 
HETATM   17  C20 UNL     1      11.445 -15.895  19.634  1.00  0.00     0.126 C 
ENDBRANCH   9  12
ENDBRANCH   7   9
BRANCH   1  18
HETATM   18  C2  UNL     1      14.763 -10.952  20.065  1.00  0.00     0.379 C 
HETATM   19  F1  UNL     1      15.059 -10.978  18.704  1.00  0.00    -0.218 F 
BRANCH  18  20
HETATM   20  N1  UNL     1      15.036  -9.630  20.529  1.00  0.00    -0.047 N 
HETATM   21  C1  UNL     1      13.839  -9.153  21.243  1.00  0.00     0.270 C 
ATOM     22  H12 UNL     1      15.331  -9.000  19.782  1.00  0.00     0.280 HD
ATOM     23  H11 UNL     1      15.884  -9.573  21.093  1.00  0.00     0.280 HD
ENDBRANCH  18  20
ENDBRANCH   1  18
BRANCH   3  24
HETATM   24  C5  UNL     1      18.918 -12.066  20.822  1.00  0.00     0.272 C 
BRANCH  24  25
HETATM   25  C6  UNL     1      20.209 -12.617  21.276  1.00  0.00     0.032 C 
BRANCH  25  26
HETATM   26  C7  UNL     1      20.265 -13.382  22.534  1.00  0.00     0.029 C 
BRANCH  26  27
HETATM   27  C8  UNL     1      21.220 -12.881  23.552  1.00  0.00     0.236 C 
BRANCH  27  28
HETATM   28  N3  UNL     1      20.673 -13.060  24.900  1.00  0.00    -0.079 N 
HETATM   29  C9  UNL     1      19.260 -13.320  24.878  1.00  0.00     0.271 C 
HETATM   30  C10 UNL     1      21.329 -14.172  25.556  1.00  0.00     0.271 C 
HETATM   31  C11 UNL     1      20.924 -11.877  25.679  1.00  0.00     0.271 C 
ENDBRANCH  27  28
ENDBRANCH  26  27
ENDBRANCH  25  26
ENDBRANCH  24  25
ENDBRANCH   3  24
TORSDOF 10
ENDMDL
MODEL 5
REMARK VINA RESULT: -7.335462180      2.243      3.505
REMARK  10 active torsions:
REMARK  status: ('A' for Active; 'I' for Inactive)
REMARK    1  A    between atoms: N1_2  and  C2_5 
REMARK    2  A    between atoms: C2_5  and  C3_7 
REMARK    3  A    between atoms: N2_9  and  C5_10 
REMARK    4  A    between atoms: C5_10  and  C6_11 
REMARK    5  A    between atoms: C6_11  and  C7_12 
REMARK    6  A    between atoms: C7_12  and  C8_13 
REMARK    7  A    between atoms: C8_13  and  N3_14 
REMARK    8  A    between atoms: N4_21  and  C15_22 
REMARK    9  A    between atoms: C15_22  and  O1_23 
REMARK   10  A    between atoms: C15_22  and  N5_25 
ROOT
HETATM    1  C3  UNL     1      15.911 -11.814  19.281  1.00  0.00     0.065 C 
HETATM    2  C4  UNL     1      16.875 -10.882  19.980  1.00  0.00     0.288 C 
HETATM    3  N2  UNL     1      17.476 -11.608  21.078  1.00  0.00     0.089 N 
HETATM    4  C12 UNL     1      17.009 -12.979  21.023  1.00  0.00     0.279 C 
HETATM    5  C13 UNL     1      16.415 -13.170  19.648  1.00  0.00     0.048 C 
HETATM    6  C14 UNL     1      15.153 -14.018  19.660  1.00  0.00     0.134 C 
HETATM    7  N4  UNL     1      14.069 -13.121  19.894  1.00  0.00    -0.346 N 
HETATM    8  C21 UNL     1      14.525 -11.714  19.802  1.00  0.00     0.143 C 
ENDROOT
BRANCH   7   9
HETATM    9  C15 UNL     1      12.725 -13.467  20.184  1.00  0.00     0.217 C 
BRANCH   9  10
HETATM   10  O1  UNL     1      11.965 -12.501  20.623  1.00  0.00    -0.333 OA
ATOM     11  H1  UNL     1      12.369 -11.896  21.234  1.00  0.00     0.220 HD
ENDBRANCH   9  10
BRANCH   9  12
HETATM   12  N5  UNL     1      12.119 -14.690  20.065  1.00  0.00    -0.348 N 
HETATM   13  C16 UNL     1      12.126 -15.570  21.281  1.00  0.00     0.126 C 
HETATM   14  C17 UNL     1      12.930 -16.803  20.854  1.00  0.00     0.020 C 
HETATM   15  C18 UNL     1      12.337 -17.451  19.643  1.00  0.00     0.003 C 
HETATM   16  C19 UNL     1      12.381 -16.443  18.488  1.00  0.00     0.020 C 
HETATM   17  C20 UNL     1      11.460 -15.299  18.957  1.00  0.00     0.126 C 
ENDBRANCH   9  12
ENDBRANCH   7   9
BRANCH   1  18
HETATM   18  C2  UNL     1      15.889 -11.631  17.804  1.00  0.00     0.379 C 
HETATM   19  F1  UNL     1      17.110 -11.122  17.365  1.00  0.00    -0.218 F 
BRANCH  18  20
HETATM   20  N1  UNL     1      14.869 -10.774  17.290  1.00  0.00    -0.047 N 
HETATM   21  C1  UNL     1      15.101 -10.625  15.843  1.00  0.00     0.270 C 
ATOM     22  H12 UNL     1      14.817  -9.880  17.778  1.00  0.00     0.280 HD
ATOM     23  H11 UNL     1      13.927 -11.101  17.509  1.00  0.00     0.280 HD
ENDBRANCH  18  20
ENDBRANCH   1  18
BRANCH   3  24
HETATM   24  C5  UNL     1      18.892 -11.501  20.973  1.00  0.00     0.272 C 
BRANCH  24  25
HETATM   25  C6  UNL     1      19.698 -12.721  21.163  1.00  0.00     0.032 C 
BRANCH  25  26
HETATM   26  C7  UNL     1      20.611 -12.812  22.316  1.00  0.00     0.029 C 
BRANCH  26  27
HETATM   27  C8  UNL     1      19.964 -12.993  23.639  1.00  0.00     0.236 C 
BRANCH  27  28
HETATM   28  N3  UNL     1      20.977 -13.092  24.695  1.00  0.00    -0.079 N 
HETATM   29  C9  UNL     1      22.311 -13.013  24.171  1.00  0.00     0.271 C 
HETATM   30  C10 UNL     1      20.799 -12.018  25.651  1.00  0.00     0.271 C 
HETATM   31  C11 UNL     1      20.816 -14.338  25.396  1.00  0.00     0.271 C 
ENDBRANCH  27  28
ENDBRANCH  26  27
ENDBRANCH  25  26
ENDBRANCH  24  25
ENDBRANCH   3  24
TORSDOF 10
ENDMDL
