MODEL 1
REMARK VINA RESULT: -6.558067564      0.000      0.000
REMARK  7 active torsions:
REMARK  status: ('A' for Active; 'I' for Inactive)
REMARK    1  A    between atoms: N2_6  and  C5_7 
REMARK    2  A    between atoms: C5_7  and  C6_8 
REMARK    3  A    between atoms: C6_8  and  C7_9 
REMARK    4  A    between atoms: C7_9  and  N3_10 
REMARK    5  A    between atoms: N4_13  and  C9_14 
REMARK    6  A    between atoms: C9_14  and  C10_15 
REMARK    7  A    between atoms: C13_19  and  O1_20 
ROOT
HETATM    1  N3  UNL     1      14.383 -11.194  20.975  1.00  0.00    -0.332 N 
HETATM    2  C8  UNL     1      13.522 -10.168  21.442  1.00  0.00     0.174 C 
HETATM    3  S1  UNL     1      13.919  -8.619  21.162  1.00  0.00    -0.041 SA
HETATM    4  N4  UNL     1      12.311 -10.480  22.161  1.00  0.00    -0.357 N 
HETATM    5  C11 UNL     1      12.085 -11.894  22.366  1.00  0.00     0.129 C 
HETATM    6  C12 UNL     1      12.458 -12.629  21.082  1.00  0.00     0.073 C 
HETATM    7  C13 UNL     1      13.955 -12.576  20.940  1.00  0.00     0.223 C 
ENDROOT
BRANCH   1   8
HETATM    8  C7  UNL     1      15.702 -10.858  20.553  1.00  0.00     0.129 C 
BRANCH   8   9
HETATM    9  C6  UNL     1      16.356 -11.773  19.587  1.00  0.00     0.040 C 
BRANCH   9  10
HETATM   10  C5  UNL     1      17.826 -11.512  19.368  1.00  0.00     0.127 C 
BRANCH  10  11
HETATM   11  N2  UNL     1      18.592 -12.317  20.326  1.00  0.00    -0.349 N 
HETATM   12  C4  UNL     1      17.981 -13.410  21.048  1.00  0.00     0.154 C 
HETATM   13  C3  UNL     1      18.326 -13.152  22.510  1.00  0.00     0.257 C 
HETATM   14  N1  UNL     1      19.737 -13.449  22.627  1.00  0.00    -0.065 N 
HETATM   15  C1  UNL     1      19.896 -14.852  22.247  1.00  0.00     0.272 C 
HETATM   16  C2  UNL     1      20.082 -13.397  24.055  1.00  0.00     0.272 C 
HETATM   17  C15 UNL     1      20.544 -12.565  21.862  1.00  0.00     0.339 C 
HETATM   18  C14 UNL     1      19.958 -12.079  20.598  1.00  0.00     0.246 C 
HETATM   19  O2  UNL     1      20.666 -11.445  19.744  1.00  0.00    -0.272 OA
ENDBRANCH  10  11
ENDBRANCH   9  10
ENDBRANCH   8   9
ENDBRANCH   1   8
BRANCH   7  20
HETATM   20  O1  UNL     1      14.582 -13.343  21.920  1.00  0.00    -0.377 OA
ATOM     21  H1  UNL     1      14.790 -14.217  21.610  1.00  0.00     0.212 HD
ENDBRANCH   7  20
BRANCH   4  22
HETATM   22  C9  UNL     1      11.444  -9.424  22.613  1.00  0.00     0.136 C 
BRANCH  22  23
HETATM   23  C10 UNL     1      11.494  -9.303  24.140  1.00  0.00     0.105 C 
HETATM   24 BR1  UNL     1      11.775  -7.447  24.607  1.00  0.00    -0.095 Br
ENDBRANCH  22  23
ENDBRANCH   4  22
TORSDOF 7
ENDMDL
MODEL 2
REMARK VINA RESULT: -6.539949393      2.964      7.309
REMARK  7 active torsions:
REMARK  status: ('A' for Active; 'I' for Inactive)
REMARK    1  A    between atoms: N2_6  and  C5_7 
REMARK    2  A    between atoms: C5_7  and  C6_8 
REMARK    3  A    between atoms: C6_8  and  C7_9 
REMARK    4  A    between atoms: C7_9  and  N3_10 
REMARK    5  A    between atoms: N4_13  and  C9_14 
REMARK    6  A    between atoms: C9_14  and  C10_15 
REMARK    7  A    between atoms: C13_19  and  O1_20 
ROOT
HETATM    1  N3  UNL     1      17.771 -12.543  21.780  1.00  0.00    -0.332 N 
HETATM    2  C8  UNL     1      18.597 -13.252  22.688  1.00  0.00     0.174 C 
HETATM    3  S1  UNL     1      17.905 -14.231  23.782  1.00  0.00    -0.041 SA
HETATM    4  N4  UNL     1      20.033 -13.112  22.657  1.00  0.00    -0.357 N 
HETATM    5  C11 UNL     1      20.522 -12.193  21.653  1.00  0.00     0.129 C 
HETATM    6  C12 UNL     1      19.716 -12.407  20.374  1.00  0.00     0.073 C 
HETATM    7  C13 UNL     1      18.325 -11.887  20.615  1.00  0.00     0.223 C 
ENDROOT
BRANCH   1   8
HETATM    8  C7  UNL     1      16.371 -12.458  22.031  1.00  0.00     0.129 C 
BRANCH   8   9
HETATM    9  C6  UNL     1      15.480 -13.284  21.182  1.00  0.00     0.040 C 
BRANCH   9  10
HETATM   10  C5  UNL     1      14.889 -12.560  19.997  1.00  0.00     0.127 C 
BRANCH  10  11
HETATM   11  N2  UNL     1      13.933 -11.562  20.489  1.00  0.00    -0.349 N 
HETATM   12  C4  UNL     1      14.265 -10.155  20.522  1.00  0.00     0.154 C 
HETATM   13  C3  UNL     1      13.935  -9.710  21.942  1.00  0.00     0.257 C 
HETATM   14  N1  UNL     1      12.490  -9.692  22.010  1.00  0.00    -0.065 N 
HETATM   15  C1  UNL     1      12.041  -8.736  20.999  1.00  0.00     0.272 C 
HETATM   16  C2  UNL     1      12.116  -9.092  23.298  1.00  0.00     0.272 C 
HETATM   17  C15 UNL     1      11.923 -10.985  21.852  1.00  0.00     0.339 C 
HETATM   18  C14 UNL     1      12.643 -11.906  20.952  1.00  0.00     0.246 C 
HETATM   19  O2  UNL     1      12.121 -13.014  20.586  1.00  0.00    -0.272 OA
ENDBRANCH  10  11
ENDBRANCH   9  10
ENDBRANCH   8   9
ENDBRANCH   1   8
BRANCH   7  20
HETATM   20  O1  UNL     1      18.321 -10.499  20.745  1.00  0.00    -0.377 OA
ATOM     21  H1  UNL     1      18.721 -10.069  19.997  1.00  0.00     0.212 HD
ENDBRANCH   7  20
BRANCH   4  22
HETATM   22  C9  UNL     1      20.854 -13.854  23.578  1.00  0.00     0.136 C 
BRANCH  22  23
HETATM   23  C10 UNL     1      21.801 -12.913  24.330  1.00  0.00     0.105 C 
HETATM   24 BR1  UNL     1      20.814 -12.040  25.747  1.00  0.00    -0.095 Br
ENDBRANCH  22  23
ENDBRANCH   4  22
TORSDOF 7
ENDMDL
MODEL 3
REMARK VINA RESULT: -6.392950591      1.976      2.651
REMARK  7 active torsions:
REMARK  status: ('A' for Active; 'I' for Inactive)
REMARK    1  A    between atoms: N2_6  and  C5_7 
REMARK    2  A    between atoms: C5_7  and  C6_8 
REMARK    3  A    between atoms: C6_8  and  C7_9 
REMARK    4  A    between atoms: C7_9  and  N3_10 
REMARK    5  A    between atoms: N4_13  and  C9_14 
REMARK    6  A    between atoms: C9_14  and  C10_15 
REMARK    7  A    between atoms: C13_19  and  O1_20 
ROOT
HETATM    1  N3  UNL     1      14.820 -13.401  20.973  1.00  0.00    -0.332 N 
HETATM    2  C8  UNL     1      14.729 -12.000  21.171  1.00  0.00     0.174 C 
HETATM    3  S1  UNL     1      16.048 -11.084  20.933  1.00  0.00    -0.041 SA
HETATM    4  N4  UNL     1      13.492 -11.383  21.583  1.00  0.00    -0.357 N 
HETATM    5  C11 UNL     1      12.399 -12.310  21.785  1.00  0.00     0.129 C 
HETATM    6  C12 UNL     1      12.437 -13.345  20.664  1.00  0.00     0.073 C 
HETATM    7  C13 UNL     1      13.634 -14.227  20.892  1.00  0.00     0.223 C 
ENDROOT
BRANCH   1   8
HETATM    8  C7  UNL     1      16.105 -14.010  20.874  1.00  0.00     0.129 C 
BRANCH   8   9
HETATM    9  C6  UNL     1      16.774 -14.388  22.142  1.00  0.00     0.040 C 
BRANCH   9  10
HETATM   10  C5  UNL     1      18.023 -15.217  21.972  1.00  0.00     0.127 C 
BRANCH  10  11
HETATM   11  N2  UNL     1      19.062 -14.683  22.859  1.00  0.00    -0.349 N 
HETATM   12  C4  UNL     1      19.101 -15.024  24.264  1.00  0.00     0.154 C 
HETATM   13  C3  UNL     1      19.198 -13.687  24.988  1.00  0.00     0.257 C 
HETATM   14  N1  UNL     1      20.544 -13.217  24.742  1.00  0.00    -0.065 N 
HETATM   15  C1  UNL     1      21.441 -14.228  25.299  1.00  0.00     0.272 C 
HETATM   16  C2  UNL     1      20.751 -12.021  25.571  1.00  0.00     0.272 C 
HETATM   17  C15 UNL     1      20.783 -12.948  23.368  1.00  0.00     0.339 C 
HETATM   18  C14 UNL     1      20.079 -13.814  22.403  1.00  0.00     0.246 C 
HETATM   19  O2  UNL     1      20.372 -13.790  21.160  1.00  0.00    -0.272 OA
ENDBRANCH  10  11
ENDBRANCH   9  10
ENDBRANCH   8   9
ENDBRANCH   1   8
BRANCH   7  20
HETATM   20  O1  UNL     1      13.468 -15.018  22.027  1.00  0.00    -0.377 OA
ATOM     21  H1  UNL     1      14.045 -14.754  22.734  1.00  0.00     0.212 HD
ENDBRANCH   7  20
BRANCH   4  22
HETATM   22  C9  UNL     1      13.417  -9.957  21.763  1.00  0.00     0.136 C 
BRANCH  22  23
HETATM   23  C10 UNL     1      11.958  -9.506  21.888  1.00  0.00     0.105 C 
HETATM   24 BR1  UNL     1      11.557  -9.208  23.757  1.00  0.00    -0.095 Br
ENDBRANCH  22  23
ENDBRANCH   4  22
TORSDOF 7
ENDMDL
MODEL 4
REMARK VINA RESULT: -6.187655274      2.312      2.974
REMARK  7 active torsions:
REMARK  status: ('A' for Active; 'I' for Inactive)
REMARK    1  A    between atoms: N2_6  and  C5_7 
REMARK    2  A    between atoms: C5_7  and  C6_8 
REMARK    3  A    between atoms: C6_8  and  C7_9 
REMARK    4  A    between atoms: C7_9  and  N3_10 
REMARK    5  A    between atoms: N4_13  and  C9_14 
REMARK    6  A    between atoms: C9_14  and  C10_15 
REMARK    7  A    between atoms: C13_19  and  O1_20 
ROOT
HETATM    1  N3  UNL     1      14.536 -13.442  20.990  1.00  0.00    -0.332 N 
HETATM    2  C8  UNL     1      14.517 -12.037  21.179  1.00  0.00     0.174 C 
HETATM    3  S1  UNL     1      15.837 -11.174  20.795  1.00  0.00    -0.041 SA
HETATM    4  N4  UNL     1      13.353 -11.371  21.710  1.00  0.00    -0.357 N 
HETATM    5  C11 UNL     1      12.254 -12.255  22.036  1.00  0.00     0.129 C 
HETATM    6  C12 UNL     1      12.137 -13.299  20.928  1.00  0.00     0.073 C 
HETATM    7  C13 UNL     1      13.319 -14.224  21.042  1.00  0.00     0.223 C 
ENDROOT
BRANCH   1   8
HETATM    8  C7  UNL     1      15.781 -14.099  20.765  1.00  0.00     0.129 C 
BRANCH   8   9
HETATM    9  C6  UNL     1      16.550 -14.518  21.961  1.00  0.00     0.040 C 
BRANCH   9  10
HETATM   10  C5  UNL     1      17.964 -14.959  21.678  1.00  0.00     0.127 C 
BRANCH  10  11
HETATM   11  N2  UNL     1      18.845 -14.394  22.705  1.00  0.00    -0.349 N 
HETATM   12  C4  UNL     1      19.129 -12.977  22.757  1.00  0.00     0.154 C 
HETATM   13  C3  UNL     1      20.648 -12.886  22.823  1.00  0.00     0.257 C 
HETATM   14  N1  UNL     1      20.999 -13.323  24.156  1.00  0.00    -0.065 N 
HETATM   15  C1  UNL     1      20.337 -12.403  25.079  1.00  0.00     0.272 C 
HETATM   16  C2  UNL     1      22.437 -13.079  24.337  1.00  0.00     0.272 C 
HETATM   17  C15 UNL     1      20.667 -14.685  24.386  1.00  0.00     0.339 C 
HETATM   18  C14 UNL     1      19.461 -15.186  23.700  1.00  0.00     0.246 C 
HETATM   19  O2  UNL     1      18.964 -16.327  23.989  1.00  0.00    -0.272 OA
ENDBRANCH  10  11
ENDBRANCH   9  10
ENDBRANCH   8   9
ENDBRANCH   1   8
BRANCH   7  20
HETATM   20  O1  UNL     1      13.243 -15.000  22.197  1.00  0.00    -0.377 OA
ATOM     21  H1  UNL     1      12.516 -15.610  22.171  1.00  0.00     0.212 HD
ENDBRANCH   7  20
BRANCH   4  22
HETATM   22  C9  UNL     1      13.350  -9.942  21.880  1.00  0.00     0.136 C 
BRANCH  22  23
HETATM   23  C10 UNL     1      11.914  -9.417  21.987  1.00  0.00     0.105 C 
HETATM   24 BR1  UNL     1      11.503  -9.105  23.852  1.00  0.00    -0.095 Br
ENDBRANCH  22  23
ENDBRANCH   4  22
TORSDOF 7
ENDMDL
MODEL 5
REMARK VINA RESULT: -6.124838744      3.081      3.640
REMARK  7 active torsions:
REMARK  status: ('A' for Active; 'I' for Inactive)
REMARK    1  A    between atoms: N2_6  and  C5_7 
REMARK    2  A    between atoms: C5_7  and  C6_8 
REMARK    3  A    between atoms: C6_8  and  C7_9 
REMARK    4  A    between atoms: C7_9  and  N3_10 
REMARK    5  A    between atoms: N4_13  and  C9_14 
REMARK    6  A    between atoms: C9_14  and  C10_15 
REMARK    7  A    between atoms: C13_19  and  O1_20 
ROOT
HETATM    1  N3  UNL     1      15.521 -11.641  20.088  1.00  0.00    -0.332 N 
HETATM    2  C8  UNL     1      14.713 -12.758  19.757  1.00  0.00     0.174 C 
HETATM    3  S1  UNL     1      15.366 -13.978  18.908  1.00  0.00    -0.041 SA
HETATM    4  N4  UNL     1      13.328 -12.822  20.156  1.00  0.00    -0.357 N 
HETATM    5  C11 UNL     1      12.861 -11.663  20.885  1.00  0.00     0.129 C 
HETATM    6  C12 UNL     1      13.953 -11.243  21.866  1.00  0.00     0.073 C 
HETATM    7  C13 UNL     1      15.091 -10.667  21.068  1.00  0.00     0.223 C 
ENDROOT
BRANCH   1   8
HETATM    8  C7  UNL     1      16.770 -11.463  19.425  1.00  0.00     0.129 C 
BRANCH   8   9
HETATM    9  C6  UNL     1      17.956 -11.209  20.277  1.00  0.00     0.040 C 
BRANCH   9  10
HETATM   10  C5  UNL     1      19.034 -12.262  20.188  1.00  0.00     0.127 C 
BRANCH  10  11
HETATM   11  N2  UNL     1      18.953 -13.113  21.379  1.00  0.00    -0.349 N 
HETATM   12  C4  UNL     1      17.874 -14.059  21.557  1.00  0.00     0.154 C 
HETATM   13  C3  UNL     1      17.328 -13.771  22.950  1.00  0.00     0.257 C 
HETATM   14  N1  UNL     1      18.333 -14.267  23.864  1.00  0.00    -0.065 N 
HETATM   15  C1  UNL     1      18.465 -15.698  23.593  1.00  0.00     0.272 C 
HETATM   16  C2  UNL     1      17.775 -14.184  25.221  1.00  0.00     0.272 C 
HETATM   17  C15 UNL     1      19.560 -13.560  23.759  1.00  0.00     0.339 C 
HETATM   18  C14 UNL     1      19.915 -13.067  22.414  1.00  0.00     0.246 C 
HETATM   19  O2  UNL     1      21.077 -12.597  22.169  1.00  0.00    -0.272 OA
ENDBRANCH  10  11
ENDBRANCH   9  10
ENDBRANCH   8   9
ENDBRANCH   1   8
BRANCH   7  20
HETATM   20  O1  UNL     1      14.732  -9.455  20.480  1.00  0.00    -0.377 OA
ATOM     21  H1  UNL     1      15.418  -8.803  20.560  1.00  0.00     0.212 HD
ENDBRANCH   7  20
BRANCH   4  22
HETATM   22  C9  UNL     1      12.529 -13.973  19.823  1.00  0.00     0.136 C 
BRANCH  22  23
HETATM   23  C10 UNL     1      12.298 -14.843  21.063  1.00  0.00     0.105 C 
HETATM   24 BR1  UNL     1      11.440 -16.488  20.516  1.00  0.00    -0.095 Br
ENDBRANCH  22  23
ENDBRANCH   4  22
TORSDOF 7
ENDMDL
