MODEL 1
REMARK VINA RESULT: -6.963791095      0.000      0.000
REMARK  9 active torsions:
REMARK  status: ('A' for Active; 'I' for Inactive)
REMARK    1  A    between atoms: C2_2  and  C5_5 
REMARK    2  A    between atoms: C5_5  and  C7_7 
REMARK    3  A    between atoms: C5_5  and  N3_25 
REMARK    4  A    between atoms: C7_7  and  C8_8 
REMARK       I    between atoms: C8_8  and  N1_10 
REMARK    5  A    between atoms: C12_17  and  C13_18 
REMARK    6  A    between atoms: C13_18  and  C14_19 
REMARK    7  A    between atoms: C14_19  and  C15_20 
REMARK    8  A    between atoms: C15_20  and  C16_21 
REMARK    9  A    between atoms: C17_22  and  C18_23 
ROOT
HETATM    1  C8  UNL     1      15.821 -14.275  20.008  1.00  0.00     0.223 C 
HETATM    2  O1  UNL     1      16.559 -14.425  21.039  1.00  0.00    -0.273 OA
HETATM    3  N1  UNL     1      15.631 -12.995  19.490  1.00  0.00    -0.337 N 
HETATM    4  C9  UNL     1      14.846 -12.620  18.351  1.00  0.00     0.229 C 
HETATM    5  C10 UNL     1      15.495 -11.596  17.496  1.00  0.00     0.235 C 
HETATM    6  O2  UNL     1      15.029 -11.345  16.367  1.00  0.00    -0.272 OA
HETATM    7  N2  UNL     1      16.656 -10.911  17.997  1.00  0.00    -0.358 N 
ATOM      8  H2  UNL     1      17.002 -10.074  17.529  1.00  0.00     0.162 HD
HETATM    9  C11 UNL     1      17.333 -11.424  19.178  1.00  0.00     0.147 C 
HETATM   10  C12 UNL     1      16.304 -11.821  20.165  1.00  0.00     0.105 C 
ENDROOT
BRANCH   1  11
HETATM   11  C7  UNL     1      15.235 -15.514  19.466  1.00  0.00     0.135 C 
BRANCH  11  12
HETATM   12  C5  UNL     1      14.122 -16.051  20.342  1.00  0.00     0.056 C 
HETATM   13  C6  UNL     1      14.309 -17.524  20.654  1.00  0.00     0.041 C 
BRANCH  12  14
HETATM   14  C2  UNL     1      12.808 -15.821  19.644  1.00  0.00    -0.025 C 
HETATM   15  C1  UNL     1      12.961 -15.903  18.144  1.00  0.00     0.017 C 
HETATM   16  C3  UNL     1      11.790 -16.842  20.095  1.00  0.00     0.017 C 
HETATM   17  C4  UNL     1      12.216 -14.462  20.041  1.00  0.00     0.017 C 
ENDBRANCH  12  14
BRANCH  12  18
HETATM   18  N3  UNL     1      14.111 -15.341  21.587  1.00  0.00    -0.332 N 
HETATM   19  N4  UNL     1      14.344 -15.924  22.665  1.00  0.00    -0.349 N 
ATOM     20  H42 UNL     1      14.543 -16.924  22.643  1.00  0.00     0.176 HD
ATOM     21  H41 UNL     1      14.335 -15.420  23.551  1.00  0.00     0.176 HD
ATOM     22  H3  UNL     1      13.909 -14.342  21.591  1.00  0.00     0.180 HD
ENDBRANCH  12  18
ENDBRANCH  11  12
ENDBRANCH   1  11
BRANCH  10  23
HETATM   23  C13 UNL     1      15.270 -10.881  20.597  1.00  0.00     0.028 C 
BRANCH  23  24
HETATM   24  C14 UNL     1      14.214 -11.351  21.481  1.00  0.00     0.014 C 
BRANCH  24  25
HETATM   25  C15 UNL     1      12.808 -10.966  21.154  1.00  0.00     0.094 C 
BRANCH  25  26
HETATM   26  C16 UNL     1      12.220 -10.206  22.314  1.00  0.00    -0.106 C 
HETATM   27  C17 UNL     1      11.759  -9.625  23.241  1.00  0.00    -0.096 C 
BRANCH  27  28
HETATM   28  C18 UNL     1      11.196  -8.924  24.404  1.00  0.00     0.178 C 
HETATM   29 BR1  UNL     1      11.993  -7.156  24.580  1.00  0.00    -0.083 Br
ENDBRANCH  27  28
ENDBRANCH  25  26
ENDBRANCH  24  25
ENDBRANCH  23  24
ENDBRANCH  10  23
TORSDOF 9
ENDMDL
MODEL 2
REMARK VINA RESULT: -6.963652979      3.513      4.946
REMARK  9 active torsions:
REMARK  status: ('A' for Active; 'I' for Inactive)
REMARK    1  A    between atoms: C2_2  and  C5_5 
REMARK    2  A    between atoms: C5_5  and  C7_7 
REMARK    3  A    between atoms: C5_5  and  N3_25 
REMARK    4  A    between atoms: C7_7  and  C8_8 
REMARK       I    between atoms: C8_8  and  N1_10 
REMARK    5  A    between atoms: C12_17  and  C13_18 
REMARK    6  A    between atoms: C13_18  and  C14_19 
REMARK    7  A    between atoms: C14_19  and  C15_20 
REMARK    8  A    between atoms: C15_20  and  C16_21 
REMARK    9  A    between atoms: C17_22  and  C18_23 
ROOT
HETATM    1  C8  UNL     1      14.566 -13.742  19.472  1.00  0.00     0.223 C 
HETATM    2  O1  UNL     1      15.335 -14.415  18.707  1.00  0.00    -0.273 OA
HETATM    3  N1  UNL     1      15.099 -12.689  20.214  1.00  0.00    -0.337 N 
HETATM    4  C9  UNL     1      14.409 -11.822  21.122  1.00  0.00     0.229 C 
HETATM    5  C10 UNL     1      14.817 -10.400  21.010  1.00  0.00     0.235 C 
HETATM    6  O2  UNL     1      14.146  -9.516  21.577  1.00  0.00    -0.272 OA
HETATM    7  N2  UNL     1      15.989 -10.076  20.241  1.00  0.00    -0.358 N 
ATOM      8  H2  UNL     1      16.407  -9.148  20.307  1.00  0.00     0.162 HD
HETATM    9  C11 UNL     1      16.572 -11.083  19.369  1.00  0.00     0.147 C 
HETATM   10  C12 UNL     1      16.573 -12.375  20.091  1.00  0.00     0.105 C 
ENDROOT
BRANCH   1  11
HETATM   11  C7  UNL     1      13.156 -14.171  19.485  1.00  0.00     0.135 C 
BRANCH  11  12
HETATM   12  C5  UNL     1      12.897 -15.256  20.509  1.00  0.00     0.056 C 
HETATM   13  C6  UNL     1      14.168 -15.668  21.229  1.00  0.00     0.041 C 
BRANCH  12  14
HETATM   14  C2  UNL     1      12.278 -16.437  19.811  1.00  0.00    -0.025 C 
HETATM   15  C1  UNL     1      11.426 -17.250  20.759  1.00  0.00     0.017 C 
HETATM   16  C3  UNL     1      11.425 -15.975  18.653  1.00  0.00     0.017 C 
HETATM   17  C4  UNL     1      13.362 -17.323  19.183  1.00  0.00     0.017 C 
ENDBRANCH  12  14
BRANCH  12  18
HETATM   18  N3  UNL     1      11.977 -14.771  21.495  1.00  0.00    -0.332 N 
HETATM   19  N4  UNL     1      12.341 -13.973  22.381  1.00  0.00    -0.349 N 
ATOM     20  H42 UNL     1      13.315 -13.669  22.391  1.00  0.00     0.176 HD
ATOM     21  H41 UNL     1      11.687 -13.628  23.083  1.00  0.00     0.176 HD
ATOM     22  H3  UNL     1      11.007 -15.085  21.470  1.00  0.00     0.180 HD
ENDBRANCH  12  18
ENDBRANCH  11  12
ENDBRANCH   1  11
BRANCH  10  23
HETATM   23  C13 UNL     1      17.185 -12.500  21.413  1.00  0.00     0.028 C 
BRANCH  23  24
HETATM   24  C14 UNL     1      18.259 -13.463  21.605  1.00  0.00     0.014 C 
BRANCH  24  25
HETATM   25  C15 UNL     1      19.638 -13.061  21.197  1.00  0.00     0.094 C 
BRANCH  25  26
HETATM   26  C16 UNL     1      20.506 -12.951  22.425  1.00  0.00    -0.106 C 
HETATM   27  C17 UNL     1      21.171 -12.862  23.404  1.00  0.00    -0.096 C 
BRANCH  27  28
HETATM   28  C18 UNL     1      21.974 -12.757  24.630  1.00  0.00     0.178 C 
HETATM   29 BR1  UNL     1      20.888 -12.072  26.095  1.00  0.00    -0.083 Br
ENDBRANCH  27  28
ENDBRANCH  25  26
ENDBRANCH  24  25
ENDBRANCH  23  24
ENDBRANCH  10  23
TORSDOF 9
ENDMDL
MODEL 3
REMARK VINA RESULT: -6.826175956      3.050      4.924
REMARK  9 active torsions:
REMARK  status: ('A' for Active; 'I' for Inactive)
REMARK    1  A    between atoms: C2_2  and  C5_5 
REMARK    2  A    between atoms: C5_5  and  C7_7 
REMARK    3  A    between atoms: C5_5  and  N3_25 
REMARK    4  A    between atoms: C7_7  and  C8_8 
REMARK       I    between atoms: C8_8  and  N1_10 
REMARK    5  A    between atoms: C12_17  and  C13_18 
REMARK    6  A    between atoms: C13_18  and  C14_19 
REMARK    7  A    between atoms: C14_19  and  C15_20 
REMARK    8  A    between atoms: C15_20  and  C16_21 
REMARK    9  A    between atoms: C17_22  and  C18_23 
ROOT
HETATM    1  C8  UNL     1      16.359 -12.629  21.635  1.00  0.00     0.223 C 
HETATM    2  O1  UNL     1      16.635 -11.448  21.234  1.00  0.00    -0.273 OA
HETATM    3  N1  UNL     1      15.444 -13.393  20.914  1.00  0.00    -0.337 N 
HETATM    4  C9  UNL     1      15.005 -14.728  21.198  1.00  0.00     0.229 C 
HETATM    5  C10 UNL     1      14.888 -15.582  19.990  1.00  0.00     0.235 C 
HETATM    6  O2  UNL     1      14.733 -16.812  20.115  1.00  0.00    -0.272 OA
HETATM    7  N2  UNL     1      14.958 -14.962  18.695  1.00  0.00    -0.358 N 
ATOM      8  H2  UNL     1      14.685 -15.481  17.860  1.00  0.00     0.162 HD
HETATM    9  C11 UNL     1      15.421 -13.588  18.585  1.00  0.00     0.147 C 
HETATM   10  C12 UNL     1      14.804 -12.803  19.678  1.00  0.00     0.105 C 
ENDROOT
BRANCH   1  11
HETATM   11  C7  UNL     1      17.063 -13.060  22.856  1.00  0.00     0.135 C 
BRANCH  11  12
HETATM   12  C5  UNL     1      18.507 -13.425  22.585  1.00  0.00     0.056 C 
HETATM   13  C6  UNL     1      18.625 -14.555  21.577  1.00  0.00     0.041 C 
BRANCH  12  14
HETATM   14  C2  UNL     1      19.159 -13.809  23.887  1.00  0.00    -0.025 C 
HETATM   15  C1  UNL     1      20.048 -15.019  23.720  1.00  0.00     0.017 C 
HETATM   16  C3  UNL     1      19.982 -12.659  24.420  1.00  0.00     0.017 C 
HETATM   17  C4  UNL     1      18.099 -14.076  24.964  1.00  0.00     0.017 C 
ENDBRANCH  12  14
BRANCH  12  18
HETATM   18  N3  UNL     1      19.193 -12.289  22.046  1.00  0.00    -0.332 N 
HETATM   19  N4  UNL     1      19.715 -12.326  20.913  1.00  0.00    -0.349 N 
ATOM     20  H42 UNL     1      19.642 -13.189  20.374  1.00  0.00     0.176 HD
ATOM     21  H41 UNL     1      20.203 -11.517  20.530  1.00  0.00     0.176 HD
ATOM     22  H3  UNL     1      19.257 -11.434  22.599  1.00  0.00     0.180 HD
ENDBRANCH  12  18
ENDBRANCH  11  12
ENDBRANCH   1  11
BRANCH  10  23
HETATM   23  C13 UNL     1      13.354 -12.787  19.870  1.00  0.00     0.028 C 
BRANCH  23  24
HETATM   24  C14 UNL     1      12.797 -12.009  20.965  1.00  0.00     0.014 C 
BRANCH  24  25
HETATM   25  C15 UNL     1      13.123 -10.552  21.023  1.00  0.00     0.094 C 
BRANCH  25  26
HETATM   26  C16 UNL     1      12.421  -9.933  22.203  1.00  0.00    -0.106 C 
HETATM   27  C17 UNL     1      11.876  -9.460  23.146  1.00  0.00    -0.096 C 
BRANCH  27  28
HETATM   28  C18 UNL     1      11.214  -8.891  24.328  1.00  0.00     0.178 C 
HETATM   29 BR1  UNL     1      11.855  -7.082  24.659  1.00  0.00    -0.083 Br
ENDBRANCH  27  28
ENDBRANCH  25  26
ENDBRANCH  24  25
ENDBRANCH  23  24
ENDBRANCH  10  23
TORSDOF 9
ENDMDL
MODEL 4
REMARK VINA RESULT: -6.810495979      2.638      4.566
REMARK  9 active torsions:
REMARK  status: ('A' for Active; 'I' for Inactive)
REMARK    1  A    between atoms: C2_2  and  C5_5 
REMARK    2  A    between atoms: C5_5  and  C7_7 
REMARK    3  A    between atoms: C5_5  and  N3_25 
REMARK    4  A    between atoms: C7_7  and  C8_8 
REMARK       I    between atoms: C8_8  and  N1_10 
REMARK    5  A    between atoms: C12_17  and  C13_18 
REMARK    6  A    between atoms: C13_18  and  C14_19 
REMARK    7  A    between atoms: C14_19  and  C15_20 
REMARK    8  A    between atoms: C15_20  and  C16_21 
REMARK    9  A    between atoms: C17_22  and  C18_23 
ROOT
HETATM    1  C8  UNL     1      16.390 -11.974  21.278  1.00  0.00     0.223 C 
HETATM    2  O1  UNL     1      15.539 -11.963  22.231  1.00  0.00    -0.273 OA
HETATM    3  N1  UNL     1      15.933 -12.066  19.964  1.00  0.00    -0.337 N 
HETATM    4  C9  UNL     1      16.720 -12.094  18.766  1.00  0.00     0.229 C 
HETATM    5  C10 UNL     1      16.150 -11.278  17.665  1.00  0.00     0.235 C 
HETATM    6  O2  UNL     1      16.838 -11.037  16.654  1.00  0.00    -0.272 OA
HETATM    7  N2  UNL     1      14.807 -10.782  17.795  1.00  0.00    -0.358 N 
ATOM      8  H2  UNL     1      14.321 -10.395  16.986  1.00  0.00     0.162 HD
HETATM    9  C11 UNL     1      14.147 -10.837  19.090  1.00  0.00     0.147 C 
HETATM   10  C12 UNL     1      14.447 -12.150  19.706  1.00  0.00     0.105 C 
ENDROOT
BRANCH   1  11
HETATM   11  C7  UNL     1      17.802 -11.887  21.691  1.00  0.00     0.135 C 
BRANCH  11  12
HETATM   12  C5  UNL     1      18.309 -13.190  22.272  1.00  0.00     0.056 C 
HETATM   13  C6  UNL     1      18.281 -13.179  23.790  1.00  0.00     0.041 C 
BRANCH  12  14
HETATM   14  C2  UNL     1      19.708 -13.428  21.771  1.00  0.00    -0.025 C 
HETATM   15  C1  UNL     1      19.935 -14.886  21.448  1.00  0.00     0.017 C 
HETATM   16  C3  UNL     1      19.969 -12.600  20.534  1.00  0.00     0.017 C 
HETATM   17  C4  UNL     1      20.740 -12.947  22.800  1.00  0.00     0.017 C 
ENDBRANCH  12  14
BRANCH  12  18
HETATM   18  N3  UNL     1      17.474 -14.267  21.830  1.00  0.00    -0.332 N 
HETATM   19  N4  UNL     1      16.668 -14.820  22.605  1.00  0.00    -0.349 N 
ATOM     20  H42 UNL     1      16.615 -14.489  23.568  1.00  0.00     0.176 HD
ATOM     21  H41 UNL     1      16.074 -15.587  22.290  1.00  0.00     0.176 HD
ATOM     22  H3  UNL     1      17.540 -14.586  20.864  1.00  0.00     0.180 HD
ENDBRANCH  12  18
ENDBRANCH  11  12
ENDBRANCH   1  11
BRANCH  10  23
HETATM   23  C13 UNL     1      14.170 -13.397  18.993  1.00  0.00     0.028 C 
BRANCH  23  24
HETATM   24  C14 UNL     1      13.077 -14.243  19.450  1.00  0.00     0.014 C 
BRANCH  24  25
HETATM   25  C15 UNL     1      12.976 -14.521  20.914  1.00  0.00     0.094 C 
BRANCH  25  26
HETATM   26  C16 UNL     1      12.378 -13.324  21.607  1.00  0.00    -0.106 C 
HETATM   27  C17 UNL     1      11.926 -12.378  22.164  1.00  0.00    -0.096 C 
BRANCH  27  28
HETATM   28  C18 UNL     1      11.389 -11.203  22.864  1.00  0.00     0.178 C 
HETATM   29 BR1  UNL     1      12.298  -9.586  22.271  1.00  0.00    -0.083 Br
ENDBRANCH  27  28
ENDBRANCH  25  26
ENDBRANCH  24  25
ENDBRANCH  23  24
ENDBRANCH  10  23
TORSDOF 9
ENDMDL
MODEL 5
REMARK VINA RESULT: -6.785638588      3.708      5.887
REMARK  9 active torsions:
REMARK  status: ('A' for Active; 'I' for Inactive)
REMARK    1  A    between atoms: C2_2  and  C5_5 
REMARK    2  A    between atoms: C5_5  and  C7_7 
REMARK    3  A    between atoms: C5_5  and  N3_25 
REMARK    4  A    between atoms: C7_7  and  C8_8 
REMARK       I    between atoms: C8_8  and  N1_10 
REMARK    5  A    between atoms: C12_17  and  C13_18 
REMARK    6  A    between atoms: C13_18  and  C14_19 
REMARK    7  A    between atoms: C14_19  and  C15_20 
REMARK    8  A    between atoms: C15_20  and  C16_21 
REMARK    9  A    between atoms: C17_22  and  C18_23 
ROOT
HETATM    1  C8  UNL     1      16.258 -13.987  21.597  1.00  0.00     0.223 C 
HETATM    2  O1  UNL     1      16.468 -15.162  21.142  1.00  0.00    -0.273 OA
HETATM    3  N1  UNL     1      15.094 -13.315  21.226  1.00  0.00    -0.337 N 
HETATM    4  C9  UNL     1      14.678 -12.003  21.624  1.00  0.00     0.229 C 
HETATM    5  C10 UNL     1      13.230 -11.910  21.936  1.00  0.00     0.235 C 
HETATM    6  O2  UNL     1      12.783 -10.894  22.502  1.00  0.00    -0.272 OA
HETATM    7  N2  UNL     1      12.373 -13.006  21.574  1.00  0.00    -0.358 N 
ATOM      8  H2  UNL     1      11.359 -12.894  21.590  1.00  0.00     0.162 HD
HETATM    9  C11 UNL     1      12.963 -14.276  21.183  1.00  0.00     0.147 C 
HETATM   10  C12 UNL     1      14.116 -13.997  20.296  1.00  0.00     0.105 C 
ENDROOT
BRANCH   1  11
HETATM   11  C7  UNL     1      17.305 -13.459  22.489  1.00  0.00     0.135 C 
BRANCH  11  12
HETATM   12  C5  UNL     1      17.672 -14.440  23.583  1.00  0.00     0.056 C 
HETATM   13  C6  UNL     1      17.422 -13.864  24.965  1.00  0.00     0.041 C 
BRANCH  12  14
HETATM   14  C2  UNL     1      19.120 -14.818  23.422  1.00  0.00    -0.025 C 
HETATM   15  C1  UNL     1      19.791 -15.005  24.762  1.00  0.00     0.017 C 
HETATM   16  C3  UNL     1      19.243 -16.096  22.625  1.00  0.00     0.017 C 
HETATM   17  C4  UNL     1      19.867 -13.760  22.599  1.00  0.00     0.017 C 
ENDBRANCH  12  14
BRANCH  12  18
HETATM   18  N3  UNL     1      16.872 -15.621  23.452  1.00  0.00    -0.332 N 
HETATM   19  N4  UNL     1      16.124 -16.000  24.376  1.00  0.00    -0.349 N 
ATOM     20  H42 UNL     1      16.093 -15.447  25.233  1.00  0.00     0.176 HD
ATOM     21  H41 UNL     1      15.555 -16.841  24.284  1.00  0.00     0.176 HD
ATOM     22  H3  UNL     1      16.915 -16.161  22.589  1.00  0.00     0.180 HD
ENDBRANCH  12  18
ENDBRANCH  11  12
ENDBRANCH   1  11
BRANCH  10  23
HETATM   23  C13 UNL     1      13.963 -13.171  19.099  1.00  0.00     0.028 C 
BRANCH  23  24
HETATM   24  C14 UNL     1      14.914 -13.327  18.009  1.00  0.00     0.014 C 
BRANCH  24  25
HETATM   25  C15 UNL     1      15.619 -12.105  17.517  1.00  0.00     0.094 C 
BRANCH  25  26
HETATM   26  C16 UNL     1      16.677 -11.708  18.514  1.00  0.00    -0.106 C 
HETATM   27  C17 UNL     1      17.522 -11.413  19.294  1.00  0.00    -0.096 C 
BRANCH  27  28
HETATM   28  C18 UNL     1      18.583 -11.066  20.248  1.00  0.00     0.178 C 
HETATM   29 BR1  UNL     1      20.322 -11.609  19.558  1.00  0.00    -0.083 Br
ENDBRANCH  27  28
ENDBRANCH  25  26
ENDBRANCH  24  25
ENDBRANCH  23  24
ENDBRANCH  10  23
TORSDOF 9
ENDMDL
