MODEL 1
REMARK VINA RESULT: -6.065401548      0.000      0.000
REMARK  6 active torsions:
REMARK  status: ('A' for Active; 'I' for Inactive)
REMARK    1  A    between atoms: N1_2  and  S1_4 
REMARK    2  A    between atoms: S1_4  and  N2_7 
REMARK    3  A    between atoms: N3_10  and  C5_12 
REMARK    4  A    between atoms: C5_12  and  C6_13 
REMARK    5  A    between atoms: C6_13  and  C8_15 
REMARK    6  A    between atoms: C6_13  and  C9_17 
ROOT
HETATM    1  N2  UNL     1      15.946 -12.240  20.282  1.00  0.00    -0.190 NA
HETATM    2  C2  UNL     1      17.099 -11.397  20.079  1.00  0.00     0.137 C 
HETATM    3  C3  UNL     1      17.946 -11.274  21.339  1.00  0.00     0.252 C 
HETATM    4  N3  UNL     1      18.653 -12.536  21.639  1.00  0.00    -0.068 N 
HETATM    5  C4  UNL     1      19.831 -12.516  20.842  1.00  0.00     0.272 C 
HETATM    6  C10 UNL     1      17.782 -13.547  20.992  1.00  0.00     0.252 C 
HETATM    7  C11 UNL     1      16.312 -13.223  21.285  1.00  0.00     0.137 C 
ENDROOT
BRANCH   4   8
HETATM    8  C5  UNL     1      18.716 -12.850  22.987  1.00  0.00     0.247 C 
BRANCH   8   9
HETATM    9  C6  UNL     1      19.810 -13.568  23.635  1.00  0.00    -0.002 C 
HETATM   10  C7  UNL     1      19.212 -13.998  25.008  1.00  0.00     0.018 C 
BRANCH   9  11
HETATM   11  C8  UNL     1      20.224 -14.885  23.059  1.00  0.00     0.096 C 
HETATM   12 BR1  UNL     1      21.559 -15.726  24.223  1.00  0.00    -0.096 Br
ENDBRANCH   9  11
BRANCH   9  13
HETATM   13  C9  UNL     1      21.010 -12.754  24.019  1.00  0.00     0.096 C 
HETATM   14 BR2  UNL     1      20.851 -12.037  25.831  1.00  0.00    -0.096 Br
ENDBRANCH   9  13
ENDBRANCH   8   9
ENDBRANCH   4   8
BRANCH   1  15
HETATM   15  S1  UNL     1      14.540 -11.358  20.702  1.00  0.00     0.298 S 
HETATM   16  O1  UNL     1      14.172 -11.682  22.133  1.00  0.00    -0.188 OA
HETATM   17  O2  UNL     1      13.439 -11.719  19.781  1.00  0.00    -0.188 OA
BRANCH  15  18
HETATM   18  N1  UNL     1      14.925  -9.673  20.603  1.00  0.00    -0.311 N 
HETATM   19  C1  UNL     1      13.883  -8.879  21.215  1.00  0.00     0.160 C 
ATOM     20  H1  UNL     1      15.769  -9.294  20.172  1.00  0.00     0.172 HD
ENDBRANCH  15  18
ENDBRANCH   1  15
TORSDOF 6
ENDMDL
MODEL 2
REMARK VINA RESULT: -5.916662888      2.945      3.713
REMARK  6 active torsions:
REMARK  status: ('A' for Active; 'I' for Inactive)
REMARK    1  A    between atoms: N1_2  and  S1_4 
REMARK    2  A    between atoms: S1_4  and  N2_7 
REMARK    3  A    between atoms: N3_10  and  C5_12 
REMARK    4  A    between atoms: C5_12  and  C6_13 
REMARK    5  A    between atoms: C6_13  and  C8_15 
REMARK    6  A    between atoms: C6_13  and  C9_17 
ROOT
HETATM    1  N2  UNL     1      12.856 -10.859  20.955  1.00  0.00    -0.190 NA
HETATM    2  C2  UNL     1      13.935 -10.512  20.063  1.00  0.00     0.137 C 
HETATM    3  C3  UNL     1      15.296 -10.855  20.654  1.00  0.00     0.252 C 
HETATM    4  N3  UNL     1      15.514 -12.315  20.696  1.00  0.00    -0.068 N 
HETATM    5  C4  UNL     1      15.983 -12.672  19.402  1.00  0.00     0.272 C 
HETATM    6  C10 UNL     1      14.127 -12.840  20.748  1.00  0.00     0.252 C 
HETATM    7  C11 UNL     1      13.298 -12.003  21.730  1.00  0.00     0.137 C 
ENDROOT
BRANCH   4   8
HETATM    8  C5  UNL     1      16.166 -12.763  21.833  1.00  0.00     0.247 C 
BRANCH   8   9
HETATM    9  C6  UNL     1      17.597 -13.035  21.933  1.00  0.00    -0.002 C 
HETATM   10  C7  UNL     1      17.809 -13.379  23.437  1.00  0.00     0.018 C 
BRANCH   9  11
HETATM   11  C8  UNL     1      18.128 -14.264  21.263  1.00  0.00     0.096 C 
HETATM   12 BR1  UNL     1      16.880 -15.752  21.524  1.00  0.00    -0.096 Br
ENDBRANCH   9  11
BRANCH   9  13
HETATM   13  C9  UNL     1      18.517 -11.870  21.711  1.00  0.00     0.096 C 
HETATM   14 BR2  UNL     1      19.937 -12.300  20.437  1.00  0.00    -0.096 Br
ENDBRANCH   9  13
ENDBRANCH   8   9
ENDBRANCH   4   8
BRANCH   1  15
HETATM   15  S1  UNL     1      12.354  -9.549  21.936  1.00  0.00     0.298 S 
HETATM   16  O1  UNL     1      11.554  -8.585  21.088  1.00  0.00    -0.188 OA
HETATM   17  O2  UNL     1      13.543  -8.881  22.512  1.00  0.00    -0.188 OA
BRANCH  15  18
HETATM   18  N1  UNL     1      11.319 -10.181  23.171  1.00  0.00    -0.311 N 
HETATM   19  C1  UNL     1      11.284  -9.289  24.309  1.00  0.00     0.160 C 
ATOM     20  H1  UNL     1      10.806 -11.061  23.106  1.00  0.00     0.172 HD
ENDBRANCH  15  18
ENDBRANCH   1  15
TORSDOF 6
ENDMDL
MODEL 3
REMARK VINA RESULT: -5.720902260      2.611      3.588
REMARK  6 active torsions:
REMARK  status: ('A' for Active; 'I' for Inactive)
REMARK    1  A    between atoms: N1_2  and  S1_4 
REMARK    2  A    between atoms: S1_4  and  N2_7 
REMARK    3  A    between atoms: N3_10  and  C5_12 
REMARK    4  A    between atoms: C5_12  and  C6_13 
REMARK    5  A    between atoms: C6_13  and  C8_15 
REMARK    6  A    between atoms: C6_13  and  C9_17 
ROOT
HETATM    1  N2  UNL     1      13.179 -11.625  19.929  1.00  0.00    -0.190 NA
HETATM    2  C2  UNL     1      14.090 -10.592  19.501  1.00  0.00     0.137 C 
HETATM    3  C3  UNL     1      15.530 -10.905  19.888  1.00  0.00     0.252 C 
HETATM    4  N3  UNL     1      16.075 -12.018  19.083  1.00  0.00    -0.068 N 
HETATM    5  C4  UNL     1      16.526 -11.430  17.869  1.00  0.00     0.272 C 
HETATM    6  C10 UNL     1      14.849 -12.763  18.704  1.00  0.00     0.252 C 
HETATM    7  C11 UNL     1      13.919 -12.873  19.918  1.00  0.00     0.137 C 
ENDROOT
BRANCH   4   8
HETATM    8  C5  UNL     1      16.885 -12.892  19.790  1.00  0.00     0.247 C 
BRANCH   8   9
HETATM    9  C6  UNL     1      17.652 -12.551  20.985  1.00  0.00    -0.002 C 
HETATM   10  C7  UNL     1      18.734 -13.668  21.065  1.00  0.00     0.018 C 
BRANCH   9  11
HETATM   11  C8  UNL     1      18.495 -11.315  20.950  1.00  0.00     0.096 C 
HETATM   12 BR1  UNL     1      20.160 -11.676  19.982  1.00  0.00    -0.096 Br
ENDBRANCH   9  11
BRANCH   9  13
HETATM   13  C9  UNL     1      16.935 -12.667  22.297  1.00  0.00     0.096 C 
HETATM   14 BR2  UNL     1      18.054 -13.507  23.663  1.00  0.00    -0.096 Br
ENDBRANCH   9  13
ENDBRANCH   8   9
ENDBRANCH   4   8
BRANCH   1  15
HETATM   15  S1  UNL     1      12.459 -11.294  21.446  1.00  0.00     0.298 S 
HETATM   16  O1  UNL     1      13.487 -11.522  22.531  1.00  0.00    -0.188 OA
HETATM   17  O2  UNL     1      11.287 -12.178  21.638  1.00  0.00    -0.188 OA
BRANCH  15  18
HETATM   18  N1  UNL     1      12.006  -9.624  21.462  1.00  0.00    -0.311 N 
HETATM   19  C1  UNL     1      12.106  -9.084  22.800  1.00  0.00     0.160 C 
ATOM     20  H1  UNL     1      11.709  -9.094  20.642  1.00  0.00     0.172 HD
ENDBRANCH  15  18
ENDBRANCH   1  15
TORSDOF 6
ENDMDL
MODEL 4
REMARK VINA RESULT: -5.717319985      1.384      1.586
REMARK  6 active torsions:
REMARK  status: ('A' for Active; 'I' for Inactive)
REMARK    1  A    between atoms: N1_2  and  S1_4 
REMARK    2  A    between atoms: S1_4  and  N2_7 
REMARK    3  A    between atoms: N3_10  and  C5_12 
REMARK    4  A    between atoms: C5_12  and  C6_13 
REMARK    5  A    between atoms: C6_13  and  C8_15 
REMARK    6  A    between atoms: C6_13  and  C9_17 
ROOT
HETATM    1  N2  UNL     1      16.104 -12.620  20.238  1.00  0.00    -0.190 NA
HETATM    2  C2  UNL     1      17.246 -11.797  19.920  1.00  0.00     0.137 C 
HETATM    3  C3  UNL     1      18.062 -11.450  21.159  1.00  0.00     0.252 C 
HETATM    4  N3  UNL     1      18.785 -12.629  21.677  1.00  0.00    -0.068 N 
HETATM    5  C4  UNL     1      19.980 -12.715  20.911  1.00  0.00     0.272 C 
HETATM    6  C10 UNL     1      17.947 -13.752  21.189  1.00  0.00     0.252 C 
HETATM    7  C11 UNL     1      16.465 -13.416  21.396  1.00  0.00     0.137 C 
ENDROOT
BRANCH   4   8
HETATM    8  C5  UNL     1      18.823 -12.715  23.059  1.00  0.00     0.247 C 
BRANCH   8   9
HETATM    9  C6  UNL     1      19.816 -13.456  23.831  1.00  0.00    -0.002 C 
HETATM   10  C7  UNL     1      19.102 -13.739  25.186  1.00  0.00     0.018 C 
BRANCH   9  11
HETATM   11  C8  UNL     1      20.168 -14.839  23.380  1.00  0.00     0.096 C 
HETATM   12 BR1  UNL     1      20.557 -15.965  24.936  1.00  0.00    -0.096 Br
ENDBRANCH   9  11
BRANCH   9  13
HETATM   13  C9  UNL     1      21.047 -12.702  24.238  1.00  0.00     0.096 C 
HETATM   14 BR2  UNL     1      20.916 -12.037  26.073  1.00  0.00    -0.096 Br
ENDBRANCH   9  13
ENDBRANCH   8   9
ENDBRANCH   4   8
BRANCH   1  15
HETATM   15  S1  UNL     1      14.674 -11.712  20.479  1.00  0.00     0.298 S 
HETATM   16  O1  UNL     1      14.791 -10.409  19.719  1.00  0.00    -0.188 OA
HETATM   17  O2  UNL     1      14.487 -11.462  21.926  1.00  0.00    -0.188 OA
BRANCH  15  18
HETATM   18  N1  UNL     1      13.356 -12.617  19.815  1.00  0.00    -0.311 N 
HETATM   19  C1  UNL     1      12.460 -13.051  20.864  1.00  0.00     0.160 C 
ATOM     20  H1  UNL     1      13.229 -12.816  18.823  1.00  0.00     0.172 HD
ENDBRANCH  15  18
ENDBRANCH   1  15
TORSDOF 6
ENDMDL
MODEL 5
REMARK VINA RESULT: -5.653152091      2.857      3.870
REMARK  6 active torsions:
REMARK  status: ('A' for Active; 'I' for Inactive)
REMARK    1  A    between atoms: N1_2  and  S1_4 
REMARK    2  A    between atoms: S1_4  and  N2_7 
REMARK    3  A    between atoms: N3_10  and  C5_12 
REMARK    4  A    between atoms: C5_12  and  C6_13 
REMARK    5  A    between atoms: C6_13  and  C8_15 
REMARK    6  A    between atoms: C6_13  and  C9_17 
ROOT
HETATM    1  N2  UNL     1      12.722 -10.931  21.075  1.00  0.00    -0.190 NA
HETATM    2  C2  UNL     1      13.558 -10.654  19.932  1.00  0.00     0.137 C 
HETATM    3  C3  UNL     1      15.036 -10.852  20.244  1.00  0.00     0.252 C 
HETATM    4  N3  UNL     1      15.366 -12.282  20.410  1.00  0.00    -0.068 N 
HETATM    5  C4  UNL     1      15.574 -12.783  19.095  1.00  0.00     0.272 C 
HETATM    6  C10 UNL     1      14.065 -12.860  20.828  1.00  0.00     0.252 C 
HETATM    7  C11 UNL     1      13.404 -11.942  21.862  1.00  0.00     0.137 C 
ENDROOT
BRANCH   4   8
HETATM    8  C5  UNL     1      16.277 -12.546  21.419  1.00  0.00     0.247 C 
BRANCH   8   9
HETATM    9  C6  UNL     1      17.728 -12.577  21.259  1.00  0.00    -0.002 C 
HETATM   10  C7  UNL     1      18.051 -14.090  21.077  1.00  0.00     0.018 C 
BRANCH   9  11
HETATM   11  C8  UNL     1      18.310 -11.991  20.011  1.00  0.00     0.096 C 
HETATM   12 BR1  UNL     1      20.251 -11.808  20.208  1.00  0.00    -0.096 Br
ENDBRANCH   9  11
BRANCH   9  13
HETATM   13  C9  UNL     1      18.543 -12.190  22.458  1.00  0.00     0.096 C 
HETATM   14 BR2  UNL     1      18.564 -13.605  23.808  1.00  0.00    -0.096 Br
ENDBRANCH   9  13
ENDBRANCH   8   9
ENDBRANCH   4   8
BRANCH   1  15
HETATM   15  S1  UNL     1      12.344  -9.529  21.981  1.00  0.00     0.298 S 
HETATM   16  O1  UNL     1      11.571  -8.575  21.098  1.00  0.00    -0.188 OA
HETATM   17  O2  UNL     1      13.596  -8.903  22.464  1.00  0.00    -0.188 OA
BRANCH  15  18
HETATM   18  N1  UNL     1      11.325 -10.009  23.295  1.00  0.00    -0.311 N 
HETATM   19  C1  UNL     1      11.316  -8.996  24.326  1.00  0.00     0.160 C 
ATOM     20  H1  UNL     1      10.803 -10.885  23.336  1.00  0.00     0.172 HD
ENDBRANCH  15  18
ENDBRANCH   1  15
TORSDOF 6
ENDMDL
