MODEL 1
REMARK VINA RESULT: -6.532773723      0.000      0.000
REMARK  6 active torsions:
REMARK  status: ('A' for Active; 'I' for Inactive)
REMARK    1  A    between atoms: C4_5  and  S1_6 
REMARK    2  A    between atoms: C7_11  and  C8_12 
REMARK       I    between atoms: C8_12  and  N2_14 
REMARK       I    between atoms: C9_16  and  N4_18 
REMARK    3  A    between atoms: N4_18  and  C10_20 
REMARK    4  A    between atoms: C10_20  and  C11_21 
REMARK    5  A    between atoms: C11_21  and  C12_22 
REMARK    6  A    between atoms: C12_22  and  C13_23 
ROOT
HETATM    1  C1  UNL     1      20.120 -16.016  21.903  1.00  0.00     0.221 C 
HETATM    2  N1  UNL     1      19.426 -15.132  21.598  1.00  0.00    -0.461 NA
HETATM    3  C2  UNL     1      18.575 -14.059  21.237  1.00  0.00     0.197 A 
HETATM    4  C3  UNL     1      17.173 -14.579  21.182  1.00  0.00    -0.028 A 
HETATM    5  C4  UNL     1      16.558 -15.534  20.490  1.00  0.00     0.115 C 
HETATM    6  C6  UNL     1      16.697 -13.618  22.209  1.00  0.00     0.040 A 
HETATM    7  C7  UNL     1      17.091 -12.190  22.128  1.00  0.00     0.095 A 
HETATM    8  C14 UNL     1      18.166 -13.165  22.353  1.00  0.00     0.049 A 
ENDROOT
BRANCH   5   9
HETATM    9  S1  UNL     1      14.859 -15.862  20.702  1.00  0.00     0.162 S 
HETATM   10  C5  UNL     1      14.501 -16.549  22.290  1.00  0.00     0.166 C 
HETATM   11  O1  UNL     1      14.072 -14.614  20.519  1.00  0.00    -0.224 OA
HETATM   12  O2  UNL     1      14.378 -16.869  19.666  1.00  0.00    -0.224 OA
ENDBRANCH   5   9
BRANCH   7  13
HETATM   13  C8  UNL     1      16.858 -11.538  20.836  1.00  0.00     0.229 C 
HETATM   14  O3  UNL     1      17.657 -10.736  20.279  1.00  0.00    -0.273 OA
HETATM   15  N2  UNL     1      15.659 -11.802  20.129  1.00  0.00    -0.301 N 
HETATM   16  C9  UNL     1      14.738 -10.912  20.064  1.00  0.00     0.190 C 
ATOM     17  H2  UNL     1      15.528 -12.703  19.669  1.00  0.00     0.171 HD
HETATM   18  N3  UNL     1      13.558 -11.206  19.350  1.00  0.00    -0.063 NA
HETATM   19  N4  UNL     1      14.921  -9.671  20.699  1.00  0.00    -0.364 N 
ATOM     20  H4  UNL     1      15.862  -9.331  20.898  1.00  0.00     0.162 HD
BRANCH  19  21
HETATM   21  C10 UNL     1      13.735  -8.856  21.078  1.00  0.00     0.122 C 
BRANCH  21  22
HETATM   22  C11 UNL     1      13.200  -9.497  22.315  1.00  0.00     0.020 C 
BRANCH  22  23
HETATM   23  C12 UNL     1      11.772  -9.343  22.636  1.00  0.00     0.012 C 
BRANCH  23  24
HETATM   24  C13 UNL     1      11.398  -9.082  24.053  1.00  0.00     0.085 C 
HETATM   25 BR1  UNL     1      11.847  -7.304  24.602  1.00  0.00    -0.097 Br
ENDBRANCH  23  24
ENDBRANCH  22  23
ENDBRANCH  21  22
ENDBRANCH  19  21
ENDBRANCH   7  13
TORSDOF 6
ENDMDL
MODEL 2
REMARK VINA RESULT: -6.358409500      3.447      6.560
REMARK  6 active torsions:
REMARK  status: ('A' for Active; 'I' for Inactive)
REMARK    1  A    between atoms: C4_5  and  S1_6 
REMARK    2  A    between atoms: C7_11  and  C8_12 
REMARK       I    between atoms: C8_12  and  N2_14 
REMARK       I    between atoms: C9_16  and  N4_18 
REMARK    3  A    between atoms: N4_18  and  C10_20 
REMARK    4  A    between atoms: C10_20  and  C11_21 
REMARK    5  A    between atoms: C11_21  and  C12_22 
REMARK    6  A    between atoms: C12_22  and  C13_23 
ROOT
HETATM    1  C1  UNL     1      15.041 -10.755  16.287  1.00  0.00     0.221 C 
HETATM    2  N1  UNL     1      15.504 -11.057  17.312  1.00  0.00    -0.461 NA
HETATM    3  C2  UNL     1      16.060 -11.434  18.559  1.00  0.00     0.197 A 
HETATM    4  C3  UNL     1      14.950 -11.487  19.563  1.00  0.00    -0.028 A 
HETATM    5  C4  UNL     1      14.063 -10.609  20.021  1.00  0.00     0.115 C 
HETATM    6  C6  UNL     1      15.200 -12.916  19.874  1.00  0.00     0.040 A 
HETATM    7  C7  UNL     1      16.587 -13.397  20.094  1.00  0.00     0.095 A 
HETATM    8  C14 UNL     1      16.263 -12.894  18.754  1.00  0.00     0.049 A 
ENDROOT
BRANCH   5   9
HETATM    9  S1  UNL     1      12.885 -11.048  21.228  1.00  0.00     0.162 S 
HETATM   10  C5  UNL     1      11.952  -9.658  21.792  1.00  0.00     0.166 C 
HETATM   11  O1  UNL     1      11.957 -12.075  20.685  1.00  0.00    -0.224 OA
HETATM   12  O2  UNL     1      13.572 -11.645  22.449  1.00  0.00    -0.224 OA
ENDBRANCH   5   9
BRANCH   7  13
HETATM   13  C8  UNL     1      17.376 -12.635  21.067  1.00  0.00     0.229 C 
HETATM   14  O3  UNL     1      18.378 -11.923  20.782  1.00  0.00    -0.273 OA
HETATM   15  N2  UNL     1      17.019 -12.674  22.438  1.00  0.00    -0.301 N 
HETATM   16  C9  UNL     1      17.737 -13.330  23.274  1.00  0.00     0.190 C 
ATOM     17  H2  UNL     1      16.189 -12.177  22.761  1.00  0.00     0.171 HD
HETATM   18  N3  UNL     1      17.355 -13.346  24.631  1.00  0.00    -0.063 NA
HETATM   19  N4  UNL     1      18.881 -14.013  22.825  1.00  0.00    -0.364 N 
ATOM     20  H4  UNL     1      19.343 -13.727  21.962  1.00  0.00     0.162 HD
BRANCH  19  21
HETATM   21  C10 UNL     1      19.413 -15.156  23.617  1.00  0.00     0.122 C 
BRANCH  21  22
HETATM   22  C11 UNL     1      20.786 -14.741  24.028  1.00  0.00     0.020 C 
BRANCH  22  23
HETATM   23  C12 UNL     1      21.293 -13.429  23.596  1.00  0.00     0.012 C 
BRANCH  23  24
HETATM   24  C13 UNL     1      21.957 -12.566  24.611  1.00  0.00     0.085 C 
HETATM   25 BR1  UNL     1      20.802 -12.166  26.085  1.00  0.00    -0.097 Br
ENDBRANCH  23  24
ENDBRANCH  22  23
ENDBRANCH  21  22
ENDBRANCH  19  21
ENDBRANCH   7  13
TORSDOF 6
ENDMDL
MODEL 3
REMARK VINA RESULT: -6.344374826      2.350      3.288
REMARK  6 active torsions:
REMARK  status: ('A' for Active; 'I' for Inactive)
REMARK    1  A    between atoms: C4_5  and  S1_6 
REMARK    2  A    between atoms: C7_11  and  C8_12 
REMARK       I    between atoms: C8_12  and  N2_14 
REMARK       I    between atoms: C9_16  and  N4_18 
REMARK    3  A    between atoms: N4_18  and  C10_20 
REMARK    4  A    between atoms: C10_20  and  C11_21 
REMARK    5  A    between atoms: C11_21  and  C12_22 
REMARK    6  A    between atoms: C12_22  and  C13_23 
ROOT
HETATM    1  C1  UNL     1      12.820 -15.660  18.634  1.00  0.00     0.221 C 
HETATM    2  N1  UNL     1      13.503 -14.945  19.248  1.00  0.00    -0.461 NA
HETATM    3  C2  UNL     1      14.345 -14.082  19.992  1.00  0.00     0.197 A 
HETATM    4  C3  UNL     1      15.140 -14.920  20.944  1.00  0.00    -0.028 A 
HETATM    5  C4  UNL     1      14.834 -15.761  21.928  1.00  0.00     0.115 C 
HETATM    6  C6  UNL     1      16.435 -14.462  20.382  1.00  0.00     0.040 A 
HETATM    7  C7  UNL     1      16.657 -13.020  20.107  1.00  0.00     0.095 A 
HETATM    8  C14 UNL     1      15.615 -13.694  19.323  1.00  0.00     0.049 A 
ENDROOT
BRANCH   5   9
HETATM    9  S1  UNL     1      16.070 -16.579  22.846  1.00  0.00     0.162 S 
HETATM   10  C5  UNL     1      15.395 -17.584  24.132  1.00  0.00     0.166 C 
HETATM   11  O1  UNL     1      16.897 -17.425  21.946  1.00  0.00    -0.224 OA
HETATM   12  O2  UNL     1      16.994 -15.569  23.511  1.00  0.00    -0.224 OA
ENDBRANCH   5   9
BRANCH   7  13
HETATM   13  C8  UNL     1      16.363 -12.110  21.217  1.00  0.00     0.229 C 
HETATM   14  O3  UNL     1      16.467 -12.407  22.439  1.00  0.00    -0.273 OA
HETATM   15  N2  UNL     1      15.926 -10.790  20.940  1.00  0.00    -0.301 N 
HETATM   16  C9  UNL     1      14.703 -10.460  21.136  1.00  0.00     0.190 C 
ATOM     17  H2  UNL     1      16.588 -10.101  20.585  1.00  0.00     0.171 HD
HETATM   18  N3  UNL     1      14.303  -9.138  20.853  1.00  0.00    -0.063 NA
HETATM   19  N4  UNL     1      13.793 -11.412  21.627  1.00  0.00    -0.364 N 
ATOM     20  H4  UNL     1      14.130 -12.222  22.149  1.00  0.00     0.162 HD
BRANCH  19  21
HETATM   21  C10 UNL     1      12.336 -11.234  21.381  1.00  0.00     0.122 C 
BRANCH  21  22
HETATM   22  C11 UNL     1      11.768 -10.804  22.692  1.00  0.00     0.020 C 
BRANCH  22  23
HETATM   23  C12 UNL     1      11.630  -9.366  22.971  1.00  0.00     0.012 C 
BRANCH  23  24
HETATM   24  C13 UNL     1      11.258  -8.953  24.352  1.00  0.00     0.085 C 
HETATM   25 BR1  UNL     1      11.814  -7.164  24.746  1.00  0.00    -0.097 Br
ENDBRANCH  23  24
ENDBRANCH  22  23
ENDBRANCH  21  22
ENDBRANCH  19  21
ENDBRANCH   7  13
TORSDOF 6
ENDMDL
MODEL 4
REMARK VINA RESULT: -6.300089939      3.623      6.075
REMARK  6 active torsions:
REMARK  status: ('A' for Active; 'I' for Inactive)
REMARK    1  A    between atoms: C4_5  and  S1_6 
REMARK    2  A    between atoms: C7_11  and  C8_12 
REMARK       I    between atoms: C8_12  and  N2_14 
REMARK       I    between atoms: C9_16  and  N4_18 
REMARK    3  A    between atoms: N4_18  and  C10_20 
REMARK    4  A    between atoms: C10_20  and  C11_21 
REMARK    5  A    between atoms: C11_21  and  C12_22 
REMARK    6  A    between atoms: C12_22  and  C13_23 
ROOT
HETATM    1  C1  UNL     1      18.323 -11.396  19.382  1.00  0.00     0.221 C 
HETATM    2  N1  UNL     1      17.401 -12.010  19.741  1.00  0.00    -0.461 NA
HETATM    3  C2  UNL     1      16.273 -12.751  20.170  1.00  0.00     0.197 A 
HETATM    4  C3  UNL     1      15.159 -11.786  20.436  1.00  0.00    -0.028 A 
HETATM    5  C4  UNL     1      15.003 -10.742  21.244  1.00  0.00     0.115 C 
HETATM    6  C6  UNL     1      14.263 -12.432  19.445  1.00  0.00     0.040 A 
HETATM    7  C7  UNL     1      14.135 -13.911  19.412  1.00  0.00     0.095 A 
HETATM    8  C14 UNL     1      15.451 -13.349  19.084  1.00  0.00     0.049 A 
ENDROOT
BRANCH   5   9
HETATM    9  S1  UNL     1      13.517  -9.831  21.280  1.00  0.00     0.162 S 
HETATM   10  C5  UNL     1      12.141 -10.813  21.796  1.00  0.00     0.166 C 
HETATM   11  O1  UNL     1      13.655  -8.664  22.190  1.00  0.00    -0.224 OA
HETATM   12  O2  UNL     1      13.185  -9.300  19.892  1.00  0.00    -0.224 OA
ENDBRANCH   5   9
BRANCH   7  13
HETATM   13  C8  UNL     1      13.834 -14.550  20.696  1.00  0.00     0.229 C 
HETATM   14  O3  UNL     1      13.146 -14.029  21.617  1.00  0.00    -0.273 OA
HETATM   15  N2  UNL     1      14.333 -15.850  20.962  1.00  0.00    -0.301 N 
HETATM   16  C9  UNL     1      15.298 -16.014  21.791  1.00  0.00     0.190 C 
ATOM     17  H2  UNL     1      13.923 -16.657  20.493  1.00  0.00     0.171 HD
HETATM   18  N3  UNL     1      15.768 -17.320  22.034  1.00  0.00    -0.063 NA
HETATM   19  N4  UNL     1      15.860 -14.899  22.436  1.00  0.00    -0.364 N 
ATOM     20  H4  UNL     1      15.321 -14.039  22.538  1.00  0.00     0.162 HD
BRANCH  19  21
HETATM   21  C10 UNL     1      17.248 -14.980  22.969  1.00  0.00     0.122 C 
BRANCH  21  22
HETATM   22  C11 UNL     1      17.503 -13.650  23.597  1.00  0.00     0.020 C 
BRANCH  22  23
HETATM   23  C12 UNL     1      18.533 -13.543  24.643  1.00  0.00     0.012 C 
BRANCH  23  24
HETATM   24  C13 UNL     1      19.828 -12.901  24.287  1.00  0.00     0.085 C 
HETATM   25 BR1  UNL     1      20.709 -12.154  25.814  1.00  0.00    -0.097 Br
ENDBRANCH  23  24
ENDBRANCH  22  23
ENDBRANCH  21  22
ENDBRANCH  19  21
ENDBRANCH   7  13
TORSDOF 6
ENDMDL
MODEL 5
REMARK VINA RESULT: -6.209834012      3.501      6.031
REMARK  6 active torsions:
REMARK  status: ('A' for Active; 'I' for Inactive)
REMARK    1  A    between atoms: C4_5  and  S1_6 
REMARK    2  A    between atoms: C7_11  and  C8_12 
REMARK       I    between atoms: C8_12  and  N2_14 
REMARK       I    between atoms: C9_16  and  N4_18 
REMARK    3  A    between atoms: N4_18  and  C10_20 
REMARK    4  A    between atoms: C10_20  and  C11_21 
REMARK    5  A    between atoms: C11_21  and  C12_22 
REMARK    6  A    between atoms: C12_22  and  C13_23 
ROOT
HETATM    1  C1  UNL     1      18.688 -11.156  20.504  1.00  0.00     0.221 C 
HETATM    2  N1  UNL     1      17.807 -11.906  20.634  1.00  0.00    -0.461 NA
HETATM    3  C2  UNL     1      16.729 -12.813  20.783  1.00  0.00     0.197 A 
HETATM    4  C3  UNL     1      15.453 -12.034  20.697  1.00  0.00    -0.028 A 
HETATM    5  C4  UNL     1      14.930 -11.022  21.382  1.00  0.00     0.115 C 
HETATM    6  C6  UNL     1      14.965 -12.819  19.536  1.00  0.00     0.040 A 
HETATM    7  C7  UNL     1      15.074 -14.300  19.542  1.00  0.00     0.095 A 
HETATM    8  C14 UNL     1      16.331 -13.540  19.548  1.00  0.00     0.049 A 
ENDROOT
BRANCH   5   9
HETATM    9  S1  UNL     1      13.370 -10.357  20.977  1.00  0.00     0.162 S 
HETATM   10  C5  UNL     1      12.782  -9.229  22.203  1.00  0.00     0.166 C 
HETATM   11  O1  UNL     1      13.438  -9.662  19.664  1.00  0.00    -0.224 OA
HETATM   12  O2  UNL     1      12.333 -11.465  20.862  1.00  0.00    -0.224 OA
ENDBRANCH   5   9
BRANCH   7  13
HETATM   13  C8  UNL     1      14.537 -14.971  20.729  1.00  0.00     0.229 C 
HETATM   14  O3  UNL     1      13.650 -14.491  21.488  1.00  0.00    -0.273 OA
HETATM   15  N2  UNL     1      15.022 -16.253  21.085  1.00  0.00    -0.301 N 
HETATM   16  C9  UNL     1      15.798 -16.393  22.097  1.00  0.00     0.190 C 
ATOM     17  H2  UNL     1      14.754 -17.069  20.534  1.00  0.00     0.171 HD
HETATM   18  N3  UNL     1      16.260 -17.684  22.424  1.00  0.00    -0.063 NA
HETATM   19  N4  UNL     1      16.166 -15.268  22.854  1.00  0.00    -0.364 N 
ATOM     20  H4  UNL     1      15.582 -14.431  22.846  1.00  0.00     0.162 HD
BRANCH  19  21
HETATM   21  C10 UNL     1      17.413 -15.303  23.666  1.00  0.00     0.122 C 
BRANCH  21  22
HETATM   22  C11 UNL     1      17.594 -13.908  24.165  1.00  0.00     0.020 C 
BRANCH  22  23
HETATM   23  C12 UNL     1      18.696 -13.622  25.096  1.00  0.00     0.012 C 
BRANCH  23  24
HETATM   24  C13 UNL     1      19.833 -12.796  24.603  1.00  0.00     0.085 C 
HETATM   25 BR1  UNL     1      20.873 -12.069  26.037  1.00  0.00    -0.097 Br
ENDBRANCH  23  24
ENDBRANCH  22  23
ENDBRANCH  21  22
ENDBRANCH  19  21
ENDBRANCH   7  13
TORSDOF 6
ENDMDL
