MODEL 1
REMARK VINA RESULT: -6.039257950      0.000      0.000
REMARK  0 active torsions:
REMARK  status: ('A' for Active; 'I' for Inactive)
ROOT
HETATM    1  N1  UNL     1       6.009 -20.228   8.305  1.00  0.00    -0.374 N 
ATOM      2  H11 UNL     1       5.831 -21.229   8.221  1.00  0.00     0.158 HD
ATOM      3  H12 UNL     1       6.388 -19.690   7.525  1.00  0.00     0.158 HD
HETATM    4  C1  UNL     1       5.768 -19.593   9.392  1.00  0.00     0.175 C 
HETATM    5  O1  UNL     1       6.014 -18.215   9.507  1.00  0.00    -0.331 OA
HETATM    6  C2  UNL     1       6.174 -17.729  10.820  1.00  0.00     0.178 C 
HETATM    7  C3  UNL     1       6.337 -16.249  10.894  1.00  0.00     0.037 C 
HETATM    8  C4  UNL     1       6.343 -15.863  12.371  1.00  0.00     0.076 C 
HETATM    9  S1  UNL     1       4.955 -14.816  12.805  1.00  0.00    -0.169 SA
HETATM   10  C5  UNL     1       3.375 -15.642  12.684  1.00  0.00     0.075 C 
HETATM   11  C6  UNL     1       3.105 -16.621  13.778  1.00  0.00     0.037 C 
HETATM   12  C7  UNL     1       2.440 -17.845  13.158  1.00  0.00     0.233 C 
HETATM   13  N2  UNL     1       2.255 -18.894  14.122  1.00  0.00    -0.075 N 
ATOM     14  H21 UNL     1       1.280 -18.965  14.411  1.00  0.00     0.277 HD
ATOM     15  H22 UNL     1       2.671 -18.650  15.021  1.00  0.00     0.277 HD
HETATM   16  C8  UNL     1       2.755 -20.165  13.637  1.00  0.00     0.232 C 
HETATM   17  C9  UNL     1       1.915 -20.671  12.497  1.00  0.00     0.028 C 
HETATM   18  C10 UNL     1       2.700 -21.591  11.568  1.00  0.00     0.012 C 
HETATM   19  C11 UNL     1       3.319 -20.758  10.457  1.00  0.00     0.083 C 
HETATM   20  S2  UNL     1       5.102 -20.539  10.762  1.00  0.00    -0.087 SA
ENDROOT
TORSDOF 0
ENDMDL
MODEL 2
REMARK VINA RESULT: -5.679284870      2.516      5.756
REMARK  0 active torsions:
REMARK  status: ('A' for Active; 'I' for Inactive)
ROOT
HETATM    1  N1  UNL     1       4.638 -13.377  12.673  1.00  0.00    -0.374 N 
ATOM      2  H11 UNL     1       5.534 -12.896  12.602  1.00  0.00     0.158 HD
ATOM      3  H12 UNL     1       3.763 -12.859  12.759  1.00  0.00     0.158 HD
HETATM    4  C1  UNL     1       4.561 -14.657  12.658  1.00  0.00     0.175 C 
HETATM    5  O1  UNL     1       3.326 -15.319  12.755  1.00  0.00    -0.331 OA
HETATM    6  C2  UNL     1       3.381 -16.655  13.202  1.00  0.00     0.178 C 
HETATM    7  C3  UNL     1       2.059 -17.342  13.197  1.00  0.00     0.037 C 
HETATM    8  C4  UNL     1       2.302 -18.806  13.554  1.00  0.00     0.076 C 
HETATM    9  S1  UNL     1       1.858 -19.914  12.217  1.00  0.00    -0.169 SA
HETATM   10  C5  UNL     1       2.902 -19.745  10.776  1.00  0.00     0.075 C 
HETATM   11  C6  UNL     1       4.268 -20.323  10.932  1.00  0.00     0.037 C 
HETATM   12  C7  UNL     1       5.260 -19.366  10.280  1.00  0.00     0.233 C 
HETATM   13  N2  UNL     1       6.619 -19.783  10.491  1.00  0.00    -0.075 N 
ATOM     14  H21 UNL     1       7.017 -20.191   9.646  1.00  0.00     0.277 HD
ATOM     15  H22 UNL     1       6.666 -20.599  11.101  1.00  0.00     0.277 HD
HETATM   16  C8  UNL     1       7.442 -18.701  10.993  1.00  0.00     0.232 C 
HETATM   17  C9  UNL     1       7.627 -17.639   9.945  1.00  0.00     0.028 C 
HETATM   18  C10 UNL     1       7.897 -16.268  10.558  1.00  0.00     0.012 C 
HETATM   19  C11 UNL     1       6.574 -15.543  10.747  1.00  0.00     0.083 C 
HETATM   20  S2  UNL     1       6.098 -15.568  12.506  1.00  0.00    -0.087 SA
ENDROOT
TORSDOF 0
ENDMDL
MODEL 3
REMARK VINA RESULT: -5.407058204      2.492      4.591
REMARK  0 active torsions:
REMARK  status: ('A' for Active; 'I' for Inactive)
ROOT
HETATM    1  N1  UNL     1       6.905 -21.918  10.427  1.00  0.00    -0.374 N 
ATOM      2  H11 UNL     1       7.788 -21.772   9.938  1.00  0.00     0.158 HD
ATOM      3  H12 UNL     1       6.636 -22.840  10.772  1.00  0.00     0.158 HD
HETATM    4  C1  UNL     1       6.086 -20.954  10.634  1.00  0.00     0.175 C 
HETATM    5  O1  UNL     1       4.869 -21.156  11.308  1.00  0.00    -0.331 OA
HETATM    6  C2  UNL     1       3.869 -20.194  11.066  1.00  0.00     0.178 C 
HETATM    7  C3  UNL     1       2.634 -20.400  11.875  1.00  0.00     0.037 C 
HETATM    8  C4  UNL     1       1.716 -19.207  11.621  1.00  0.00     0.076 C 
HETATM    9  S1  UNL     1       1.430 -18.241  13.104  1.00  0.00    -0.169 SA
HETATM   10  C5  UNL     1       2.893 -17.412  13.707  1.00  0.00     0.075 C 
HETATM   11  C6  UNL     1       3.310 -16.229  12.900  1.00  0.00     0.037 C 
HETATM   12  C7  UNL     1       4.830 -16.251  12.784  1.00  0.00     0.233 C 
HETATM   13  N2  UNL     1       5.312 -15.213  11.916  1.00  0.00    -0.075 N 
ATOM     14  H21 UNL     1       5.729 -14.449  12.447  1.00  0.00     0.277 HD
ATOM     15  H22 UNL     1       4.542 -14.704  11.482  1.00  0.00     0.277 HD
HETATM   16  C8  UNL     1       6.232 -15.727  10.920  1.00  0.00     0.232 C 
HETATM   17  C9  UNL     1       7.513 -16.184  11.561  1.00  0.00     0.028 C 
HETATM   18  C10 UNL     1       8.211 -17.265  10.743  1.00  0.00     0.012 C 
HETATM   19  C11 UNL     1       7.740 -18.629  11.223  1.00  0.00     0.083 C 
HETATM   20  S2  UNL     1       6.557 -19.334  10.028  1.00  0.00    -0.087 SA
ENDROOT
TORSDOF 0
ENDMDL
MODEL 4
REMARK VINA RESULT: -5.310166802      2.149      4.442
REMARK  0 active torsions:
REMARK  status: ('A' for Active; 'I' for Inactive)
ROOT
HETATM    1  N1  UNL     1       1.783 -17.289  14.954  1.00  0.00    -0.374 N 
ATOM      2  H11 UNL     1       0.960 -17.889  15.002  1.00  0.00     0.158 HD
ATOM      3  H12 UNL     1       2.015 -16.647  15.712  1.00  0.00     0.158 HD
HETATM    4  C1  UNL     1       2.569 -17.309  13.941  1.00  0.00     0.175 C 
HETATM    5  O1  UNL     1       3.703 -16.482  13.876  1.00  0.00    -0.331 OA
HETATM    6  C2  UNL     1       4.203 -16.230  12.583  1.00  0.00     0.178 C 
HETATM    7  C3  UNL     1       5.459 -15.428  12.574  1.00  0.00     0.037 C 
HETATM    8  C4  UNL     1       5.955 -15.371  11.132  1.00  0.00     0.076 C 
HETATM    9  S1  UNL     1       7.545 -16.174  10.927  1.00  0.00    -0.169 SA
HETATM   10  C5  UNL     1       7.490 -17.940  11.190  1.00  0.00     0.075 C 
HETATM   11  C6  UNL     1       6.849 -18.709  10.084  1.00  0.00     0.037 C 
HETATM   12  C7  UNL     1       5.984 -19.798  10.708  1.00  0.00     0.233 C 
HETATM   13  N2  UNL     1       5.230 -20.512   9.715  1.00  0.00    -0.075 N 
ATOM     14  H21 UNL     1       5.626 -21.436   9.542  1.00  0.00     0.277 HD
ATOM     15  H22 UNL     1       5.358 -20.107   8.788  1.00  0.00     0.277 HD
HETATM   16  C8  UNL     1       3.825 -20.597  10.064  1.00  0.00     0.232 C 
HETATM   17  C9  UNL     1       3.625 -21.478  11.266  1.00  0.00     0.028 C 
HETATM   18  C10 UNL     1       2.362 -21.114  12.040  1.00  0.00     0.012 C 
HETATM   19  C11 UNL     1       2.717 -20.099  13.115  1.00  0.00     0.083 C 
HETATM   20  S2  UNL     1       2.161 -18.439  12.610  1.00  0.00    -0.087 SA
ENDROOT
TORSDOF 0
ENDMDL
MODEL 5
REMARK VINA RESULT: -5.295498282      2.824      5.426
REMARK  0 active torsions:
REMARK  status: ('A' for Active; 'I' for Inactive)
ROOT
HETATM    1  N1  UNL     1       6.161 -13.514  12.002  1.00  0.00    -0.374 N 
ATOM      2  H11 UNL     1       7.146 -13.271  11.895  1.00  0.00     0.158 HD
ATOM      3  H12 UNL     1       5.431 -12.804  11.948  1.00  0.00     0.158 HD
HETATM    4  C1  UNL     1       5.788 -14.723  12.210  1.00  0.00     0.175 C 
HETATM    5  O1  UNL     1       4.432 -15.057  12.357  1.00  0.00    -0.331 OA
HETATM    6  C2  UNL     1       4.169 -16.264  13.036  1.00  0.00     0.178 C 
HETATM    7  C3  UNL     1       2.723 -16.621  13.082  1.00  0.00     0.037 C 
HETATM    8  C4  UNL     1       2.614 -18.010  13.706  1.00  0.00     0.076 C 
HETATM    9  S1  UNL     1       1.938 -19.216  12.564  1.00  0.00    -0.169 SA
HETATM   10  C5  UNL     1       3.008 -19.558  11.174  1.00  0.00     0.075 C 
HETATM   11  C6  UNL     1       4.200 -20.393  11.503  1.00  0.00     0.037 C 
HETATM   12  C7  UNL     1       5.395 -19.824  10.746  1.00  0.00     0.233 C 
HETATM   13  N2  UNL     1       6.616 -20.492  11.100  1.00  0.00    -0.075 N 
ATOM     14  H21 UNL     1       6.918 -21.130  10.363  1.00  0.00     0.277 HD
ATOM     15  H22 UNL     1       6.465 -21.171  11.847  1.00  0.00     0.277 HD
HETATM   16  C8  UNL     1       7.664 -19.552  11.446  1.00  0.00     0.232 C 
HETATM   17  C9  UNL     1       8.103 -18.773  10.237  1.00  0.00     0.028 C 
HETATM   18  C10 UNL     1       8.679 -17.410  10.610  1.00  0.00     0.012 C 
HETATM   19  C11 UNL     1       7.560 -16.382  10.597  1.00  0.00     0.083 C 
HETATM   20  S2  UNL     1       7.072 -15.972  12.305  1.00  0.00    -0.087 SA
ENDROOT
TORSDOF 0
ENDMDL
