MODEL 1
REMARK VINA RESULT: -6.577579114      0.000      0.000
REMARK  2 active torsions:
REMARK  status: ('A' for Active; 'I' for Inactive)
REMARK    1  A    between atoms: C9_12  and  N2_13 
REMARK    2  A    between atoms: N2_13  and  O1_15 
ROOT
HETATM    1  C1  UNL     1     -12.054 -22.460  16.242  1.00  0.00     0.027 C 
HETATM    2  C2  UNL     1     -11.223 -22.093  17.462  1.00  0.00     0.011 C 
HETATM    3  C3  UNL     1     -11.921 -22.679  18.680  1.00  0.00     0.027 C 
HETATM    4  C4  UNL     1      -9.867 -22.723  17.378  1.00  0.00     0.021 C 
HETATM    5  C5  UNL     1      -8.989 -22.156  16.301  1.00  0.00     0.006 C 
HETATM    6  C6  UNL     1      -7.918 -21.296  16.930  1.00  0.00     0.044 C 
HETATM    7  C7  UNL     1      -7.860 -19.924  16.282  1.00  0.00     0.014 A 
HETATM    8  C8  UNL     1      -8.853 -19.114  15.877  1.00  0.00     0.096 A 
HETATM    9  N1  UNL     1      -8.511 -17.947  15.333  1.00  0.00    -0.318 N 
ATOM     10  H1  UNL     1      -9.127 -17.217  14.974  1.00  0.00     0.175 HD
HETATM   11  S1  UNL     1      -6.833 -17.956  15.375  1.00  0.00     0.007 SA
HETATM   12  C9  UNL     1      -6.580 -19.471  16.097  1.00  0.00     0.120 A 
HETATM   13  S2  UNL     1     -10.675 -19.285  15.915  1.00  0.00    -0.038 SA
HETATM   14  S3  UNL     1     -11.148 -20.302  17.709  1.00  0.00    -0.082 SA
ENDROOT
BRANCH  12  15
HETATM   15  N2  UNL     1      -5.461 -20.080  16.411  1.00  0.00    -0.261 N 
ATOM     16  H2  UNL     1      -5.163 -20.191  17.380  1.00  0.00     0.195 HD
BRANCH  15  17
HETATM   17  O1  UNL     1      -4.707 -20.564  15.356  1.00  0.00    -0.289 OA
ATOM     18  H1  UNL     1      -3.810 -20.256  15.303  1.00  0.00     0.244 HD
ENDBRANCH  15  17
ENDBRANCH  12  15
TORSDOF 2
ENDMDL
MODEL 2
REMARK VINA RESULT: -6.290776862      3.696      6.010
REMARK  2 active torsions:
REMARK  status: ('A' for Active; 'I' for Inactive)
REMARK    1  A    between atoms: C9_12  and  N2_13 
REMARK    2  A    between atoms: N2_13  and  O1_15 
ROOT
HETATM    1  C1  UNL     1      -4.665 -22.585  12.019  1.00  0.00     0.027 C 
HETATM    2  C2  UNL     1      -3.993 -21.442  12.765  1.00  0.00     0.011 C 
HETATM    3  C3  UNL     1      -2.506 -21.507  12.453  1.00  0.00     0.027 C 
HETATM    4  C4  UNL     1      -4.498 -20.124  12.266  1.00  0.00     0.021 C 
HETATM    5  C5  UNL     1      -5.930 -19.839  12.613  1.00  0.00     0.006 C 
HETATM    6  C6  UNL     1      -5.981 -18.794  13.703  1.00  0.00     0.044 C 
HETATM    7  C7  UNL     1      -6.855 -19.245  14.860  1.00  0.00     0.014 A 
HETATM    8  C8  UNL     1      -6.971 -20.452  15.441  1.00  0.00     0.096 A 
HETATM    9  N1  UNL     1      -7.828 -20.567  16.454  1.00  0.00    -0.318 N 
ATOM     10  H1  UNL     1      -8.041 -21.399  17.005  1.00  0.00     0.175 HD
HETATM   11  S1  UNL     1      -8.476 -19.027  16.614  1.00  0.00     0.007 SA
HETATM   12  C9  UNL     1      -7.635 -18.240  15.368  1.00  0.00     0.120 A 
HETATM   13  S2  UNL     1      -6.155 -22.059  15.116  1.00  0.00    -0.038 SA
HETATM   14  S3  UNL     1      -4.162 -21.621  14.558  1.00  0.00    -0.082 SA
ENDROOT
BRANCH  12  15
HETATM   15  N2  UNL     1      -7.692 -16.991  14.969  1.00  0.00    -0.261 N 
ATOM     16  H2  UNL     1      -8.445 -16.652  14.370  1.00  0.00     0.195 HD
BRANCH  15  17
HETATM   17  O1  UNL     1      -6.676 -16.159  15.405  1.00  0.00    -0.289 OA
ATOM     18  H1  UNL     1      -6.277 -15.601  14.747  1.00  0.00     0.244 HD
ENDBRANCH  15  17
ENDBRANCH  12  15
TORSDOF 2
ENDMDL
MODEL 3
REMARK VINA RESULT: -6.015573971      3.450      5.600
REMARK  2 active torsions:
REMARK  status: ('A' for Active; 'I' for Inactive)
REMARK    1  A    between atoms: C9_12  and  N2_13 
REMARK    2  A    between atoms: N2_13  and  O1_15 
ROOT
HETATM    1  C1  UNL     1      -3.032 -21.160  13.420  1.00  0.00     0.027 C 
HETATM    2  C2  UNL     1      -4.434 -21.605  13.035  1.00  0.00     0.011 C 
HETATM    3  C3  UNL     1      -4.294 -22.662  11.950  1.00  0.00     0.027 C 
HETATM    4  C4  UNL     1      -5.116 -22.249  14.201  1.00  0.00     0.021 C 
HETATM    5  C5  UNL     1      -5.454 -21.305  15.318  1.00  0.00     0.006 C 
HETATM    6  C6  UNL     1      -6.943 -21.051  15.324  1.00  0.00     0.044 C 
HETATM    7  C7  UNL     1      -7.249 -19.563  15.340  1.00  0.00     0.014 A 
HETATM    8  C8  UNL     1      -6.660 -18.550  14.682  1.00  0.00     0.096 A 
HETATM    9  N1  UNL     1      -7.140 -17.324  14.886  1.00  0.00    -0.318 N 
ATOM     10  H1  UNL     1      -6.818 -16.447  14.474  1.00  0.00     0.175 HD
HETATM   11  S1  UNL     1      -8.395 -17.555  15.976  1.00  0.00     0.007 SA
HETATM   12  C9  UNL     1      -8.294 -19.238  16.164  1.00  0.00     0.120 A 
HETATM   13  S2  UNL     1      -5.262 -18.494  13.502  1.00  0.00    -0.038 SA
HETATM   14  S3  UNL     1      -5.397 -20.247  12.325  1.00  0.00    -0.082 SA
ENDROOT
BRANCH  12  15
HETATM   15  N2  UNL     1      -9.016 -20.050  16.900  1.00  0.00    -0.261 N 
ATOM     16  H2  UNL     1      -8.670 -20.429  17.782  1.00  0.00     0.195 HD
BRANCH  15  17
HETATM   17  O1  UNL     1     -10.273 -20.366  16.414  1.00  0.00    -0.289 OA
ATOM     18  H1  UNL     1     -10.920 -20.631  17.058  1.00  0.00     0.244 HD
ENDBRANCH  15  17
ENDBRANCH  12  15
TORSDOF 2
ENDMDL
MODEL 4
REMARK VINA RESULT: -5.863940393      3.681      5.937
REMARK  2 active torsions:
REMARK  status: ('A' for Active; 'I' for Inactive)
REMARK    1  A    between atoms: C9_12  and  N2_13 
REMARK    2  A    between atoms: N2_13  and  O1_15 
ROOT
HETATM    1  C1  UNL     1      -2.801 -20.535  12.678  1.00  0.00     0.027 C 
HETATM    2  C2  UNL     1      -3.907 -21.570  12.546  1.00  0.00     0.011 C 
HETATM    3  C3  UNL     1      -3.478 -22.560  11.473  1.00  0.00     0.027 C 
HETATM    4  C4  UNL     1      -4.063 -22.334  13.823  1.00  0.00     0.021 C 
HETATM    5  C5  UNL     1      -4.613 -21.527  14.963  1.00  0.00     0.006 C 
HETATM    6  C6  UNL     1      -6.046 -21.934  15.217  1.00  0.00     0.044 C 
HETATM    7  C7  UNL     1      -6.965 -20.725  15.257  1.00  0.00     0.014 A 
HETATM    8  C8  UNL     1      -6.979 -19.622  14.488  1.00  0.00     0.096 A 
HETATM    9  N1  UNL     1      -7.911 -18.705  14.747  1.00  0.00    -0.318 N 
ATOM     10  H1  UNL     1      -8.068 -17.817  14.270  1.00  0.00     0.175 HD
HETATM   11  S1  UNL     1      -8.767 -19.350  16.039  1.00  0.00     0.007 SA
HETATM   12  C9  UNL     1      -7.915 -20.804  16.240  1.00  0.00     0.120 A 
HETATM   13  S2  UNL     1      -5.933 -19.083  13.086  1.00  0.00    -0.038 SA
HETATM   14  S3  UNL     1      -5.458 -20.825  11.984  1.00  0.00    -0.082 SA
ENDROOT
BRANCH  12  15
HETATM   15  N2  UNL     1      -8.095 -21.775  17.103  1.00  0.00    -0.261 N 
ATOM     16  H2  UNL     1      -7.571 -21.823  17.977  1.00  0.00     0.195 HD
BRANCH  15  17
HETATM   17  O1  UNL     1      -9.036 -22.733  16.764  1.00  0.00    -0.289 OA
ATOM     18  H1  UNL     1      -9.087 -23.494  17.331  1.00  0.00     0.244 HD
ENDBRANCH  15  17
ENDBRANCH  12  15
TORSDOF 2
ENDMDL
MODEL 5
REMARK VINA RESULT: -5.720828270      2.893      3.625
REMARK  2 active torsions:
REMARK  status: ('A' for Active; 'I' for Inactive)
REMARK    1  A    between atoms: C9_12  and  N2_13 
REMARK    2  A    between atoms: N2_13  and  O1_15 
ROOT
HETATM    1  C1  UNL     1     -10.208 -19.150  18.211  1.00  0.00     0.027 C 
HETATM    2  C2  UNL     1     -10.226 -19.078  16.691  1.00  0.00     0.011 C 
HETATM    3  C3  UNL     1     -11.584 -18.529  16.279  1.00  0.00     0.027 C 
HETATM    4  C4  UNL     1      -9.188 -18.118  16.202  1.00  0.00     0.021 C 
HETATM    5  C5  UNL     1      -7.774 -18.577  16.411  1.00  0.00     0.006 C 
HETATM    6  C6  UNL     1      -7.184 -18.997  15.085  1.00  0.00     0.044 C 
HETATM    7  C7  UNL     1      -6.567 -20.382  15.170  1.00  0.00     0.014 A 
HETATM    8  C8  UNL     1      -7.003 -21.489  15.797  1.00  0.00     0.096 A 
HETATM    9  N1  UNL     1      -6.250 -22.584  15.704  1.00  0.00    -0.318 N 
ATOM     10  H1  UNL     1      -6.426 -23.503  16.112  1.00  0.00     0.175 HD
HETATM   11  S1  UNL     1      -4.948 -22.103  14.761  1.00  0.00     0.007 SA
HETATM   12  C9  UNL     1      -5.382 -20.485  14.490  1.00  0.00     0.120 A 
HETATM   13  S2  UNL     1      -8.492 -21.827  16.806  1.00  0.00    -0.038 SA
HETATM   14  S3  UNL     1     -10.072 -20.717  15.941  1.00  0.00    -0.082 SA
ENDROOT
BRANCH  12  15
HETATM   15  N2  UNL     1      -4.766 -19.548  13.809  1.00  0.00    -0.261 N 
ATOM     16  H2  UNL     1      -4.281 -18.779  14.270  1.00  0.00     0.195 HD
BRANCH  15  17
HETATM   17  O1  UNL     1      -4.809 -19.661  12.430  1.00  0.00    -0.289 OA
ATOM     18  H1  UNL     1      -3.987 -19.534  11.970  1.00  0.00     0.244 HD
ENDBRANCH  15  17
ENDBRANCH  12  15
TORSDOF 2
ENDMDL
