MODEL 1
REMARK VINA RESULT: -8.004739017      0.000      0.000
REMARK  7 active torsions:
REMARK  status: ('A' for Active; 'I' for Inactive)
REMARK    1  A    between atoms: C4_9  and  C5_10 
REMARK    2  A    between atoms: C5_10  and  S1_11 
REMARK    3  A    between atoms: S1_11  and  C6_12 
REMARK    4  A    between atoms: S1_11  and  C10_18 
REMARK    5  A    between atoms: C6_12  and  C7_13 
REMARK    6  A    between atoms: C7_13  and  N3_14 
REMARK    7  A    between atoms: N4_24  and  O3_25 
ROOT
HETATM    1  S1  UNL     1      15.310 -11.204  20.183  1.00  0.00    -0.161 SA
ENDROOT
BRANCH   1   2
HETATM    2  C5  UNL     1      14.112 -10.172  20.658  1.00  0.00     0.116 C 
BRANCH   2   3
HETATM    3  C4  UNL     1      13.151 -10.671  21.682  1.00  0.00     0.044 A 
HETATM    4  C2  UNL     1      12.277 -11.673  21.727  1.00  0.00     0.034 A 
HETATM    5  C1  UNL     1      12.421 -12.991  21.001  1.00  0.00     0.070 C 
HETATM    6  N1  UNL     1      11.283 -11.467  22.616  1.00  0.00    -0.302 N 
HETATM    7  N2  UNL     1      11.528 -10.298  23.178  1.00  0.00    -0.266 N 
ATOM      8  H1  UNL     1      10.500 -12.090  22.815  1.00  0.00     0.186 HD
HETATM    9  C3  UNL     1      12.662  -9.732  22.666  1.00  0.00     0.268 A 
ATOM     10  H2  UNL     1      10.946  -9.873  23.901  1.00  0.00     0.190 HD
HETATM   11  O1  UNL     1      13.143  -8.668  22.972  1.00  0.00    -0.266 OA
ENDBRANCH   2   3
ENDBRANCH   1   2
BRANCH   1  12
HETATM   12  C6  UNL     1      15.136 -12.003  18.557  1.00  0.00     0.106 C 
BRANCH  12  13
HETATM   13  C7  UNL     1      16.328 -11.537  17.732  1.00  0.00     0.320 C 
BRANCH  13  14
HETATM   14  N3  UNL     1      15.926 -11.055  16.445  1.00  0.00     0.006 N 
HETATM   15  C8  UNL     1      16.760 -10.239  15.673  1.00  0.00     0.355 C 
HETATM   16  C9  UNL     1      15.752 -12.315  15.634  1.00  0.00     0.355 C 
HETATM   17  O2  UNL     1      14.671 -10.486  16.452  1.00  0.00    -0.065 OA
ENDBRANCH  13  14
ENDBRANCH  12  13
ENDBRANCH   1  12
BRANCH   1  18
HETATM   18  C10 UNL     1      16.690 -11.693  20.951  1.00  0.00     0.089 A 
HETATM   19  C11 UNL     1      17.984 -11.334  20.517  1.00  0.00     0.040 A 
HETATM   20  C12 UNL     1      19.129 -11.781  21.073  1.00  0.00     0.023 A 
HETATM   21  C13 UNL     1      19.075 -12.650  22.139  1.00  0.00     0.029 A 
HETATM   22 BR1  UNL     1      20.679 -13.350  22.934  1.00  0.00    -0.050 Br
HETATM   23  C14 UNL     1      17.839 -13.010  22.578  1.00  0.00     0.143 A 
HETATM   24  N4  UNL     1      16.708 -12.538  21.988  1.00  0.00    -0.229 N 
BRANCH  24  25
HETATM   25  O3  UNL     1      15.521 -13.017  22.508  1.00  0.00    -0.282 OA
ATOM     26  H3  UNL     1      15.209 -13.880  22.262  1.00  0.00     0.245 HD
ENDBRANCH  24  25
ENDBRANCH   1  18
TORSDOF 7
ENDMDL
MODEL 2
REMARK VINA RESULT: -7.923343906      1.220      1.430
REMARK  7 active torsions:
REMARK  status: ('A' for Active; 'I' for Inactive)
REMARK    1  A    between atoms: C4_9  and  C5_10 
REMARK    2  A    between atoms: C5_10  and  S1_11 
REMARK    3  A    between atoms: S1_11  and  C6_12 
REMARK    4  A    between atoms: S1_11  and  C10_18 
REMARK    5  A    between atoms: C6_12  and  C7_13 
REMARK    6  A    between atoms: C7_13  and  N3_14 
REMARK    7  A    between atoms: N4_24  and  O3_25 
ROOT
HETATM    1  S1  UNL     1      15.186 -11.368  20.162  1.00  0.00    -0.161 SA
ENDROOT
BRANCH   1   2
HETATM    2  C5  UNL     1      14.324 -10.224  20.983  1.00  0.00     0.116 C 
BRANCH   2   3
HETATM    3  C4  UNL     1      13.260 -10.707  21.907  1.00  0.00     0.044 A 
HETATM    4  C2  UNL     1      12.413 -11.734  21.894  1.00  0.00     0.034 A 
HETATM    5  C1  UNL     1      12.679 -13.077  21.255  1.00  0.00     0.070 C 
HETATM    6  N1  UNL     1      11.314 -11.521  22.646  1.00  0.00    -0.302 N 
HETATM    7  N2  UNL     1      11.457 -10.321  23.177  1.00  0.00    -0.266 N 
ATOM      8  H1  UNL     1      10.528 -12.159  22.779  1.00  0.00     0.186 HD
HETATM    9  C3  UNL     1      12.630  -9.742  22.779  1.00  0.00     0.268 A 
ATOM     10  H2  UNL     1      10.781  -9.883  23.804  1.00  0.00     0.190 HD
HETATM   11  O1  UNL     1      13.042  -8.650  23.089  1.00  0.00    -0.266 OA
ENDBRANCH   2   3
ENDBRANCH   1   2
BRANCH   1  12
HETATM   12  C6  UNL     1      14.731 -11.680  18.428  1.00  0.00     0.106 C 
BRANCH  12  13
HETATM   13  C7  UNL     1      16.040 -11.712  17.651  1.00  0.00     0.320 C 
BRANCH  13  14
HETATM   14  N3  UNL     1      15.910 -11.092  16.366  1.00  0.00     0.006 N 
HETATM   15  C8  UNL     1      16.938 -10.319  15.816  1.00  0.00     0.355 C 
HETATM   16  C9  UNL     1      15.753 -12.260  15.425  1.00  0.00     0.355 C 
HETATM   17  O2  UNL     1      14.733 -10.389  16.226  1.00  0.00    -0.065 OA
ENDBRANCH  13  14
ENDBRANCH  12  13
ENDBRANCH   1  12
BRANCH   1  18
HETATM   18  C10 UNL     1      16.426 -12.350  20.647  1.00  0.00     0.089 A 
HETATM   19  C11 UNL     1      16.282 -13.742  20.826  1.00  0.00     0.040 A 
HETATM   20  C12 UNL     1      17.250 -14.556  21.297  1.00  0.00     0.023 A 
HETATM   21  C13 UNL     1      18.475 -14.031  21.638  1.00  0.00     0.029 A 
HETATM   22 BR1  UNL     1      19.868 -15.144  22.357  1.00  0.00    -0.050 Br
HETATM   23  C14 UNL     1      18.640 -12.692  21.472  1.00  0.00     0.143 A 
HETATM   24  N4  UNL     1      17.637 -11.904  20.997  1.00  0.00    -0.229 N 
BRANCH  24  25
HETATM   25  O3  UNL     1      17.926 -10.556  20.917  1.00  0.00    -0.282 OA
ATOM     26  H3  UNL     1      17.922 -10.119  20.074  1.00  0.00     0.245 HD
ENDBRANCH  24  25
ENDBRANCH   1  18
TORSDOF 7
ENDMDL
MODEL 3
REMARK VINA RESULT: -7.839002348      1.985      2.297
REMARK  7 active torsions:
REMARK  status: ('A' for Active; 'I' for Inactive)
REMARK    1  A    between atoms: C4_9  and  C5_10 
REMARK    2  A    between atoms: C5_10  and  S1_11 
REMARK    3  A    between atoms: S1_11  and  C6_12 
REMARK    4  A    between atoms: S1_11  and  C10_18 
REMARK    5  A    between atoms: C6_12  and  C7_13 
REMARK    6  A    between atoms: C7_13  and  N3_14 
REMARK    7  A    between atoms: N4_24  and  O3_25 
ROOT
HETATM    1  S1  UNL     1      14.584 -10.595  20.671  1.00  0.00    -0.161 SA
ENDROOT
BRANCH   1   2
HETATM    2  C5  UNL     1      13.693  -9.378  21.342  1.00  0.00     0.116 C 
BRANCH   2   3
HETATM    3  C4  UNL     1      12.830  -9.729  22.505  1.00  0.00     0.044 A 
HETATM    4  C2  UNL     1      11.868 -10.625  22.712  1.00  0.00     0.034 A 
HETATM    5  C1  UNL     1      11.776 -11.977  22.043  1.00  0.00     0.070 C 
HETATM    6  N1  UNL     1      11.029 -10.278  23.710  1.00  0.00    -0.302 N 
HETATM    7  N2  UNL     1      11.468  -9.123  24.175  1.00  0.00    -0.266 N 
ATOM      8  H1  UNL     1      10.218 -10.802  24.039  1.00  0.00     0.186 HD
HETATM    9  C3  UNL     1      12.577  -8.706  23.494  1.00  0.00     0.268 A 
ATOM     10  H2  UNL     1      11.035  -8.610  24.944  1.00  0.00     0.190 HD
HETATM   11  O1  UNL     1      13.203  -7.690  23.681  1.00  0.00    -0.266 OA
ENDBRANCH   2   3
ENDBRANCH   1   2
BRANCH   1  12
HETATM   12  C6  UNL     1      13.923 -11.396  19.176  1.00  0.00     0.106 C 
BRANCH  12  13
HETATM   13  C7  UNL     1      14.954 -12.439  18.768  1.00  0.00     0.320 C 
BRANCH  13  14
HETATM   14  N3  UNL     1      14.464 -13.771  18.954  1.00  0.00     0.006 N 
HETATM   15  C8  UNL     1      13.136 -14.022  19.315  1.00  0.00     0.355 C 
HETATM   16  C9  UNL     1      14.625 -14.399  17.592  1.00  0.00     0.355 C 
HETATM   17  O2  UNL     1      15.273 -14.532  19.770  1.00  0.00    -0.065 OA
ENDBRANCH  13  14
ENDBRANCH  12  13
ENDBRANCH   1  12
BRANCH   1  18
HETATM   18  C10 UNL     1      16.018 -11.275  21.136  1.00  0.00     0.089 A 
HETATM   19  C11 UNL     1      17.271 -10.840  20.653  1.00  0.00     0.040 A 
HETATM   20  C12 UNL     1      18.450 -11.425  20.950  1.00  0.00     0.023 A 
HETATM   21  C13 UNL     1      18.476 -12.524  21.778  1.00  0.00     0.029 A 
HETATM   22 BR1  UNL     1      20.126 -13.419  22.192  1.00  0.00    -0.050 Br
HETATM   23  C14 UNL     1      17.281 -12.962  22.258  1.00  0.00     0.143 A 
HETATM   24  N4  UNL     1      16.113 -12.346  21.932  1.00  0.00    -0.229 N 
BRANCH  24  25
HETATM   25  O3  UNL     1      14.971 -12.919  22.456  1.00  0.00    -0.282 OA
ATOM     26  H3  UNL     1      14.988 -13.297  23.328  1.00  0.00     0.245 HD
ENDBRANCH  24  25
ENDBRANCH   1  18
TORSDOF 7
ENDMDL
MODEL 4
REMARK VINA RESULT: -7.752459924      2.569      3.846
REMARK  7 active torsions:
REMARK  status: ('A' for Active; 'I' for Inactive)
REMARK    1  A    between atoms: C4_9  and  C5_10 
REMARK    2  A    between atoms: C5_10  and  S1_11 
REMARK    3  A    between atoms: S1_11  and  C6_12 
REMARK    4  A    between atoms: S1_11  and  C10_18 
REMARK    5  A    between atoms: C6_12  and  C7_13 
REMARK    6  A    between atoms: C7_13  and  N3_14 
REMARK    7  A    between atoms: N4_24  and  O3_25 
ROOT
HETATM    1  S1  UNL     1      13.769 -12.501  20.817  1.00  0.00    -0.161 SA
ENDROOT
BRANCH   1   2
HETATM    2  C5  UNL     1      12.523 -11.449  21.076  1.00  0.00     0.116 C 
BRANCH   2   3
HETATM    3  C4  UNL     1      12.694 -10.445  22.164  1.00  0.00     0.044 A 
HETATM    4  C2  UNL     1      12.011 -10.141  23.264  1.00  0.00     0.034 A 
HETATM    5  C1  UNL     1      11.198 -11.116  24.085  1.00  0.00     0.070 C 
HETATM    6  N1  UNL     1      12.223  -8.877  23.685  1.00  0.00    -0.302 N 
HETATM    7  N2  UNL     1      13.084  -8.346  22.837  1.00  0.00    -0.266 N 
ATOM      8  H1  UNL     1      11.802  -8.422  24.496  1.00  0.00     0.186 HD
HETATM    9  C3  UNL     1      13.433  -9.240  21.864  1.00  0.00     0.268 A 
ATOM     10  H2  UNL     1      13.442  -7.392  22.900  1.00  0.00     0.190 HD
HETATM   11  O1  UNL     1      14.195  -9.052  20.945  1.00  0.00    -0.266 OA
ENDBRANCH   2   3
ENDBRANCH   1   2
BRANCH   1  12
HETATM   12  C6  UNL     1      13.373 -14.276  20.757  1.00  0.00     0.106 C 
BRANCH  12  13
HETATM   13  C7  UNL     1      12.578 -14.484  19.476  1.00  0.00     0.320 C 
BRANCH  13  14
HETATM   14  N3  UNL     1      12.091 -15.826  19.366  1.00  0.00     0.006 N 
HETATM   15  C8  UNL     1      11.075 -16.168  18.467  1.00  0.00     0.355 C 
HETATM   16  C9  UNL     1      13.299 -16.604  18.906  1.00  0.00     0.355 C 
HETATM   17  O2  UNL     1      11.778 -16.385  20.587  1.00  0.00    -0.065 OA
ENDBRANCH  13  14
ENDBRANCH  12  13
ENDBRANCH   1  12
BRANCH   1  18
HETATM   18  C10 UNL     1      15.390 -12.236  20.620  1.00  0.00     0.089 A 
HETATM   19  C11 UNL     1      15.965 -11.853  19.390  1.00  0.00     0.040 A 
HETATM   20  C12 UNL     1      17.289 -11.708  19.176  1.00  0.00     0.023 A 
HETATM   21  C13 UNL     1      18.174 -11.941  20.204  1.00  0.00     0.029 A 
HETATM   22 BR1  UNL     1      20.072 -11.794  19.935  1.00  0.00    -0.050 Br
HETATM   23  C14 UNL     1      17.645 -12.310  21.401  1.00  0.00     0.143 A 
HETATM   24  N4  UNL     1      16.303 -12.448  21.574  1.00  0.00    -0.229 N 
BRANCH  24  25
HETATM   25  O3  UNL     1      15.904 -12.867  22.828  1.00  0.00    -0.282 OA
ATOM     26  H3  UNL     1      16.505 -12.806  23.562  1.00  0.00     0.245 HD
ENDBRANCH  24  25
ENDBRANCH   1  18
TORSDOF 7
ENDMDL
MODEL 5
REMARK VINA RESULT: -7.707543107      1.866      2.520
REMARK  7 active torsions:
REMARK  status: ('A' for Active; 'I' for Inactive)
REMARK    1  A    between atoms: C4_9  and  C5_10 
REMARK    2  A    between atoms: C5_10  and  S1_11 
REMARK    3  A    between atoms: S1_11  and  C6_12 
REMARK    4  A    between atoms: S1_11  and  C10_18 
REMARK    5  A    between atoms: C6_12  and  C7_13 
REMARK    6  A    between atoms: C7_13  and  N3_14 
REMARK    7  A    between atoms: N4_24  and  O3_25 
ROOT
HETATM    1  S1  UNL     1      15.642 -11.799  19.360  1.00  0.00    -0.161 SA
ENDROOT
BRANCH   1   2
HETATM    2  C5  UNL     1      14.053 -11.353  19.398  1.00  0.00     0.116 C 
BRANCH   2   3
HETATM    3  C4  UNL     1      13.229 -11.869  20.527  1.00  0.00     0.044 A 
HETATM    4  C2  UNL     1      13.006 -11.467  21.776  1.00  0.00     0.034 A 
HETATM    5  C1  UNL     1      13.025 -10.031  22.248  1.00  0.00     0.070 C 
HETATM    6  N1  UNL     1      12.609 -12.467  22.590  1.00  0.00    -0.302 N 
HETATM    7  N2  UNL     1      12.558 -13.553  21.841  1.00  0.00    -0.266 N 
ATOM      8  H1  UNL     1      12.391 -12.398  23.585  1.00  0.00     0.186 HD
HETATM    9  C3  UNL     1      12.922 -13.281  20.552  1.00  0.00     0.268 A 
ATOM     10  H2  UNL     1      12.282 -14.475  22.181  1.00  0.00     0.190 HD
HETATM   11  O1  UNL     1      12.981 -14.064  19.634  1.00  0.00    -0.266 OA
ENDBRANCH   2   3
ENDBRANCH   1   2
BRANCH   1  12
HETATM   12  C6  UNL     1      16.552 -11.537  17.806  1.00  0.00     0.106 C 
BRANCH  12  13
HETATM   13  C7  UNL     1      15.518 -11.639  16.693  1.00  0.00     0.320 C 
BRANCH  13  14
HETATM   14  N3  UNL     1      15.725 -10.644  15.683  1.00  0.00     0.006 N 
HETATM   15  C8  UNL     1      16.938  -9.955  15.569  1.00  0.00     0.355 C 
HETATM   16  C9  UNL     1      15.591 -11.417  14.395  1.00  0.00     0.355 C 
HETATM   17  O2  UNL     1      14.707  -9.718  15.626  1.00  0.00    -0.065 OA
ENDBRANCH  13  14
ENDBRANCH  12  13
ENDBRANCH   1  12
BRANCH   1  18
HETATM   18  C10 UNL     1      16.603 -12.496  20.512  1.00  0.00     0.089 A 
HETATM   19  C11 UNL     1      16.419 -13.817  20.973  1.00  0.00     0.040 A 
HETATM   20  C12 UNL     1      17.133 -14.386  21.967  1.00  0.00     0.023 A 
HETATM   21  C13 UNL     1      18.118 -13.662  22.599  1.00  0.00     0.029 A 
HETATM   22 BR1  UNL     1      19.129 -14.414  24.051  1.00  0.00    -0.050 Br
HETATM   23  C14 UNL     1      18.316 -12.386  22.171  1.00  0.00     0.143 A 
HETATM   24  N4  UNL     1      17.572 -11.848  21.167  1.00  0.00    -0.229 N 
BRANCH  24  25
HETATM   25  O3  UNL     1      17.851 -10.531  20.860  1.00  0.00    -0.282 OA
ATOM     26  H3  UNL     1      18.616 -10.108  21.234  1.00  0.00     0.245 HD
ENDBRANCH  24  25
ENDBRANCH   1  18
TORSDOF 7
ENDMDL
