MODEL 1
REMARK VINA RESULT: -7.100106820      0.000      0.000
REMARK  7 active torsions:
REMARK  status: ('A' for Active; 'I' for Inactive)
REMARK       I    between atoms: N1_2  and  C2_4 
REMARK       I    between atoms: C2_4  and  N2_6 
REMARK    1  A    between atoms: N2_6  and  C3_7 
REMARK    2  A    between atoms: C8_12  and  C9_13 
REMARK    3  A    between atoms: C9_13  and  C10_14 
REMARK    4  A    between atoms: C10_14  and  C11_15 
REMARK    5  A    between atoms: C11_15  and  C12_17 
REMARK    6  A    between atoms: C12_17  and  N3_18 
REMARK    7  A    between atoms: C12_17  and  O2_22 
ROOT
HETATM    1  C1  UNL     1      16.636 -11.195  16.607  1.00  0.00     0.151 C 
HETATM    2  N1  UNL     1      16.807 -11.226  18.033  1.00  0.00    -0.341 N 
ATOM      3  H1  UNL     1      17.506 -10.623  18.469  1.00  0.00     0.163 HD
HETATM    4  C2  UNL     1      16.035 -12.063  18.824  1.00  0.00     0.415 C 
HETATM    5  O1  UNL     1      15.168 -12.806  18.241  1.00  0.00    -0.239 OA
HETATM    6  N2  UNL     1      16.074 -12.216  20.242  1.00  0.00     0.019 N 
HETATM    7  C6  UNL     1      16.952 -11.295  20.864  1.00  0.00     0.251 C 
HETATM    8  C7  UNL     1      18.390 -11.753  20.920  1.00  0.00     0.040 C 
HETATM    9  C8  UNL     1      18.575 -13.021  21.684  1.00  0.00    -0.007 C 
HETATM   10  C13 UNL     1      19.463 -14.022  20.977  1.00  0.00     0.039 C 
HETATM   11  C14 UNL     1      18.997 -15.326  21.613  1.00  0.00     0.238 C 
HETATM   12  N4  UNL     1      17.591 -15.167  21.893  1.00  0.00    -0.068 N 
HETATM   13  C15 UNL     1      16.870 -16.030  20.975  1.00  0.00     0.272 C 
HETATM   14  C16 UNL     1      17.246 -15.657  23.238  1.00  0.00     0.272 C 
HETATM   15  C17 UNL     1      17.265 -13.776  21.740  1.00  0.00     0.224 C 
HETATM   16  C18 UNL     1      16.541 -13.595  20.461  1.00  0.00     0.284 C 
ENDROOT
BRANCH   9  17
HETATM   17  C9  UNL     1      19.086 -12.838  23.072  1.00  0.00     0.013 C 
BRANCH  17  18
HETATM   18  C10 UNL     1      20.573 -12.880  23.215  1.00  0.00     0.021 C 
BRANCH  18  19
HETATM   19  C11 UNL     1      20.970 -13.597  24.509  1.00  0.00     0.114 C 
HETATM   20 BR1  UNL     1      20.724 -12.488  26.050  1.00  0.00    -0.087 Br
BRANCH  19  21
HETATM   21  C12 UNL     1      22.370 -14.110  24.453  1.00  0.00     0.330 C 
BRANCH  21  22
HETATM   22  N3  UNL     1      23.260 -12.964  24.458  1.00  0.00    -0.052 N 
ATOM     23  H33 UNL     1      24.125 -13.131  23.943  1.00  0.00     0.277 HD
ATOM     24  H32 UNL     1      22.913 -12.190  23.891  1.00  0.00     0.277 HD
ATOM     25  H31 UNL     1      23.423 -12.701  25.430  1.00  0.00     0.277 HD
ENDBRANCH  21  22
BRANCH  21  26
HETATM   26  O2  UNL     1      22.688 -14.970  25.487  1.00  0.00    -0.369 OA
ATOM     27  H2  UNL     1      22.947 -15.837  25.196  1.00  0.00     0.212 HD
ENDBRANCH  21  26
ENDBRANCH  19  21
ENDBRANCH  18  19
ENDBRANCH  17  18
ENDBRANCH   9  17
BRANCH   6  28
HETATM   28  C3  UNL     1      14.697 -12.109  20.638  1.00  0.00     0.194 C 
HETATM   29  C4  UNL     1      14.471 -10.831  21.418  1.00  0.00     0.041 C 
HETATM   30  C5  UNL     1      14.123 -13.233  21.394  1.00  0.00     0.041 C 
ENDBRANCH   6  28
TORSDOF 7
ENDMDL
MODEL 2
REMARK VINA RESULT: -6.893941550      3.975      6.389
REMARK  7 active torsions:
REMARK  status: ('A' for Active; 'I' for Inactive)
REMARK       I    between atoms: N1_2  and  C2_4 
REMARK       I    between atoms: C2_4  and  N2_6 
REMARK    1  A    between atoms: N2_6  and  C3_7 
REMARK    2  A    between atoms: C8_12  and  C9_13 
REMARK    3  A    between atoms: C9_13  and  C10_14 
REMARK    4  A    between atoms: C10_14  and  C11_15 
REMARK    5  A    between atoms: C11_15  and  C12_17 
REMARK    6  A    between atoms: C12_17  and  N3_18 
REMARK    7  A    between atoms: C12_17  and  O2_22 
ROOT
HETATM    1  C1  UNL     1      14.761 -16.501  16.015  1.00  0.00     0.151 C 
HETATM    2  N1  UNL     1      14.336 -15.779  17.182  1.00  0.00    -0.341 N 
ATOM      3  H1  UNL     1      13.674 -15.009  17.083  1.00  0.00     0.163 HD
HETATM    4  C2  UNL     1      14.813 -16.115  18.440  1.00  0.00     0.415 C 
HETATM    5  O1  UNL     1      15.644 -17.088  18.525  1.00  0.00    -0.239 OA
HETATM    6  N2  UNL     1      14.496 -15.509  19.692  1.00  0.00     0.019 N 
HETATM    7  C6  UNL     1      13.486 -14.524  19.577  1.00  0.00     0.251 C 
HETATM    8  C7  UNL     1      13.999 -13.152  19.207  1.00  0.00     0.040 C 
HETATM    9  C8  UNL     1      14.956 -12.591  20.204  1.00  0.00    -0.007 C 
HETATM   10  C13 UNL     1      16.193 -11.988  19.573  1.00  0.00     0.039 C 
HETATM   11  C14 UNL     1      17.182 -12.072  20.730  1.00  0.00     0.238 C 
HETATM   12  N4  UNL     1      16.843 -13.260  21.474  1.00  0.00    -0.068 N 
HETATM   13  C15 UNL     1      17.907 -14.224  21.253  1.00  0.00     0.272 C 
HETATM   14  C16 UNL     1      16.841 -13.011  22.925  1.00  0.00     0.272 C 
HETATM   15  C17 UNL     1      15.559 -13.717  21.016  1.00  0.00     0.224 C 
HETATM   16  C18 UNL     1      15.757 -14.898  20.146  1.00  0.00     0.284 C 
ENDROOT
BRANCH   9  17
HETATM   17  C9  UNL     1      14.366 -11.588  21.134  1.00  0.00     0.013 C 
BRANCH  17  18
HETATM   18  C10 UNL     1      13.267 -12.097  22.008  1.00  0.00     0.021 C 
BRANCH  18  19
HETATM   19  C11 UNL     1      12.106 -11.099  22.052  1.00  0.00     0.114 C 
HETATM   20 BR1  UNL     1      12.613  -9.376  21.389  1.00  0.00    -0.087 Br
BRANCH  19  21
HETATM   21  C12 UNL     1      11.527 -10.980  23.423  1.00  0.00     0.330 C 
BRANCH  21  22
HETATM   22  N3  UNL     1      11.251  -9.577  23.665  1.00  0.00    -0.052 N 
ATOM     23  H33 UNL     1      12.057  -8.977  23.487  1.00  0.00     0.277 HD
ATOM     24  H32 UNL     1      10.624  -9.170  22.971  1.00  0.00     0.277 HD
ATOM     25  H31 UNL     1      10.896  -9.491  24.618  1.00  0.00     0.277 HD
ENDBRANCH  21  22
BRANCH  21  26
HETATM   26  O2  UNL     1      10.384 -11.735  23.610  1.00  0.00    -0.369 OA
ATOM     27  H2  UNL     1      10.023 -11.669  24.486  1.00  0.00     0.212 HD
ENDBRANCH  21  26
ENDBRANCH  19  21
ENDBRANCH  18  19
ENDBRANCH  17  18
ENDBRANCH   9  17
BRANCH   6  28
HETATM   28  C3  UNL     1      14.171 -16.621  20.541  1.00  0.00     0.194 C 
HETATM   29  C4  UNL     1      12.669 -16.788  20.637  1.00  0.00     0.041 C 
HETATM   30  C5  UNL     1      14.735 -16.620  21.900  1.00  0.00     0.041 C 
ENDBRANCH   6  28
TORSDOF 7
ENDMDL
MODEL 3
REMARK VINA RESULT: -6.739065680      4.158      6.886
REMARK  7 active torsions:
REMARK  status: ('A' for Active; 'I' for Inactive)
REMARK       I    between atoms: N1_2  and  C2_4 
REMARK       I    between atoms: C2_4  and  N2_6 
REMARK    1  A    between atoms: N2_6  and  C3_7 
REMARK    2  A    between atoms: C8_12  and  C9_13 
REMARK    3  A    between atoms: C9_13  and  C10_14 
REMARK    4  A    between atoms: C10_14  and  C11_15 
REMARK    5  A    between atoms: C11_15  and  C12_17 
REMARK    6  A    between atoms: C12_17  and  N3_18 
REMARK    7  A    between atoms: C12_17  and  O2_22 
ROOT
HETATM    1  C1  UNL     1      13.402 -17.580  17.403  1.00  0.00     0.151 C 
HETATM    2  N1  UNL     1      13.384 -16.802  18.611  1.00  0.00    -0.341 N 
ATOM      3  H1  UNL     1      12.496 -16.446  18.967  1.00  0.00     0.163 HD
HETATM    4  C2  UNL     1      14.556 -16.530  19.301  1.00  0.00     0.415 C 
HETATM    5  O1  UNL     1      15.652 -16.994  18.823  1.00  0.00    -0.239 OA
HETATM    6  N2  UNL     1      14.715 -15.782  20.505  1.00  0.00     0.019 N 
HETATM    7  C6  UNL     1      13.477 -15.392  21.069  1.00  0.00     0.251 C 
HETATM    8  C7  UNL     1      12.923 -14.102  20.512  1.00  0.00     0.040 C 
HETATM    9  C8  UNL     1      13.820 -12.931  20.733  1.00  0.00    -0.007 C 
HETATM   10  C13 UNL     1      13.999 -12.073  19.499  1.00  0.00     0.039 C 
HETATM   11  C14 UNL     1      15.331 -11.397  19.804  1.00  0.00     0.238 C 
HETATM   12  N4  UNL     1      16.111 -12.349  20.556  1.00  0.00    -0.068 N 
HETATM   13  C15 UNL     1      17.192 -12.794  19.695  1.00  0.00     0.272 C 
HETATM   14  C16 UNL     1      16.770 -11.719  21.712  1.00  0.00     0.272 C 
HETATM   15  C17 UNL     1      15.236 -13.413  20.964  1.00  0.00     0.224 C 
HETATM   16  C18 UNL     1      15.495 -14.596  20.113  1.00  0.00     0.284 C 
ENDROOT
BRANCH   9  17
HETATM   17  C9  UNL     1      13.420 -12.048  21.865  1.00  0.00     0.013 C 
BRANCH  17  18
HETATM   18  C10 UNL     1      11.971 -11.683  21.908  1.00  0.00     0.021 C 
BRANCH  18  19
HETATM   19  C11 UNL     1      11.785 -10.287  22.510  1.00  0.00     0.114 C 
HETATM   20 BR1  UNL     1      13.282  -9.146  22.158  1.00  0.00    -0.087 Br
BRANCH  19  21
HETATM   21  C12 UNL     1      11.507 -10.346  23.975  1.00  0.00     0.330 C 
BRANCH  21  22
HETATM   22  N3  UNL     1      11.104  -9.019  24.402  1.00  0.00    -0.052 N 
ATOM     23  H33 UNL     1      10.361  -9.036  25.101  1.00  0.00     0.277 HD
ATOM     24  H32 UNL     1      11.812  -8.553  24.968  1.00  0.00     0.277 HD
ATOM     25  H31 UNL     1      10.850  -8.489  23.568  1.00  0.00     0.277 HD
ENDBRANCH  21  22
BRANCH  21  26
HETATM   26  O2  UNL     1      10.544 -11.276  24.320  1.00  0.00    -0.369 OA
ATOM     27  H2  UNL     1      10.040 -11.036  25.088  1.00  0.00     0.212 HD
ENDBRANCH  21  26
ENDBRANCH  19  21
ENDBRANCH  18  19
ENDBRANCH  17  18
ENDBRANCH   9  17
BRANCH   6  28
HETATM   28  C3  UNL     1      15.523 -16.633  21.334  1.00  0.00     0.194 C 
HETATM   29  C4  UNL     1      14.665 -17.325  22.373  1.00  0.00     0.041 C 
HETATM   30  C5  UNL     1      16.678 -16.019  22.008  1.00  0.00     0.041 C 
ENDBRANCH   6  28
TORSDOF 7
ENDMDL
MODEL 4
REMARK VINA RESULT: -6.536886012      3.825      5.923
REMARK  7 active torsions:
REMARK  status: ('A' for Active; 'I' for Inactive)
REMARK       I    between atoms: N1_2  and  C2_4 
REMARK       I    between atoms: C2_4  and  N2_6 
REMARK    1  A    between atoms: N2_6  and  C3_7 
REMARK    2  A    between atoms: C8_12  and  C9_13 
REMARK    3  A    between atoms: C9_13  and  C10_14 
REMARK    4  A    between atoms: C10_14  and  C11_15 
REMARK    5  A    between atoms: C11_15  and  C12_17 
REMARK    6  A    between atoms: C12_17  and  N3_18 
REMARK    7  A    between atoms: C12_17  and  O2_22 
ROOT
HETATM    1  C1  UNL     1      15.019 -16.572  16.265  1.00  0.00     0.151 C 
HETATM    2  N1  UNL     1      14.679 -15.854  17.461  1.00  0.00    -0.341 N 
ATOM      3  H1  UNL     1      14.133 -14.994  17.395  1.00  0.00     0.163 HD
HETATM    4  C2  UNL     1      15.084 -16.312  18.706  1.00  0.00     0.415 C 
HETATM    5  O1  UNL     1      15.769 -17.396  18.751  1.00  0.00    -0.239 OA
HETATM    6  N2  UNL     1      14.834 -15.728  19.984  1.00  0.00     0.019 N 
HETATM    7  C6  UNL     1      13.973 -14.607  19.908  1.00  0.00     0.251 C 
HETATM    8  C7  UNL     1      14.679 -13.305  19.611  1.00  0.00     0.040 C 
HETATM    9  C8  UNL     1      15.689 -12.933  20.644  1.00  0.00    -0.007 C 
HETATM   10  C13 UNL     1      17.008 -12.480  20.056  1.00  0.00     0.039 C 
HETATM   11  C14 UNL     1      17.956 -12.757  21.217  1.00  0.00     0.238 C 
HETATM   12  N4  UNL     1      17.442 -13.920  21.897  1.00  0.00    -0.068 N 
HETATM   13  C15 UNL     1      18.365 -15.011  21.639  1.00  0.00     0.272 C 
HETATM   14  C16 UNL     1      17.451 -13.742  23.359  1.00  0.00     0.272 C 
HETATM   15  C17 UNL     1      16.115 -14.170  21.405  1.00  0.00     0.224 C 
HETATM   16  C18 UNL     1      16.160 -15.324  20.479  1.00  0.00     0.284 C 
ENDROOT
BRANCH   9  17
HETATM   17  C9  UNL     1      15.230 -11.902  21.617  1.00  0.00     0.013 C 
BRANCH  17  18
HETATM   18  C10 UNL     1      13.759 -11.634  21.616  1.00  0.00     0.021 C 
BRANCH  18  19
HETATM   19  C11 UNL     1      13.477 -10.176  21.993  1.00  0.00     0.114 C 
HETATM   20 BR1  UNL     1      11.891 -10.000  23.049  1.00  0.00    -0.087 Br
BRANCH  19  21
HETATM   21  C12 UNL     1      13.404  -9.296  20.790  1.00  0.00     0.330 C 
BRANCH  21  22
HETATM   22  N3  UNL     1      14.545  -8.401  20.828  1.00  0.00    -0.052 N 
ATOM     23  H33 UNL     1      14.400  -7.598  21.440  1.00  0.00     0.277 HD
ATOM     24  H32 UNL     1      15.346  -8.801  21.317  1.00  0.00     0.277 HD
ATOM     25  H31 UNL     1      14.761  -8.133  19.868  1.00  0.00     0.277 HD
ENDBRANCH  21  22
BRANCH  21  26
HETATM   26  O2  UNL     1      13.376  -9.990  19.594  1.00  0.00    -0.369 OA
ATOM     27  H2  UNL     1      12.696  -9.697  18.999  1.00  0.00     0.212 HD
ENDBRANCH  21  26
ENDBRANCH  19  21
ENDBRANCH  18  19
ENDBRANCH  17  18
ENDBRANCH   9  17
BRANCH   6  28
HETATM   28  C3  UNL     1      14.343 -16.824  20.773  1.00  0.00     0.194 C 
HETATM   29  C4  UNL     1      12.831 -16.890  20.698  1.00  0.00     0.041 C 
HETATM   30  C5  UNL     1      14.749 -16.873  22.186  1.00  0.00     0.041 C 
ENDBRANCH   6  28
TORSDOF 7
ENDMDL
MODEL 5
REMARK VINA RESULT: -6.495266615      3.160      4.677
REMARK  7 active torsions:
REMARK  status: ('A' for Active; 'I' for Inactive)
REMARK       I    between atoms: N1_2  and  C2_4 
REMARK       I    between atoms: C2_4  and  N2_6 
REMARK    1  A    between atoms: N2_6  and  C3_7 
REMARK    2  A    between atoms: C8_12  and  C9_13 
REMARK    3  A    between atoms: C9_13  and  C10_14 
REMARK    4  A    between atoms: C10_14  and  C11_15 
REMARK    5  A    between atoms: C11_15  and  C12_17 
REMARK    6  A    between atoms: C12_17  and  N3_18 
REMARK    7  A    between atoms: C12_17  and  O2_22 
ROOT
HETATM    1  C1  UNL     1      12.335 -10.613  21.612  1.00  0.00     0.151 C 
HETATM    2  N1  UNL     1      13.217 -11.662  21.185  1.00  0.00    -0.341 N 
ATOM      3  H1  UNL     1      13.062 -12.616  21.515  1.00  0.00     0.163 HD
HETATM    4  C2  UNL     1      14.277 -11.398  20.330  1.00  0.00     0.415 C 
HETATM    5  O1  UNL     1      14.441 -10.188  19.937  1.00  0.00    -0.239 OA
HETATM    6  N2  UNL     1      15.240 -12.315  19.811  1.00  0.00     0.019 N 
HETATM    7  C6  UNL     1      14.956 -13.656  20.164  1.00  0.00     0.251 C 
HETATM    8  C7  UNL     1      15.502 -14.070  21.511  1.00  0.00     0.040 C 
HETATM    9  C8  UNL     1      16.987 -13.964  21.603  1.00  0.00    -0.007 C 
HETATM   10  C13 UNL     1      17.462 -13.296  22.875  1.00  0.00     0.039 C 
HETATM   11  C14 UNL     1      18.835 -12.793  22.445  1.00  0.00     0.238 C 
HETATM   12  N4  UNL     1      18.731 -12.459  21.046  1.00  0.00    -0.068 N 
HETATM   13  C15 UNL     1      18.809 -11.012  20.944  1.00  0.00     0.272 C 
HETATM   14  C16 UNL     1      19.882 -12.964  20.279  1.00  0.00     0.272 C 
HETATM   15  C17 UNL     1      17.492 -12.997  20.554  1.00  0.00     0.224 C 
HETATM   16  C18 UNL     1      16.521 -11.890  20.399  1.00  0.00     0.284 C 
ENDROOT
BRANCH   9  17
HETATM   17  C9  UNL     1      17.710 -15.259  21.454  1.00  0.00     0.013 C 
BRANCH  17  18
HETATM   18  C10 UNL     1      17.957 -16.002  22.727  1.00  0.00     0.021 C 
BRANCH  18  19
HETATM   19  C11 UNL     1      17.110 -17.277  22.778  1.00  0.00     0.114 C 
HETATM   20 BR1  UNL     1      16.331 -17.693  21.081  1.00  0.00    -0.087 Br
BRANCH  19  21
HETATM   21  C12 UNL     1      16.056 -17.203  23.832  1.00  0.00     0.330 C 
BRANCH  21  22
HETATM   22  N3  UNL     1      16.482 -16.221  24.813  1.00  0.00    -0.052 N 
ATOM     23  H33 UNL     1      17.430 -15.881  24.649  1.00  0.00     0.277 HD
ATOM     24  H32 UNL     1      16.000 -15.327  24.713  1.00  0.00     0.277 HD
ATOM     25  H31 UNL     1      16.363 -16.634  25.737  1.00  0.00     0.277 HD
ENDBRANCH  21  22
BRANCH  21  26
HETATM   26  O2  UNL     1      14.804 -16.883  23.344  1.00  0.00    -0.369 OA
ATOM     27  H2  UNL     1      14.241 -16.460  23.982  1.00  0.00     0.212 HD
ENDBRANCH  21  26
ENDBRANCH  19  21
ENDBRANCH  18  19
ENDBRANCH  17  18
ENDBRANCH   9  17
BRANCH   6  28
HETATM   28  C3  UNL     1      15.248 -12.043  18.401  1.00  0.00     0.194 C 
HETATM   29  C4  UNL     1      14.919 -13.299  17.621  1.00  0.00     0.041 C 
HETATM   30  C5  UNL     1      16.466 -11.442  17.836  1.00  0.00     0.041 C 
ENDBRANCH   6  28
TORSDOF 7
ENDMDL
