MODEL 1
REMARK VINA RESULT: -6.741699931      0.000      0.000
REMARK  7 active torsions:
REMARK  status: ('A' for Active; 'I' for Inactive)
REMARK       I    between atoms: C2_2  and  N1_4 
REMARK    1  A    between atoms: N1_4  and  C3_5 
REMARK       I    between atoms: N1_4  and  C12_16 
REMARK    2  A    between atoms: C3_5  and  C4_6 
REMARK    3  A    between atoms: C4_6  and  N2_7 
REMARK    4  A    between atoms: N2_7  and  C7_10 
REMARK    5  A    between atoms: C7_10  and  C8_11 
REMARK    6  A    between atoms: C8_11  and  N3_12 
REMARK       I    between atoms: C12_16  and  N4_18 
REMARK    7  A    between atoms: N4_18  and  C13_20 
ROOT
HETATM    1  C1  UNL     1      15.477 -15.571  19.842  1.00  0.00     0.117 C 
HETATM    2  C2  UNL     1      14.404 -14.560  19.961  1.00  0.00     0.223 C 
HETATM    3  O1  UNL     1      13.237 -14.901  19.689  1.00  0.00    -0.273 OA
HETATM    4  N1  UNL     1      14.664 -13.233  20.371  1.00  0.00    -0.268 N 
HETATM    5  C12 UNL     1      13.587 -12.320  20.458  1.00  0.00     0.343 C 
HETATM    6  O2  UNL     1      12.434 -12.715  20.167  1.00  0.00    -0.246 OA
HETATM    7  N4  UNL     1      13.755 -10.971  20.863  1.00  0.00    -0.141 N 
ATOM      8  H4  UNL     1      14.418 -10.383  20.359  1.00  0.00     0.189 HD
ENDROOT
BRANCH   4   9
HETATM    9  C3  UNL     1      16.040 -12.816  20.700  1.00  0.00     0.164 C 
BRANCH   9  10
HETATM   10  C4  UNL     1      16.349 -13.037  22.134  1.00  0.00     0.257 C 
BRANCH  10  11
HETATM   11  N2  UNL     1      17.584 -13.693  22.410  1.00  0.00    -0.072 N 
HETATM   12  C5  UNL     1      18.399 -13.906  21.229  1.00  0.00     0.272 C 
HETATM   13  C6  UNL     1      17.298 -15.015  22.942  1.00  0.00     0.272 C 
BRANCH  11  14
HETATM   14  C7  UNL     1      18.349 -12.985  23.420  1.00  0.00     0.264 C 
BRANCH  14  15
HETATM   15  C8  UNL     1      19.817 -13.054  23.172  1.00  0.00     0.264 C 
BRANCH  15  16
HETATM   16  N3  UNL     1      20.569 -13.478  24.336  1.00  0.00    -0.077 N 
HETATM   17  C9  UNL     1      19.674 -13.396  25.476  1.00  0.00     0.271 C 
HETATM   18  C10 UNL     1      20.990 -14.865  24.233  1.00  0.00     0.271 C 
HETATM   19  C11 UNL     1      21.711 -12.651  24.608  1.00  0.00     0.271 C 
ENDBRANCH  15  16
ENDBRANCH  14  15
ENDBRANCH  11  14
ENDBRANCH  10  11
ENDBRANCH   9  10
ENDBRANCH   4   9
BRANCH   7  20
HETATM   20  C13 UNL     1      13.090 -10.459  21.855  1.00  0.00     0.687 A 
HETATM   21  N5  UNL     1      12.145 -11.057  22.612  1.00  0.00    -0.199 N 
HETATM   22  C14 UNL     1      11.686 -10.203  23.547  1.00  0.00     0.144 A 
ATOM     23  H5  UNL     1      11.825 -12.018  22.493  1.00  0.00     0.183 HD
HETATM   24  C15 UNL     1      12.365  -9.031  23.370  1.00  0.00     0.112 A 
HETATM   25 BR1  UNL     1      12.088  -7.472  24.448  1.00  0.00    -0.029 Br
HETATM   26  N6  UNL     1      13.205  -9.211  22.343  1.00  0.00    -0.183 N 
ATOM     27  H6  UNL     1      13.843  -8.502  21.982  1.00  0.00     0.185 HD
ENDBRANCH   7  20
TORSDOF 7
ENDMDL
MODEL 2
REMARK VINA RESULT: -6.634137920      4.210      6.621
REMARK  7 active torsions:
REMARK  status: ('A' for Active; 'I' for Inactive)
REMARK       I    between atoms: C2_2  and  N1_4 
REMARK    1  A    between atoms: N1_4  and  C3_5 
REMARK       I    between atoms: N1_4  and  C12_16 
REMARK    2  A    between atoms: C3_5  and  C4_6 
REMARK    3  A    between atoms: C4_6  and  N2_7 
REMARK    4  A    between atoms: N2_7  and  C7_10 
REMARK    5  A    between atoms: C7_10  and  C8_11 
REMARK    6  A    between atoms: C8_11  and  N3_12 
REMARK       I    between atoms: C12_16  and  N4_18 
REMARK    7  A    between atoms: N4_18  and  C13_20 
ROOT
HETATM    1  C1  UNL     1      11.571 -10.463  23.688  1.00  0.00     0.117 C 
HETATM    2  C2  UNL     1      12.521  -9.973  22.667  1.00  0.00     0.223 C 
HETATM    3  O1  UNL     1      13.041  -8.851  22.831  1.00  0.00    -0.273 OA
HETATM    4  N1  UNL     1      12.855 -10.733  21.523  1.00  0.00    -0.268 N 
HETATM    5  C12 UNL     1      13.770 -10.196  20.588  1.00  0.00     0.343 C 
HETATM    6  O2  UNL     1      14.257  -9.063  20.800  1.00  0.00    -0.246 OA
HETATM    7  N4  UNL     1      14.164 -10.890  19.414  1.00  0.00    -0.141 N 
ATOM      8  H4  UNL     1      13.445 -11.210  18.766  1.00  0.00     0.189 HD
ENDROOT
BRANCH   4   9
HETATM    9  C3  UNL     1      12.252 -12.063  21.318  1.00  0.00     0.164 C 
BRANCH   9  10
HETATM   10  C4  UNL     1      13.150 -13.148  21.784  1.00  0.00     0.257 C 
BRANCH  10  11
HETATM   11  N2  UNL     1      13.375 -14.209  20.860  1.00  0.00    -0.072 N 
HETATM   12  C5  UNL     1      14.770 -14.373  20.499  1.00  0.00     0.272 C 
HETATM   13  C6  UNL     1      12.677 -13.901  19.622  1.00  0.00     0.272 C 
BRANCH  11  14
HETATM   14  C7  UNL     1      12.837 -15.465  21.349  1.00  0.00     0.264 C 
BRANCH  14  15
HETATM   15  C8  UNL     1      12.388 -16.360  20.244  1.00  0.00     0.264 C 
BRANCH  15  16
HETATM   16  N3  UNL     1      13.010 -17.667  20.286  1.00  0.00    -0.077 N 
HETATM   17  C9  UNL     1      13.924 -17.741  19.159  1.00  0.00     0.271 C 
HETATM   18  C10 UNL     1      13.810 -17.848  21.485  1.00  0.00     0.271 C 
HETATM   19  C11 UNL     1      12.072 -18.748  20.168  1.00  0.00     0.271 C 
ENDBRANCH  15  16
ENDBRANCH  14  15
ENDBRANCH  11  14
ENDBRANCH  10  11
ENDBRANCH   9  10
ENDBRANCH   4   9
BRANCH   7  20
HETATM   20  C13 UNL     1      15.410 -11.131  19.140  1.00  0.00     0.687 A 
HETATM   21  N5  UNL     1      15.982 -11.240  17.921  1.00  0.00    -0.199 N 
HETATM   22  C14 UNL     1      17.299 -11.494  18.044  1.00  0.00     0.144 A 
ATOM     23  H5  UNL     1      15.487 -11.144  17.035  1.00  0.00     0.183 HD
HETATM   24  C15 UNL     1      17.562 -11.546  19.383  1.00  0.00     0.112 A 
HETATM   25 BR1  UNL     1      19.301 -11.883  20.109  1.00  0.00    -0.029 Br
HETATM   26  N6  UNL     1      16.406 -11.324  20.023  1.00  0.00    -0.183 N 
ATOM     27  H6  UNL     1      16.297 -11.305  21.036  1.00  0.00     0.185 HD
ENDBRANCH   7  20
TORSDOF 7
ENDMDL
MODEL 3
REMARK VINA RESULT: -6.530368023      3.200      4.096
REMARK  7 active torsions:
REMARK  status: ('A' for Active; 'I' for Inactive)
REMARK       I    between atoms: C2_2  and  N1_4 
REMARK    1  A    between atoms: N1_4  and  C3_5 
REMARK       I    between atoms: N1_4  and  C12_16 
REMARK    2  A    between atoms: C3_5  and  C4_6 
REMARK    3  A    between atoms: C4_6  and  N2_7 
REMARK    4  A    between atoms: N2_7  and  C7_10 
REMARK    5  A    between atoms: C7_10  and  C8_11 
REMARK    6  A    between atoms: C8_11  and  N3_12 
REMARK       I    between atoms: C12_16  and  N4_18 
REMARK    7  A    between atoms: N4_18  and  C13_20 
ROOT
HETATM    1  C1  UNL     1      18.613 -11.201  20.571  1.00  0.00     0.117 C 
HETATM    2  C2  UNL     1      17.179 -11.432  20.296  1.00  0.00     0.223 C 
HETATM    3  O1  UNL     1      16.685 -10.930  19.267  1.00  0.00    -0.273 OA
HETATM    4  N1  UNL     1      16.363 -12.200  21.156  1.00  0.00    -0.268 N 
HETATM    5  C12 UNL     1      14.998 -12.376  20.829  1.00  0.00     0.343 C 
HETATM    6  O2  UNL     1      14.552 -11.844  19.787  1.00  0.00    -0.246 OA
HETATM    7  N4  UNL     1      14.107 -13.132  21.634  1.00  0.00    -0.141 N 
ATOM      8  H4  UNL     1      14.002 -12.887  22.618  1.00  0.00     0.189 HD
ENDROOT
BRANCH   4   9
HETATM    9  C3  UNL     1      16.934 -12.803  22.375  1.00  0.00     0.164 C 
BRANCH   9  10
HETATM   10  C4  UNL     1      17.383 -14.197  22.135  1.00  0.00     0.257 C 
BRANCH  10  11
HETATM   11  N2  UNL     1      18.690 -14.518  22.604  1.00  0.00    -0.072 N 
HETATM   12  C5  UNL     1      19.672 -14.630  21.542  1.00  0.00     0.272 C 
HETATM   13  C6  UNL     1      18.646 -15.823  23.245  1.00  0.00     0.272 C 
BRANCH  11  14
HETATM   14  C7  UNL     1      19.145 -13.569  23.604  1.00  0.00     0.264 C 
BRANCH  14  15
HETATM   15  C8  UNL     1      20.583 -13.213  23.436  1.00  0.00     0.264 C 
BRANCH  15  16
HETATM   16  N3  UNL     1      21.303 -13.156  24.692  1.00  0.00    -0.077 N 
HETATM   17  C9  UNL     1      22.698 -12.908  24.374  1.00  0.00     0.271 C 
HETATM   18  C10 UNL     1      20.859 -12.048  25.520  1.00  0.00     0.271 C 
HETATM   19  C11 UNL     1      21.230 -14.376  25.447  1.00  0.00     0.271 C 
ENDBRANCH  15  16
ENDBRANCH  14  15
ENDBRANCH  11  14
ENDBRANCH  10  11
ENDBRANCH   9  10
ENDBRANCH   4   9
BRANCH   7  20
HETATM   20  C13 UNL     1      13.419 -14.125  21.156  1.00  0.00     0.687 A 
HETATM   21  N5  UNL     1      13.131 -15.297  21.762  1.00  0.00    -0.199 N 
HETATM   22  C14 UNL     1      12.393 -16.075  20.946  1.00  0.00     0.144 A 
ATOM     23  H5  UNL     1      13.429 -15.556  22.702  1.00  0.00     0.183 HD
HETATM   24  C15 UNL     1      12.213 -15.368  19.792  1.00  0.00     0.112 A 
HETATM   25 BR1  UNL     1      11.226 -16.026  18.289  1.00  0.00    -0.029 Br
HETATM   26  N6  UNL     1      12.842 -14.195  19.943  1.00  0.00    -0.183 N 
ATOM     27  H6  UNL     1      12.878 -13.460  19.238  1.00  0.00     0.185 HD
ENDBRANCH   7  20
TORSDOF 7
ENDMDL
MODEL 4
REMARK VINA RESULT: -6.529513637      2.565      3.903
REMARK  7 active torsions:
REMARK  status: ('A' for Active; 'I' for Inactive)
REMARK       I    between atoms: C2_2  and  N1_4 
REMARK    1  A    between atoms: N1_4  and  C3_5 
REMARK       I    between atoms: N1_4  and  C12_16 
REMARK    2  A    between atoms: C3_5  and  C4_6 
REMARK    3  A    between atoms: C4_6  and  N2_7 
REMARK    4  A    between atoms: N2_7  and  C7_10 
REMARK    5  A    between atoms: C7_10  and  C8_11 
REMARK    6  A    between atoms: C8_11  and  N3_12 
REMARK       I    between atoms: C12_16  and  N4_18 
REMARK    7  A    between atoms: N4_18  and  C13_20 
ROOT
HETATM    1  C1  UNL     1      15.789 -12.521  15.935  1.00  0.00     0.117 C 
HETATM    2  C2  UNL     1      15.953 -11.794  17.212  1.00  0.00     0.223 C 
HETATM    3  O1  UNL     1      16.724 -10.815  17.241  1.00  0.00    -0.273 OA
HETATM    4  N1  UNL     1      15.265 -12.173  18.387  1.00  0.00    -0.268 N 
HETATM    5  C12 UNL     1      15.475 -11.430  19.572  1.00  0.00     0.343 C 
HETATM    6  O2  UNL     1      16.266 -10.459  19.546  1.00  0.00    -0.246 OA
HETATM    7  N4  UNL     1      14.826 -11.738  20.795  1.00  0.00    -0.141 N 
ATOM      8  H4  UNL     1      14.917 -12.678  21.180  1.00  0.00     0.189 HD
ENDROOT
BRANCH   4   9
HETATM    9  C3  UNL     1      14.346 -13.326  18.366  1.00  0.00     0.164 C 
BRANCH   9  10
HETATM   10  C4  UNL     1      15.023 -14.572  18.806  1.00  0.00     0.257 C 
BRANCH  10  11
HETATM   11  N2  UNL     1      14.359 -15.313  19.825  1.00  0.00    -0.072 N 
HETATM   12  C5  UNL     1      14.081 -16.687  19.450  1.00  0.00     0.272 C 
HETATM   13  C6  UNL     1      13.066 -14.699  20.078  1.00  0.00     0.272 C 
BRANCH  11  14
HETATM   14  C7  UNL     1      15.097 -15.279  21.075  1.00  0.00     0.264 C 
BRANCH  14  15
HETATM   15  C8  UNL     1      16.529 -14.918  20.879  1.00  0.00     0.264 C 
BRANCH  15  16
HETATM   16  N3  UNL     1      17.283 -14.896  22.116  1.00  0.00    -0.077 N 
HETATM   17  C9  UNL     1      18.679 -15.099  21.770  1.00  0.00     0.271 C 
HETATM   18  C10 UNL     1      17.200 -13.605  22.778  1.00  0.00     0.271 C 
HETATM   19  C11 UNL     1      16.899 -15.930  23.035  1.00  0.00     0.271 C 
ENDBRANCH  15  16
ENDBRANCH  14  15
ENDBRANCH  11  14
ENDBRANCH  10  11
ENDBRANCH   9  10
ENDBRANCH   4   9
BRANCH   7  20
HETATM   20  C13 UNL     1      14.119 -10.861  21.442  1.00  0.00     0.687 A 
HETATM   21  N5  UNL     1      14.176  -9.515  21.340  1.00  0.00    -0.199 N 
HETATM   22  C14 UNL     1      13.283  -8.945  22.172  1.00  0.00     0.144 A 
ATOM     23  H5  UNL     1      14.806  -9.004  20.721  1.00  0.00     0.183 HD
HETATM   24  C15 UNL     1      12.646  -9.966  22.817  1.00  0.00     0.112 A 
HETATM   25 BR1  UNL     1      11.270  -9.700  24.122  1.00  0.00    -0.029 Br
HETATM   26  N6  UNL     1      13.167 -11.111  22.359  1.00  0.00    -0.183 N 
ATOM     27  H6  UNL     1      12.884 -12.042  22.664  1.00  0.00     0.185 HD
ENDBRANCH   7  20
TORSDOF 7
ENDMDL
MODEL 5
REMARK VINA RESULT: -6.504906861      1.599      2.269
REMARK  7 active torsions:
REMARK  status: ('A' for Active; 'I' for Inactive)
REMARK       I    between atoms: C2_2  and  N1_4 
REMARK    1  A    between atoms: N1_4  and  C3_5 
REMARK       I    between atoms: N1_4  and  C12_16 
REMARK    2  A    between atoms: C3_5  and  C4_6 
REMARK    3  A    between atoms: C4_6  and  N2_7 
REMARK    4  A    between atoms: N2_7  and  C7_10 
REMARK    5  A    between atoms: C7_10  and  C8_11 
REMARK    6  A    between atoms: C8_11  and  N3_12 
REMARK       I    between atoms: C12_16  and  N4_18 
REMARK    7  A    between atoms: N4_18  and  C13_20 
ROOT
HETATM    1  C1  UNL     1      16.733 -16.737  21.051  1.00  0.00     0.117 C 
HETATM    2  C2  UNL     1      15.882 -15.635  20.552  1.00  0.00     0.223 C 
HETATM    3  O1  UNL     1      14.808 -15.924  19.988  1.00  0.00    -0.273 OA
HETATM    4  N1  UNL     1      16.248 -14.278  20.696  1.00  0.00    -0.268 N 
HETATM    5  C12 UNL     1      15.385 -13.279  20.191  1.00  0.00     0.343 C 
HETATM    6  O2  UNL     1      14.321 -13.626  19.628  1.00  0.00    -0.246 OA
HETATM    7  N4  UNL     1      15.671 -11.893  20.294  1.00  0.00    -0.141 N 
ATOM      8  H4  UNL     1      16.553 -11.542  19.921  1.00  0.00     0.189 HD
ENDROOT
BRANCH   4   9
HETATM    9  C3  UNL     1      17.514 -13.921  21.364  1.00  0.00     0.164 C 
BRANCH   9  10
HETATM   10  C4  UNL     1      17.308 -13.630  22.805  1.00  0.00     0.257 C 
BRANCH  10  11
HETATM   11  N2  UNL     1      18.392 -13.965  23.667  1.00  0.00    -0.072 N 
HETATM   12  C5  UNL     1      18.938 -15.286  23.421  1.00  0.00     0.272 C 
HETATM   13  C6  UNL     1      17.906 -13.982  25.038  1.00  0.00     0.272 C 
BRANCH  11  14
HETATM   14  C7  UNL     1      19.448 -12.971  23.604  1.00  0.00     0.264 C 
BRANCH  14  15
HETATM   15  C8  UNL     1      20.806 -13.585  23.617  1.00  0.00     0.264 C 
BRANCH  15  16
HETATM   16  N3  UNL     1      21.568 -13.251  24.804  1.00  0.00    -0.077 N 
HETATM   17  C9  UNL     1      22.917 -12.932  24.370  1.00  0.00     0.271 C 
HETATM   18  C10 UNL     1      21.049 -12.066  25.464  1.00  0.00     0.271 C 
HETATM   19  C11 UNL     1      21.649 -14.329  25.750  1.00  0.00     0.271 C 
ENDBRANCH  15  16
ENDBRANCH  14  15
ENDBRANCH  11  14
ENDBRANCH  10  11
ENDBRANCH   9  10
ENDBRANCH   4   9
BRANCH   7  20
HETATM   20  C13 UNL     1      14.846 -11.056  20.847  1.00  0.00     0.687 A 
HETATM   21  N5  UNL     1      14.785  -9.718  20.674  1.00  0.00    -0.199 N 
HETATM   22  C14 UNL     1      13.792  -9.195  21.419  1.00  0.00     0.144 A 
ATOM     23  H5  UNL     1      15.403  -9.181  20.066  1.00  0.00     0.183 HD
HETATM   24  C15 UNL     1      13.212 -10.240  22.082  1.00  0.00     0.112 A 
HETATM   25 BR1  UNL     1      11.738 -10.042  23.288  1.00  0.00    -0.029 Br
HETATM   26  N6  UNL     1      13.866 -11.351  21.720  1.00  0.00    -0.183 N 
ATOM     27  H6  UNL     1      13.651 -12.288  22.059  1.00  0.00     0.185 HD
ENDBRANCH   7  20
TORSDOF 7
ENDMDL
