MODEL 1
REMARK VINA RESULT: -7.800519739      0.000      0.000
REMARK  7 active torsions:
REMARK  status: ('A' for Active; 'I' for Inactive)
REMARK    1  A    between atoms: C4_9  and  C5_10 
REMARK    2  A    between atoms: C5_10  and  C6_11 
REMARK    3  A    between atoms: N3_17  and  C11_18 
REMARK    4  A    between atoms: C11_18  and  C12_19 
REMARK    5  A    between atoms: C12_19  and  C13_20 
REMARK    6  A    between atoms: C13_20  and  C14_21 
REMARK    7  A    between atoms: C14_21  and  S1_22 
ROOT
HETATM    1  C6  UNL     1      15.879 -11.534  21.160  1.00  0.00    -0.019 A 
HETATM    2  C7  UNL     1      16.966 -11.283  20.315  1.00  0.00     0.022 A 
HETATM    3  C8  UNL     1      18.152 -11.972  20.381  1.00  0.00    -0.027 A 
HETATM    4  C9  UNL     1      19.295 -11.687  19.472  1.00  0.00     0.051 C 
HETATM    5  C10 UNL     1      18.252 -12.975  21.354  1.00  0.00     0.087 A 
HETATM    6 BR1  UNL     1      19.891 -13.931  21.450  1.00  0.00    -0.030 Br
HETATM    7  N3  UNL     1      17.225 -13.239  22.179  1.00  0.00    -0.350 N 
HETATM    8  C16 UNL     1      16.076 -12.553  22.097  1.00  0.00     0.103 A 
ENDROOT
BRANCH   1   9
HETATM    9  C5  UNL     1      14.681 -10.762  21.074  1.00  0.00     0.032 C 
BRANCH   9  10
HETATM   10  C4  UNL     1      13.506 -10.947  21.616  1.00  0.00     0.061 A 
HETATM   11  C2  UNL     1      12.666 -12.023  21.526  1.00  0.00     0.054 A 
HETATM   12  C1  UNL     1      12.770 -13.157  20.896  1.00  0.00     0.045 C 
HETATM   13  N1  UNL     1      11.563 -11.706  22.283  1.00  0.00    -0.298 N 
HETATM   14  N2  UNL     1      11.704 -10.516  22.808  1.00  0.00    -0.265 N 
ATOM     15  H1  UNL     1      10.752 -12.310  22.415  1.00  0.00     0.187 HD
HETATM   16  C3  UNL     1      12.869 -10.008  22.436  1.00  0.00     0.272 A 
ATOM     17  H2  UNL     1      11.024 -10.053  23.411  1.00  0.00     0.190 HD
HETATM   18  O1  UNL     1      13.319  -8.879  22.764  1.00  0.00    -0.266 OA
ENDBRANCH   9  10
ENDBRANCH   1   9
BRANCH   7  19
HETATM   19  C11 UNL     1      17.372 -14.274  23.161  1.00  0.00     0.129 C 
BRANCH  19  20
HETATM   20  C12 UNL     1      17.498 -13.704  24.574  1.00  0.00     0.021 C 
BRANCH  20  21
HETATM   21  C13 UNL     1      18.891 -14.046  25.024  1.00  0.00     0.016 C 
BRANCH  21  22
HETATM   22  C14 UNL     1      19.862 -12.933  25.082  1.00  0.00     0.140 C 
BRANCH  22  23
HETATM   23  S1  UNL     1      21.524 -13.406  25.431  1.00  0.00     0.140 S 
HETATM   24  C15 UNL     1      21.897 -14.922  24.578  1.00  0.00     0.161 C 
HETATM   25  O2  UNL     1      22.430 -12.308  24.892  1.00  0.00    -0.228 OA
HETATM   26  O3  UNL     1      21.717 -13.562  26.884  1.00  0.00    -0.228 OA
ENDBRANCH  22  23
ENDBRANCH  21  22
ENDBRANCH  20  21
ENDBRANCH  19  20
ENDBRANCH   7  19
TORSDOF 7
ENDMDL
MODEL 2
REMARK VINA RESULT: -7.650913781      4.840      6.252
REMARK  7 active torsions:
REMARK  status: ('A' for Active; 'I' for Inactive)
REMARK    1  A    between atoms: C4_9  and  C5_10 
REMARK    2  A    between atoms: C5_10  and  C6_11 
REMARK    3  A    between atoms: N3_17  and  C11_18 
REMARK    4  A    between atoms: C11_18  and  C12_19 
REMARK    5  A    between atoms: C12_19  and  C13_20 
REMARK    6  A    between atoms: C13_20  and  C14_21 
REMARK    7  A    between atoms: C14_21  and  S1_22 
ROOT
HETATM    1  C6  UNL     1      13.145 -12.630  21.489  1.00  0.00    -0.019 A 
HETATM    2  C7  UNL     1      12.791 -13.984  21.490  1.00  0.00     0.022 A 
HETATM    3  C8  UNL     1      13.673 -14.997  21.206  1.00  0.00    -0.027 A 
HETATM    4  C9  UNL     1      13.274 -16.430  21.213  1.00  0.00     0.051 C 
HETATM    5  C10 UNL     1      14.990 -14.629  20.904  1.00  0.00     0.087 A 
HETATM    6 BR1  UNL     1      16.214 -16.028  20.510  1.00  0.00    -0.030 Br
HETATM    7  N3  UNL     1      15.359 -13.337  20.896  1.00  0.00    -0.350 N 
HETATM    8  C16 UNL     1      14.482 -12.363  21.176  1.00  0.00     0.103 A 
ENDROOT
BRANCH   1   9
HETATM    9  C5  UNL     1      12.180 -11.611  21.755  1.00  0.00     0.032 C 
BRANCH   9  10
HETATM   10  C4  UNL     1      12.263 -10.522  22.472  1.00  0.00     0.061 A 
HETATM   11  C2  UNL     1      12.935  -9.360  22.215  1.00  0.00     0.054 A 
HETATM   12  C1  UNL     1      13.676  -8.988  21.211  1.00  0.00     0.045 C 
HETATM   13  N1  UNL     1      12.694  -8.537  23.289  1.00  0.00    -0.298 N 
HETATM   14  N2  UNL     1      11.924  -9.142  24.156  1.00  0.00    -0.265 N 
ATOM     15  H1  UNL     1      13.061  -7.592  23.395  1.00  0.00     0.187 HD
HETATM   16  C3  UNL     1      11.630 -10.355  23.710  1.00  0.00     0.272 A 
ATOM     17  H2  UNL     1      11.600  -8.743  25.038  1.00  0.00     0.190 HD
HETATM   18  O1  UNL     1      10.910 -11.203  24.300  1.00  0.00    -0.266 OA
ENDBRANCH   9  10
ENDBRANCH   1   9
BRANCH   7  19
HETATM   19  C11 UNL     1      16.719 -13.006  20.580  1.00  0.00     0.129 C 
BRANCH  19  20
HETATM   20  C12 UNL     1      16.862 -11.548  20.140  1.00  0.00     0.021 C 
BRANCH  20  21
HETATM   21  C13 UNL     1      17.060 -11.595  18.650  1.00  0.00     0.016 C 
BRANCH  21  22
HETATM   22  C14 UNL     1      15.842 -11.735  17.823  1.00  0.00     0.140 C 
BRANCH  22  23
HETATM   23  S1  UNL     1      15.914 -10.949  16.246  1.00  0.00     0.140 S 
HETATM   24  C15 UNL     1      16.057 -12.187  14.976  1.00  0.00     0.161 C 
HETATM   25  O2  UNL     1      14.601 -10.202  16.053  1.00  0.00    -0.228 OA
HETATM   26  O3  UNL     1      17.049 -10.012  16.193  1.00  0.00    -0.228 OA
ENDBRANCH  22  23
ENDBRANCH  21  22
ENDBRANCH  20  21
ENDBRANCH  19  20
ENDBRANCH   7  19
TORSDOF 7
ENDMDL
MODEL 3
REMARK VINA RESULT: -7.561322782      3.316      7.837
REMARK  7 active torsions:
REMARK  status: ('A' for Active; 'I' for Inactive)
REMARK    1  A    between atoms: C4_9  and  C5_10 
REMARK    2  A    between atoms: C5_10  and  C6_11 
REMARK    3  A    between atoms: N3_17  and  C11_18 
REMARK    4  A    between atoms: C11_18  and  C12_19 
REMARK    5  A    between atoms: C12_19  and  C13_20 
REMARK    6  A    between atoms: C13_20  and  C14_21 
REMARK    7  A    between atoms: C14_21  and  S1_22 
ROOT
HETATM    1  C6  UNL     1      19.006 -13.439  22.586  1.00  0.00    -0.019 A 
HETATM    2  C7  UNL     1      19.816 -12.827  21.622  1.00  0.00     0.022 A 
HETATM    3  C8  UNL     1      19.331 -12.293  20.454  1.00  0.00    -0.027 A 
HETATM    4  C9  UNL     1      20.211 -11.647  19.444  1.00  0.00     0.051 C 
HETATM    5  C10 UNL     1      17.949 -12.377  20.242  1.00  0.00     0.087 A 
HETATM    6 BR1  UNL     1      17.273 -11.638  18.627  1.00  0.00    -0.030 Br
HETATM    7  N3  UNL     1      17.147 -12.958  21.149  1.00  0.00    -0.350 N 
HETATM    8  C16 UNL     1      17.641 -13.474  22.283  1.00  0.00     0.103 A 
ENDROOT
BRANCH   1   9
HETATM    9  C5  UNL     1      19.566 -14.014  23.767  1.00  0.00     0.032 C 
BRANCH   9  10
HETATM   10  C4  UNL     1      20.776 -13.948  24.257  1.00  0.00     0.061 A 
HETATM   11  C2  UNL     1      21.321 -13.026  25.108  1.00  0.00     0.054 A 
HETATM   12  C1  UNL     1      20.824 -11.964  25.674  1.00  0.00     0.045 C 
HETATM   13  N1  UNL     1      22.623 -13.420  25.309  1.00  0.00    -0.298 N 
HETATM   14  N2  UNL     1      22.873 -14.511  24.632  1.00  0.00    -0.265 N 
ATOM     15  H1  UNL     1      23.296 -12.932  25.899  1.00  0.00     0.187 HD
HETATM   16  C3  UNL     1      21.784 -14.878  23.974  1.00  0.00     0.272 A 
ATOM     17  H2  UNL     1      23.767 -15.003  24.615  1.00  0.00     0.190 HD
HETATM   18  O1  UNL     1      21.679 -15.885  23.225  1.00  0.00    -0.266 OA
ENDBRANCH   9  10
ENDBRANCH   1   9
BRANCH   7  19
HETATM   19  C11 UNL     1      15.737 -13.022  20.889  1.00  0.00     0.129 C 
BRANCH  19  20
HETATM   20  C12 UNL     1      14.930 -12.264  21.944  1.00  0.00     0.021 C 
BRANCH  20  21
HETATM   21  C13 UNL     1      13.684 -11.800  21.241  1.00  0.00     0.016 C 
BRANCH  21  22
HETATM   22  C14 UNL     1      12.546 -11.407  22.099  1.00  0.00     0.140 C 
BRANCH  22  23
HETATM   23  S1  UNL     1      12.375  -9.672  22.365  1.00  0.00     0.140 S 
HETATM   24  C15 UNL     1      11.574  -9.391  23.929  1.00  0.00     0.161 C 
HETATM   25  O2  UNL     1      13.777  -9.083  22.423  1.00  0.00    -0.228 OA
HETATM   26  O3  UNL     1      11.607  -9.059  21.267  1.00  0.00    -0.228 OA
ENDBRANCH  22  23
ENDBRANCH  21  22
ENDBRANCH  20  21
ENDBRANCH  19  20
ENDBRANCH   7  19
TORSDOF 7
ENDMDL
MODEL 4
REMARK VINA RESULT: -7.467078886      4.526      5.808
REMARK  7 active torsions:
REMARK  status: ('A' for Active; 'I' for Inactive)
REMARK    1  A    between atoms: C4_9  and  C5_10 
REMARK    2  A    between atoms: C5_10  and  C6_11 
REMARK    3  A    between atoms: N3_17  and  C11_18 
REMARK    4  A    between atoms: C11_18  and  C12_19 
REMARK    5  A    between atoms: C12_19  and  C13_20 
REMARK    6  A    between atoms: C13_20  and  C14_21 
REMARK    7  A    between atoms: C14_21  and  S1_22 
ROOT
HETATM    1  C6  UNL     1      13.169 -12.555  21.692  1.00  0.00    -0.019 A 
HETATM    2  C7  UNL     1      12.777 -13.854  21.348  1.00  0.00     0.022 A 
HETATM    3  C8  UNL     1      13.665 -14.876  21.119  1.00  0.00    -0.027 A 
HETATM    4  C9  UNL     1      13.226 -16.250  20.755  1.00  0.00     0.051 C 
HETATM    5  C10 UNL     1      15.028 -14.576  21.244  1.00  0.00     0.087 A 
HETATM    6 BR1  UNL     1      16.259 -15.988  20.927  1.00  0.00    -0.030 Br
HETATM    7  N3  UNL     1      15.433 -13.338  21.572  1.00  0.00    -0.350 N 
HETATM    8  C16 UNL     1      14.549 -12.354  21.791  1.00  0.00     0.103 A 
ENDROOT
BRANCH   1   9
HETATM    9  C5  UNL     1      12.206 -11.517  21.882  1.00  0.00     0.032 C 
BRANCH   9  10
HETATM   10  C4  UNL     1      12.234 -10.456  22.644  1.00  0.00     0.061 A 
HETATM   11  C2  UNL     1      12.878  -9.264  22.452  1.00  0.00     0.054 A 
HETATM   12  C1  UNL     1      13.637  -8.831  21.488  1.00  0.00     0.045 C 
HETATM   13  N1  UNL     1      12.580  -8.492  23.550  1.00  0.00    -0.298 N 
HETATM   14  N2  UNL     1      11.804  -9.155  24.369  1.00  0.00    -0.265 N 
ATOM     15  H1  UNL     1      12.915  -7.542  23.704  1.00  0.00     0.187 HD
HETATM   16  C3  UNL     1      11.561 -10.356  23.867  1.00  0.00     0.272 A 
ATOM     17  H2  UNL     1      11.442  -8.801  25.255  1.00  0.00     0.190 HD
HETATM   18  O1  UNL     1      10.850 -11.248  24.401  1.00  0.00    -0.266 OA
ENDBRANCH   9  10
ENDBRANCH   1   9
BRANCH   7  19
HETATM   19  C11 UNL     1      16.839 -13.076  21.688  1.00  0.00     0.129 C 
BRANCH  19  20
HETATM   20  C12 UNL     1      17.253 -11.836  20.894  1.00  0.00     0.021 C 
BRANCH  20  21
HETATM   21  C13 UNL     1      17.317 -12.279  19.458  1.00  0.00     0.016 C 
BRANCH  21  22
HETATM   22  C14 UNL     1      16.845 -11.312  18.445  1.00  0.00     0.140 C 
BRANCH  22  23
HETATM   23  S1  UNL     1      15.222 -11.611  17.824  1.00  0.00     0.140 S 
HETATM   24  C15 UNL     1      14.913 -13.362  17.800  1.00  0.00     0.161 C 
HETATM   25  O2  UNL     1      14.242 -10.956  18.788  1.00  0.00    -0.228 OA
HETATM   26  O3  UNL     1      15.075 -11.035  16.475  1.00  0.00    -0.228 OA
ENDBRANCH  22  23
ENDBRANCH  21  22
ENDBRANCH  20  21
ENDBRANCH  19  20
ENDBRANCH   7  19
TORSDOF 7
ENDMDL
MODEL 5
REMARK VINA RESULT: -7.400872785      2.286      3.598
REMARK  7 active torsions:
REMARK  status: ('A' for Active; 'I' for Inactive)
REMARK    1  A    between atoms: C4_9  and  C5_10 
REMARK    2  A    between atoms: C5_10  and  C6_11 
REMARK    3  A    between atoms: N3_17  and  C11_18 
REMARK    4  A    between atoms: C11_18  and  C12_19 
REMARK    5  A    between atoms: C12_19  and  C13_20 
REMARK    6  A    between atoms: C13_20  and  C14_21 
REMARK    7  A    between atoms: C14_21  and  S1_22 
ROOT
HETATM    1  C6  UNL     1      13.206 -12.719  21.432  1.00  0.00    -0.019 A 
HETATM    2  C7  UNL     1      12.785 -14.053  21.374  1.00  0.00     0.022 A 
HETATM    3  C8  UNL     1      13.640 -15.108  21.169  1.00  0.00    -0.027 A 
HETATM    4  C9  UNL     1      13.170 -16.518  21.110  1.00  0.00     0.051 C 
HETATM    5  C10 UNL     1      14.999 -14.805  21.014  1.00  0.00     0.087 A 
HETATM    6 BR1  UNL     1      16.185 -16.262  20.729  1.00  0.00    -0.030 Br
HETATM    7  N3  UNL     1      15.432 -13.535  21.066  1.00  0.00    -0.350 N 
HETATM    8  C16 UNL     1      14.580 -12.519  21.267  1.00  0.00     0.103 A 
ENDROOT
BRANCH   1   9
HETATM    9  C5  UNL     1      12.270 -11.655  21.610  1.00  0.00     0.032 C 
BRANCH   9  10
HETATM   10  C4  UNL     1      12.329 -10.582  22.354  1.00  0.00     0.061 A 
HETATM   11  C2  UNL     1      13.005  -9.412  22.140  1.00  0.00     0.054 A 
HETATM   12  C1  UNL     1      13.773  -9.016  21.167  1.00  0.00     0.045 C 
HETATM   13  N1  UNL     1      12.731  -8.613  23.225  1.00  0.00    -0.298 N 
HETATM   14  N2  UNL     1      11.939  -9.240  24.057  1.00  0.00    -0.265 N 
ATOM     15  H1  UNL     1      13.092  -7.670  23.362  1.00  0.00     0.187 HD
HETATM   16  C3  UNL     1      11.662 -10.443  23.577  1.00  0.00     0.272 A 
ATOM     17  H2  UNL     1      11.589  -8.861  24.937  1.00  0.00     0.190 HD
HETATM   18  O1  UNL     1      10.928 -11.306  24.127  1.00  0.00    -0.266 OA
ENDBRANCH   9  10
ENDBRANCH   1   9
BRANCH   7  19
HETATM   19  C11 UNL     1      16.832 -13.272  20.901  1.00  0.00     0.129 C 
BRANCH  19  20
HETATM   20  C12 UNL     1      17.400 -12.464  22.070  1.00  0.00     0.021 C 
BRANCH  20  21
HETATM   21  C13 UNL     1      17.783 -13.478  23.112  1.00  0.00     0.016 C 
BRANCH  21  22
HETATM   22  C14 UNL     1      18.941 -14.343  22.801  1.00  0.00     0.140 C 
BRANCH  22  23
HETATM   23  S1  UNL     1      20.516 -13.650  23.189  1.00  0.00     0.140 S 
HETATM   24  C15 UNL     1      20.389 -12.693  24.683  1.00  0.00     0.161 C 
HETATM   25  O2  UNL     1      21.473 -14.809  23.433  1.00  0.00    -0.228 OA
HETATM   26  O3  UNL     1      20.997 -12.816  22.073  1.00  0.00    -0.228 OA
ENDBRANCH  22  23
ENDBRANCH  21  22
ENDBRANCH  20  21
ENDBRANCH  19  20
ENDBRANCH   7  19
TORSDOF 7
ENDMDL
