MODEL 1
REMARK VINA RESULT: -5.919756652      0.000      0.000
REMARK  15 active torsions:
REMARK  status: ('A' for Active; 'I' for Inactive)
REMARK    1  A    between atoms: O1_2  and  C2_3 
REMARK    2  A    between atoms: C2_3  and  O2_4 
REMARK    3  A    between atoms: C2_3  and  C3_6 
REMARK    4  A    between atoms: C3_6  and  O3_7 
REMARK    5  A    between atoms: O3_7  and  C4_8 
REMARK    6  A    between atoms: C5_9  and  O4_10 
REMARK    7  A    between atoms: O4_10  and  C6_11 
REMARK    8  A    between atoms: C7_13  and  C8_14 
REMARK    9  A    between atoms: C8_14  and  O6_15 
REMARK   10  A    between atoms: C9_17  and  O7_18 
REMARK   11  A    between atoms: C10_20  and  O8_21 
REMARK   12  A    between atoms: C11_23  and  O9_24 
REMARK   13  A    between atoms: C16_30  and  C17_31 
REMARK   14  A    between atoms: C18_32  and  C19_33 
REMARK   15  A    between atoms: C19_33  and  C21_35 
ROOT
HETATM    1  C4  UNL     1      33.817 -43.219  -3.783  1.00  0.00     0.088 A 
HETATM    2  C5  UNL     1      34.610 -42.483  -4.568  1.00  0.00     0.101 A 
HETATM    3  C12 UNL     1      35.093 -41.187  -4.158  1.00  0.00     0.036 A 
HETATM    4  C13 UNL     1      34.776 -40.679  -2.987  1.00  0.00    -0.019 A 
HETATM    5  C14 UNL     1      33.930 -41.398  -2.054  1.00  0.00     0.018 A 
HETATM    6  C15 UNL     1      32.822 -40.424  -1.628  1.00  0.00     0.015 C 
HETATM    7  C16 UNL     1      33.397 -42.723  -2.481  1.00  0.00     0.075 A 
ENDROOT
BRANCH   2   8
HETATM    8  O4  UNL     1      34.991 -42.993  -5.836  1.00  0.00    -0.315 OA
BRANCH   8   9
HETATM    9  C6  UNL     1      35.195 -42.031  -6.852  1.00  0.00     0.298 C 
HETATM   10  O5  UNL     1      36.021 -42.638  -7.827  1.00  0.00    -0.348 OA
HETATM   11  C7  UNL     1      36.467 -41.596  -8.637  1.00  0.00     0.179 C 
HETATM   12  C9  UNL     1      35.345 -41.221  -9.556  1.00  0.00     0.180 C 
HETATM   13  C10 UNL     1      33.989 -41.591  -9.011  1.00  0.00     0.183 C 
HETATM   14  C11 UNL     1      33.938 -41.591  -7.509  1.00  0.00     0.205 C 
BRANCH  11  15
HETATM   15  C8  UNL     1      37.750 -41.917  -9.339  1.00  0.00     0.198 C 
BRANCH  15  16
HETATM   16  O6  UNL     1      38.321 -40.714  -9.752  1.00  0.00    -0.398 OA
ATOM     17  H6  UNL     1      39.193 -40.904 -10.079  1.00  0.00     0.209 HD
ENDBRANCH  15  16
ENDBRANCH  11  15
BRANCH  12  18
HETATM   18  O7  UNL     1      35.449 -39.878  -9.867  1.00  0.00    -0.390 OA
ATOM     19  H7  UNL     1      34.683 -39.425  -9.533  1.00  0.00     0.210 HD
ENDBRANCH  12  18
BRANCH  13  20
HETATM   20  O8  UNL     1      33.074 -40.660  -9.503  1.00  0.00    -0.390 OA
ATOM     21  H8  UNL     1      32.358 -40.608  -8.879  1.00  0.00     0.210 HD
ENDBRANCH  13  20
BRANCH  14  22
HETATM   22  O9  UNL     1      33.638 -40.290  -7.099  1.00  0.00    -0.388 OA
ATOM     23  H9  UNL     1      33.089 -40.326  -6.324  1.00  0.00     0.210 HD
ENDBRANCH  14  22
ENDBRANCH   8   9
ENDBRANCH   2   8
BRANCH   1  24
HETATM   24  O3  UNL     1      33.445 -44.419  -4.277  1.00  0.00    -0.347 OA
BRANCH  24  25
HETATM   25  C3  UNL     1      33.605 -45.730  -3.919  1.00  0.00     0.235 C 
BRANCH  25  26
HETATM   26  C2  UNL     1      33.491 -45.910  -2.385  1.00  0.00     0.280 C 
BRANCH  26  27
HETATM   27  O1  UNL     1      32.723 -47.021  -2.089  1.00  0.00    -0.364 OA
HETATM   28  C1  UNL     1      33.061 -47.589  -0.868  1.00  0.00     0.204 C 
ENDBRANCH  26  27
BRANCH  26  29
HETATM   29  O2  UNL     1      34.775 -46.136  -1.918  1.00  0.00    -0.369 OA
ATOM     30  H2  UNL     1      34.721 -46.363  -0.998  1.00  0.00     0.212 HD
ENDBRANCH  26  29
ENDBRANCH  25  26
ENDBRANCH  24  25
ENDBRANCH   1  24
BRANCH   7  31
HETATM   31  C17 UNL     1      31.898 -42.589  -2.381  1.00  0.00    -0.018 C 
HETATM   32  C18 UNL     1      31.210 -42.303  -3.460  1.00  0.00    -0.025 C 
BRANCH  32  33
HETATM   33  C19 UNL     1      29.732 -42.146  -3.487  1.00  0.00     0.007 C 
HETATM   34  C20 UNL     1      29.208 -41.252  -2.410  1.00  0.00     0.014 C 
BRANCH  33  35
HETATM   35  C21 UNL     1      29.309 -41.679  -4.866  1.00  0.00    -0.015 C 
HETATM   36  C22 UNL     1      28.566 -40.362  -4.801  1.00  0.00     0.010 C 
HETATM   37  C23 UNL     1      30.516 -41.454  -5.760  1.00  0.00     0.010 C 
ENDBRANCH  33  35
ENDBRANCH  32  33
ENDBRANCH   7  31
TORSDOF 15
ENDMDL
MODEL 2
REMARK VINA RESULT: -5.836035932      3.040      6.466
REMARK  15 active torsions:
REMARK  status: ('A' for Active; 'I' for Inactive)
REMARK    1  A    between atoms: O1_2  and  C2_3 
REMARK    2  A    between atoms: C2_3  and  O2_4 
REMARK    3  A    between atoms: C2_3  and  C3_6 
REMARK    4  A    between atoms: C3_6  and  O3_7 
REMARK    5  A    between atoms: O3_7  and  C4_8 
REMARK    6  A    between atoms: C5_9  and  O4_10 
REMARK    7  A    between atoms: O4_10  and  C6_11 
REMARK    8  A    between atoms: C7_13  and  C8_14 
REMARK    9  A    between atoms: C8_14  and  O6_15 
REMARK   10  A    between atoms: C9_17  and  O7_18 
REMARK   11  A    between atoms: C10_20  and  O8_21 
REMARK   12  A    between atoms: C11_23  and  O9_24 
REMARK   13  A    between atoms: C16_30  and  C17_31 
REMARK   14  A    between atoms: C18_32  and  C19_33 
REMARK   15  A    between atoms: C19_33  and  C21_35 
ROOT
HETATM    1  C4  UNL     1      36.426 -41.882  -8.528  1.00  0.00     0.088 A 
HETATM    2  C5  UNL     1      37.539 -42.265  -9.160  1.00  0.00     0.101 A 
HETATM    3  C12 UNL     1      38.289 -41.359  -9.995  1.00  0.00     0.036 A 
HETATM    4  C13 UNL     1      37.909 -40.111 -10.162  1.00  0.00    -0.019 A 
HETATM    5  C14 UNL     1      36.721 -39.589  -9.514  1.00  0.00     0.018 A 
HETATM    6  C15 UNL     1      35.885 -38.914 -10.611  1.00  0.00     0.015 C 
HETATM    7  C16 UNL     1      35.919 -40.526  -8.677  1.00  0.00     0.075 A 
ENDROOT
BRANCH   2   8
HETATM    8  O4  UNL     1      37.999 -43.598  -9.000  1.00  0.00    -0.315 OA
BRANCH   8   9
HETATM    9  C6  UNL     1      39.365 -43.743  -8.660  1.00  0.00     0.298 C 
HETATM   10  O5  UNL     1      39.846 -44.862  -9.379  1.00  0.00    -0.348 OA
HETATM   11  C7  UNL     1      41.072 -45.178  -8.797  1.00  0.00     0.179 C 
HETATM   12  C9  UNL     1      42.082 -44.191  -9.298  1.00  0.00     0.180 C 
HETATM   13  C10 UNL     1      41.463 -42.892  -9.749  1.00  0.00     0.183 C 
HETATM   14  C11 UNL     1      40.190 -42.562  -9.020  1.00  0.00     0.205 C 
BRANCH  11  15
HETATM   15  C8  UNL     1      41.461 -46.608  -9.007  1.00  0.00     0.198 C 
BRANCH  15  16
HETATM   16  O6  UNL     1      40.296 -47.374  -8.977  1.00  0.00    -0.398 OA
ATOM     17  H6  UNL     1      39.814 -47.201  -9.778  1.00  0.00     0.209 HD
ENDBRANCH  15  16
ENDBRANCH  11  15
BRANCH  12  18
HETATM   18  O7  UNL     1      43.053 -44.013  -8.330  1.00  0.00    -0.390 OA
ATOM     19  H7  UNL     1      43.902 -43.956  -8.753  1.00  0.00     0.210 HD
ENDBRANCH  12  18
BRANCH  13  20
HETATM   20  O8  UNL     1      42.399 -41.883  -9.522  1.00  0.00    -0.390 OA
ATOM     21  H8  UNL     1      41.958 -41.052  -9.653  1.00  0.00     0.210 HD
ENDBRANCH  13  20
BRANCH  14  22
HETATM   22  O9  UNL     1      40.540 -41.875  -7.855  1.00  0.00    -0.388 OA
ATOM     23  H9  UNL     1      40.636 -40.951  -8.055  1.00  0.00     0.210 HD
ENDBRANCH  14  22
ENDBRANCH   8   9
ENDBRANCH   2   8
BRANCH   1  24
HETATM   24  O3  UNL     1      35.825 -42.821  -7.767  1.00  0.00    -0.347 OA
BRANCH  24  25
HETATM   25  C3  UNL     1      34.686 -42.905  -7.013  1.00  0.00     0.235 C 
BRANCH  25  26
HETATM   26  C2  UNL     1      34.960 -42.524  -5.537  1.00  0.00     0.280 C 
BRANCH  26  27
HETATM   27  O1  UNL     1      34.329 -41.334  -5.225  1.00  0.00    -0.364 OA
HETATM   28  C1  UNL     1      34.329 -41.077  -3.860  1.00  0.00     0.204 C 
ENDBRANCH  26  27
BRANCH  26  29
HETATM   29  O2  UNL     1      34.402 -43.527  -4.761  1.00  0.00    -0.369 OA
ATOM     30  H2  UNL     1      33.798 -44.021  -5.304  1.00  0.00     0.212 HD
ENDBRANCH  26  29
ENDBRANCH  25  26
ENDBRANCH  24  25
ENDBRANCH   1  24
BRANCH   7  31
HETATM   31  C17 UNL     1      34.536 -40.500  -9.280  1.00  0.00    -0.018 C 
HETATM   32  C18 UNL     1      33.495 -40.488  -8.484  1.00  0.00    -0.025 C 
BRANCH  32  33
HETATM   33  C19 UNL     1      32.086 -40.461  -8.958  1.00  0.00     0.007 C 
HETATM   34  C20 UNL     1      31.900 -41.077 -10.307  1.00  0.00     0.014 C 
BRANCH  33  35
HETATM   35  C21 UNL     1      31.198 -41.108  -7.913  1.00  0.00    -0.015 C 
HETATM   36  C22 UNL     1      31.467 -40.548  -6.534  1.00  0.00     0.010 C 
HETATM   37  C23 UNL     1      29.731 -40.851  -8.210  1.00  0.00     0.010 C 
ENDBRANCH  33  35
ENDBRANCH  32  33
ENDBRANCH   7  31
TORSDOF 15
ENDMDL
MODEL 3
REMARK VINA RESULT: -5.811383213      2.512      7.046
REMARK  15 active torsions:
REMARK  status: ('A' for Active; 'I' for Inactive)
REMARK    1  A    between atoms: O1_2  and  C2_3 
REMARK    2  A    between atoms: C2_3  and  O2_4 
REMARK    3  A    between atoms: C2_3  and  C3_6 
REMARK    4  A    between atoms: C3_6  and  O3_7 
REMARK    5  A    between atoms: O3_7  and  C4_8 
REMARK    6  A    between atoms: C5_9  and  O4_10 
REMARK    7  A    between atoms: O4_10  and  C6_11 
REMARK    8  A    between atoms: C7_13  and  C8_14 
REMARK    9  A    between atoms: C8_14  and  O6_15 
REMARK   10  A    between atoms: C9_17  and  O7_18 
REMARK   11  A    between atoms: C10_20  and  O8_21 
REMARK   12  A    between atoms: C11_23  and  O9_24 
REMARK   13  A    between atoms: C16_30  and  C17_31 
REMARK   14  A    between atoms: C18_32  and  C19_33 
REMARK   15  A    between atoms: C19_33  and  C21_35 
ROOT
HETATM    1  C4  UNL     1      34.426 -42.252  -6.222  1.00  0.00     0.088 A 
HETATM    2  C5  UNL     1      34.287 -41.106  -5.548  1.00  0.00     0.101 A 
HETATM    3  C12 UNL     1      33.854 -39.892  -6.195  1.00  0.00     0.036 A 
HETATM    4  C13 UNL     1      33.570 -39.865  -7.479  1.00  0.00    -0.019 A 
HETATM    5  C14 UNL     1      33.677 -41.055  -8.302  1.00  0.00     0.018 A 
HETATM    6  C15 UNL     1      34.517 -40.666  -9.527  1.00  0.00     0.015 C 
HETATM    7  C16 UNL     1      34.157 -42.308  -7.651  1.00  0.00     0.075 A 
ENDROOT
BRANCH   2   8
HETATM    8  O4  UNL     1      34.568 -41.086  -4.157  1.00  0.00    -0.315 OA
BRANCH   8   9
HETATM    9  C6  UNL     1      33.502 -40.682  -3.319  1.00  0.00     0.298 C 
HETATM   10  O5  UNL     1      32.621 -41.784  -3.223  1.00  0.00    -0.348 OA
HETATM   11  C7  UNL     1      31.446 -41.274  -2.675  1.00  0.00     0.179 C 
HETATM   12  C9  UNL     1      31.671 -41.093  -1.205  1.00  0.00     0.180 C 
HETATM   13  C10 UNL     1      33.126 -40.931  -0.847  1.00  0.00     0.183 C 
HETATM   14  C11 UNL     1      33.938 -40.309  -1.949  1.00  0.00     0.205 C 
BRANCH  11  15
HETATM   15  C8  UNL     1      30.244 -42.101  -3.011  1.00  0.00     0.198 C 
BRANCH  15  16
HETATM   16  O6  UNL     1      29.112 -41.321  -2.774  1.00  0.00    -0.398 OA
ATOM     17  H6  UNL     1      28.682 -41.662  -1.999  1.00  0.00     0.209 HD
ENDBRANCH  15  16
ENDBRANCH  11  15
BRANCH  12  18
HETATM   18  O7  UNL     1      30.890 -40.042  -0.759  1.00  0.00    -0.390 OA
ATOM     19  H7  UNL     1      30.586 -40.237   0.120  1.00  0.00     0.210 HD
ENDBRANCH  12  18
BRANCH  13  20
HETATM   20  O8  UNL     1      33.190 -40.121   0.286  1.00  0.00    -0.390 OA
ATOM     21  H8  UNL     1      33.787 -39.407   0.092  1.00  0.00     0.210 HD
ENDBRANCH  13  20
BRANCH  14  22
HETATM   22  O9  UNL     1      33.851 -38.923  -1.802  1.00  0.00    -0.388 OA
ATOM     23  H9  UNL     1      34.266 -38.669  -0.986  1.00  0.00     0.210 HD
ENDBRANCH  14  22
ENDBRANCH   8   9
ENDBRANCH   2   8
BRANCH   1  24
HETATM   24  O3  UNL     1      34.825 -43.319  -5.498  1.00  0.00    -0.347 OA
BRANCH  24  25
HETATM   25  C3  UNL     1      34.288 -44.524  -5.132  1.00  0.00     0.235 C 
BRANCH  25  26
HETATM   26  C2  UNL     1      33.372 -44.377  -3.893  1.00  0.00     0.280 C 
BRANCH  26  27
HETATM   27  O1  UNL     1      32.766 -45.585  -3.599  1.00  0.00    -0.364 OA
HETATM   28  C1  UNL     1      33.515 -46.352  -2.718  1.00  0.00     0.204 C 
ENDBRANCH  26  27
BRANCH  26  29
HETATM   29  O2  UNL     1      34.194 -44.036  -2.832  1.00  0.00    -0.369 OA
ATOM     30  H2  UNL     1      33.825 -43.273  -2.403  1.00  0.00     0.212 HD
ENDBRANCH  26  29
ENDBRANCH  25  26
ENDBRANCH  24  25
ENDBRANCH   1  24
BRANCH   7  31
HETATM   31  C17 UNL     1      35.375 -42.714  -8.443  1.00  0.00    -0.018 C 
HETATM   32  C18 UNL     1      36.541 -42.207  -8.123  1.00  0.00    -0.025 C 
BRANCH  32  33
HETATM   33  C19 UNL     1      37.810 -42.531  -8.826  1.00  0.00     0.007 C 
HETATM   34  C20 UNL     1      37.736 -43.781  -9.642  1.00  0.00     0.014 C 
BRANCH  33  35
HETATM   35  C21 UNL     1      38.235 -41.337  -9.658  1.00  0.00    -0.015 C 
HETATM   36  C22 UNL     1      37.574 -40.064  -9.178  1.00  0.00     0.010 C 
HETATM   37  C23 UNL     1      39.734 -41.113  -9.564  1.00  0.00     0.010 C 
ENDBRANCH  33  35
ENDBRANCH  32  33
ENDBRANCH   7  31
TORSDOF 15
ENDMDL
MODEL 4
REMARK VINA RESULT: -5.733339537      2.239      7.266
REMARK  15 active torsions:
REMARK  status: ('A' for Active; 'I' for Inactive)
REMARK    1  A    between atoms: O1_2  and  C2_3 
REMARK    2  A    between atoms: C2_3  and  O2_4 
REMARK    3  A    between atoms: C2_3  and  C3_6 
REMARK    4  A    between atoms: C3_6  and  O3_7 
REMARK    5  A    between atoms: O3_7  and  C4_8 
REMARK    6  A    between atoms: C5_9  and  O4_10 
REMARK    7  A    between atoms: O4_10  and  C6_11 
REMARK    8  A    between atoms: C7_13  and  C8_14 
REMARK    9  A    between atoms: C8_14  and  O6_15 
REMARK   10  A    between atoms: C9_17  and  O7_18 
REMARK   11  A    between atoms: C10_20  and  O8_21 
REMARK   12  A    between atoms: C11_23  and  O9_24 
REMARK   13  A    between atoms: C16_30  and  C17_31 
REMARK   14  A    between atoms: C18_32  and  C19_33 
REMARK   15  A    between atoms: C19_33  and  C21_35 
ROOT
HETATM    1  C4  UNL     1      35.028 -41.550  -7.569  1.00  0.00     0.088 A 
HETATM    2  C5  UNL     1      34.235 -40.497  -7.347  1.00  0.00     0.101 A 
HETATM    3  C12 UNL     1      33.950 -39.531  -8.380  1.00  0.00     0.036 A 
HETATM    4  C13 UNL     1      34.455 -39.653  -9.588  1.00  0.00    -0.019 A 
HETATM    5  C14 UNL     1      35.319 -40.764  -9.939  1.00  0.00     0.018 A 
HETATM    6  C15 UNL     1      36.571 -40.156 -10.589  1.00  0.00     0.015 C 
HETATM    7  C16 UNL     1      35.649 -41.749  -8.869  1.00  0.00     0.075 A 
ENDROOT
BRANCH   2   8
HETATM    8  O4  UNL     1      33.654 -40.328  -6.064  1.00  0.00    -0.315 OA
BRANCH   8   9
HETATM    9  C6  UNL     1      32.537 -41.148  -5.780  1.00  0.00     0.298 C 
HETATM   10  O5  UNL     1      32.263 -40.998  -4.400  1.00  0.00    -0.348 OA
HETATM   11  C7  UNL     1      31.389 -42.034  -4.080  1.00  0.00     0.179 C 
HETATM   12  C9  UNL     1      30.029 -41.653  -4.578  1.00  0.00     0.180 C 
HETATM   13  C10 UNL     1      30.074 -40.660  -5.711  1.00  0.00     0.183 C 
HETATM   14  C11 UNL     1      31.320 -40.772  -6.543  1.00  0.00     0.205 C 
BRANCH  11  15
HETATM   15  C8  UNL     1      31.428 -42.397  -2.628  1.00  0.00     0.198 C 
BRANCH  15  16
HETATM   16  O6  UNL     1      32.674 -42.021  -2.129  1.00  0.00    -0.398 OA
ATOM     17  H6  UNL     1      32.540 -41.300  -1.525  1.00  0.00     0.209 HD
ENDBRANCH  15  16
ENDBRANCH  11  15
BRANCH  12  18
HETATM   18  O7  UNL     1      29.331 -42.802  -4.901  1.00  0.00    -0.390 OA
ATOM     19  H7  UNL     1      29.668 -43.147  -5.719  1.00  0.00     0.210 HD
ENDBRANCH  12  18
BRANCH  13  20
HETATM   20  O8  UNL     1      28.959 -40.895  -6.516  1.00  0.00    -0.390 OA
ATOM     21  H8  UNL     1      29.274 -41.249  -7.340  1.00  0.00     0.210 HD
ENDBRANCH  13  20
BRANCH  14  22
HETATM   22  O9  UNL     1      31.082 -41.734  -7.528  1.00  0.00    -0.388 OA
ATOM     23  H9  UNL     1      30.539 -41.354  -8.209  1.00  0.00     0.210 HD
ENDBRANCH  14  22
ENDBRANCH   8   9
ENDBRANCH   2   8
BRANCH   1  24
HETATM   24  O3  UNL     1      35.204 -42.387  -6.524  1.00  0.00    -0.347 OA
BRANCH  24  25
HETATM   25  C3  UNL     1      34.854 -43.674  -6.216  1.00  0.00     0.235 C 
BRANCH  25  26
HETATM   26  C2  UNL     1      34.126 -43.746  -4.851  1.00  0.00     0.280 C 
BRANCH  26  27
HETATM   27  O1  UNL     1      34.231 -45.018  -4.319  1.00  0.00    -0.364 OA
HETATM   28  C1  UNL     1      33.162 -45.336  -3.492  1.00  0.00     0.204 C 
ENDBRANCH  26  27
BRANCH  26  29
HETATM   29  O2  UNL     1      34.783 -42.867  -4.007  1.00  0.00    -0.369 OA
ATOM     30  H2  UNL     1      35.092 -42.133  -4.524  1.00  0.00     0.212 HD
ENDBRANCH  26  29
ENDBRANCH  25  26
ENDBRANCH  24  25
ENDBRANCH   1  24
BRANCH   7  31
HETATM   31  C17 UNL     1      37.155 -41.743  -8.787  1.00  0.00    -0.018 C 
HETATM   32  C18 UNL     1      37.821 -42.788  -9.215  1.00  0.00    -0.025 C 
BRANCH  32  33
HETATM   33  C19 UNL     1      39.304 -42.898  -9.186  1.00  0.00     0.007 C 
HETATM   34  C20 UNL     1      39.974 -41.742  -8.518  1.00  0.00     0.014 C 
BRANCH  33  35
HETATM   35  C21 UNL     1      39.690 -44.220  -8.551  1.00  0.00    -0.015 C 
HETATM   36  C22 UNL     1      40.012 -45.264  -9.597  1.00  0.00     0.010 C 
HETATM   37  C23 UNL     1      40.932 -44.067  -7.690  1.00  0.00     0.010 C 
ENDBRANCH  33  35
ENDBRANCH  32  33
ENDBRANCH   7  31
TORSDOF 15
ENDMDL
MODEL 5
REMARK VINA RESULT: -5.716927751      3.259      6.924
REMARK  15 active torsions:
REMARK  status: ('A' for Active; 'I' for Inactive)
REMARK    1  A    between atoms: O1_2  and  C2_3 
REMARK    2  A    between atoms: C2_3  and  O2_4 
REMARK    3  A    between atoms: C2_3  and  C3_6 
REMARK    4  A    between atoms: C3_6  and  O3_7 
REMARK    5  A    between atoms: O3_7  and  C4_8 
REMARK    6  A    between atoms: C5_9  and  O4_10 
REMARK    7  A    between atoms: O4_10  and  C6_11 
REMARK    8  A    between atoms: C7_13  and  C8_14 
REMARK    9  A    between atoms: C8_14  and  O6_15 
REMARK   10  A    between atoms: C9_17  and  O7_18 
REMARK   11  A    between atoms: C10_20  and  O8_21 
REMARK   12  A    between atoms: C11_23  and  O9_24 
REMARK   13  A    between atoms: C16_30  and  C17_31 
REMARK   14  A    between atoms: C18_32  and  C19_33 
REMARK   15  A    between atoms: C19_33  and  C21_35 
ROOT
HETATM    1  C4  UNL     1      34.504 -44.251  -1.298  1.00  0.00     0.088 A 
HETATM    2  C5  UNL     1      33.911 -43.975  -2.463  1.00  0.00     0.101 A 
HETATM    3  C12 UNL     1      33.155 -44.969  -3.185  1.00  0.00     0.036 A 
HETATM    4  C13 UNL     1      33.013 -46.191  -2.720  1.00  0.00    -0.019 A 
HETATM    5  C14 UNL     1      33.606 -46.594  -1.459  1.00  0.00     0.018 A 
HETATM    6  C15 UNL     1      34.383 -47.890  -1.736  1.00  0.00     0.015 C 
HETATM    7  C16 UNL     1      34.419 -45.585  -0.721  1.00  0.00     0.075 A 
ENDROOT
BRANCH   2   8
HETATM    8  O4  UNL     1      34.023 -42.667  -3.001  1.00  0.00    -0.315 OA
BRANCH   8   9
HETATM    9  C6  UNL     1      33.414 -42.464  -4.262  1.00  0.00     0.298 C 
HETATM   10  O5  UNL     1      32.324 -41.588  -4.051  1.00  0.00    -0.348 OA
HETATM   11  C7  UNL     1      31.561 -41.658  -5.214  1.00  0.00     0.179 C 
HETATM   12  C9  UNL     1      32.251 -40.839  -6.262  1.00  0.00     0.180 C 
HETATM   13  C10 UNL     1      33.730 -40.688  -6.010  1.00  0.00     0.183 C 
HETATM   14  C11 UNL     1      34.323 -41.851  -5.263  1.00  0.00     0.205 C 
BRANCH  11  15
HETATM   15  C8  UNL     1      30.129 -41.280  -4.991  1.00  0.00     0.198 C 
BRANCH  15  16
HETATM   16  O6  UNL     1      29.486 -41.299  -6.228  1.00  0.00    -0.398 OA
ATOM     17  H6  UNL     1      29.639 -40.461  -6.648  1.00  0.00     0.209 HD
ENDBRANCH  15  16
ENDBRANCH  11  15
BRANCH  12  18
HETATM   18  O7  UNL     1      31.972 -41.375  -7.505  1.00  0.00    -0.390 OA
ATOM     19  H7  UNL     1      31.696 -40.676  -8.086  1.00  0.00     0.210 HD
ENDBRANCH  12  18
BRANCH  13  20
HETATM   20  O8  UNL     1      34.355 -40.573  -7.252  1.00  0.00    -0.390 OA
ATOM     21  H8  UNL     1      33.936 -39.856  -7.715  1.00  0.00     0.210 HD
ENDBRANCH  13  20
BRANCH  14  22
HETATM   22  O9  UNL     1      34.683 -42.816  -6.207  1.00  0.00    -0.388 OA
ATOM     23  H9  UNL     1      34.533 -43.680  -5.841  1.00  0.00     0.210 HD
ENDBRANCH  14  22
ENDBRANCH   8   9
ENDBRANCH   2   8
BRANCH   1  24
HETATM   24  O3  UNL     1      35.169 -43.231  -0.717  1.00  0.00    -0.347 OA
BRANCH  24  25
HETATM   25  C3  UNL     1      35.678 -42.959   0.525  1.00  0.00     0.235 C 
BRANCH  25  26
HETATM   26  C2  UNL     1      35.767 -41.434   0.774  1.00  0.00     0.280 C 
BRANCH  26  27
HETATM   27  O1  UNL     1      34.898 -41.061   1.783  1.00  0.00    -0.364 OA
HETATM   28  C1  UNL     1      34.857 -39.686   1.965  1.00  0.00     0.204 C 
ENDBRANCH  26  27
BRANCH  26  29
HETATM   29  O2  UNL     1      37.060 -41.179   1.200  1.00  0.00    -0.369 OA
ATOM     30  H2  UNL     1      37.659 -41.475   0.525  1.00  0.00     0.212 HD
ENDBRANCH  26  29
ENDBRANCH  25  26
ENDBRANCH  24  25
ENDBRANCH   1  24
BRANCH   7  31
HETATM   31  C17 UNL     1      35.777 -46.222  -0.561  1.00  0.00    -0.018 C 
HETATM   32  C18 UNL     1      36.162 -46.610   0.631  1.00  0.00    -0.025 C 
BRANCH  32  33
HETATM   33  C19 UNL     1      37.473 -47.250   0.914  1.00  0.00     0.007 C 
HETATM   34  C20 UNL     1      38.266 -46.542   1.965  1.00  0.00     0.014 C 
BRANCH  33  35
HETATM   35  C21 UNL     1      37.248 -48.708   1.262  1.00  0.00    -0.015 C 
HETATM   36  C22 UNL     1      35.825 -48.958   1.712  1.00  0.00     0.010 C 
HETATM   37  C23 UNL     1      37.487 -49.599   0.056  1.00  0.00     0.010 C 
ENDBRANCH  33  35
ENDBRANCH  32  33
ENDBRANCH   7  31
TORSDOF 15
ENDMDL
