MODEL 1
REMARK VINA RESULT: -6.991345046      0.000      0.000
REMARK  14 active torsions:
REMARK  status: ('A' for Active; 'I' for Inactive)
REMARK    1  A    between atoms: O1_2  and  C2_3 
REMARK    2  A    between atoms: C2_3  and  C3_5 
REMARK    3  A    between atoms: C5_10  and  S1_11 
REMARK    4  A    between atoms: S1_11  and  C6_12 
REMARK    5  A    between atoms: C6_12  and  C7_13 
REMARK    6  A    between atoms: C7_13  and  C8_14 
REMARK    7  A    between atoms: C8_14  and  S2_15 
REMARK    8  A    between atoms: S2_15  and  C9_16 
REMARK    9  A    between atoms: C9_16  and  C10_17 
REMARK   10  A    between atoms: C12_19  and  O3_20 
REMARK   11  A    between atoms: C13_22  and  O4_23 
REMARK   12  A    between atoms: C14_25  and  O5_26 
REMARK   13  A    between atoms: O5_26  and  C15_27 
REMARK   14  A    between atoms: C19_31  and  O6_32 
ROOT
HETATM    1  S2  UNL     1      33.688 -41.443  -3.216  1.00  0.00    -0.169 SA
ENDROOT
BRANCH   1   2
HETATM    2  C8  UNL     1      32.277 -42.386  -2.806  1.00  0.00     0.074 C 
BRANCH   2   3
HETATM    3  C7  UNL     1      32.443 -43.862  -3.005  1.00  0.00     0.020 C 
BRANCH   3   4
HETATM    4  C6  UNL     1      33.574 -44.488  -2.275  1.00  0.00     0.077 C 
BRANCH   4   5
HETATM    5  S1  UNL     1      33.586 -46.263  -2.762  1.00  0.00    -0.135 SA
BRANCH   5   6
HETATM    6  C5  UNL     1      33.969 -47.291  -1.313  1.00  0.00     0.275 C 
HETATM    7  C4  UNL     1      35.015 -46.557  -0.514  1.00  0.00     0.279 C 
HETATM    8  N1  UNL     1      36.243 -46.920  -1.239  1.00  0.00    -0.034 N 
HETATM    9  C3  UNL     1      36.034 -48.319  -1.581  1.00  0.00     0.481 C 
ATOM     10  H12 UNL     1      37.106 -46.734  -0.728  1.00  0.00     0.280 HD
ATOM     11  H11 UNL     1      36.458 -46.318  -2.034  1.00  0.00     0.280 HD
HETATM   12  N2  UNL     1      34.628 -48.503  -1.723  1.00  0.00    -0.022 N 
ATOM     13  H22 UNL     1      34.364 -48.794  -2.664  1.00  0.00     0.281 HD
ATOM     14  H21 UNL     1      34.288 -49.324  -1.223  1.00  0.00     0.281 HD
BRANCH   9  15
HETATM   15  C2  UNL     1      36.745 -48.683  -2.831  1.00  0.00     0.317 C 
HETATM   16  O2  UNL     1      36.348 -49.647  -3.545  1.00  0.00    -0.261 OA
BRANCH  15  17
HETATM   17  O1  UNL     1      37.861 -47.986  -3.256  1.00  0.00    -0.323 OA
HETATM   18  C1  UNL     1      38.635 -48.397  -4.347  1.00  0.00     0.213 C 
ENDBRANCH  15  17
ENDBRANCH   9  15
ENDBRANCH   5   6
ENDBRANCH   4   5
ENDBRANCH   3   4
ENDBRANCH   2   3
ENDBRANCH   1   2
BRANCH   1  19
HETATM   19  C9  UNL     1      34.755 -42.040  -4.470  1.00  0.00     0.081 C 
BRANCH  19  20
HETATM   20  C10 UNL     1      34.609 -41.263  -5.778  1.00  0.00     0.029 C 
HETATM   21  C11 UNL     1      33.214 -40.925  -6.152  1.00  0.00     0.042 C 
HETATM   22  C12 UNL     1      33.119 -40.690  -7.651  1.00  0.00     0.150 C 
HETATM   23  C13 UNL     1      34.458 -40.264  -8.205  1.00  0.00     0.178 C 
HETATM   24  C14 UNL     1      35.439 -41.406  -8.160  1.00  0.00     0.182 C 
HETATM   25  C19 UNL     1      35.258 -42.112  -6.849  1.00  0.00     0.154 C 
BRANCH  22  26
HETATM   26  O3  UNL     1      32.663 -41.828  -8.268  1.00  0.00    -0.393 OA
ATOM     27  H3  UNL     1      33.381 -42.253  -8.724  1.00  0.00     0.210 HD
ENDBRANCH  22  26
BRANCH  23  28
HETATM   28  O4  UNL     1      34.267 -39.835  -9.520  1.00  0.00    -0.390 OA
ATOM     29  H4  UNL     1      33.912 -40.562 -10.018  1.00  0.00     0.210 HD
ENDBRANCH  23  28
BRANCH  24  30
HETATM   30  O5  UNL     1      36.704 -40.857  -8.170  1.00  0.00    -0.371 OA
BRANCH  30  31
HETATM   31  C15 UNL     1      37.544 -41.223  -9.168  1.00  0.00     0.051 C 
HETATM   32  C16 UNL     1      37.046 -42.593  -9.663  1.00  0.00     0.045 C 
HETATM   33  C17 UNL     1      38.984 -41.446  -8.773  1.00  0.00     0.045 C 
HETATM   34  C18 UNL     1      37.489 -40.327 -10.387  1.00  0.00     0.045 C 
ENDBRANCH  30  31
ENDBRANCH  24  30
BRANCH  25  35
HETATM   35  O6  UNL     1      34.613 -43.336  -6.932  1.00  0.00    -0.392 OA
ATOM     36  H6  UNL     1      35.231 -44.008  -7.195  1.00  0.00     0.210 HD
ENDBRANCH  25  35
ENDBRANCH  19  20
ENDBRANCH   1  19
TORSDOF 14
ENDMDL
MODEL 2
REMARK VINA RESULT: -6.883563973      1.716      2.248
REMARK  14 active torsions:
REMARK  status: ('A' for Active; 'I' for Inactive)
REMARK    1  A    between atoms: O1_2  and  C2_3 
REMARK    2  A    between atoms: C2_3  and  C3_5 
REMARK    3  A    between atoms: C5_10  and  S1_11 
REMARK    4  A    between atoms: S1_11  and  C6_12 
REMARK    5  A    between atoms: C6_12  and  C7_13 
REMARK    6  A    between atoms: C7_13  and  C8_14 
REMARK    7  A    between atoms: C8_14  and  S2_15 
REMARK    8  A    between atoms: S2_15  and  C9_16 
REMARK    9  A    between atoms: C9_16  and  C10_17 
REMARK   10  A    between atoms: C12_19  and  O3_20 
REMARK   11  A    between atoms: C13_22  and  O4_23 
REMARK   12  A    between atoms: C14_25  and  O5_26 
REMARK   13  A    between atoms: O5_26  and  C15_27 
REMARK   14  A    between atoms: C19_31  and  O6_32 
ROOT
HETATM    1  S2  UNL     1      33.101 -42.169  -3.649  1.00  0.00    -0.169 SA
ENDROOT
BRANCH   1   2
HETATM    2  C8  UNL     1      32.930 -43.550  -2.594  1.00  0.00     0.074 C 
BRANCH   2   3
HETATM    3  C7  UNL     1      32.515 -44.809  -3.291  1.00  0.00     0.020 C 
BRANCH   3   4
HETATM    4  C6  UNL     1      33.618 -45.719  -3.692  1.00  0.00     0.077 C 
BRANCH   4   5
HETATM    5  S1  UNL     1      34.097 -46.651  -2.179  1.00  0.00    -0.135 SA
BRANCH   5   6
HETATM    6  C5  UNL     1      35.456 -47.792  -2.568  1.00  0.00     0.275 C 
HETATM    7  C4  UNL     1      35.089 -49.133  -1.985  1.00  0.00     0.279 C 
HETATM    8  N1  UNL     1      35.487 -48.958  -0.579  1.00  0.00    -0.034 N 
HETATM    9  C3  UNL     1      36.729 -48.203  -0.670  1.00  0.00     0.481 C 
ATOM     10  H12 UNL     1      35.558 -49.826  -0.048  1.00  0.00     0.280 HD
ATOM     11  H11 UNL     1      34.775 -48.529   0.011  1.00  0.00     0.280 HD
HETATM   12  N2  UNL     1      36.645 -47.413  -1.852  1.00  0.00    -0.022 N 
ATOM     13  H22 UNL     1      36.683 -46.413  -1.658  1.00  0.00     0.281 HD
ATOM     14  H21 UNL     1      37.486 -47.476  -2.426  1.00  0.00     0.281 HD
BRANCH   9  15
HETATM   15  C2  UNL     1      36.932 -47.350   0.525  1.00  0.00     0.317 C 
HETATM   16  O2  UNL     1      38.042 -47.335   1.130  1.00  0.00    -0.261 OA
BRANCH  15  17
HETATM   17  O1  UNL     1      35.921 -46.546   1.020  1.00  0.00    -0.323 OA
HETATM   18  C1  UNL     1      36.008 -45.149   1.034  1.00  0.00     0.213 C 
ENDBRANCH  15  17
ENDBRANCH   9  15
ENDBRANCH   5   6
ENDBRANCH   4   5
ENDBRANCH   3   4
ENDBRANCH   2   3
ENDBRANCH   1   2
BRANCH   1  19
HETATM   19  C9  UNL     1      34.662 -41.870  -4.386  1.00  0.00     0.081 C 
BRANCH  19  20
HETATM   20  C10 UNL     1      34.543 -41.169  -5.738  1.00  0.00     0.029 C 
HETATM   21  C11 UNL     1      33.156 -40.859  -6.163  1.00  0.00     0.042 C 
HETATM   22  C12 UNL     1      33.093 -40.710  -7.674  1.00  0.00     0.150 C 
HETATM   23  C13 UNL     1      34.443 -40.312  -8.222  1.00  0.00     0.178 C 
HETATM   24  C14 UNL     1      35.426 -41.445  -8.090  1.00  0.00     0.182 C 
HETATM   25  C19 UNL     1      35.218 -42.076  -6.745  1.00  0.00     0.154 C 
BRANCH  22  26
HETATM   26  O3  UNL     1      32.654 -41.884  -8.234  1.00  0.00    -0.393 OA
ATOM     27  H3  UNL     1      33.372 -42.308  -8.691  1.00  0.00     0.210 HD
ENDBRANCH  22  26
BRANCH  23  28
HETATM   28  O4  UNL     1      34.281 -39.960  -9.563  1.00  0.00    -0.390 OA
ATOM     29  H4  UNL     1      33.360 -40.041  -9.780  1.00  0.00     0.210 HD
ENDBRANCH  23  28
BRANCH  24  30
HETATM   30  O5  UNL     1      36.690 -40.893  -8.103  1.00  0.00    -0.371 OA
BRANCH  30  31
HETATM   31  C15 UNL     1      37.528 -41.258  -9.104  1.00  0.00     0.051 C 
HETATM   32  C16 UNL     1      36.978 -42.585  -9.657  1.00  0.00     0.045 C 
HETATM   33  C17 UNL     1      38.951 -41.559  -8.697  1.00  0.00     0.045 C 
HETATM   34  C18 UNL     1      37.531 -40.315 -10.288  1.00  0.00     0.045 C 
ENDBRANCH  30  31
ENDBRANCH  24  30
BRANCH  25  35
HETATM   35  O6  UNL     1      34.578 -43.305  -6.772  1.00  0.00    -0.392 OA
ATOM     36  H6  UNL     1      35.118 -43.958  -6.342  1.00  0.00     0.210 HD
ENDBRANCH  25  35
ENDBRANCH  19  20
ENDBRANCH   1  19
TORSDOF 14
ENDMDL
MODEL 3
REMARK VINA RESULT: -6.773804829      2.076      2.879
REMARK  14 active torsions:
REMARK  status: ('A' for Active; 'I' for Inactive)
REMARK    1  A    between atoms: O1_2  and  C2_3 
REMARK    2  A    between atoms: C2_3  and  C3_5 
REMARK    3  A    between atoms: C5_10  and  S1_11 
REMARK    4  A    between atoms: S1_11  and  C6_12 
REMARK    5  A    between atoms: C6_12  and  C7_13 
REMARK    6  A    between atoms: C7_13  and  C8_14 
REMARK    7  A    between atoms: C8_14  and  S2_15 
REMARK    8  A    between atoms: S2_15  and  C9_16 
REMARK    9  A    between atoms: C9_16  and  C10_17 
REMARK   10  A    between atoms: C12_19  and  O3_20 
REMARK   11  A    between atoms: C13_22  and  O4_23 
REMARK   12  A    between atoms: C14_25  and  O5_26 
REMARK   13  A    between atoms: O5_26  and  C15_27 
REMARK   14  A    between atoms: C19_31  and  O6_32 
ROOT
HETATM    1  S2  UNL     1      33.206 -41.982  -3.442  1.00  0.00    -0.169 SA
ENDROOT
BRANCH   1   2
HETATM    2  C8  UNL     1      32.434 -43.468  -2.950  1.00  0.00     0.074 C 
BRANCH   2   3
HETATM    3  C7  UNL     1      33.387 -44.544  -2.523  1.00  0.00     0.020 C 
BRANCH   3   4
HETATM    4  C6  UNL     1      33.406 -45.762  -3.371  1.00  0.00     0.077 C 
BRANCH   4   5
HETATM    5  S1  UNL     1      34.416 -47.008  -2.467  1.00  0.00    -0.135 SA
BRANCH   5   6
HETATM    6  C5  UNL     1      33.808 -47.167  -0.762  1.00  0.00     0.275 C 
HETATM    7  C4  UNL     1      34.653 -48.216  -0.086  1.00  0.00     0.279 C 
HETATM    8  N1  UNL     1      34.009 -49.454  -0.553  1.00  0.00    -0.034 N 
HETATM    9  C3  UNL     1      32.590 -49.130  -0.523  1.00  0.00     0.481 C 
ATOM     10  H12 UNL     1      34.263 -50.288  -0.024  1.00  0.00     0.280 HD
ATOM     11  H11 UNL     1      34.346 -49.792  -1.454  1.00  0.00     0.280 HD
HETATM   12  N2  UNL     1      32.483 -47.729  -0.757  1.00  0.00    -0.022 N 
ATOM     13  H22 UNL     1      31.962 -47.511  -1.605  1.00  0.00     0.281 HD
ATOM     14  H21 UNL     1      31.863 -47.267  -0.091  1.00  0.00     0.281 HD
BRANCH   9  15
HETATM   15  C2  UNL     1      31.838 -49.897  -1.545  1.00  0.00     0.317 C 
HETATM   16  O2  UNL     1      32.444 -50.606  -2.398  1.00  0.00    -0.261 OA
BRANCH  15  17
HETATM   17  O1  UNL     1      30.457 -49.863  -1.603  1.00  0.00    -0.323 OA
HETATM   18  C1  UNL     1      29.694 -50.958  -2.021  1.00  0.00     0.213 C 
ENDBRANCH  15  17
ENDBRANCH   9  15
ENDBRANCH   5   6
ENDBRANCH   4   5
ENDBRANCH   3   4
ENDBRANCH   2   3
ENDBRANCH   1   2
BRANCH   1  19
HETATM   19  C9  UNL     1      34.663 -42.078  -4.410  1.00  0.00     0.081 C 
BRANCH  19  20
HETATM   20  C10 UNL     1      34.547 -41.292  -5.715  1.00  0.00     0.029 C 
HETATM   21  C11 UNL     1      33.164 -40.930  -6.108  1.00  0.00     0.042 C 
HETATM   22  C12 UNL     1      33.094 -40.686  -7.606  1.00  0.00     0.150 C 
HETATM   23  C13 UNL     1      34.447 -40.279  -8.139  1.00  0.00     0.178 C 
HETATM   24  C14 UNL     1      35.409 -41.437  -8.086  1.00  0.00     0.182 C 
HETATM   25  C19 UNL     1      35.198 -42.147  -6.782  1.00  0.00     0.154 C 
BRANCH  22  26
HETATM   26  O3  UNL     1      32.628 -41.815  -8.235  1.00  0.00    -0.393 OA
ATOM     27  H3  UNL     1      32.301 -41.587  -9.098  1.00  0.00     0.210 HD
ENDBRANCH  22  26
BRANCH  23  28
HETATM   28  O4  UNL     1      34.282 -39.842  -9.455  1.00  0.00    -0.390 OA
ATOM     29  H4  UNL     1      34.371 -38.896  -9.465  1.00  0.00     0.210 HD
ENDBRANCH  23  28
BRANCH  24  30
HETATM   30  O5  UNL     1      36.683 -40.908  -8.075  1.00  0.00    -0.371 OA
BRANCH  30  31
HETATM   31  C15 UNL     1      37.516 -41.248  -9.088  1.00  0.00     0.051 C 
HETATM   32  C16 UNL     1      36.993 -42.586  -9.640  1.00  0.00     0.045 C 
HETATM   33  C17 UNL     1      38.952 -41.515  -8.702  1.00  0.00     0.045 C 
HETATM   34  C18 UNL     1      37.480 -40.301 -10.268  1.00  0.00     0.045 C 
ENDBRANCH  30  31
ENDBRANCH  24  30
BRANCH  25  35
HETATM   35  O6  UNL     1      34.536 -43.359  -6.880  1.00  0.00    -0.392 OA
ATOM     36  H6  UNL     1      34.608 -43.833  -6.060  1.00  0.00     0.210 HD
ENDBRANCH  25  35
ENDBRANCH  19  20
ENDBRANCH   1  19
TORSDOF 14
ENDMDL
MODEL 4
REMARK VINA RESULT: -6.677166768      1.679      2.085
REMARK  14 active torsions:
REMARK  status: ('A' for Active; 'I' for Inactive)
REMARK    1  A    between atoms: O1_2  and  C2_3 
REMARK    2  A    between atoms: C2_3  and  C3_5 
REMARK    3  A    between atoms: C5_10  and  S1_11 
REMARK    4  A    between atoms: S1_11  and  C6_12 
REMARK    5  A    between atoms: C6_12  and  C7_13 
REMARK    6  A    between atoms: C7_13  and  C8_14 
REMARK    7  A    between atoms: C8_14  and  S2_15 
REMARK    8  A    between atoms: S2_15  and  C9_16 
REMARK    9  A    between atoms: C9_16  and  C10_17 
REMARK   10  A    between atoms: C12_19  and  O3_20 
REMARK   11  A    between atoms: C13_22  and  O4_23 
REMARK   12  A    between atoms: C14_25  and  O5_26 
REMARK   13  A    between atoms: O5_26  and  C15_27 
REMARK   14  A    between atoms: C19_31  and  O6_32 
ROOT
HETATM    1  S2  UNL     1      33.963 -41.297  -3.301  1.00  0.00    -0.169 SA
ENDROOT
BRANCH   1   2
HETATM    2  C8  UNL     1      32.945 -42.223  -2.226  1.00  0.00     0.074 C 
BRANCH   2   3
HETATM    3  C7  UNL     1      31.796 -42.906  -2.903  1.00  0.00     0.020 C 
BRANCH   3   4
HETATM    4  C6  UNL     1      32.001 -44.339  -3.234  1.00  0.00     0.077 C 
BRANCH   4   5
HETATM    5  S1  UNL     1      33.535 -44.859  -2.359  1.00  0.00    -0.135 SA
BRANCH   5   6
HETATM    6  C5  UNL     1      33.798 -46.641  -2.592  1.00  0.00     0.275 C 
HETATM    7  C4  UNL     1      32.976 -47.350  -1.545  1.00  0.00     0.279 C 
HETATM    8  N1  UNL     1      33.858 -47.257  -0.371  1.00  0.00    -0.034 N 
HETATM    9  C3  UNL     1      35.186 -47.473  -0.927  1.00  0.00     0.481 C 
ATOM     10  H12 UNL     1      33.612 -47.887   0.393  1.00  0.00     0.280 HD
ATOM     11  H11 UNL     1      33.760 -46.395   0.165  1.00  0.00     0.280 HD
HETATM   12  N2  UNL     1      35.155 -46.991  -2.267  1.00  0.00    -0.022 N 
ATOM     13  H22 UNL     1      35.806 -46.222  -2.422  1.00  0.00     0.281 HD
ATOM     14  H21 UNL     1      35.560 -47.652  -2.930  1.00  0.00     0.281 HD
BRANCH   9  15
HETATM   15  C2  UNL     1      36.225 -46.771  -0.135  1.00  0.00     0.317 C 
HETATM   16  O2  UNL     1      36.066 -45.568   0.219  1.00  0.00    -0.261 OA
BRANCH  15  17
HETATM   17  O1  UNL     1      37.396 -47.401   0.241  1.00  0.00    -0.323 OA
HETATM   18  C1  UNL     1      37.439 -48.746   0.625  1.00  0.00     0.213 C 
ENDBRANCH  15  17
ENDBRANCH   9  15
ENDBRANCH   5   6
ENDBRANCH   4   5
ENDBRANCH   3   4
ENDBRANCH   2   3
ENDBRANCH   1   2
BRANCH   1  19
HETATM   19  C9  UNL     1      34.719 -42.120  -4.650  1.00  0.00     0.081 C 
BRANCH  19  20
HETATM   20  C10 UNL     1      34.631 -41.315  -5.945  1.00  0.00     0.029 C 
HETATM   21  C11 UNL     1      33.258 -40.924  -6.349  1.00  0.00     0.042 C 
HETATM   22  C12 UNL     1      33.209 -40.659  -7.844  1.00  0.00     0.150 C 
HETATM   23  C13 UNL     1      34.575 -40.267  -8.357  1.00  0.00     0.178 C 
HETATM   24  C14 UNL     1      35.517 -41.442  -8.309  1.00  0.00     0.182 C 
HETATM   25  C19 UNL     1      35.280 -42.165  -7.017  1.00  0.00     0.154 C 
BRANCH  22  26
HETATM   26  O3  UNL     1      32.732 -41.771  -8.494  1.00  0.00    -0.393 OA
ATOM     27  H3  UNL     1      32.092 -41.509  -9.146  1.00  0.00     0.210 HD
ENDBRANCH  22  26
BRANCH  23  28
HETATM   28  O4  UNL     1      34.432 -39.809  -9.668  1.00  0.00    -0.390 OA
ATOM     29  H4  UNL     1      34.315 -40.564 -10.233  1.00  0.00     0.210 HD
ENDBRANCH  23  28
BRANCH  24  30
HETATM   30  O5  UNL     1      36.799 -40.934  -8.277  1.00  0.00    -0.371 OA
BRANCH  30  31
HETATM   31  C15 UNL     1      37.702 -41.444  -9.150  1.00  0.00     0.051 C 
HETATM   32  C16 UNL     1      37.689 -40.506 -10.370  1.00  0.00     0.045 C 
HETATM   33  C17 UNL     1      37.388 -42.814  -9.701  1.00  0.00     0.045 C 
HETATM   34  C18 UNL     1      39.131 -41.416  -8.653  1.00  0.00     0.045 C 
ENDBRANCH  30  31
ENDBRANCH  24  30
BRANCH  25  35
HETATM   35  O6  UNL     1      34.598 -43.365  -7.139  1.00  0.00    -0.392 OA
ATOM     36  H6  UNL     1      34.736 -43.727  -8.006  1.00  0.00     0.210 HD
ENDBRANCH  25  35
ENDBRANCH  19  20
ENDBRANCH   1  19
TORSDOF 14
ENDMDL
MODEL 5
REMARK VINA RESULT: -6.593338493      1.147      1.397
REMARK  14 active torsions:
REMARK  status: ('A' for Active; 'I' for Inactive)
REMARK    1  A    between atoms: O1_2  and  C2_3 
REMARK    2  A    between atoms: C2_3  and  C3_5 
REMARK    3  A    between atoms: C5_10  and  S1_11 
REMARK    4  A    between atoms: S1_11  and  C6_12 
REMARK    5  A    between atoms: C6_12  and  C7_13 
REMARK    6  A    between atoms: C7_13  and  C8_14 
REMARK    7  A    between atoms: C8_14  and  S2_15 
REMARK    8  A    between atoms: S2_15  and  C9_16 
REMARK    9  A    between atoms: C9_16  and  C10_17 
REMARK   10  A    between atoms: C12_19  and  O3_20 
REMARK   11  A    between atoms: C13_22  and  O4_23 
REMARK   12  A    between atoms: C14_25  and  O5_26 
REMARK   13  A    between atoms: O5_26  and  C15_27 
REMARK   14  A    between atoms: C19_31  and  O6_32 
ROOT
HETATM    1  S2  UNL     1      32.930 -42.067  -3.720  1.00  0.00    -0.169 SA
ENDROOT
BRANCH   1   2
HETATM    2  C8  UNL     1      32.694 -43.399  -2.616  1.00  0.00     0.074 C 
BRANCH   2   3
HETATM    3  C7  UNL     1      32.271 -44.677  -3.276  1.00  0.00     0.020 C 
BRANCH   3   4
HETATM    4  C6  UNL     1      33.350 -45.666  -3.519  1.00  0.00     0.077 C 
BRANCH   4   5
HETATM    5  S1  UNL     1      34.008 -46.133  -1.865  1.00  0.00    -0.135 SA
BRANCH   5   6
HETATM    6  C5  UNL     1      33.632 -47.879  -1.529  1.00  0.00     0.275 C 
HETATM    7  C4  UNL     1      33.752 -48.079  -0.039  1.00  0.00     0.279 C 
HETATM    8  N1  UNL     1      35.206 -48.243   0.116  1.00  0.00    -0.034 N 
HETATM    9  C3  UNL     1      35.583 -49.042  -1.041  1.00  0.00     0.481 C 
ATOM     10  H12 UNL     1      35.493 -48.637   1.013  1.00  0.00     0.280 HD
ATOM     11  H11 UNL     1      35.723 -47.370   0.213  1.00  0.00     0.280 HD
HETATM   12  N2  UNL     1      34.659 -48.724  -2.078  1.00  0.00    -0.022 N 
ATOM     13  H22 UNL     1      35.111 -48.311  -2.893  1.00  0.00     0.281 HD
ATOM     14  H21 UNL     1      34.281 -49.555  -2.534  1.00  0.00     0.281 HD
BRANCH   9  15
HETATM   15  C2  UNL     1      36.974 -48.757  -1.466  1.00  0.00     0.317 C 
HETATM   16  O2  UNL     1      37.244 -47.734  -2.158  1.00  0.00    -0.261 OA
BRANCH  15  17
HETATM   17  O1  UNL     1      38.020 -49.594  -1.124  1.00  0.00    -0.323 OA
HETATM   18  C1  UNL     1      38.381 -49.845   0.205  1.00  0.00     0.213 C 
ENDBRANCH  15  17
ENDBRANCH   9  15
ENDBRANCH   5   6
ENDBRANCH   4   5
ENDBRANCH   3   4
ENDBRANCH   2   3
ENDBRANCH   1   2
BRANCH   1  19
HETATM   19  C9  UNL     1      34.523 -41.827  -4.409  1.00  0.00     0.081 C 
BRANCH  19  20
HETATM   20  C10 UNL     1      34.467 -41.159  -5.782  1.00  0.00     0.029 C 
HETATM   21  C11 UNL     1      33.103 -40.849  -6.274  1.00  0.00     0.042 C 
HETATM   22  C12 UNL     1      33.107 -40.737  -7.789  1.00  0.00     0.150 C 
HETATM   23  C13 UNL     1      34.483 -40.361  -8.288  1.00  0.00     0.178 C 
HETATM   24  C14 UNL     1      35.450 -41.498  -8.086  1.00  0.00     0.182 C 
HETATM   25  C19 UNL     1      35.178 -42.095  -6.736  1.00  0.00     0.154 C 
BRANCH  22  26
HETATM   26  O3  UNL     1      32.683 -41.921  -8.340  1.00  0.00    -0.393 OA
ATOM     27  H3  UNL     1      32.506 -41.797  -9.266  1.00  0.00     0.210 HD
ENDBRANCH  22  26
BRANCH  23  28
HETATM   28  O4  UNL     1      34.381 -40.042  -9.643  1.00  0.00    -0.390 OA
ATOM     29  H4  UNL     1      35.072 -39.425  -9.853  1.00  0.00     0.210 HD
ENDBRANCH  23  28
BRANCH  24  30
HETATM   30  O5  UNL     1      36.717 -40.956  -8.058  1.00  0.00    -0.371 OA
BRANCH  30  31
HETATM   31  C15 UNL     1      37.584 -41.325  -9.031  1.00  0.00     0.051 C 
HETATM   32  C16 UNL     1      37.032 -42.636  -9.618  1.00  0.00     0.045 C 
HETATM   33  C17 UNL     1      38.986 -41.656  -8.578  1.00  0.00     0.045 C 
HETATM   34  C18 UNL     1      37.646 -40.370 -10.204  1.00  0.00     0.045 C 
ENDBRANCH  30  31
ENDBRANCH  24  30
BRANCH  25  35
HETATM   35  O6  UNL     1      34.531 -43.319  -6.761  1.00  0.00    -0.392 OA
ATOM     36  H6  UNL     1      34.889 -43.858  -7.457  1.00  0.00     0.210 HD
ENDBRANCH  25  35
ENDBRANCH  19  20
ENDBRANCH   1  19
TORSDOF 14
ENDMDL
