MODEL 1
REMARK VINA RESULT: -7.102454022      0.000      0.000
REMARK  16 active torsions:
REMARK  status: ('A' for Active; 'I' for Inactive)
REMARK    1  A    between atoms: C2_2  and  C3_3 
REMARK    2  A    between atoms: C3_3  and  C4_4 
REMARK    3  A    between atoms: C4_4  and  C5_5 
REMARK    4  A    between atoms: C5_5  and  C6_6 
REMARK    5  A    between atoms: C6_6  and  C7_7 
REMARK    6  A    between atoms: C7_7  and  C8_8 
REMARK    7  A    between atoms: C8_8  and  O2_10 
REMARK    8  A    between atoms: O2_10  and  C9_11 
REMARK    9  A    between atoms: C10_13  and  C11_14 
REMARK   10  A    between atoms: C11_14  and  O4_15 
REMARK   11  A    between atoms: C12_17  and  O5_18 
REMARK   12  A    between atoms: C13_20  and  O6_21 
REMARK   13  A    between atoms: O6_21  and  C14_22 
REMARK   14  A    between atoms: C18_27  and  O7_28 
REMARK   15  A    between atoms: C19_30  and  O8_31 
REMARK   16  A    between atoms: C20_33  and  O9_34 
ROOT
HETATM    1  C9  UNL     1      33.951 -40.782  -9.136  1.00  0.00     0.301 C 
HETATM    2  O3  UNL     1      32.662 -40.474  -9.520  1.00  0.00    -0.348 OA
HETATM    3  C10 UNL     1      31.740 -41.233  -8.840  1.00  0.00     0.179 C 
HETATM    4  C12 UNL     1      31.695 -40.652  -7.417  1.00  0.00     0.180 C 
HETATM    5  C13 UNL     1      33.019 -40.967  -6.789  1.00  0.00     0.187 C 
HETATM    6  C20 UNL     1      34.098 -41.325  -7.770  1.00  0.00     0.205 C 
ENDROOT
BRANCH   5   7
HETATM    7  O6  UNL     1      32.822 -41.937  -5.811  1.00  0.00    -0.371 OA
BRANCH   7   8
HETATM    8  C14 UNL     1      33.260 -41.581  -4.561  1.00  0.00     0.166 C 
HETATM    9  C15 UNL     1      34.265 -42.591  -4.082  1.00  0.00     0.075 C 
HETATM   10  C16 UNL     1      34.309 -43.840  -4.935  1.00  0.00     0.024 C 
HETATM   11  S1  UNL     1      33.968 -43.111  -2.369  1.00  0.00    -0.159 SA
HETATM   12  C17 UNL     1      32.195 -43.437  -2.172  1.00  0.00     0.108 C 
HETATM   13  C18 UNL     1      31.440 -42.508  -3.078  1.00  0.00     0.158 C 
HETATM   14  C19 UNL     1      32.210 -41.325  -3.539  1.00  0.00     0.177 C 
BRANCH  13  15
HETATM   15  O7  UNL     1      30.863 -43.244  -4.092  1.00  0.00    -0.392 OA
ATOM     16  H7  UNL     1      29.957 -42.976  -4.190  1.00  0.00     0.210 HD
ENDBRANCH  13  15
BRANCH  14  17
HETATM   17  O8  UNL     1      32.864 -40.782  -2.407  1.00  0.00    -0.390 OA
ATOM     18  H8  UNL     1      32.490 -41.206  -1.644  1.00  0.00     0.210 HD
ENDBRANCH  14  17
ENDBRANCH   7   8
ENDBRANCH   5   7
BRANCH   4  19
HETATM   19  O5  UNL     1      30.658 -41.257  -6.698  1.00  0.00    -0.390 OA
ATOM     20  H5  UNL     1      31.022 -41.891  -6.092  1.00  0.00     0.210 HD
ENDBRANCH   4  19
BRANCH   6  21
HETATM   21  O9  UNL     1      35.347 -40.877  -7.277  1.00  0.00    -0.388 OA
ATOM     22  H9  UNL     1      35.165 -40.244  -6.593  1.00  0.00     0.210 HD
ENDBRANCH   6  21
BRANCH   3  23
HETATM   23  C11 UNL     1      30.368 -41.181  -9.474  1.00  0.00     0.198 C 
BRANCH  23  24
HETATM   24  O4  UNL     1      30.556 -40.912 -10.827  1.00  0.00    -0.398 OA
ATOM     25  H4  UNL     1      29.706 -40.990 -11.245  1.00  0.00     0.209 HD
ENDBRANCH  23  24
ENDBRANCH   3  23
BRANCH   1  26
HETATM   26  O2  UNL     1      34.746 -39.628  -9.375  1.00  0.00    -0.287 OA
BRANCH  26  27
HETATM   27  C8  UNL     1      35.928 -39.646 -10.069  1.00  0.00     0.261 C 
HETATM   28  O1  UNL     1      35.862 -39.832 -11.317  1.00  0.00    -0.265 OA
BRANCH  27  29
HETATM   29  C7  UNL     1      37.283 -39.468  -9.506  1.00  0.00     0.111 C 
BRANCH  29  30
HETATM   30  C6  UNL     1      38.272 -40.514  -9.875  1.00  0.00     0.010 C 
BRANCH  30  31
HETATM   31  C5  UNL     1      38.394 -41.654  -8.904  1.00  0.00     0.000 C 
BRANCH  31  32
HETATM   32  C4  UNL     1      37.507 -42.808  -9.228  1.00  0.00     0.000 C 
BRANCH  32  33
HETATM   33  C3  UNL     1      38.249 -44.119  -9.330  1.00  0.00    -0.000 C 
BRANCH  33  34
HETATM   34  C2  UNL     1      39.713 -43.823  -8.983  1.00  0.00    -0.005 C 
HETATM   35  C1  UNL     1      40.616 -44.952  -9.462  1.00  0.00     0.005 C 
ENDBRANCH  33  34
ENDBRANCH  32  33
ENDBRANCH  31  32
ENDBRANCH  30  31
ENDBRANCH  29  30
ENDBRANCH  27  29
ENDBRANCH  26  27
ENDBRANCH   1  26
TORSDOF 16
ENDMDL
MODEL 2
REMARK VINA RESULT: -7.067051060      1.220      2.024
REMARK  16 active torsions:
REMARK  status: ('A' for Active; 'I' for Inactive)
REMARK    1  A    between atoms: C2_2  and  C3_3 
REMARK    2  A    between atoms: C3_3  and  C4_4 
REMARK    3  A    between atoms: C4_4  and  C5_5 
REMARK    4  A    between atoms: C5_5  and  C6_6 
REMARK    5  A    between atoms: C6_6  and  C7_7 
REMARK    6  A    between atoms: C7_7  and  C8_8 
REMARK    7  A    between atoms: C8_8  and  O2_10 
REMARK    8  A    between atoms: O2_10  and  C9_11 
REMARK    9  A    between atoms: C10_13  and  C11_14 
REMARK   10  A    between atoms: C11_14  and  O4_15 
REMARK   11  A    between atoms: C12_17  and  O5_18 
REMARK   12  A    between atoms: C13_20  and  O6_21 
REMARK   13  A    between atoms: O6_21  and  C14_22 
REMARK   14  A    between atoms: C18_27  and  O7_28 
REMARK   15  A    between atoms: C19_30  and  O8_31 
REMARK   16  A    between atoms: C20_33  and  O9_34 
ROOT
HETATM    1  C9  UNL     1      33.399 -41.170  -8.567  1.00  0.00     0.301 C 
HETATM    2  O3  UNL     1      32.137 -40.829  -9.014  1.00  0.00    -0.348 OA
HETATM    3  C10 UNL     1      31.171 -41.169  -8.096  1.00  0.00     0.179 C 
HETATM    4  C12 UNL     1      31.295 -40.135  -6.965  1.00  0.00     0.180 C 
HETATM    5  C13 UNL     1      32.605 -40.403  -6.288  1.00  0.00     0.187 C 
HETATM    6  C20 UNL     1      33.563 -41.227  -7.100  1.00  0.00     0.205 C 
ENDROOT
BRANCH   5   7
HETATM    7  O6  UNL     1      32.349 -40.940  -5.030  1.00  0.00    -0.371 OA
BRANCH   7   8
HETATM    8  C14 UNL     1      32.805 -42.221  -4.855  1.00  0.00     0.166 C 
HETATM    9  C15 UNL     1      31.907 -42.939  -3.886  1.00  0.00     0.075 C 
HETATM   10  C16 UNL     1      30.954 -42.015  -3.159  1.00  0.00     0.024 C 
HETATM   11  S1  UNL     1      32.835 -43.861  -2.629  1.00  0.00    -0.159 SA
HETATM   12  C17 UNL     1      34.168 -42.798  -2.010  1.00  0.00     0.108 C 
HETATM   13  C18 UNL     1      34.620 -41.907  -3.130  1.00  0.00     0.158 C 
HETATM   14  C19 UNL     1      34.238 -42.370  -4.488  1.00  0.00     0.177 C 
BRANCH  13  15
HETATM   15  O7  UNL     1      34.250 -40.610  -2.845  1.00  0.00    -0.392 OA
ATOM     16  H7  UNL     1      34.989 -40.158  -2.453  1.00  0.00     0.210 HD
ENDBRANCH  13  15
BRANCH  14  17
HETATM   17  O8  UNL     1      34.539 -43.752  -4.560  1.00  0.00    -0.390 OA
ATOM     18  H8  UNL     1      34.109 -44.087  -5.339  1.00  0.00     0.210 HD
ENDBRANCH  14  17
ENDBRANCH   7   8
ENDBRANCH   5   7
BRANCH   4  19
HETATM   19  O5  UNL     1      30.238 -40.302  -6.063  1.00  0.00    -0.390 OA
ATOM     20  H5  UNL     1      29.445 -40.515  -6.541  1.00  0.00     0.210 HD
ENDBRANCH   4  19
BRANCH   6  21
HETATM   21  O9  UNL     1      34.889 -40.821  -6.815  1.00  0.00    -0.388 OA
ATOM     22  H9  UNL     1      34.894 -40.489  -5.926  1.00  0.00     0.210 HD
ENDBRANCH   6  21
BRANCH   3  23
HETATM   23  C11 UNL     1      29.779 -41.140  -8.686  1.00  0.00     0.198 C 
BRANCH  23  24
HETATM   24  O4  UNL     1      29.891 -41.557 -10.010  1.00  0.00    -0.398 OA
ATOM     25  H4  UNL     1      30.091 -42.486  -9.991  1.00  0.00     0.209 HD
ENDBRANCH  23  24
ENDBRANCH   3  23
BRANCH   1  26
HETATM   26  O2  UNL     1      34.318 -40.294  -9.206  1.00  0.00    -0.287 OA
BRANCH  26  27
HETATM   27  C8  UNL     1      35.430 -40.720  -9.885  1.00  0.00     0.261 C 
HETATM   28  O1  UNL     1      35.562 -41.965 -10.058  1.00  0.00    -0.265 OA
BRANCH  27  29
HETATM   29  C7  UNL     1      36.501 -39.867 -10.442  1.00  0.00     0.111 C 
BRANCH  29  30
HETATM   30  C6  UNL     1      37.662 -39.628  -9.546  1.00  0.00     0.010 C 
BRANCH  30  31
HETATM   31  C5  UNL     1      38.832 -40.546  -9.751  1.00  0.00     0.000 C 
BRANCH  31  32
HETATM   32  C4  UNL     1      38.848 -41.707  -8.814  1.00  0.00     0.000 C 
BRANCH  32  33
HETATM   33  C3  UNL     1      40.157 -42.460  -8.822  1.00  0.00    -0.000 C 
BRANCH  33  34
HETATM   34  C2  UNL     1      39.806 -43.949  -8.933  1.00  0.00    -0.005 C 
HETATM   35  C1  UNL     1      38.363 -44.127  -9.387  1.00  0.00     0.005 C 
ENDBRANCH  33  34
ENDBRANCH  32  33
ENDBRANCH  31  32
ENDBRANCH  30  31
ENDBRANCH  29  30
ENDBRANCH  27  29
ENDBRANCH  26  27
ENDBRANCH   1  26
TORSDOF 16
ENDMDL
MODEL 3
REMARK VINA RESULT: -7.026932417      3.853      6.691
REMARK  16 active torsions:
REMARK  status: ('A' for Active; 'I' for Inactive)
REMARK    1  A    between atoms: C2_2  and  C3_3 
REMARK    2  A    between atoms: C3_3  and  C4_4 
REMARK    3  A    between atoms: C4_4  and  C5_5 
REMARK    4  A    between atoms: C5_5  and  C6_6 
REMARK    5  A    between atoms: C6_6  and  C7_7 
REMARK    6  A    between atoms: C7_7  and  C8_8 
REMARK    7  A    between atoms: C8_8  and  O2_10 
REMARK    8  A    between atoms: O2_10  and  C9_11 
REMARK    9  A    between atoms: C10_13  and  C11_14 
REMARK   10  A    between atoms: C11_14  and  O4_15 
REMARK   11  A    between atoms: C12_17  and  O5_18 
REMARK   12  A    between atoms: C13_20  and  O6_21 
REMARK   13  A    between atoms: O6_21  and  C14_22 
REMARK   14  A    between atoms: C18_27  and  O7_28 
REMARK   15  A    between atoms: C19_30  and  O8_31 
REMARK   16  A    between atoms: C20_33  and  O9_34 
ROOT
HETATM    1  C9  UNL     1      31.240 -42.800  -3.109  1.00  0.00     0.301 C 
HETATM    2  O3  UNL     1      31.926 -41.607  -2.998  1.00  0.00    -0.348 OA
HETATM    3  C10 UNL     1      33.058 -41.748  -2.230  1.00  0.00     0.179 C 
HETATM    4  C12 UNL     1      34.064 -42.504  -3.113  1.00  0.00     0.180 C 
HETATM    5  C13 UNL     1      33.519 -43.889  -3.285  1.00  0.00     0.187 C 
HETATM    6  C20 UNL     1      32.058 -44.023  -2.967  1.00  0.00     0.205 C 
ENDROOT
BRANCH   5   7
HETATM    7  O6  UNL     1      34.321 -44.770  -2.565  1.00  0.00    -0.371 OA
BRANCH   7   8
HETATM    8  C14 UNL     1      33.631 -45.735  -1.878  1.00  0.00     0.166 C 
HETATM    9  C15 UNL     1      34.140 -45.797  -0.465  1.00  0.00     0.075 C 
HETATM   10  C16 UNL     1      35.424 -45.024  -0.259  1.00  0.00     0.024 C 
HETATM   11  S1  UNL     1      34.432 -47.498   0.096  1.00  0.00    -0.159 SA
HETATM   12  C17 UNL     1      35.306 -48.389  -1.220  1.00  0.00     0.108 C 
HETATM   13  C18 UNL     1      34.858 -47.839  -2.542  1.00  0.00     0.158 C 
HETATM   14  C19 UNL     1      33.580 -47.084  -2.502  1.00  0.00     0.177 C 
BRANCH  13  15
HETATM   15  O7  UNL     1      35.907 -47.153  -3.118  1.00  0.00    -0.392 OA
ATOM     16  H7  UNL     1      36.720 -47.443  -2.720  1.00  0.00     0.210 HD
ENDBRANCH  13  15
BRANCH  14  17
HETATM   17  O8  UNL     1      32.663 -47.852  -1.745  1.00  0.00    -0.390 OA
ATOM     18  H8  UNL     1      32.081 -48.276  -2.364  1.00  0.00     0.210 HD
ENDBRANCH  14  17
ENDBRANCH   7   8
ENDBRANCH   5   7
BRANCH   4  19
HETATM   19  O5  UNL     1      35.308 -42.545  -2.473  1.00  0.00    -0.390 OA
ATOM     20  H5  UNL     1      35.252 -43.108  -1.709  1.00  0.00     0.210 HD
ENDBRANCH   4  19
BRANCH   6  21
HETATM   21  O9  UNL     1      31.482 -45.007  -3.806  1.00  0.00    -0.388 OA
ATOM     22  H9  UNL     1      30.541 -44.957  -3.687  1.00  0.00     0.210 HD
ENDBRANCH   6  21
BRANCH   3  23
HETATM   23  C11 UNL     1      33.632 -40.417  -1.798  1.00  0.00     0.198 C 
BRANCH  23  24
HETATM   24  O4  UNL     1      34.387 -39.936  -2.865  1.00  0.00    -0.398 OA
ATOM     25  H4  UNL     1      35.187 -39.579  -2.499  1.00  0.00     0.209 HD
ENDBRANCH  23  24
ENDBRANCH   3  23
BRANCH   1  26
HETATM   26  O2  UNL     1      30.506 -42.749  -4.324  1.00  0.00    -0.287 OA
BRANCH  26  27
HETATM   27  C8  UNL     1      29.766 -41.666  -4.723  1.00  0.00     0.261 C 
HETATM   28  O1  UNL     1      28.943 -41.189  -3.891  1.00  0.00    -0.265 OA
BRANCH  27  29
HETATM   29  C7  UNL     1      29.832 -40.991  -6.037  1.00  0.00     0.111 C 
BRANCH  29  30
HETATM   30  C6  UNL     1      31.197 -40.790  -6.587  1.00  0.00     0.010 C 
BRANCH  30  31
HETATM   31  C5  UNL     1      31.332 -41.009  -8.067  1.00  0.00     0.000 C 
BRANCH  31  32
HETATM   32  C4  UNL     1      32.747 -41.092  -8.530  1.00  0.00     0.000 C 
BRANCH  32  33
HETATM   33  C3  UNL     1      33.747 -40.751  -7.452  1.00  0.00    -0.000 C 
BRANCH  33  34
HETATM   34  C2  UNL     1      34.864 -39.945  -8.129  1.00  0.00    -0.005 C 
HETATM   35  C1  UNL     1      34.937 -40.275  -9.614  1.00  0.00     0.005 C 
ENDBRANCH  33  34
ENDBRANCH  32  33
ENDBRANCH  31  32
ENDBRANCH  30  31
ENDBRANCH  29  30
ENDBRANCH  27  29
ENDBRANCH  26  27
ENDBRANCH   1  26
TORSDOF 16
ENDMDL
MODEL 4
REMARK VINA RESULT: -6.974832204      3.639      6.661
REMARK  16 active torsions:
REMARK  status: ('A' for Active; 'I' for Inactive)
REMARK    1  A    between atoms: C2_2  and  C3_3 
REMARK    2  A    between atoms: C3_3  and  C4_4 
REMARK    3  A    between atoms: C4_4  and  C5_5 
REMARK    4  A    between atoms: C5_5  and  C6_6 
REMARK    5  A    between atoms: C6_6  and  C7_7 
REMARK    6  A    between atoms: C7_7  and  C8_8 
REMARK    7  A    between atoms: C8_8  and  O2_10 
REMARK    8  A    between atoms: O2_10  and  C9_11 
REMARK    9  A    between atoms: C10_13  and  C11_14 
REMARK   10  A    between atoms: C11_14  and  O4_15 
REMARK   11  A    between atoms: C12_17  and  O5_18 
REMARK   12  A    between atoms: C13_20  and  O6_21 
REMARK   13  A    between atoms: O6_21  and  C14_22 
REMARK   14  A    between atoms: C18_27  and  O7_28 
REMARK   15  A    between atoms: C19_30  and  O8_31 
REMARK   16  A    between atoms: C20_33  and  O9_34 
ROOT
HETATM    1  C9  UNL     1      31.395 -42.602  -3.289  1.00  0.00     0.301 C 
HETATM    2  O3  UNL     1      32.282 -41.570  -3.055  1.00  0.00    -0.348 OA
HETATM    3  C10 UNL     1      33.126 -41.860  -2.010  1.00  0.00     0.179 C 
HETATM    4  C12 UNL     1      34.125 -42.892  -2.561  1.00  0.00     0.180 C 
HETATM    5  C13 UNL     1      33.343 -44.147  -2.808  1.00  0.00     0.187 C 
HETATM    6  C20 UNL     1      31.857 -43.945  -2.881  1.00  0.00     0.205 C 
ENDROOT
BRANCH   5   7
HETATM    7  O6  UNL     1      33.723 -45.095  -1.863  1.00  0.00    -0.371 OA
BRANCH   7   8
HETATM    8  C14 UNL     1      34.315 -46.215  -2.388  1.00  0.00     0.166 C 
HETATM    9  C15 UNL     1      33.420 -47.401  -2.163  1.00  0.00     0.075 C 
HETATM   10  C16 UNL     1      32.289 -47.121  -1.198  1.00  0.00     0.024 C 
HETATM   11  S1  UNL     1      34.322 -48.847  -1.538  1.00  0.00    -0.159 SA
HETATM   12  C17 UNL     1      35.440 -48.295  -0.221  1.00  0.00     0.108 C 
HETATM   13  C18 UNL     1      35.890 -46.898  -0.537  1.00  0.00     0.158 C 
HETATM   14  C19 UNL     1      35.711 -46.491  -1.954  1.00  0.00     0.177 C 
BRANCH  13  15
HETATM   15  O7  UNL     1      35.332 -46.032   0.380  1.00  0.00    -0.392 OA
ATOM     16  H7  UNL     1      36.031 -45.579   0.840  1.00  0.00     0.210 HD
ENDBRANCH  13  15
BRANCH  14  17
HETATM   17  O8  UNL     1      36.188 -47.553  -2.759  1.00  0.00    -0.390 OA
ATOM     18  H8  UNL     1      36.938 -47.221  -3.237  1.00  0.00     0.210 HD
ENDBRANCH  14  17
ENDBRANCH   7   8
ENDBRANCH   5   7
BRANCH   4  19
HETATM   19  O5  UNL     1      35.129 -43.122  -1.613  1.00  0.00    -0.390 OA
ATOM     20  H5  UNL     1      35.424 -44.022  -1.678  1.00  0.00     0.210 HD
ENDBRANCH   4  19
BRANCH   6  21
HETATM   21  O9  UNL     1      31.302 -44.870  -3.797  1.00  0.00    -0.388 OA
ATOM     22  H9  UNL     1      31.065 -45.645  -3.302  1.00  0.00     0.210 HD
ENDBRANCH   6  21
BRANCH   3  23
HETATM   23  C11 UNL     1      33.859 -40.639  -1.502  1.00  0.00     0.198 C 
BRANCH  23  24
HETATM   24  O4  UNL     1      34.672 -40.192  -2.541  1.00  0.00    -0.398 OA
ATOM     25  H4  UNL     1      35.272 -40.900  -2.745  1.00  0.00     0.209 HD
ENDBRANCH  23  24
ENDBRANCH   3  23
BRANCH   1  26
HETATM   26  O2  UNL     1      31.016 -42.525  -4.656  1.00  0.00    -0.287 OA
BRANCH  26  27
HETATM   27  C8  UNL     1      30.257 -41.512  -5.182  1.00  0.00     0.261 C 
HETATM   28  O1  UNL     1      29.408 -40.970  -4.419  1.00  0.00    -0.265 OA
BRANCH  27  29
HETATM   29  C7  UNL     1      30.328 -40.981  -6.559  1.00  0.00     0.111 C 
BRANCH  29  30
HETATM   30  C6  UNL     1      31.682 -40.580  -7.022  1.00  0.00     0.010 C 
BRANCH  30  31
HETATM   31  C5  UNL     1      32.079 -41.101  -8.374  1.00  0.00     0.000 C 
BRANCH  31  32
HETATM   32  C4  UNL     1      33.542 -41.356  -8.507  1.00  0.00     0.000 C 
BRANCH  32  33
HETATM   33  C3  UNL     1      34.271 -40.265  -9.253  1.00  0.00    -0.000 C 
BRANCH  33  34
HETATM   34  C2  UNL     1      35.568 -39.995  -8.479  1.00  0.00    -0.005 C 
HETATM   35  C1  UNL     1      36.724 -39.749  -9.441  1.00  0.00     0.005 C 
ENDBRANCH  33  34
ENDBRANCH  32  33
ENDBRANCH  31  32
ENDBRANCH  30  31
ENDBRANCH  29  30
ENDBRANCH  27  29
ENDBRANCH  26  27
ENDBRANCH   1  26
TORSDOF 16
ENDMDL
MODEL 5
REMARK VINA RESULT: -6.639707985      3.304      6.238
REMARK  16 active torsions:
REMARK  status: ('A' for Active; 'I' for Inactive)
REMARK    1  A    between atoms: C2_2  and  C3_3 
REMARK    2  A    between atoms: C3_3  and  C4_4 
REMARK    3  A    between atoms: C4_4  and  C5_5 
REMARK    4  A    between atoms: C5_5  and  C6_6 
REMARK    5  A    between atoms: C6_6  and  C7_7 
REMARK    6  A    between atoms: C7_7  and  C8_8 
REMARK    7  A    between atoms: C8_8  and  O2_10 
REMARK    8  A    between atoms: O2_10  and  C9_11 
REMARK    9  A    between atoms: C10_13  and  C11_14 
REMARK   10  A    between atoms: C11_14  and  O4_15 
REMARK   11  A    between atoms: C12_17  and  O5_18 
REMARK   12  A    between atoms: C13_20  and  O6_21 
REMARK   13  A    between atoms: O6_21  and  C14_22 
REMARK   14  A    between atoms: C18_27  and  O7_28 
REMARK   15  A    between atoms: C19_30  and  O8_31 
REMARK   16  A    between atoms: C20_33  and  O9_34 
ROOT
HETATM    1  C9  UNL     1      31.857 -42.305  -3.262  1.00  0.00     0.301 C 
HETATM    2  O3  UNL     1      32.772 -41.334  -2.908  1.00  0.00    -0.348 OA
HETATM    3  C10 UNL     1      33.461 -41.683  -1.771  1.00  0.00     0.179 C 
HETATM    4  C12 UNL     1      34.451 -42.776  -2.207  1.00  0.00     0.180 C 
HETATM    5  C13 UNL     1      33.627 -43.976  -2.563  1.00  0.00     0.187 C 
HETATM    6  C20 UNL     1      32.177 -43.677  -2.817  1.00  0.00     0.205 C 
ENDROOT
BRANCH   5   7
HETATM    7  O6  UNL     1      33.825 -44.951  -1.590  1.00  0.00    -0.371 OA
BRANCH   7   8
HETATM    8  C14 UNL     1      34.536 -46.043  -2.016  1.00  0.00     0.166 C 
HETATM    9  C15 UNL     1      33.627 -47.240  -2.058  1.00  0.00     0.075 C 
HETATM   10  C16 UNL     1      32.302 -47.008  -1.366  1.00  0.00     0.024 C 
HETATM   11  S1  UNL     1      34.380 -48.713  -1.310  1.00  0.00    -0.159 SA
HETATM   12  C17 UNL     1      35.159 -48.223   0.252  1.00  0.00     0.108 C 
HETATM   13  C18 UNL     1      35.652 -46.812   0.113  1.00  0.00     0.158 C 
HETATM   14  C19 UNL     1      35.798 -46.338  -1.287  1.00  0.00     0.177 C 
BRANCH  13  15
HETATM   15  O7  UNL     1      34.889 -45.991   0.917  1.00  0.00    -0.392 OA
ATOM     16  H7  UNL     1      34.964 -45.097   0.603  1.00  0.00     0.210 HD
ENDBRANCH  13  15
BRANCH  14  17
HETATM   17  O8  UNL     1      36.460 -47.360  -2.009  1.00  0.00    -0.390 OA
ATOM     18  H8  UNL     1      36.292 -47.199  -2.930  1.00  0.00     0.210 HD
ENDBRANCH  14  17
ENDBRANCH   7   8
ENDBRANCH   5   7
BRANCH   4  19
HETATM   19  O5  UNL     1      35.313 -43.075  -1.145  1.00  0.00    -0.390 OA
ATOM     20  H5  UNL     1      36.203 -43.139  -1.469  1.00  0.00     0.210 HD
ENDBRANCH   4  19
BRANCH   6  21
HETATM   21  O9  UNL     1      31.682 -44.561  -3.806  1.00  0.00    -0.388 OA
ATOM     22  H9  UNL     1      32.152 -44.371  -4.609  1.00  0.00     0.210 HD
ENDBRANCH   6  21
BRANCH   3  23
HETATM   23  C11 UNL     1      34.201 -40.514  -1.161  1.00  0.00     0.198 C 
BRANCH  23  24
HETATM   24  O4  UNL     1      33.788 -39.373  -1.844  1.00  0.00    -0.398 OA
ATOM     25  H4  UNL     1      34.537 -39.061  -2.339  1.00  0.00     0.209 HD
ENDBRANCH  23  24
ENDBRANCH   3  23
BRANCH   1  26
HETATM   26  O2  UNL     1      31.657 -42.199  -4.665  1.00  0.00    -0.287 OA
BRANCH  26  27
HETATM   27  C8  UNL     1      32.355 -41.338  -5.472  1.00  0.00     0.261 C 
HETATM   28  O1  UNL     1      31.697 -40.431  -6.056  1.00  0.00    -0.265 OA
BRANCH  27  29
HETATM   29  C7  UNL     1      33.810 -41.359  -5.732  1.00  0.00     0.111 C 
BRANCH  29  30
HETATM   30  C6  UNL     1      34.204 -41.542  -7.153  1.00  0.00     0.010 C 
BRANCH  30  31
HETATM   31  C5  UNL     1      34.811 -40.336  -7.811  1.00  0.00     0.000 C 
BRANCH  31  32
HETATM   32  C4  UNL     1      34.492 -40.227  -9.263  1.00  0.00     0.000 C 
BRANCH  32  33
HETATM   33  C3  UNL     1      35.717 -40.077 -10.133  1.00  0.00    -0.000 C 
BRANCH  33  34
HETATM   34  C2  UNL     1      36.874 -39.696  -9.200  1.00  0.00    -0.005 C 
HETATM   35  C1  UNL     1      38.136 -40.463  -9.572  1.00  0.00     0.005 C 
ENDBRANCH  33  34
ENDBRANCH  32  33
ENDBRANCH  31  32
ENDBRANCH  30  31
ENDBRANCH  29  30
ENDBRANCH  27  29
ENDBRANCH  26  27
ENDBRANCH   1  26
TORSDOF 16
ENDMDL
