MODEL 1
REMARK VINA RESULT: -8.230712715      0.000      0.000
REMARK  13 active torsions:
REMARK  status: ('A' for Active; 'I' for Inactive)
REMARK    1  A    between atoms: C9_12  and  C10_13 
REMARK    2  A    between atoms: C11_14  and  C12_15 
REMARK    3  A    between atoms: C12_15  and  C13_16 
REMARK    4  A    between atoms: C13_16  and  S1_17 
REMARK    5  A    between atoms: S1_17  and  C14_18 
REMARK    6  A    between atoms: C14_18  and  C15_19 
REMARK    7  A    between atoms: C15_19  and  O4_20 
REMARK    8  A    between atoms: O4_20  and  C16_21 
REMARK    9  A    between atoms: C17_23  and  C18_24 
REMARK   10  A    between atoms: C18_24  and  O6_25 
REMARK   11  A    between atoms: C19_27  and  O7_28 
REMARK   12  A    between atoms: C20_30  and  O8_31 
REMARK   13  A    between atoms: C21_33  and  O9_34 
ROOT
HETATM    1  C14 UNL     1      29.457 -41.235  -5.262  1.00  0.00     0.100 C 
ENDROOT
BRANCH   1   2
HETATM    2  S1  UNL     1      30.853 -40.908  -6.297  1.00  0.00    -0.167 SA
BRANCH   2   3
HETATM    3  C13 UNL     1      30.605 -40.890  -8.039  1.00  0.00     0.077 C 
BRANCH   3   4
HETATM    4  C12 UNL     1      31.569 -41.680  -8.839  1.00  0.00     0.037 C 
BRANCH   4   5
HETATM    5  C11 UNL     1      32.888 -40.957  -8.998  1.00  0.00    -0.029 C 
HETATM    6  C10 UNL     1      33.990 -41.544  -9.314  1.00  0.00    -0.019 C 
BRANCH   6   7
HETATM    7  C9  UNL     1      35.346 -41.083  -9.518  1.00  0.00     0.073 C 
HETATM    8  C2  UNL     1      35.710 -39.691  -9.325  1.00  0.00    -0.078 C 
HETATM    9  C1  UNL     1      35.282 -38.856  -8.447  1.00  0.00     0.015 C 
HETATM   10  C3  UNL     1      36.806 -39.208 -10.286  1.00  0.00     0.037 C 
HETATM   11  C4  UNL     1      37.770 -40.397 -10.280  1.00  0.00     0.040 C 
HETATM   12  C5  UNL     1      37.736 -41.148  -8.962  1.00  0.00     0.170 C 
HETATM   13  O1  UNL     1      38.620 -42.241  -9.105  1.00  0.00    -0.290 OA
HETATM   14  C7  UNL     1      36.413 -41.859  -8.717  1.00  0.00     0.106 C 
HETATM   15  C6  UNL     1      37.931 -43.426  -9.265  1.00  0.00     0.407 C 
HETATM   16  O2  UNL     1      38.363 -44.603  -9.360  1.00  0.00    -0.229 OA
HETATM   17  O3  UNL     1      36.573 -43.123  -9.310  1.00  0.00    -0.283 OA
HETATM   18  C8  UNL     1      36.082 -41.985  -7.277  1.00  0.00     0.050 C 
ENDBRANCH   6   7
ENDBRANCH   4   5
ENDBRANCH   3   4
ENDBRANCH   2   3
ENDBRANCH   1   2
BRANCH   1  19
HETATM   19  C15 UNL     1      29.787 -42.054  -4.064  1.00  0.00     0.181 C 
BRANCH  19  20
HETATM   20  O4  UNL     1      30.371 -41.325  -3.075  1.00  0.00    -0.358 OA
BRANCH  20  21
HETATM   21  C16 UNL     1      31.418 -41.923  -2.375  1.00  0.00     0.291 C 
HETATM   22  O5  UNL     1      31.638 -43.118  -3.052  1.00  0.00    -0.348 OA
HETATM   23  C17 UNL     1      32.903 -43.496  -3.301  1.00  0.00     0.179 C 
HETATM   24  C19 UNL     1      33.724 -42.338  -3.887  1.00  0.00     0.180 C 
HETATM   25  C20 UNL     1      33.880 -41.379  -2.744  1.00  0.00     0.183 C 
HETATM   26  C21 UNL     1      32.533 -40.984  -2.253  1.00  0.00     0.204 C 
BRANCH  23  27
HETATM   27  C18 UNL     1      33.617 -44.142  -2.137  1.00  0.00     0.198 C 
BRANCH  27  28
HETATM   28  O6  UNL     1      34.245 -45.312  -2.538  1.00  0.00    -0.398 OA
ATOM     29  H6  UNL     1      34.518 -45.820  -1.783  1.00  0.00     0.209 HD
ENDBRANCH  27  28
ENDBRANCH  23  27
BRANCH  24  30
HETATM   30  O7  UNL     1      34.940 -42.825  -4.349  1.00  0.00    -0.390 OA
ATOM     31  H7  UNL     1      35.626 -42.200  -4.146  1.00  0.00     0.210 HD
ENDBRANCH  24  30
BRANCH  25  32
HETATM   32  O8  UNL     1      34.588 -40.234  -3.113  1.00  0.00    -0.390 OA
ATOM     33  H8  UNL     1      35.412 -40.158  -2.645  1.00  0.00     0.210 HD
ENDBRANCH  25  32
BRANCH  26  34
HETATM   34  O9  UNL     1      32.673 -40.647  -0.874  1.00  0.00    -0.388 OA
ATOM     35  H9  UNL     1      33.498 -40.187  -0.769  1.00  0.00     0.210 HD
ENDBRANCH  26  34
ENDBRANCH  20  21
ENDBRANCH  19  20
ENDBRANCH   1  19
TORSDOF 13
ENDMDL
MODEL 2
REMARK VINA RESULT: -7.367714187      3.754      6.189
REMARK  13 active torsions:
REMARK  status: ('A' for Active; 'I' for Inactive)
REMARK    1  A    between atoms: C9_12  and  C10_13 
REMARK    2  A    between atoms: C11_14  and  C12_15 
REMARK    3  A    between atoms: C12_15  and  C13_16 
REMARK    4  A    between atoms: C13_16  and  S1_17 
REMARK    5  A    between atoms: S1_17  and  C14_18 
REMARK    6  A    between atoms: C14_18  and  C15_19 
REMARK    7  A    between atoms: C15_19  and  O4_20 
REMARK    8  A    between atoms: O4_20  and  C16_21 
REMARK    9  A    between atoms: C17_23  and  C18_24 
REMARK   10  A    between atoms: C18_24  and  O6_25 
REMARK   11  A    between atoms: C19_27  and  O7_28 
REMARK   12  A    between atoms: C20_30  and  O8_31 
REMARK   13  A    between atoms: C21_33  and  O9_34 
ROOT
HETATM    1  C14 UNL     1      35.964 -41.391  -8.144  1.00  0.00     0.100 C 
ENDROOT
BRANCH   1   2
HETATM    2  S1  UNL     1      37.281 -41.911  -9.202  1.00  0.00    -0.167 SA
BRANCH   2   3
HETATM    3  C13 UNL     1      38.545 -40.748  -9.585  1.00  0.00     0.077 C 
BRANCH   3   4
HETATM    4  C12 UNL     1      39.929 -41.272  -9.586  1.00  0.00     0.037 C 
BRANCH   4   5
HETATM    5  C11 UNL     1      40.050 -42.536  -8.763  1.00  0.00    -0.029 C 
HETATM    6  C10 UNL     1      40.820 -43.519  -9.074  1.00  0.00    -0.019 C 
BRANCH   6   7
HETATM    7  C9  UNL     1      41.100 -44.802  -8.466  1.00  0.00     0.073 C 
HETATM    8  C2  UNL     1      41.486 -45.950  -9.265  1.00  0.00    -0.078 C 
HETATM    9  C1  UNL     1      42.227 -45.994 -10.315  1.00  0.00     0.015 C 
HETATM   10  C3  UNL     1      40.968 -47.284  -8.708  1.00  0.00     0.037 C 
HETATM   11  C4  UNL     1      41.214 -47.110  -7.207  1.00  0.00     0.040 C 
HETATM   12  C5  UNL     1      42.400 -46.205  -6.929  1.00  0.00     0.170 C 
HETATM   13  O1  UNL     1      42.487 -46.085  -5.524  1.00  0.00    -0.290 OA
HETATM   14  C7  UNL     1      42.156 -44.761  -7.342  1.00  0.00     0.106 C 
HETATM   15  C6  UNL     1      42.038 -44.852  -5.097  1.00  0.00     0.407 C 
HETATM   16  O2  UNL     1      42.016 -44.358  -3.941  1.00  0.00    -0.229 OA
HETATM   17  O3  UNL     1      41.570 -44.162  -6.212  1.00  0.00    -0.283 OA
HETATM   18  C8  UNL     1      43.398 -44.053  -7.734  1.00  0.00     0.050 C 
ENDBRANCH   6   7
ENDBRANCH   4   5
ENDBRANCH   3   4
ENDBRANCH   2   3
ENDBRANCH   1   2
BRANCH   1  19
HETATM   19  C15 UNL     1      35.106 -42.511  -7.671  1.00  0.00     0.181 C 
BRANCH  19  20
HETATM   20  O4  UNL     1      35.187 -42.702  -6.326  1.00  0.00    -0.358 OA
BRANCH  20  21
HETATM   21  C16 UNL     1      34.024 -42.507  -5.583  1.00  0.00     0.291 C 
HETATM   22  O5  UNL     1      33.961 -43.622  -4.754  1.00  0.00    -0.348 OA
HETATM   23  C17 UNL     1      33.632 -43.450  -3.463  1.00  0.00     0.179 C 
HETATM   24  C19 UNL     1      34.436 -42.302  -2.833  1.00  0.00     0.180 C 
HETATM   25  C20 UNL     1      33.892 -41.066  -3.486  1.00  0.00     0.183 C 
HETATM   26  C21 UNL     1      34.051 -41.184  -4.960  1.00  0.00     0.204 C 
BRANCH  23  27
HETATM   27  C18 UNL     1      32.153 -43.295  -3.197  1.00  0.00     0.198 C 
BRANCH  27  28
HETATM   28  O6  UNL     1      31.460 -44.416  -3.630  1.00  0.00    -0.398 OA
ATOM     29  H6  UNL     1      30.778 -44.170  -4.243  1.00  0.00     0.209 HD
ENDBRANCH  27  28
ENDBRANCH  23  27
BRANCH  24  30
HETATM   30  O7  UNL     1      34.247 -42.311  -1.457  1.00  0.00    -0.390 OA
ATOM     31  H7  UNL     1      33.336 -42.124  -1.264  1.00  0.00     0.210 HD
ENDBRANCH  24  30
BRANCH  25  32
HETATM   32  O8  UNL     1      34.541 -39.912  -3.044  1.00  0.00    -0.390 OA
ATOM     33  H8  UNL     1      33.972 -39.361  -2.519  1.00  0.00     0.210 HD
ENDBRANCH  25  32
BRANCH  26  34
HETATM   34  O9  UNL     1      33.020 -40.399  -5.554  1.00  0.00    -0.388 OA
ATOM     35  H9  UNL     1      32.556 -39.949  -4.857  1.00  0.00     0.210 HD
ENDBRANCH  26  34
ENDBRANCH  20  21
ENDBRANCH  19  20
ENDBRANCH   1  19
TORSDOF 13
ENDMDL
MODEL 3
REMARK VINA RESULT: -7.335342000      3.372      5.425
REMARK  13 active torsions:
REMARK  status: ('A' for Active; 'I' for Inactive)
REMARK    1  A    between atoms: C9_12  and  C10_13 
REMARK    2  A    between atoms: C11_14  and  C12_15 
REMARK    3  A    between atoms: C12_15  and  C13_16 
REMARK    4  A    between atoms: C13_16  and  S1_17 
REMARK    5  A    between atoms: S1_17  and  C14_18 
REMARK    6  A    between atoms: C14_18  and  C15_19 
REMARK    7  A    between atoms: C15_19  and  O4_20 
REMARK    8  A    between atoms: O4_20  and  C16_21 
REMARK    9  A    between atoms: C17_23  and  C18_24 
REMARK   10  A    between atoms: C18_24  and  O6_25 
REMARK   11  A    between atoms: C19_27  and  O7_28 
REMARK   12  A    between atoms: C20_30  and  O8_31 
REMARK   13  A    between atoms: C21_33  and  O9_34 
ROOT
HETATM    1  C14 UNL     1      34.283 -41.604  -8.115  1.00  0.00     0.100 C 
ENDROOT
BRANCH   1   2
HETATM    2  S1  UNL     1      36.020 -41.616  -8.447  1.00  0.00    -0.167 SA
BRANCH   2   3
HETATM    3  C13 UNL     1      36.778 -40.109  -8.946  1.00  0.00     0.077 C 
BRANCH   3   4
HETATM    4  C12 UNL     1      38.096 -40.236  -9.608  1.00  0.00     0.037 C 
BRANCH   4   5
HETATM    5  C11 UNL     1      38.872 -41.425  -9.088  1.00  0.00    -0.029 C 
HETATM    6  C10 UNL     1      40.102 -41.661  -9.387  1.00  0.00    -0.019 C 
BRANCH   6   7
HETATM    7  C9  UNL     1      41.036 -42.706  -9.029  1.00  0.00     0.073 C 
HETATM    8  C2  UNL     1      40.596 -44.071  -8.802  1.00  0.00    -0.078 C 
HETATM    9  C1  UNL     1      39.681 -44.738  -9.410  1.00  0.00     0.015 C 
HETATM   10  C3  UNL     1      41.402 -44.800  -7.718  1.00  0.00     0.037 C 
HETATM   11  C4  UNL     1      42.831 -44.361  -8.047  1.00  0.00     0.040 C 
HETATM   12  C5  UNL     1      43.011 -44.076  -9.526  1.00  0.00     0.170 C 
HETATM   13  O1  UNL     1      44.343 -43.634  -9.687  1.00  0.00    -0.290 OA
HETATM   14  C7  UNL     1      42.228 -42.858  -9.997  1.00  0.00     0.106 C 
HETATM   15  C6  UNL     1      44.397 -42.270  -9.893  1.00  0.00     0.407 C 
HETATM   16  O2  UNL     1      45.385 -41.529 -10.133  1.00  0.00    -0.229 OA
HETATM   17  O3  UNL     1      43.100 -41.774  -9.792  1.00  0.00    -0.283 OA
HETATM   18  C8  UNL     1      41.817 -42.948 -11.419  1.00  0.00     0.050 C 
ENDBRANCH   6   7
ENDBRANCH   4   5
ENDBRANCH   3   4
ENDBRANCH   2   3
ENDBRANCH   1   2
BRANCH   1  19
HETATM   19  C15 UNL     1      33.904 -40.724  -6.975  1.00  0.00     0.181 C 
BRANCH  19  20
HETATM   20  O4  UNL     1      34.442 -41.135  -5.795  1.00  0.00    -0.358 OA
BRANCH  20  21
HETATM   21  C16 UNL     1      33.646 -41.017  -4.657  1.00  0.00     0.291 C 
HETATM   22  O5  UNL     1      32.612 -41.922  -4.871  1.00  0.00    -0.348 OA
HETATM   23  C17 UNL     1      32.220 -42.709  -3.856  1.00  0.00     0.179 C 
HETATM   24  C19 UNL     1      33.425 -43.359  -3.160  1.00  0.00     0.180 C 
HETATM   25  C20 UNL     1      34.108 -42.222  -2.459  1.00  0.00     0.183 C 
HETATM   26  C21 UNL     1      34.469 -41.181  -3.458  1.00  0.00     0.204 C 
BRANCH  23  27
HETATM   27  C18 UNL     1      31.299 -42.049  -2.856  1.00  0.00     0.198 C 
BRANCH  27  28
HETATM   28  O6  UNL     1      30.284 -41.363  -3.508  1.00  0.00    -0.398 OA
ATOM     29  H6  UNL     1      29.435 -41.620  -3.167  1.00  0.00     0.209 HD
ENDBRANCH  27  28
ENDBRANCH  23  27
BRANCH  24  30
HETATM   30  O7  UNL     1      32.976 -44.338  -2.283  1.00  0.00    -0.390 OA
ATOM     31  H7  UNL     1      33.631 -45.022  -2.213  1.00  0.00     0.210 HD
ENDBRANCH  24  30
BRANCH  25  32
HETATM   32  O8  UNL     1      35.259 -42.635  -1.788  1.00  0.00    -0.390 OA
ATOM     33  H8  UNL     1      35.740 -41.902  -1.420  1.00  0.00     0.210 HD
ENDBRANCH  25  32
BRANCH  26  34
HETATM   34  O9  UNL     1      34.495 -39.933  -2.770  1.00  0.00    -0.388 OA
ATOM     35  H9  UNL     1      34.233 -40.091  -1.870  1.00  0.00     0.210 HD
ENDBRANCH  26  34
ENDBRANCH  20  21
ENDBRANCH  19  20
ENDBRANCH   1  19
TORSDOF 13
ENDMDL
MODEL 4
REMARK VINA RESULT: -7.317174320      3.464      8.861
REMARK  13 active torsions:
REMARK  status: ('A' for Active; 'I' for Inactive)
REMARK    1  A    between atoms: C9_12  and  C10_13 
REMARK    2  A    between atoms: C11_14  and  C12_15 
REMARK    3  A    between atoms: C12_15  and  C13_16 
REMARK    4  A    between atoms: C13_16  and  S1_17 
REMARK    5  A    between atoms: S1_17  and  C14_18 
REMARK    6  A    between atoms: C14_18  and  C15_19 
REMARK    7  A    between atoms: C15_19  and  O4_20 
REMARK    8  A    between atoms: O4_20  and  C16_21 
REMARK    9  A    between atoms: C17_23  and  C18_24 
REMARK   10  A    between atoms: C18_24  and  O6_25 
REMARK   11  A    between atoms: C19_27  and  O7_28 
REMARK   12  A    between atoms: C20_30  and  O8_31 
REMARK   13  A    between atoms: C21_33  and  O9_34 
ROOT
HETATM    1  C14 UNL     1      34.716 -41.875  -3.995  1.00  0.00     0.100 C 
ENDROOT
BRANCH   1   2
HETATM    2  S1  UNL     1      33.066 -41.676  -3.393  1.00  0.00    -0.167 SA
BRANCH   2   3
HETATM    3  C13 UNL     1      32.339 -43.014  -2.512  1.00  0.00     0.077 C 
BRANCH   3   4
HETATM    4  C12 UNL     1      32.022 -44.220  -3.311  1.00  0.00     0.037 C 
BRANCH   4   5
HETATM    5  C11 UNL     1      33.119 -45.258  -3.215  1.00  0.00    -0.029 C 
HETATM    6  C10 UNL     1      33.147 -46.185  -2.323  1.00  0.00    -0.019 C 
BRANCH   6   7
HETATM    7  C9  UNL     1      34.066 -47.264  -2.030  1.00  0.00     0.073 C 
HETATM    8  C2  UNL     1      35.350 -47.015  -1.400  1.00  0.00    -0.078 C 
HETATM    9  C1  UNL     1      35.653 -46.162  -0.488  1.00  0.00     0.015 C 
HETATM   10  C3  UNL     1      36.457 -47.967  -1.875  1.00  0.00     0.037 C 
HETATM   11  C4  UNL     1      35.719 -49.308  -1.912  1.00  0.00     0.040 C 
HETATM   12  C5  UNL     1      34.602 -49.368  -0.886  1.00  0.00     0.170 C 
HETATM   13  O1  UNL     1      33.974 -50.622  -1.058  1.00  0.00    -0.290 OA
HETATM   14  C7  UNL     1      33.460 -48.411  -1.195  1.00  0.00     0.106 C 
HETATM   15  C6  UNL     1      32.755 -50.489  -1.692  1.00  0.00     0.407 C 
HETATM   16  O2  UNL     1      31.888 -51.359  -1.963  1.00  0.00    -0.229 OA
HETATM   17  O3  UNL     1      32.594 -49.146  -2.023  1.00  0.00    -0.283 OA
HETATM   18  C8  UNL     1      32.757 -47.938   0.022  1.00  0.00     0.050 C 
ENDBRANCH   6   7
ENDBRANCH   4   5
ENDBRANCH   3   4
ENDBRANCH   2   3
ENDBRANCH   1   2
BRANCH   1  19
HETATM   19  C15 UNL     1      34.789 -42.081  -5.468  1.00  0.00     0.181 C 
BRANCH  19  20
HETATM   20  O4  UNL     1      34.504 -40.951  -6.169  1.00  0.00    -0.358 OA
BRANCH  20  21
HETATM   21  C16 UNL     1      34.491 -41.051  -7.560  1.00  0.00     0.291 C 
HETATM   22  O5  UNL     1      35.105 -39.878  -7.989  1.00  0.00    -0.348 OA
HETATM   23  C17 UNL     1      36.008 -39.946  -8.981  1.00  0.00     0.179 C 
HETATM   24  C19 UNL     1      37.021 -41.074  -8.734  1.00  0.00     0.180 C 
HETATM   25  C20 UNL     1      36.226 -42.333  -8.916  1.00  0.00     0.183 C 
HETATM   26  C21 UNL     1      35.079 -42.326  -7.970  1.00  0.00     0.204 C 
BRANCH  23  27
HETATM   27  C18 UNL     1      35.423 -40.028 -10.371  1.00  0.00     0.198 C 
BRANCH  27  28
HETATM   28  O6  UNL     1      36.285 -39.458 -11.297  1.00  0.00    -0.398 OA
ATOM     29  H6  UNL     1      36.609 -38.623 -10.981  1.00  0.00     0.209 HD
ENDBRANCH  27  28
ENDBRANCH  23  27
BRANCH  24  30
HETATM   30  O7  UNL     1      38.065 -40.961  -9.643  1.00  0.00    -0.390 OA
ATOM     31  H7  UNL     1      38.728 -40.380  -9.289  1.00  0.00     0.210 HD
ENDBRANCH  24  30
BRANCH  25  32
HETATM   32  O8  UNL     1      36.997 -43.476  -8.696  1.00  0.00    -0.390 OA
ATOM     33  H8  UNL     1      36.769 -44.180  -9.293  1.00  0.00     0.210 HD
ENDBRANCH  25  32
BRANCH  26  34
HETATM   34  O9  UNL     1      34.047 -43.114  -8.560  1.00  0.00    -0.388 OA
ATOM     35  H9  UNL     1      33.296 -43.094  -7.978  1.00  0.00     0.210 HD
ENDBRANCH  26  34
ENDBRANCH  20  21
ENDBRANCH  19  20
ENDBRANCH   1  19
TORSDOF 13
ENDMDL
MODEL 5
REMARK VINA RESULT: -7.312835027      3.401      5.507
REMARK  13 active torsions:
REMARK  status: ('A' for Active; 'I' for Inactive)
REMARK    1  A    between atoms: C9_12  and  C10_13 
REMARK    2  A    between atoms: C11_14  and  C12_15 
REMARK    3  A    between atoms: C12_15  and  C13_16 
REMARK    4  A    between atoms: C13_16  and  S1_17 
REMARK    5  A    between atoms: S1_17  and  C14_18 
REMARK    6  A    between atoms: C14_18  and  C15_19 
REMARK    7  A    between atoms: C15_19  and  O4_20 
REMARK    8  A    between atoms: O4_20  and  C16_21 
REMARK    9  A    between atoms: C17_23  and  C18_24 
REMARK   10  A    between atoms: C18_24  and  O6_25 
REMARK   11  A    between atoms: C19_27  and  O7_28 
REMARK   12  A    between atoms: C20_30  and  O8_31 
REMARK   13  A    between atoms: C21_33  and  O9_34 
ROOT
HETATM    1  C14 UNL     1      34.370 -41.730  -8.513  1.00  0.00     0.100 C 
ENDROOT
BRANCH   1   2
HETATM    2  S1  UNL     1      35.390 -40.812  -9.628  1.00  0.00    -0.167 SA
BRANCH   2   3
HETATM    3  C13 UNL     1      36.840 -40.049  -8.988  1.00  0.00     0.077 C 
BRANCH   3   4
HETATM    4  C12 UNL     1      38.087 -40.285  -9.750  1.00  0.00     0.037 C 
BRANCH   4   5
HETATM    5  C11 UNL     1      38.875 -41.447  -9.187  1.00  0.00    -0.029 C 
HETATM    6  C10 UNL     1      40.111 -41.674  -9.470  1.00  0.00    -0.019 C 
BRANCH   6   7
HETATM    7  C9  UNL     1      41.056 -42.695  -9.072  1.00  0.00     0.073 C 
HETATM    8  C2  UNL     1      40.636 -44.062  -8.826  1.00  0.00    -0.078 C 
HETATM    9  C1  UNL     1      39.745 -44.758  -9.438  1.00  0.00     0.015 C 
HETATM   10  C3  UNL     1      41.434 -44.755  -7.713  1.00  0.00     0.037 C 
HETATM   11  C4  UNL     1      42.861 -44.296  -8.022  1.00  0.00     0.040 C 
HETATM   12  C5  UNL     1      43.065 -44.037  -9.504  1.00  0.00     0.170 C 
HETATM   13  O1  UNL     1      44.392 -43.574  -9.647  1.00  0.00    -0.290 OA
HETATM   14  C7  UNL     1      42.270 -42.844 -10.013  1.00  0.00     0.106 C 
HETATM   15  C6  UNL     1      44.425 -42.214  -9.879  1.00  0.00     0.407 C 
HETATM   16  O2  UNL     1      45.404 -41.460 -10.115  1.00  0.00    -0.229 OA
HETATM   17  O3  UNL     1      43.118 -41.740  -9.814  1.00  0.00    -0.283 OA
HETATM   18  C8  UNL     1      41.888 -42.970 -11.441  1.00  0.00     0.050 C 
ENDBRANCH   6   7
ENDBRANCH   4   5
ENDBRANCH   3   4
ENDBRANCH   2   3
ENDBRANCH   1   2
BRANCH   1  19
HETATM   19  C15 UNL     1      35.105 -42.799  -7.781  1.00  0.00     0.181 C 
BRANCH  19  20
HETATM   20  O4  UNL     1      35.256 -42.519  -6.459  1.00  0.00    -0.358 OA
BRANCH  20  21
HETATM   21  C16 UNL     1      34.095 -42.398  -5.696  1.00  0.00     0.291 C 
HETATM   22  O5  UNL     1      34.089 -43.543  -4.906  1.00  0.00    -0.348 OA
HETATM   23  C17 UNL     1      33.770 -43.430  -3.606  1.00  0.00     0.179 C 
HETATM   24  C19 UNL     1      34.535 -42.274  -2.945  1.00  0.00     0.180 C 
HETATM   25  C20 UNL     1      33.932 -41.039  -3.547  1.00  0.00     0.183 C 
HETATM   26  C21 UNL     1      34.076 -41.098  -5.026  1.00  0.00     0.204 C 
BRANCH  23  27
HETATM   27  C18 UNL     1      32.290 -43.347  -3.317  1.00  0.00     0.198 C 
BRANCH  27  28
HETATM   28  O6  UNL     1      31.657 -44.530  -3.669  1.00  0.00    -0.398 OA
ATOM     29  H6  UNL     1      31.233 -44.444  -4.514  1.00  0.00     0.209 HD
ENDBRANCH  27  28
ENDBRANCH  23  27
BRANCH  24  30
HETATM   30  O7  UNL     1      34.364 -42.338  -1.568  1.00  0.00    -0.390 OA
ATOM     31  H7  UNL     1      35.185 -42.128  -1.139  1.00  0.00     0.210 HD
ENDBRANCH  24  30
BRANCH  25  32
HETATM   32  O8  UNL     1      34.538 -39.875  -3.072  1.00  0.00    -0.390 OA
ATOM     33  H8  UNL     1      34.812 -39.301  -3.779  1.00  0.00     0.210 HD
ENDBRANCH  25  32
BRANCH  26  34
HETATM   34  O9  UNL     1      33.006 -40.336  -5.580  1.00  0.00    -0.388 OA
ATOM     35  H9  UNL     1      32.734 -39.698  -4.929  1.00  0.00     0.210 HD
ENDBRANCH  26  34
ENDBRANCH  20  21
ENDBRANCH  19  20
ENDBRANCH   1  19
TORSDOF 13
ENDMDL
