MODEL 1
REMARK VINA RESULT: -8.646886409      0.000      0.000
REMARK  14 active torsions:
REMARK  status: ('A' for Active; 'I' for Inactive)
REMARK    1  A    between atoms: O1_1  and  C1_3 
REMARK    2  A    between atoms: C1_3  and  C2_4 
REMARK    3  A    between atoms: C3_5  and  C4_6 
REMARK    4  A    between atoms: C4_6  and  O2_7 
REMARK    5  A    between atoms: O2_7  and  C5_8 
REMARK    6  A    between atoms: N1_11  and  C8_12 
REMARK    7  A    between atoms: C8_12  and  C9_13 
REMARK    8  A    between atoms: C12_17  and  O3_18 
REMARK    9  A    between atoms: O3_18  and  C13_19 
REMARK   10  A    between atoms: C14_21  and  C15_22 
REMARK   11  A    between atoms: C15_22  and  O5_23 
REMARK   12  A    between atoms: C16_25  and  O6_26 
REMARK   13  A    between atoms: C17_28  and  O7_29 
REMARK   14  A    between atoms: C18_31  and  O8_32 
ROOT
HETATM    1  C9  UNL     1      34.381 -40.439  -8.999  1.00  0.00     0.092 A 
HETATM    2  C10 UNL     1      33.160 -40.715  -9.588  1.00  0.00     0.064 A 
HETATM    3  C11 UNL     1      32.076 -40.945  -8.781  1.00  0.00     0.069 A 
HETATM    4  S1  UNL     1      30.588 -41.280  -9.401  1.00  0.00    -0.077 SA
HETATM    5  C12 UNL     1      32.223 -40.896  -7.403  1.00  0.00     0.115 A 
HETATM    6  C19 UNL     1      33.463 -40.616  -6.889  1.00  0.00     0.181 A 
HETATM    7  O9  UNL     1      34.497 -40.398  -7.700  1.00  0.00    -0.319 OA
ENDROOT
BRANCH   5   8
HETATM    8  O3  UNL     1      31.125 -41.130  -6.636  1.00  0.00    -0.314 OA
BRANCH   8   9
HETATM    9  C13 UNL     1      31.099 -41.816  -5.422  1.00  0.00     0.298 C 
HETATM   10  O4  UNL     1      32.289 -41.505  -4.750  1.00  0.00    -0.348 OA
HETATM   11  C14 UNL     1      32.323 -42.111  -3.491  1.00  0.00     0.179 C 
HETATM   12  C16 UNL     1      31.256 -41.468  -2.637  1.00  0.00     0.180 C 
HETATM   13  C17 UNL     1      29.916 -41.810  -3.245  1.00  0.00     0.183 C 
HETATM   14  C18 UNL     1      29.901 -41.244  -4.644  1.00  0.00     0.205 C 
BRANCH  11  15
HETATM   15  C15 UNL     1      33.681 -41.827  -2.888  1.00  0.00     0.198 C 
BRANCH  15  16
HETATM   16  O5  UNL     1      33.782 -40.528  -2.435  1.00  0.00    -0.398 OA
ATOM     17  H5  UNL     1      33.431 -39.905  -3.060  1.00  0.00     0.209 HD
ENDBRANCH  15  16
ENDBRANCH  11  15
BRANCH  12  18
HETATM   18  O6  UNL     1      31.298 -41.995  -1.355  1.00  0.00    -0.390 OA
ATOM     19  H6  UNL     1      30.484 -41.808  -0.902  1.00  0.00     0.210 HD
ENDBRANCH  12  18
BRANCH  13  20
HETATM   20  O7  UNL     1      28.848 -41.287  -2.556  1.00  0.00    -0.390 OA
ATOM     21  H7  UNL     1      28.054 -41.224  -3.073  1.00  0.00     0.210 HD
ENDBRANCH  13  20
BRANCH  14  22
HETATM   22  O8  UNL     1      28.767 -41.627  -5.327  1.00  0.00    -0.388 OA
ATOM     23  H8  UNL     1      28.997 -41.649  -6.248  1.00  0.00     0.210 HD
ENDBRANCH  14  22
ENDBRANCH   8   9
ENDBRANCH   5   8
BRANCH   1  24
HETATM   24  C8  UNL     1      35.536 -40.195  -9.900  1.00  0.00     0.127 C 
BRANCH  24  25
HETATM   25  N1  UNL     1      36.727 -40.776  -9.422  1.00  0.00    -0.367 N 
HETATM   26  C7  UNL     1      36.704 -42.091  -8.953  1.00  0.00     0.130 C 
HETATM   27  C6  UNL     1      37.952 -42.901  -9.315  1.00  0.00     0.052 C 
HETATM   28  C5  UNL     1      39.117 -42.087  -8.785  1.00  0.00     0.128 C 
HETATM   29  C21 UNL     1      39.180 -40.836  -9.627  1.00  0.00     0.076 C 
HETATM   30  C20 UNL     1      37.913 -40.049  -9.428  1.00  0.00     0.066 C 
BRANCH  28  31
HETATM   31  O2  UNL     1      40.288 -42.780  -8.731  1.00  0.00    -0.382 OA
BRANCH  31  32
HETATM   32  C4  UNL     1      40.190 -44.141  -8.878  1.00  0.00     0.195 C 
BRANCH  32  33
HETATM   33  C3  UNL     1      40.754 -44.869  -7.696  1.00  0.00    -0.003 C 
HETATM   34  C2  UNL     1      41.470 -44.250  -6.771  1.00  0.00    -0.003 C 
BRANCH  34  35
HETATM   35  C1  UNL     1      41.997 -45.037  -5.628  1.00  0.00     0.191 C 
BRANCH  35  36
HETATM   36  O1  UNL     1      41.778 -44.325  -4.432  1.00  0.00    -0.397 OA
ATOM     37  H1  UNL     1      42.561 -43.833  -4.212  1.00  0.00     0.209 HD
ENDBRANCH  35  36
ENDBRANCH  34  35
ENDBRANCH  32  33
ENDBRANCH  31  32
ENDBRANCH  28  31
ENDBRANCH  24  25
ENDBRANCH   1  24
TORSDOF 14
ENDMDL
MODEL 2
REMARK VINA RESULT: -8.517138031      1.184      1.729
REMARK  14 active torsions:
REMARK  status: ('A' for Active; 'I' for Inactive)
REMARK    1  A    between atoms: O1_1  and  C1_3 
REMARK    2  A    between atoms: C1_3  and  C2_4 
REMARK    3  A    between atoms: C3_5  and  C4_6 
REMARK    4  A    between atoms: C4_6  and  O2_7 
REMARK    5  A    between atoms: O2_7  and  C5_8 
REMARK    6  A    between atoms: N1_11  and  C8_12 
REMARK    7  A    between atoms: C8_12  and  C9_13 
REMARK    8  A    between atoms: C12_17  and  O3_18 
REMARK    9  A    between atoms: O3_18  and  C13_19 
REMARK   10  A    between atoms: C14_21  and  C15_22 
REMARK   11  A    between atoms: C15_22  and  O5_23 
REMARK   12  A    between atoms: C16_25  and  O6_26 
REMARK   13  A    between atoms: C17_28  and  O7_29 
REMARK   14  A    between atoms: C18_31  and  O8_32 
ROOT
HETATM    1  C9  UNL     1      34.358 -40.368  -8.889  1.00  0.00     0.092 A 
HETATM    2  C10 UNL     1      33.152 -40.657  -9.502  1.00  0.00     0.064 A 
HETATM    3  C11 UNL     1      32.060 -40.921  -8.716  1.00  0.00     0.069 A 
HETATM    4  S1  UNL     1      30.589 -41.274  -9.366  1.00  0.00    -0.077 SA
HETATM    5  C12 UNL     1      32.184 -40.894  -7.336  1.00  0.00     0.115 A 
HETATM    6  C19 UNL     1      33.411 -40.600  -6.797  1.00  0.00     0.181 A 
HETATM    7  O9  UNL     1      34.453 -40.348  -7.588  1.00  0.00    -0.319 OA
ENDROOT
BRANCH   5   8
HETATM    8  O3  UNL     1      31.079 -41.161  -6.591  1.00  0.00    -0.314 OA
BRANCH   8   9
HETATM    9  C13 UNL     1      31.052 -41.832  -5.368  1.00  0.00     0.298 C 
HETATM   10  O4  UNL     1      32.241 -41.513  -4.699  1.00  0.00    -0.348 OA
HETATM   11  C14 UNL     1      32.274 -42.104  -3.433  1.00  0.00     0.179 C 
HETATM   12  C16 UNL     1      31.207 -41.450  -2.588  1.00  0.00     0.180 C 
HETATM   13  C17 UNL     1      29.867 -41.799  -3.192  1.00  0.00     0.183 C 
HETATM   14  C18 UNL     1      29.854 -41.251  -4.598  1.00  0.00     0.205 C 
BRANCH  11  15
HETATM   15  C15 UNL     1      33.632 -41.812  -2.833  1.00  0.00     0.198 C 
BRANCH  15  16
HETATM   16  O5  UNL     1      33.720 -40.519  -2.362  1.00  0.00    -0.398 OA
ATOM     17  H5  UNL     1      34.597 -40.166  -2.454  1.00  0.00     0.209 HD
ENDBRANCH  15  16
ENDBRANCH  11  15
BRANCH  12  18
HETATM   18  O6  UNL     1      31.247 -41.961  -1.299  1.00  0.00    -0.390 OA
ATOM     19  H6  UNL     1      30.556 -42.603  -1.184  1.00  0.00     0.210 HD
ENDBRANCH  12  18
BRANCH  13  20
HETATM   20  O7  UNL     1      28.799 -41.268  -2.511  1.00  0.00    -0.390 OA
ATOM     21  H7  UNL     1      27.968 -41.677  -2.725  1.00  0.00     0.210 HD
ENDBRANCH  13  20
BRANCH  14  22
HETATM   22  O8  UNL     1      28.720 -41.643  -5.278  1.00  0.00    -0.388 OA
ATOM     23  H8  UNL     1      28.062 -40.976  -5.118  1.00  0.00     0.210 HD
ENDBRANCH  14  22
ENDBRANCH   8   9
ENDBRANCH   5   8
BRANCH   1  24
HETATM   24  C8  UNL     1      35.522 -40.087  -9.766  1.00  0.00     0.127 C 
BRANCH  24  25
HETATM   25  N1  UNL     1      36.696 -40.732  -9.332  1.00  0.00    -0.367 N 
HETATM   26  C7  UNL     1      36.620 -42.046  -8.866  1.00  0.00     0.130 C 
HETATM   27  C6  UNL     1      37.811 -42.919  -9.272  1.00  0.00     0.052 C 
HETATM   28  C5  UNL     1      39.034 -42.169  -8.779  1.00  0.00     0.128 C 
HETATM   29  C21 UNL     1      39.135 -40.920  -9.620  1.00  0.00     0.076 C 
HETATM   30  C20 UNL     1      37.919 -40.068  -9.375  1.00  0.00     0.066 C 
BRANCH  28  31
HETATM   31  O2  UNL     1      40.168 -42.923  -8.767  1.00  0.00    -0.382 OA
BRANCH  31  32
HETATM   32  C4  UNL     1      39.991 -44.277  -8.632  1.00  0.00     0.195 C 
BRANCH  32  33
HETATM   33  C3  UNL     1      40.766 -45.044  -9.659  1.00  0.00    -0.003 C 
HETATM   34  C2  UNL     1      41.862 -44.555 -10.216  1.00  0.00    -0.003 C 
BRANCH  34  35
HETATM   35  C1  UNL     1      42.578 -45.374 -11.227  1.00  0.00     0.191 C 
BRANCH  35  36
HETATM   36  O1  UNL     1      42.537 -46.728 -10.842  1.00  0.00    -0.397 OA
ATOM     37  H1  UNL     1      42.388 -47.268 -11.610  1.00  0.00     0.209 HD
ENDBRANCH  35  36
ENDBRANCH  34  35
ENDBRANCH  32  33
ENDBRANCH  31  32
ENDBRANCH  28  31
ENDBRANCH  24  25
ENDBRANCH   1  24
TORSDOF 14
ENDMDL
MODEL 3
REMARK VINA RESULT: -8.370736645      1.763      2.706
REMARK  14 active torsions:
REMARK  status: ('A' for Active; 'I' for Inactive)
REMARK    1  A    between atoms: O1_1  and  C1_3 
REMARK    2  A    between atoms: C1_3  and  C2_4 
REMARK    3  A    between atoms: C3_5  and  C4_6 
REMARK    4  A    between atoms: C4_6  and  O2_7 
REMARK    5  A    between atoms: O2_7  and  C5_8 
REMARK    6  A    between atoms: N1_11  and  C8_12 
REMARK    7  A    between atoms: C8_12  and  C9_13 
REMARK    8  A    between atoms: C12_17  and  O3_18 
REMARK    9  A    between atoms: O3_18  and  C13_19 
REMARK   10  A    between atoms: C14_21  and  C15_22 
REMARK   11  A    between atoms: C15_22  and  O5_23 
REMARK   12  A    between atoms: C16_25  and  O6_26 
REMARK   13  A    between atoms: C17_28  and  O7_29 
REMARK   14  A    between atoms: C18_31  and  O8_32 
ROOT
HETATM    1  C9  UNL     1      34.100 -40.798  -7.799  1.00  0.00     0.092 A 
HETATM    2  C10 UNL     1      32.719 -40.792  -7.883  1.00  0.00     0.064 A 
HETATM    3  C11 UNL     1      31.988 -40.972  -6.737  1.00  0.00     0.069 A 
HETATM    4  S1  UNL     1      30.342 -40.978  -6.751  1.00  0.00    -0.077 SA
HETATM    5  C12 UNL     1      32.641 -41.154  -5.527  1.00  0.00     0.115 A 
HETATM    6  C19 UNL     1      34.012 -41.148  -5.519  1.00  0.00     0.181 A 
HETATM    7  O9  UNL     1      34.694 -40.971  -6.650  1.00  0.00    -0.319 OA
ENDROOT
BRANCH   5   8
HETATM    8  O3  UNL     1      31.881 -41.329  -4.414  1.00  0.00    -0.314 OA
BRANCH   8   9
HETATM    9  C13 UNL     1      32.177 -42.168  -3.339  1.00  0.00     0.298 C 
HETATM   10  O4  UNL     1      32.553 -43.406  -3.877  1.00  0.00    -0.348 OA
HETATM   11  C14 UNL     1      32.921 -44.297  -2.865  1.00  0.00     0.179 C 
HETATM   12  C16 UNL     1      34.194 -43.784  -2.234  1.00  0.00     0.180 C 
HETATM   13  C17 UNL     1      33.873 -42.471  -1.558  1.00  0.00     0.183 C 
HETATM   14  C18 UNL     1      33.380 -41.527  -2.627  1.00  0.00     0.205 C 
BRANCH  11  15
HETATM   15  C15 UNL     1      33.194 -45.635  -3.516  1.00  0.00     0.198 C 
BRANCH  15  16
HETATM   16  O5  UNL     1      34.444 -45.681  -4.096  1.00  0.00    -0.398 OA
ATOM     17  H5  UNL     1      35.111 -45.963  -3.481  1.00  0.00     0.209 HD
ENDBRANCH  15  16
ENDBRANCH  11  15
BRANCH  12  18
HETATM   18  O6  UNL     1      34.633 -44.675  -1.266  1.00  0.00    -0.390 OA
ATOM     19  H6  UNL     1      34.632 -45.558  -1.615  1.00  0.00     0.210 HD
ENDBRANCH  12  18
BRANCH  13  20
HETATM   20  O7  UNL     1      34.952 -41.894  -0.934  1.00  0.00    -0.390 OA
ATOM     21  H7  UNL     1      34.743 -41.085  -0.482  1.00  0.00     0.210 HD
ENDBRANCH  13  20
BRANCH  14  22
HETATM   22  O8  UNL     1      32.931 -40.343  -2.080  1.00  0.00    -0.388 OA
ATOM     23  H8  UNL     1      33.701 -39.865  -1.795  1.00  0.00     0.210 HD
ENDBRANCH  14  22
ENDBRANCH   8   9
ENDBRANCH   5   8
BRANCH   1  24
HETATM   24  C8  UNL     1      34.864 -40.601  -9.057  1.00  0.00     0.127 C 
BRANCH  24  25
HETATM   25  N1  UNL     1      36.213 -40.984  -8.936  1.00  0.00    -0.367 N 
HETATM   26  C7  UNL     1      36.521 -42.304  -8.601  1.00  0.00     0.130 C 
HETATM   27  C6  UNL     1      37.750 -42.859  -9.326  1.00  0.00     0.052 C 
HETATM   28  C5  UNL     1      38.865 -41.877  -9.017  1.00  0.00     0.128 C 
HETATM   29  C21 UNL     1      38.512 -40.594  -9.729  1.00  0.00     0.076 C 
HETATM   30  C20 UNL     1      37.228 -40.057  -9.159  1.00  0.00     0.066 C 
BRANCH  28  31
HETATM   31  O2  UNL     1      40.107 -42.352  -9.311  1.00  0.00    -0.382 OA
BRANCH  31  32
HETATM   32  C4  UNL     1      40.325 -43.679  -9.041  1.00  0.00     0.195 C 
BRANCH  32  33
HETATM   33  C3  UNL     1      41.164 -43.866  -7.814  1.00  0.00    -0.003 C 
HETATM   34  C2  UNL     1      41.170 -45.004  -7.138  1.00  0.00    -0.003 C 
BRANCH  34  35
HETATM   35  C1  UNL     1      42.028 -45.116  -5.932  1.00  0.00     0.191 C 
BRANCH  35  36
HETATM   36  O1  UNL     1      41.934 -43.928  -5.181  1.00  0.00    -0.397 OA
ATOM     37  H1  UNL     1      42.756 -43.774  -4.732  1.00  0.00     0.209 HD
ENDBRANCH  35  36
ENDBRANCH  34  35
ENDBRANCH  32  33
ENDBRANCH  31  32
ENDBRANCH  28  31
ENDBRANCH  24  25
ENDBRANCH   1  24
TORSDOF 14
ENDMDL
MODEL 4
REMARK VINA RESULT: -8.160465473      2.302      3.535
REMARK  14 active torsions:
REMARK  status: ('A' for Active; 'I' for Inactive)
REMARK    1  A    between atoms: O1_1  and  C1_3 
REMARK    2  A    between atoms: C1_3  and  C2_4 
REMARK    3  A    between atoms: C3_5  and  C4_6 
REMARK    4  A    between atoms: C4_6  and  O2_7 
REMARK    5  A    between atoms: O2_7  and  C5_8 
REMARK    6  A    between atoms: N1_11  and  C8_12 
REMARK    7  A    between atoms: C8_12  and  C9_13 
REMARK    8  A    between atoms: C12_17  and  O3_18 
REMARK    9  A    between atoms: O3_18  and  C13_19 
REMARK   10  A    between atoms: C14_21  and  C15_22 
REMARK   11  A    between atoms: C15_22  and  O5_23 
REMARK   12  A    between atoms: C16_25  and  O6_26 
REMARK   13  A    between atoms: C17_28  and  O7_29 
REMARK   14  A    between atoms: C18_31  and  O8_32 
ROOT
HETATM    1  C9  UNL     1      33.250 -40.971  -8.025  1.00  0.00     0.092 A 
HETATM    2  C10 UNL     1      31.891 -41.006  -7.770  1.00  0.00     0.064 A 
HETATM    3  C11 UNL     1      31.466 -41.013  -6.466  1.00  0.00     0.069 A 
HETATM    4  S1  UNL     1      29.867 -41.053  -6.075  1.00  0.00    -0.077 SA
HETATM    5  C12 UNL     1      32.398 -40.985  -5.439  1.00  0.00     0.115 A 
HETATM    6  C19 UNL     1      33.729 -40.951  -5.768  1.00  0.00     0.181 A 
HETATM    7  O9  UNL     1      34.109 -40.945  -7.044  1.00  0.00    -0.319 OA
ENDROOT
BRANCH   5   8
HETATM    8  O3  UNL     1      31.937 -40.992  -4.160  1.00  0.00    -0.314 OA
BRANCH   8   9
HETATM    9  C13 UNL     1      32.246 -41.934  -3.179  1.00  0.00     0.298 C 
HETATM   10  O4  UNL     1      32.564 -43.127  -3.842  1.00  0.00    -0.348 OA
HETATM   11  C14 UNL     1      32.941 -44.118  -2.932  1.00  0.00     0.179 C 
HETATM   12  C16 UNL     1      34.252 -43.700  -2.308  1.00  0.00     0.180 C 
HETATM   13  C17 UNL     1      33.996 -42.447  -1.502  1.00  0.00     0.183 C 
HETATM   14  C18 UNL     1      33.494 -41.395  -2.459  1.00  0.00     0.205 C 
BRANCH  11  15
HETATM   15  C15 UNL     1      33.149 -45.396  -3.713  1.00  0.00     0.198 C 
BRANCH  15  16
HETATM   16  O5  UNL     1      34.266 -45.333  -4.519  1.00  0.00    -0.398 OA
ATOM     17  H5  UNL     1      34.883 -44.676  -4.220  1.00  0.00     0.209 HD
ENDBRANCH  15  16
ENDBRANCH  11  15
BRANCH  12  18
HETATM   18  O6  UNL     1      34.698 -44.688  -1.443  1.00  0.00    -0.390 OA
ATOM     19  H6  UNL     1      35.069 -45.409  -1.939  1.00  0.00     0.210 HD
ENDBRANCH  12  18
BRANCH  13  20
HETATM   20  O7  UNL     1      35.115 -41.960  -0.871  1.00  0.00    -0.390 OA
ATOM     21  H7  UNL     1      35.312 -42.399  -0.052  1.00  0.00     0.210 HD
ENDBRANCH  13  20
BRANCH  14  22
HETATM   22  O8  UNL     1      33.101 -40.255  -1.789  1.00  0.00    -0.388 OA
ATOM     23  H8  UNL     1      33.885 -39.738  -1.648  1.00  0.00     0.210 HD
ENDBRANCH  14  22
ENDBRANCH   8   9
ENDBRANCH   5   8
BRANCH   1  24
HETATM   24  C8  UNL     1      33.679 -40.965  -9.447  1.00  0.00     0.127 C 
BRANCH  24  25
HETATM   25  N1  UNL     1      35.079 -40.988  -9.590  1.00  0.00    -0.367 N 
HETATM   26  C7  UNL     1      35.737 -39.845 -10.050  1.00  0.00     0.130 C 
HETATM   27  C6  UNL     1      37.084 -39.587  -9.369  1.00  0.00     0.052 C 
HETATM   28  C5  UNL     1      37.876 -40.866  -9.568  1.00  0.00     0.128 C 
HETATM   29  C21 UNL     1      37.192 -41.924  -8.738  1.00  0.00     0.076 C 
HETATM   30  C20 UNL     1      35.799 -42.135  -9.267  1.00  0.00     0.066 C 
BRANCH  28  31
HETATM   31  O2  UNL     1      39.206 -40.730  -9.308  1.00  0.00    -0.382 OA
BRANCH  31  32
HETATM   32  C4  UNL     1      39.866 -41.874  -8.934  1.00  0.00     0.195 C 
BRANCH  32  33
HETATM   33  C3  UNL     1      41.138 -42.058  -9.703  1.00  0.00    -0.003 C 
HETATM   34  C2  UNL     1      41.804 -43.202  -9.688  1.00  0.00    -0.003 C 
BRANCH  34  35
HETATM   35  C1  UNL     1      43.058 -43.311 -10.475  1.00  0.00     0.191 C 
BRANCH  35  36
HETATM   36  O1  UNL     1      43.100 -42.277 -11.430  1.00  0.00    -0.397 OA
ATOM     37  H1  UNL     1      43.955 -41.865 -11.409  1.00  0.00     0.209 HD
ENDBRANCH  35  36
ENDBRANCH  34  35
ENDBRANCH  32  33
ENDBRANCH  31  32
ENDBRANCH  28  31
ENDBRANCH  24  25
ENDBRANCH   1  24
TORSDOF 14
ENDMDL
MODEL 5
REMARK VINA RESULT: -8.157190757      2.127      3.198
REMARK  14 active torsions:
REMARK  status: ('A' for Active; 'I' for Inactive)
REMARK    1  A    between atoms: O1_1  and  C1_3 
REMARK    2  A    between atoms: C1_3  and  C2_4 
REMARK    3  A    between atoms: C3_5  and  C4_6 
REMARK    4  A    between atoms: C4_6  and  O2_7 
REMARK    5  A    between atoms: O2_7  and  C5_8 
REMARK    6  A    between atoms: N1_11  and  C8_12 
REMARK    7  A    between atoms: C8_12  and  C9_13 
REMARK    8  A    between atoms: C12_17  and  O3_18 
REMARK    9  A    between atoms: O3_18  and  C13_19 
REMARK   10  A    between atoms: C14_21  and  C15_22 
REMARK   11  A    between atoms: C15_22  and  O5_23 
REMARK   12  A    between atoms: C16_25  and  O6_26 
REMARK   13  A    between atoms: C17_28  and  O7_29 
REMARK   14  A    between atoms: C18_31  and  O8_32 
ROOT
HETATM    1  C9  UNL     1      34.005 -40.830  -7.828  1.00  0.00     0.092 A 
HETATM    2  C10 UNL     1      32.622 -40.819  -7.885  1.00  0.00     0.064 A 
HETATM    3  C11 UNL     1      31.914 -40.991  -6.723  1.00  0.00     0.069 A 
HETATM    4  S1  UNL     1      30.268 -40.990  -6.703  1.00  0.00    -0.077 SA
HETATM    5  C12 UNL     1      32.591 -41.169  -5.526  1.00  0.00     0.115 A 
HETATM    6  C19 UNL     1      33.962 -41.168  -5.545  1.00  0.00     0.181 A 
HETATM    7  O9  UNL     1      34.621 -40.999  -6.691  1.00  0.00    -0.319 OA
ENDROOT
BRANCH   5   8
HETATM    8  O3  UNL     1      31.853 -41.336  -4.396  1.00  0.00    -0.314 OA
BRANCH   8   9
HETATM    9  C13 UNL     1      32.162 -42.178  -3.328  1.00  0.00     0.298 C 
HETATM   10  O4  UNL     1      32.536 -43.413  -3.875  1.00  0.00    -0.348 OA
HETATM   11  C14 UNL     1      32.916 -44.308  -2.871  1.00  0.00     0.179 C 
HETATM   12  C16 UNL     1      34.194 -43.794  -2.251  1.00  0.00     0.180 C 
HETATM   13  C17 UNL     1      33.876 -42.485  -1.566  1.00  0.00     0.183 C 
HETATM   14  C18 UNL     1      33.370 -41.537  -2.625  1.00  0.00     0.205 C 
BRANCH  11  15
HETATM   15  C15 UNL     1      33.186 -45.642  -3.531  1.00  0.00     0.198 C 
BRANCH  15  16
HETATM   16  O5  UNL     1      34.483 -45.738  -3.989  1.00  0.00    -0.398 OA
ATOM     17  H5  UNL     1      34.545 -46.270  -4.773  1.00  0.00     0.209 HD
ENDBRANCH  15  16
ENDBRANCH  11  15
BRANCH  12  18
HETATM   18  O6  UNL     1      34.645 -44.687  -1.291  1.00  0.00    -0.390 OA
ATOM     19  H6  UNL     1      34.660 -44.267  -0.439  1.00  0.00     0.210 HD
ENDBRANCH  12  18
BRANCH  13  20
HETATM   20  O7  UNL     1      34.960 -41.908  -0.950  1.00  0.00    -0.390 OA
ATOM     21  H7  UNL     1      35.235 -42.359  -0.160  1.00  0.00     0.210 HD
ENDBRANCH  13  20
BRANCH  14  22
HETATM   22  O8  UNL     1      32.924 -40.357  -2.068  1.00  0.00    -0.388 OA
ATOM     23  H8  UNL     1      32.720 -40.544  -1.160  1.00  0.00     0.210 HD
ENDBRANCH  14  22
ENDBRANCH   8   9
ENDBRANCH   5   8
BRANCH   1  24
HETATM   24  C8  UNL     1      34.743 -40.642  -9.103  1.00  0.00     0.127 C 
BRANCH  24  25
HETATM   25  N1  UNL     1      36.123 -40.888  -8.970  1.00  0.00    -0.367 N 
HETATM   26  C7  UNL     1      36.555 -42.156  -8.572  1.00  0.00     0.130 C 
HETATM   27  C6  UNL     1      37.832 -42.625  -9.275  1.00  0.00     0.052 C 
HETATM   28  C5  UNL     1      38.848 -41.528  -9.019  1.00  0.00     0.128 C 
HETATM   29  C21 UNL     1      38.375 -40.321  -9.790  1.00  0.00     0.076 C 
HETATM   30  C20 UNL     1      37.045 -39.881  -9.240  1.00  0.00     0.066 C 
BRANCH  28  31
HETATM   31  O2  UNL     1      40.130 -41.896  -9.295  1.00  0.00    -0.382 OA
BRANCH  31  32
HETATM   32  C4  UNL     1      40.535 -43.102  -8.782  1.00  0.00     0.195 C 
BRANCH  32  33
HETATM   33  C3  UNL     1      41.565 -43.758  -9.649  1.00  0.00    -0.003 C 
HETATM   34  C2  UNL     1      41.470 -45.029 -10.007  1.00  0.00    -0.003 C 
BRANCH  34  35
HETATM   35  C1  UNL     1      42.529 -45.611 -10.870  1.00  0.00     0.191 C 
BRANCH  35  36
HETATM   36  O1  UNL     1      42.543 -47.010 -10.711  1.00  0.00    -0.397 OA
ATOM     37  H1  UNL     1      43.003 -47.405 -11.442  1.00  0.00     0.209 HD
ENDBRANCH  35  36
ENDBRANCH  34  35
ENDBRANCH  32  33
ENDBRANCH  31  32
ENDBRANCH  28  31
ENDBRANCH  24  25
ENDBRANCH   1  24
TORSDOF 14
ENDMDL
