MODEL 1
REMARK VINA RESULT: -7.500940198      0.000      0.000
REMARK  14 active torsions:
REMARK  status: ('A' for Active; 'I' for Inactive)
REMARK    1  A    between atoms: N2_5  and  C3_6 
REMARK    2  A    between atoms: C5_8  and  O1_9 
REMARK    3  A    between atoms: C6_11  and  C7_12 
REMARK    4  A    between atoms: C7_12  and  O2_13 
REMARK    5  A    between atoms: C9_17  and  C10_18 
REMARK    6  A    between atoms: C10_18  and  O4_20 
REMARK    7  A    between atoms: C10_18  and  C12_22 
REMARK    8  A    between atoms: C12_22  and  C13_23 
REMARK    9  A    between atoms: C13_23  and  C14_24 
REMARK   10  A    between atoms: C14_24  and  S1_25 
REMARK   11  A    between atoms: S1_25  and  C15_26 
REMARK   12  A    between atoms: C15_26  and  C16_27 
REMARK   13  A    between atoms: C19_31  and  O6_32 
REMARK   14  A    between atoms: C21_35  and  O7_36 
ROOT
HETATM    1  C10 UNL     1      35.290 -41.525  -8.440  1.00  0.00     0.084 C 
HETATM    2  C11 UNL     1      34.746 -42.798  -7.771  1.00  0.00     0.051 C 
ENDROOT
BRANCH   1   3
HETATM    3  C9  UNL     1      36.684 -41.656  -8.818  1.00  0.00     0.016 A 
HETATM    4  C2  UNL     1      37.574 -40.697  -9.256  1.00  0.00     0.033 A 
HETATM    5  C1  UNL     1      37.237 -39.285  -9.427  1.00  0.00     0.070 C 
HETATM    6  N1  UNL     1      38.761 -41.334  -9.479  1.00  0.00    -0.300 N 
HETATM    7  N2  UNL     1      38.654 -42.600  -9.207  1.00  0.00    -0.273 N 
ATOM      8  H1  UNL     1      39.612 -40.880  -9.811  1.00  0.00     0.187 HD
HETATM    9  C8  UNL     1      37.396 -42.837  -8.799  1.00  0.00     0.125 A 
BRANCH   7  10
HETATM   10  C3  UNL     1      39.774 -43.543  -9.352  1.00  0.00     0.246 C 
HETATM   11  C4  UNL     1      41.005 -42.958  -8.698  1.00  0.00     0.089 C 
HETATM   12  C5  UNL     1      41.625 -44.116  -7.981  1.00  0.00     0.153 C 
HETATM   13  C6  UNL     1      40.806 -45.274  -8.531  1.00  0.00     0.176 C 
HETATM   14  O3  UNL     1      39.551 -44.705  -8.668  1.00  0.00    -0.355 OA
BRANCH  12  15
HETATM   15  O1  UNL     1      41.428 -44.080  -6.602  1.00  0.00    -0.393 OA
ATOM     16  H1  UNL     1      40.524 -44.223  -6.347  1.00  0.00     0.210 HD
ENDBRANCH  12  15
BRANCH  13  17
HETATM   17  C7  UNL     1      41.425 -45.641  -9.873  1.00  0.00     0.198 C 
BRANCH  17  18
HETATM   18  O2  UNL     1      41.776 -46.988  -9.881  1.00  0.00    -0.398 OA
ATOM     19  H2  UNL     1      41.722 -47.332 -10.765  1.00  0.00     0.209 HD
ENDBRANCH  17  18
ENDBRANCH  13  17
ENDBRANCH   7  10
ENDBRANCH   1   3
BRANCH   1  20
HETATM   20  O4  UNL     1      35.160 -40.522  -7.480  1.00  0.00    -0.385 OA
ATOM     21  H4  UNL     1      34.335 -40.069  -7.605  1.00  0.00     0.211 HD
ENDBRANCH   1  20
BRANCH   1  22
HETATM   22  C12 UNL     1      34.346 -41.189  -9.548  1.00  0.00     0.043 C 
BRANCH  22  23
HETATM   23  C13 UNL     1      33.135 -40.510  -8.935  1.00  0.00     0.013 C 
BRANCH  23  24
HETATM   24  C14 UNL     1      31.850 -41.207  -9.367  1.00  0.00     0.074 C 
BRANCH  24  25
HETATM   25  S1  UNL     1      30.467 -40.805  -8.302  1.00  0.00    -0.166 SA
BRANCH  25  26
HETATM   26  C15 UNL     1      30.952 -40.432  -6.619  1.00  0.00     0.108 C 
BRANCH  26  27
HETATM   27  C16 UNL     1      30.836 -41.608  -5.672  1.00  0.00     0.160 C 
HETATM   28  O5  UNL     1      32.114 -41.975  -5.326  1.00  0.00    -0.375 OA
HETATM   29  C17 UNL     1      32.518 -41.593  -4.072  1.00  0.00     0.146 C 
HETATM   30  C18 UNL     1      33.980 -41.882  -3.898  1.00  0.00     0.042 C 
HETATM   31  C19 UNL     1      31.670 -42.423  -3.097  1.00  0.00     0.149 C 
HETATM   32  C20 UNL     1      30.267 -41.930  -3.227  1.00  0.00     0.068 C 
HETATM   33  C21 UNL     1      29.893 -41.370  -4.551  1.00  0.00     0.150 C 
BRANCH  31  34
HETATM   34  O6  UNL     1      31.822 -43.746  -3.506  1.00  0.00    -0.393 OA
ATOM     35  H6  UNL     1      32.727 -43.967  -3.319  1.00  0.00     0.210 HD
ENDBRANCH  31  34
BRANCH  33  36
HETATM   36  O7  UNL     1      28.609 -41.856  -4.893  1.00  0.00    -0.393 OA
ATOM     37  H7  UNL     1      28.613 -42.806  -4.892  1.00  0.00     0.210 HD
ENDBRANCH  33  36
ENDBRANCH  26  27
ENDBRANCH  25  26
ENDBRANCH  24  25
ENDBRANCH  23  24
ENDBRANCH  22  23
ENDBRANCH   1  22
TORSDOF 14
ENDMDL
MODEL 2
REMARK VINA RESULT: -7.339479477      2.766      8.984
REMARK  14 active torsions:
REMARK  status: ('A' for Active; 'I' for Inactive)
REMARK    1  A    between atoms: N2_5  and  C3_6 
REMARK    2  A    between atoms: C5_8  and  O1_9 
REMARK    3  A    between atoms: C6_11  and  C7_12 
REMARK    4  A    between atoms: C7_12  and  O2_13 
REMARK    5  A    between atoms: C9_17  and  C10_18 
REMARK    6  A    between atoms: C10_18  and  O4_20 
REMARK    7  A    between atoms: C10_18  and  C12_22 
REMARK    8  A    between atoms: C12_22  and  C13_23 
REMARK    9  A    between atoms: C13_23  and  C14_24 
REMARK   10  A    between atoms: C14_24  and  S1_25 
REMARK   11  A    between atoms: S1_25  and  C15_26 
REMARK   12  A    between atoms: C15_26  and  C16_27 
REMARK   13  A    between atoms: C19_31  and  O6_32 
REMARK   14  A    between atoms: C21_35  and  O7_36 
ROOT
HETATM    1  C10 UNL     1      34.925 -40.415  -9.058  1.00  0.00     0.084 C 
HETATM    2  C11 UNL     1      35.040 -41.526 -10.114  1.00  0.00     0.051 C 
ENDROOT
BRANCH   1   3
HETATM    3  C9  UNL     1      34.086 -40.806  -7.940  1.00  0.00     0.016 A 
HETATM    4  C2  UNL     1      32.721 -40.998  -7.886  1.00  0.00     0.033 A 
HETATM    5  C1  UNL     1      31.825 -40.827  -9.029  1.00  0.00     0.070 C 
HETATM    6  N1  UNL     1      32.424 -41.359  -6.604  1.00  0.00    -0.300 N 
HETATM    7  N2  UNL     1      33.505 -41.399  -5.883  1.00  0.00    -0.273 N 
ATOM      8  H1  UNL     1      31.487 -41.567  -6.260  1.00  0.00     0.187 HD
HETATM    9  C8  UNL     1      34.545 -41.066  -6.666  1.00  0.00     0.125 A 
BRANCH   7  10
HETATM   10  C3  UNL     1      33.497 -41.759  -4.456  1.00  0.00     0.246 C 
HETATM   11  C4  UNL     1      32.070 -41.799  -3.961  1.00  0.00     0.089 C 
HETATM   12  C5  UNL     1      32.017 -43.014  -3.088  1.00  0.00     0.153 C 
HETATM   13  C6  UNL     1      33.493 -43.368  -2.992  1.00  0.00     0.176 C 
HETATM   14  O3  UNL     1      33.958 -43.029  -4.251  1.00  0.00    -0.355 OA
BRANCH  12  15
HETATM   15  O1  UNL     1      31.364 -44.091  -3.682  1.00  0.00    -0.393 OA
ATOM     16  H1  UNL     1      30.624 -44.407  -3.177  1.00  0.00     0.210 HD
ENDBRANCH  12  15
BRANCH  13  17
HETATM   17  C7  UNL     1      34.080 -42.484  -1.900  1.00  0.00     0.198 C 
BRANCH  17  18
HETATM   18  O2  UNL     1      35.310 -42.990  -1.489  1.00  0.00    -0.398 OA
ATOM     19  H2  UNL     1      35.935 -42.944  -2.203  1.00  0.00     0.209 HD
ENDBRANCH  17  18
ENDBRANCH  13  17
ENDBRANCH   7  10
ENDBRANCH   1   3
BRANCH   1  20
HETATM   20  O4  UNL     1      34.345 -39.336  -9.721  1.00  0.00    -0.385 OA
ATOM     21  H4  UNL     1      34.747 -39.235 -10.575  1.00  0.00     0.211 HD
ENDBRANCH   1  20
BRANCH   1  22
HETATM   22  C12 UNL     1      36.321 -40.011  -8.711  1.00  0.00     0.043 C 
BRANCH  22  23
HETATM   23  C13 UNL     1      37.171 -40.166  -9.958  1.00  0.00     0.013 C 
BRANCH  23  24
HETATM   24  C14 UNL     1      38.472 -40.893  -9.637  1.00  0.00     0.074 C 
BRANCH  24  25
HETATM   25  S1  UNL     1      38.196 -42.406  -8.718  1.00  0.00    -0.166 SA
BRANCH  25  26
HETATM   26  C15 UNL     1      39.348 -43.712  -9.139  1.00  0.00     0.108 C 
BRANCH  26  27
HETATM   27  C16 UNL     1      40.738 -43.510  -8.576  1.00  0.00     0.160 C 
HETATM   28  O5  UNL     1      40.964 -44.528  -7.682  1.00  0.00    -0.375 OA
HETATM   29  C17 UNL     1      41.788 -45.531  -8.127  1.00  0.00     0.146 C 
HETATM   30  C18 UNL     1      41.793 -46.661  -7.139  1.00  0.00     0.042 C 
HETATM   31  C19 UNL     1      43.180 -44.896  -8.249  1.00  0.00     0.149 C 
HETATM   32  C20 UNL     1      43.105 -43.918  -9.375  1.00  0.00     0.068 C 
HETATM   33  C21 UNL     1      41.773 -43.310  -9.622  1.00  0.00     0.150 C 
BRANCH  31  34
HETATM   34  O6  UNL     1      43.421 -44.290  -7.017  1.00  0.00    -0.393 OA
ATOM     35  H6  UNL     1      44.111 -44.803  -6.613  1.00  0.00     0.210 HD
ENDBRANCH  31  34
BRANCH  33  36
HETATM   36  O7  UNL     1      41.953 -41.926  -9.861  1.00  0.00    -0.393 OA
ATOM     37  H7  UNL     1      42.666 -41.796 -10.475  1.00  0.00     0.210 HD
ENDBRANCH  33  36
ENDBRANCH  26  27
ENDBRANCH  25  26
ENDBRANCH  24  25
ENDBRANCH  23  24
ENDBRANCH  22  23
ENDBRANCH   1  22
TORSDOF 14
ENDMDL
MODEL 3
REMARK VINA RESULT: -7.249170721      1.120      1.755
REMARK  14 active torsions:
REMARK  status: ('A' for Active; 'I' for Inactive)
REMARK    1  A    between atoms: N2_5  and  C3_6 
REMARK    2  A    between atoms: C5_8  and  O1_9 
REMARK    3  A    between atoms: C6_11  and  C7_12 
REMARK    4  A    between atoms: C7_12  and  O2_13 
REMARK    5  A    between atoms: C9_17  and  C10_18 
REMARK    6  A    between atoms: C10_18  and  O4_20 
REMARK    7  A    between atoms: C10_18  and  C12_22 
REMARK    8  A    between atoms: C12_22  and  C13_23 
REMARK    9  A    between atoms: C13_23  and  C14_24 
REMARK   10  A    between atoms: C14_24  and  S1_25 
REMARK   11  A    between atoms: S1_25  and  C15_26 
REMARK   12  A    between atoms: C15_26  and  C16_27 
REMARK   13  A    between atoms: C19_31  and  O6_32 
REMARK   14  A    between atoms: C21_35  and  O7_36 
ROOT
HETATM    1  C10 UNL     1      35.664 -41.565  -9.292  1.00  0.00     0.084 C 
HETATM    2  C11 UNL     1      35.299 -40.886 -10.622  1.00  0.00     0.051 C 
ENDROOT
BRANCH   1   3
HETATM    3  C9  UNL     1      37.095 -41.744  -9.143  1.00  0.00     0.016 A 
HETATM    4  C2  UNL     1      38.117 -40.824  -9.260  1.00  0.00     0.033 A 
HETATM    5  C1  UNL     1      37.914 -39.411  -9.578  1.00  0.00     0.070 C 
HETATM    6  N1  UNL     1      39.282 -41.496  -9.026  1.00  0.00    -0.300 N 
HETATM    7  N2  UNL     1      39.040 -42.749  -8.777  1.00  0.00    -0.273 N 
ATOM      8  H1  UNL     1      40.211 -41.076  -9.044  1.00  0.00     0.187 HD
HETATM    9  C8  UNL     1      37.711 -42.940  -8.840  1.00  0.00     0.125 A 
BRANCH   7  10
HETATM   10  C3  UNL     1      40.104 -43.722  -8.486  1.00  0.00     0.246 C 
HETATM   11  C4  UNL     1      40.068 -44.823  -9.522  1.00  0.00     0.089 C 
HETATM   12  C5  UNL     1      41.509 -45.072  -9.842  1.00  0.00     0.153 C 
HETATM   13  C6  UNL     1      42.195 -44.259  -8.756  1.00  0.00     0.176 C 
HETATM   14  O3  UNL     1      41.347 -43.172  -8.625  1.00  0.00    -0.355 OA
BRANCH  12  15
HETATM   15  O1  UNL     1      41.900 -44.547 -11.072  1.00  0.00    -0.393 OA
ATOM     16  H1  UNL     1      42.719 -44.905 -11.390  1.00  0.00     0.210 HD
ENDBRANCH  12  15
BRANCH  13  17
HETATM   17  C7  UNL     1      42.215 -45.132  -7.509  1.00  0.00     0.198 C 
BRANCH  17  18
HETATM   18  O2  UNL     1      42.589 -44.373  -6.403  1.00  0.00    -0.398 OA
ATOM     19  H2  UNL     1      42.681 -43.460  -6.653  1.00  0.00     0.209 HD
ENDBRANCH  17  18
ENDBRANCH  13  17
ENDBRANCH   7  10
ENDBRANCH   1   3
BRANCH   1  20
HETATM   20  O4  UNL     1      35.041 -42.811  -9.333  1.00  0.00    -0.385 OA
ATOM     21  H4  UNL     1      35.668 -43.487  -9.108  1.00  0.00     0.211 HD
ENDBRANCH   1  20
BRANCH   1  22
HETATM   22  C12 UNL     1      34.992 -40.780  -8.214  1.00  0.00     0.043 C 
BRANCH  22  23
HETATM   23  C13 UNL     1      33.627 -41.396  -7.973  1.00  0.00     0.013 C 
BRANCH  23  24
HETATM   24  C14 UNL     1      32.579 -40.756  -8.877  1.00  0.00     0.074 C 
BRANCH  24  25
HETATM   25  S1  UNL     1      30.919 -40.941  -8.230  1.00  0.00    -0.166 SA
BRANCH  25  26
HETATM   26  C15 UNL     1      30.766 -40.449  -6.515  1.00  0.00     0.108 C 
BRANCH  26  27
HETATM   27  C16 UNL     1      30.583 -41.608  -5.558  1.00  0.00     0.160 C 
HETATM   28  O5  UNL     1      31.837 -42.071  -5.239  1.00  0.00    -0.375 OA
HETATM   29  C17 UNL     1      32.298 -41.715  -3.997  1.00  0.00     0.146 C 
HETATM   30  C18 UNL     1      33.738 -42.114  -3.856  1.00  0.00     0.042 C 
HETATM   31  C19 UNL     1      31.413 -42.472  -2.998  1.00  0.00     0.149 C 
HETATM   32  C20 UNL     1      30.049 -41.873  -3.098  1.00  0.00     0.068 C 
HETATM   33  C21 UNL     1      29.688 -41.292  -4.417  1.00  0.00     0.150 C 
BRANCH  31  34
HETATM   34  O6  UNL     1      31.453 -43.805  -3.401  1.00  0.00    -0.393 OA
ATOM     35  H6  UNL     1      30.795 -44.248  -2.878  1.00  0.00     0.210 HD
ENDBRANCH  31  34
BRANCH  33  36
HETATM   36  O7  UNL     1      28.362 -41.680  -4.725  1.00  0.00    -0.393 OA
ATOM     37  H7  UNL     1      28.051 -42.306  -4.081  1.00  0.00     0.210 HD
ENDBRANCH  33  36
ENDBRANCH  26  27
ENDBRANCH  25  26
ENDBRANCH  24  25
ENDBRANCH  23  24
ENDBRANCH  22  23
ENDBRANCH   1  22
TORSDOF 14
ENDMDL
MODEL 4
REMARK VINA RESULT: -7.227956227      1.747      2.779
REMARK  14 active torsions:
REMARK  status: ('A' for Active; 'I' for Inactive)
REMARK    1  A    between atoms: N2_5  and  C3_6 
REMARK    2  A    between atoms: C5_8  and  O1_9 
REMARK    3  A    between atoms: C6_11  and  C7_12 
REMARK    4  A    between atoms: C7_12  and  O2_13 
REMARK    5  A    between atoms: C9_17  and  C10_18 
REMARK    6  A    between atoms: C10_18  and  O4_20 
REMARK    7  A    between atoms: C10_18  and  C12_22 
REMARK    8  A    between atoms: C12_22  and  C13_23 
REMARK    9  A    between atoms: C13_23  and  C14_24 
REMARK   10  A    between atoms: C14_24  and  S1_25 
REMARK   11  A    between atoms: S1_25  and  C15_26 
REMARK   12  A    between atoms: C15_26  and  C16_27 
REMARK   13  A    between atoms: C19_31  and  O6_32 
REMARK   14  A    between atoms: C21_35  and  O7_36 
ROOT
HETATM    1  C10 UNL     1      36.077 -42.001  -8.977  1.00  0.00     0.084 C 
HETATM    2  C11 UNL     1      35.462 -42.014 -10.385  1.00  0.00     0.051 C 
ENDROOT
BRANCH   1   3
HETATM    3  C9  UNL     1      37.527 -42.043  -9.012  1.00  0.00     0.016 A 
HETATM    4  C2  UNL     1      38.433 -41.040  -9.290  1.00  0.00     0.033 A 
HETATM    5  C1  UNL     1      38.058 -39.667  -9.621  1.00  0.00     0.070 C 
HETATM    6  N1  UNL     1      39.677 -41.595  -9.190  1.00  0.00    -0.300 N 
HETATM    7  N2  UNL     1      39.588 -42.852  -8.875  1.00  0.00    -0.273 N 
ATOM      8  H1  UNL     1      40.552 -41.093  -9.343  1.00  0.00     0.187 HD
HETATM    9  C8  UNL     1      38.287 -43.165  -8.756  1.00  0.00     0.125 A 
BRANCH   7  10
HETATM   10  C3  UNL     1      40.768 -43.713  -8.697  1.00  0.00     0.246 C 
HETATM   11  C4  UNL     1      40.675 -44.888  -9.644  1.00  0.00     0.089 C 
HETATM   12  C5  UNL     1      42.066 -45.045 -10.173  1.00  0.00     0.153 C 
HETATM   13  C6  UNL     1      42.834 -44.099  -9.262  1.00  0.00     0.176 C 
HETATM   14  O3  UNL     1      41.920 -43.077  -9.065  1.00  0.00    -0.355 OA
BRANCH  12  15
HETATM   15  O1  UNL     1      42.215 -44.584 -11.479  1.00  0.00    -0.393 OA
ATOM     16  H1  UNL     1      41.711 -45.081 -12.112  1.00  0.00     0.210 HD
ENDBRANCH  12  15
BRANCH  13  17
HETATM   17  C7  UNL     1      43.123 -44.871  -7.982  1.00  0.00     0.198 C 
BRANCH  17  18
HETATM   18  O2  UNL     1      44.038 -44.170  -7.201  1.00  0.00    -0.398 OA
ATOM     19  H2  UNL     1      43.694 -43.309  -6.994  1.00  0.00     0.209 HD
ENDBRANCH  17  18
ENDBRANCH  13  17
ENDBRANCH   7  10
ENDBRANCH   1   3
BRANCH   1  20
HETATM   20  O4  UNL     1      35.593 -43.149  -8.353  1.00  0.00    -0.385 OA
ATOM     21  H4  UNL     1      34.670 -43.252  -8.551  1.00  0.00     0.211 HD
ENDBRANCH   1  20
BRANCH   1  22
HETATM   22  C12 UNL     1      35.480 -40.834  -8.262  1.00  0.00     0.043 C 
BRANCH  22  23
HETATM   23  C13 UNL     1      34.283 -40.361  -9.066  1.00  0.00     0.013 C 
BRANCH  23  24
HETATM   24  C14 UNL     1      32.989 -40.921  -8.487  1.00  0.00     0.074 C 
BRANCH  24  25
HETATM   25  S1  UNL     1      32.798 -40.534  -6.748  1.00  0.00    -0.166 SA
BRANCH  25  26
HETATM   26  C15 UNL     1      33.825 -41.543  -5.680  1.00  0.00     0.108 C 
BRANCH  26  27
HETATM   27  C16 UNL     1      33.405 -41.520  -4.226  1.00  0.00     0.160 C 
HETATM   28  O5  UNL     1      32.058 -41.255  -4.197  1.00  0.00    -0.375 OA
HETATM   29  C17 UNL     1      31.250 -42.332  -3.938  1.00  0.00     0.146 C 
HETATM   30  C18 UNL     1      29.812 -41.947  -4.128  1.00  0.00     0.042 C 
HETATM   31  C19 UNL     1      31.532 -42.716  -2.479  1.00  0.00     0.149 C 
HETATM   32  C20 UNL     1      32.926 -43.250  -2.441  1.00  0.00     0.068 C 
HETATM   33  C21 UNL     1      33.858 -42.712  -3.465  1.00  0.00     0.150 C 
BRANCH  31  34
HETATM   34  O6  UNL     1      31.381 -41.539  -1.749  1.00  0.00    -0.393 OA
ATOM     35  H6  UNL     1      32.146 -41.488  -1.188  1.00  0.00     0.210 HD
ENDBRANCH  31  34
BRANCH  33  36
HETATM   36  O7  UNL     1      35.098 -42.441  -2.840  1.00  0.00    -0.393 OA
ATOM     37  H7  UNL     1      35.794 -42.910  -3.286  1.00  0.00     0.210 HD
ENDBRANCH  33  36
ENDBRANCH  26  27
ENDBRANCH  25  26
ENDBRANCH  24  25
ENDBRANCH  23  24
ENDBRANCH  22  23
ENDBRANCH   1  22
TORSDOF 14
ENDMDL
MODEL 5
REMARK VINA RESULT: -7.201932833      2.723      9.091
REMARK  14 active torsions:
REMARK  status: ('A' for Active; 'I' for Inactive)
REMARK    1  A    between atoms: N2_5  and  C3_6 
REMARK    2  A    between atoms: C5_8  and  O1_9 
REMARK    3  A    between atoms: C6_11  and  C7_12 
REMARK    4  A    between atoms: C7_12  and  O2_13 
REMARK    5  A    between atoms: C9_17  and  C10_18 
REMARK    6  A    between atoms: C10_18  and  O4_20 
REMARK    7  A    between atoms: C10_18  and  C12_22 
REMARK    8  A    between atoms: C12_22  and  C13_23 
REMARK    9  A    between atoms: C13_23  and  C14_24 
REMARK   10  A    between atoms: C14_24  and  S1_25 
REMARK   11  A    between atoms: S1_25  and  C15_26 
REMARK   12  A    between atoms: C15_26  and  C16_27 
REMARK   13  A    between atoms: C19_31  and  O6_32 
REMARK   14  A    between atoms: C21_35  and  O7_36 
ROOT
HETATM    1  C10 UNL     1      35.019 -40.553  -9.003  1.00  0.00     0.084 C 
HETATM    2  C11 UNL     1      35.074 -41.674 -10.053  1.00  0.00     0.051 C 
ENDROOT
BRANCH   1   3
HETATM    3  C9  UNL     1      34.162 -40.893  -7.884  1.00  0.00     0.016 A 
HETATM    4  C2  UNL     1      32.787 -41.001  -7.825  1.00  0.00     0.033 A 
HETATM    5  C1  UNL     1      31.899 -40.774  -8.964  1.00  0.00     0.070 C 
HETATM    6  N1  UNL     1      32.474 -41.345  -6.542  1.00  0.00    -0.300 N 
HETATM    7  N2  UNL     1      33.552 -41.452  -5.825  1.00  0.00    -0.273 N 
ATOM      8  H1  UNL     1      31.527 -41.496  -6.194  1.00  0.00     0.187 HD
HETATM    9  C8  UNL     1      34.608 -41.182  -6.611  1.00  0.00     0.125 A 
BRANCH   7  10
HETATM   10  C3  UNL     1      33.528 -41.812  -4.398  1.00  0.00     0.246 C 
HETATM   11  C4  UNL     1      32.095 -41.850  -3.919  1.00  0.00     0.089 C 
HETATM   12  C5  UNL     1      32.030 -43.065  -3.048  1.00  0.00     0.153 C 
HETATM   13  C6  UNL     1      33.505 -43.422  -2.934  1.00  0.00     0.176 C 
HETATM   14  O3  UNL     1      33.984 -43.083  -4.188  1.00  0.00    -0.355 OA
BRANCH  12  15
HETATM   15  O1  UNL     1      31.382 -44.141  -3.649  1.00  0.00    -0.393 OA
ATOM     16  H1  UNL     1      30.852 -44.646  -3.044  1.00  0.00     0.210 HD
ENDBRANCH  12  15
BRANCH  13  17
HETATM   17  C7  UNL     1      34.080 -42.539  -1.836  1.00  0.00     0.198 C 
BRANCH  17  18
HETATM   18  O2  UNL     1      35.332 -43.013  -1.452  1.00  0.00    -0.398 OA
ATOM     19  H2  UNL     1      35.239 -43.845  -1.002  1.00  0.00     0.209 HD
ENDBRANCH  17  18
ENDBRANCH  13  17
ENDBRANCH   7  10
ENDBRANCH   1   3
BRANCH   1  20
HETATM   20  O4  UNL     1      34.495 -39.448  -9.672  1.00  0.00    -0.385 OA
ATOM     21  H4  UNL     1      35.157 -39.082 -10.246  1.00  0.00     0.211 HD
ENDBRANCH   1  20
BRANCH   1  22
HETATM   22  C12 UNL     1      36.434 -40.220  -8.660  1.00  0.00     0.043 C 
BRANCH  22  23
HETATM   23  C13 UNL     1      37.247 -40.274  -9.940  1.00  0.00     0.013 C 
BRANCH  23  24
HETATM   24  C14 UNL     1      38.669 -40.741  -9.657  1.00  0.00     0.074 C 
BRANCH  24  25
HETATM   25  S1  UNL     1      38.723 -42.424  -9.042  1.00  0.00    -0.166 SA
BRANCH  25  26
HETATM   26  C15 UNL     1      40.359 -42.936  -8.520  1.00  0.00     0.108 C 
BRANCH  26  27
HETATM   27  C16 UNL     1      40.611 -44.422  -8.664  1.00  0.00     0.160 C 
HETATM   28  O5  UNL     1      40.938 -44.651  -9.978  1.00  0.00    -0.375 OA
HETATM   29  C17 UNL     1      42.270 -44.866 -10.226  1.00  0.00     0.146 C 
HETATM   30  C18 UNL     1      42.512 -44.907 -11.707  1.00  0.00     0.042 C 
HETATM   31  C19 UNL     1      42.596 -46.217  -9.574  1.00  0.00     0.149 C 
HETATM   32  C20 UNL     1      42.498 -46.012  -8.098  1.00  0.00     0.068 C 
HETATM   33  C21 UNL     1      41.552 -44.959  -7.648  1.00  0.00     0.150 C 
BRANCH  31  34
HETATM   34  O6  UNL     1      41.643 -47.107 -10.065  1.00  0.00    -0.393 OA
ATOM     35  H6  UNL     1      42.086 -47.946 -10.122  1.00  0.00     0.210 HD
ENDBRANCH  31  34
BRANCH  33  36
HETATM   36  O7  UNL     1      40.828 -45.456  -6.539  1.00  0.00    -0.393 OA
ATOM     37  H7  UNL     1      41.174 -45.084  -5.735  1.00  0.00     0.210 HD
ENDBRANCH  33  36
ENDBRANCH  26  27
ENDBRANCH  25  26
ENDBRANCH  24  25
ENDBRANCH  23  24
ENDBRANCH  22  23
ENDBRANCH   1  22
TORSDOF 14
ENDMDL
