MODEL 1
REMARK VINA RESULT: -8.219844699      0.000      0.000
REMARK  14 active torsions:
REMARK  status: ('A' for Active; 'I' for Inactive)
REMARK    1  A    between atoms: C2_2  and  C3_3 
REMARK    2  A    between atoms: C3_3  and  C4_4 
REMARK    3  A    between atoms: C5_5  and  O1_6 
REMARK    4  A    between atoms: C6_9  and  C7_10 
REMARK    5  A    between atoms: C8_11  and  C9_12 
REMARK    6  A    between atoms: C9_12  and  C10_13 
REMARK    7  A    between atoms: C10_13  and  N1_14 
REMARK    8  A    between atoms: C16_21  and  O4_22 
REMARK    9  A    between atoms: O4_22  and  C17_23 
REMARK   10  A    between atoms: C18_25  and  C19_26 
REMARK   11  A    between atoms: C19_26  and  O6_27 
REMARK   12  A    between atoms: C20_29  and  O7_30 
REMARK   13  A    between atoms: C21_32  and  O8_33 
REMARK   14  A    between atoms: C22_35  and  O9_36 
ROOT
HETATM    1  C4  UNL     1      31.232 -40.663  -7.530  1.00  0.00     0.036 A 
HETATM    2  C5  UNL     1      31.114 -40.987  -8.847  1.00  0.00     0.193 A 
HETATM    3  O2  UNL     1      32.304 -41.164  -9.310  1.00  0.00    -0.285 OA
HETATM    4  C6  UNL     1      33.235 -40.983  -8.395  1.00  0.00     0.112 A 
HETATM    5  C16 UNL     1      32.585 -40.653  -7.211  1.00  0.00     0.117 A 
ENDROOT
BRANCH   5   6
HETATM    6  O4  UNL     1      33.207 -40.388  -6.030  1.00  0.00    -0.314 OA
BRANCH   6   7
HETATM    7  C17 UNL     1      33.381 -41.249  -4.935  1.00  0.00     0.298 C 
HETATM    8  O5  UNL     1      32.222 -41.212  -4.172  1.00  0.00    -0.348 OA
HETATM    9  C18 UNL     1      32.154 -42.335  -3.385  1.00  0.00     0.179 C 
HETATM   10  C20 UNL     1      33.488 -42.915  -3.077  1.00  0.00     0.180 C 
HETATM   11  C21 UNL     1      34.609 -41.908  -2.962  1.00  0.00     0.183 C 
HETATM   12  C22 UNL     1      34.513 -40.835  -4.030  1.00  0.00     0.205 C 
BRANCH   9  13
HETATM   13  C19 UNL     1      31.304 -42.126  -2.145  1.00  0.00     0.198 C 
BRANCH  13  14
HETATM   14  O6  UNL     1      31.630 -40.949  -1.478  1.00  0.00    -0.398 OA
ATOM     15  H6  UNL     1      31.800 -41.096  -0.555  1.00  0.00     0.209 HD
ENDBRANCH  13  14
ENDBRANCH   9  13
BRANCH  10  16
HETATM   16  O7  UNL     1      33.501 -43.643  -1.881  1.00  0.00    -0.390 OA
ATOM     17  H7  UNL     1      33.939 -44.481  -1.964  1.00  0.00     0.210 HD
ENDBRANCH  10  16
BRANCH  11  18
HETATM   18  O8  UNL     1      34.655 -41.297  -1.715  1.00  0.00    -0.390 OA
ATOM     19  H8  UNL     1      35.518 -41.335  -1.319  1.00  0.00     0.210 HD
ENDBRANCH  11  18
BRANCH  12  20
HETATM   20  O9  UNL     1      34.272 -39.594  -3.433  1.00  0.00    -0.388 OA
ATOM     21  H9  UNL     1      35.080 -39.161  -3.183  1.00  0.00     0.210 HD
ENDBRANCH  12  20
ENDBRANCH   6   7
ENDBRANCH   5   6
BRANCH   1  22
HETATM   22  C3  UNL     1      30.171 -40.364  -6.542  1.00  0.00     0.046 C 
BRANCH  22  23
HETATM   23  C2  UNL     1      29.691 -41.596  -5.807  1.00  0.00     0.000 C 
HETATM   24  C1  UNL     1      28.844 -41.265  -4.609  1.00  0.00     0.005 C 
ENDBRANCH  22  23
ENDBRANCH   1  22
BRANCH   4  25
HETATM   25  C7  UNL     1      34.650 -41.118  -8.644  1.00  0.00     0.036 C 
HETATM   26  C8  UNL     1      35.439 -40.058  -8.664  1.00  0.00    -0.022 C 
BRANCH  26  27
HETATM   27  C9  UNL     1      36.882 -40.174  -8.915  1.00  0.00     0.057 C 
BRANCH  27  28
HETATM   28  C10 UNL     1      37.512 -41.501  -8.758  1.00  0.00     0.277 C 
BRANCH  28  29
HETATM   29  N1  UNL     1      38.574 -41.834  -9.627  1.00  0.00     0.097 N 
HETATM   30  C11 UNL     1      39.627 -40.864  -9.606  1.00  0.00     0.299 C 
HETATM   31  C12 UNL     1      40.990 -41.547  -9.462  1.00  0.00     0.198 C 
HETATM   32  O3  UNL     1      41.035 -42.415  -8.402  1.00  0.00    -0.387 OA
HETATM   33  C13 UNL     1      39.920 -43.194  -8.213  1.00  0.00     0.203 C 
HETATM   34  C14 UNL     1      39.087 -43.176  -9.465  1.00  0.00     0.242 C 
HETATM   35  C15 UNL     1      38.020 -44.215  -9.406  1.00  0.00     0.045 C 
ENDBRANCH  28  29
ENDBRANCH  27  28
ENDBRANCH  26  27
ENDBRANCH   4  25
BRANCH   2  36
HETATM   36  O1  UNL     1      29.892 -41.093  -9.522  1.00  0.00    -0.340 OA
ATOM     37  H1  UNL     1      29.687 -41.779 -10.146  1.00  0.00     0.220 HD
ENDBRANCH   2  36
TORSDOF 14
ENDMDL
MODEL 2
REMARK VINA RESULT: -7.354303411      1.194      1.734
REMARK  14 active torsions:
REMARK  status: ('A' for Active; 'I' for Inactive)
REMARK    1  A    between atoms: C2_2  and  C3_3 
REMARK    2  A    between atoms: C3_3  and  C4_4 
REMARK    3  A    between atoms: C5_5  and  O1_6 
REMARK    4  A    between atoms: C6_9  and  C7_10 
REMARK    5  A    between atoms: C8_11  and  C9_12 
REMARK    6  A    between atoms: C9_12  and  C10_13 
REMARK    7  A    between atoms: C10_13  and  N1_14 
REMARK    8  A    between atoms: C16_21  and  O4_22 
REMARK    9  A    between atoms: O4_22  and  C17_23 
REMARK   10  A    between atoms: C18_25  and  C19_26 
REMARK   11  A    between atoms: C19_26  and  O6_27 
REMARK   12  A    between atoms: C20_29  and  O7_30 
REMARK   13  A    between atoms: C21_32  and  O8_33 
REMARK   14  A    between atoms: C22_35  and  O9_36 
ROOT
HETATM    1  C4  UNL     1      32.377 -40.550  -7.759  1.00  0.00     0.036 A 
HETATM    2  C5  UNL     1      32.425 -40.766  -9.101  1.00  0.00     0.193 A 
HETATM    3  O2  UNL     1      33.664 -40.914  -9.426  1.00  0.00    -0.285 OA
HETATM    4  C6  UNL     1      34.473 -40.816  -8.391  1.00  0.00     0.112 A 
HETATM    5  C16 UNL     1      33.680 -40.577  -7.274  1.00  0.00     0.117 A 
ENDROOT
BRANCH   5   6
HETATM    6  O4  UNL     1      34.149 -40.414  -6.007  1.00  0.00    -0.314 OA
BRANCH   6   7
HETATM    7  C17 UNL     1      33.603 -40.912  -4.814  1.00  0.00     0.298 C 
HETATM    8  O5  UNL     1      34.227 -40.269  -3.754  1.00  0.00    -0.348 OA
HETATM    9  C18 UNL     1      33.443 -40.367  -2.632  1.00  0.00     0.179 C 
HETATM   10  C20 UNL     1      32.553 -41.557  -2.642  1.00  0.00     0.180 C 
HETATM   11  C21 UNL     1      33.117 -42.769  -3.346  1.00  0.00     0.183 C 
HETATM   12  C22 UNL     1      33.837 -42.389  -4.626  1.00  0.00     0.205 C 
BRANCH   9  13
HETATM   13  C19 UNL     1      34.245 -40.243  -1.350  1.00  0.00     0.198 C 
BRANCH  13  14
HETATM   14  O6  UNL     1      34.828 -41.451  -0.977  1.00  0.00    -0.398 OA
ATOM     15  H6  UNL     1      35.743 -41.498  -1.226  1.00  0.00     0.209 HD
ENDBRANCH  13  14
ENDBRANCH   9  13
BRANCH  10  16
HETATM   16  O7  UNL     1      32.207 -41.987  -1.354  1.00  0.00    -0.390 OA
ATOM     17  H7  UNL     1      31.408 -41.586  -1.034  1.00  0.00     0.210 HD
ENDBRANCH  10  16
BRANCH  11  18
HETATM   18  O8  UNL     1      33.985 -43.500  -2.544  1.00  0.00    -0.390 OA
ATOM     19  H8  UNL     1      33.571 -44.261  -2.154  1.00  0.00     0.210 HD
ENDBRANCH  11  18
BRANCH  12  20
HETATM   20  O9  UNL     1      35.198 -42.688  -4.510  1.00  0.00    -0.388 OA
ATOM     21  H9  UNL     1      35.653 -42.057  -3.965  1.00  0.00     0.210 HD
ENDBRANCH  12  20
ENDBRANCH   6   7
ENDBRANCH   5   6
BRANCH   1  22
HETATM   22  C3  UNL     1      31.201 -40.323  -6.889  1.00  0.00     0.046 C 
BRANCH  22  23
HETATM   23  C2  UNL     1      30.498 -41.607  -6.507  1.00  0.00     0.000 C 
HETATM   24  C1  UNL     1      29.758 -41.500  -5.202  1.00  0.00     0.005 C 
ENDBRANCH  22  23
ENDBRANCH   1  22
BRANCH   4  25
HETATM   25  C7  UNL     1      35.908 -40.942  -8.471  1.00  0.00     0.036 C 
HETATM   26  C8  UNL     1      36.620 -40.115  -9.217  1.00  0.00    -0.022 C 
BRANCH  26  27
HETATM   27  C9  UNL     1      38.083 -40.227  -9.313  1.00  0.00     0.057 C 
BRANCH  27  28
HETATM   28  C10 UNL     1      38.725 -41.442  -8.770  1.00  0.00     0.277 C 
BRANCH  28  29
HETATM   29  N1  UNL     1      39.570 -42.181  -9.627  1.00  0.00     0.097 N 
HETATM   30  C11 UNL     1      40.913 -41.683  -9.638  1.00  0.00     0.299 C 
HETATM   31  C12 UNL     1      41.916 -42.828  -9.470  1.00  0.00     0.198 C 
HETATM   32  O3  UNL     1      41.641 -43.613  -8.382  1.00  0.00    -0.387 OA
HETATM   33  C13 UNL     1      40.316 -43.904  -8.167  1.00  0.00     0.203 C 
HETATM   34  C14 UNL     1      39.538 -43.611  -9.420  1.00  0.00     0.242 C 
HETATM   35  C15 UNL     1      38.157 -44.164  -9.327  1.00  0.00     0.045 C 
ENDBRANCH  28  29
ENDBRANCH  27  28
ENDBRANCH  26  27
ENDBRANCH   4  25
BRANCH   2  36
HETATM   36  O1  UNL     1      31.297 -40.806  -9.929  1.00  0.00    -0.340 OA
ATOM     37  H1  UNL     1      30.601 -41.449  -9.850  1.00  0.00     0.220 HD
ENDBRANCH   2  36
TORSDOF 14
ENDMDL
MODEL 3
REMARK VINA RESULT: -7.279510088      0.897      1.466
REMARK  14 active torsions:
REMARK  status: ('A' for Active; 'I' for Inactive)
REMARK    1  A    between atoms: C2_2  and  C3_3 
REMARK    2  A    between atoms: C3_3  and  C4_4 
REMARK    3  A    between atoms: C5_5  and  O1_6 
REMARK    4  A    between atoms: C6_9  and  C7_10 
REMARK    5  A    between atoms: C8_11  and  C9_12 
REMARK    6  A    between atoms: C9_12  and  C10_13 
REMARK    7  A    between atoms: C10_13  and  N1_14 
REMARK    8  A    between atoms: C16_21  and  O4_22 
REMARK    9  A    between atoms: O4_22  and  C17_23 
REMARK   10  A    between atoms: C18_25  and  C19_26 
REMARK   11  A    between atoms: C19_26  and  O6_27 
REMARK   12  A    between atoms: C20_29  and  O7_30 
REMARK   13  A    between atoms: C21_32  and  O8_33 
REMARK   14  A    between atoms: C22_35  and  O9_36 
ROOT
HETATM    1  C4  UNL     1      31.793 -41.147  -7.736  1.00  0.00     0.036 A 
HETATM    2  C5  UNL     1      31.821 -41.152  -9.097  1.00  0.00     0.193 A 
HETATM    3  O2  UNL     1      32.981 -40.726  -9.463  1.00  0.00    -0.285 OA
HETATM    4  C6  UNL     1      33.757 -40.430  -8.439  1.00  0.00     0.112 A 
HETATM    5  C16 UNL     1      33.026 -40.688  -7.285  1.00  0.00     0.117 A 
ENDROOT
BRANCH   5   6
HETATM    6  O4  UNL     1      33.485 -40.505  -6.017  1.00  0.00    -0.314 OA
BRANCH   6   7
HETATM    7  C17 UNL     1      33.474 -41.423  -4.955  1.00  0.00     0.298 C 
HETATM    8  O5  UNL     1      32.309 -41.225  -4.228  1.00  0.00    -0.348 OA
HETATM    9  C18 UNL     1      32.030 -42.350  -3.493  1.00  0.00     0.179 C 
HETATM   10  C20 UNL     1      33.239 -43.152  -3.169  1.00  0.00     0.180 C 
HETATM   11  C21 UNL     1      34.503 -42.347  -2.975  1.00  0.00     0.183 C 
HETATM   12  C22 UNL     1      34.623 -41.234  -3.998  1.00  0.00     0.205 C 
BRANCH   9  13
HETATM   13  C19 UNL     1      31.178 -42.052  -2.273  1.00  0.00     0.198 C 
BRANCH  13  14
HETATM   14  O6  UNL     1      31.652 -40.956  -1.558  1.00  0.00    -0.398 OA
ATOM     15  H6  UNL     1      31.558 -41.073  -0.620  1.00  0.00     0.209 HD
ENDBRANCH  13  14
ENDBRANCH   9  13
BRANCH  10  16
HETATM   16  O7  UNL     1      33.087 -43.917  -2.005  1.00  0.00    -0.390 OA
ATOM     17  H7  UNL     1      32.740 -44.784  -2.177  1.00  0.00     0.210 HD
ENDBRANCH  10  16
BRANCH  11  18
HETATM   18  O8  UNL     1      34.600 -41.799  -1.701  1.00  0.00    -0.390 OA
ATOM     19  H8  UNL     1      35.380 -41.268  -1.589  1.00  0.00     0.210 HD
ENDBRANCH  11  18
BRANCH  12  20
HETATM   20  O9  UNL     1      34.565 -39.994  -3.356  1.00  0.00    -0.388 OA
ATOM     21  H9  UNL     1      34.916 -40.036  -2.474  1.00  0.00     0.210 HD
ENDBRANCH  12  20
ENDBRANCH   6   7
ENDBRANCH   5   6
BRANCH   1  22
HETATM   22  C3  UNL     1      30.700 -41.544  -6.821  1.00  0.00     0.046 C 
BRANCH  22  23
HETATM   23  C2  UNL     1      29.929 -40.360  -6.280  1.00  0.00     0.000 C 
HETATM   24  C1  UNL     1      29.055 -40.720  -5.111  1.00  0.00     0.005 C 
ENDBRANCH  22  23
ENDBRANCH   1  22
BRANCH   4  25
HETATM   25  C7  UNL     1      35.106 -39.933  -8.565  1.00  0.00     0.036 C 
HETATM   26  C8  UNL     1      35.946 -40.465  -9.436  1.00  0.00    -0.022 C 
BRANCH  26  27
HETATM   27  C9  UNL     1      37.324 -39.974  -9.578  1.00  0.00     0.057 C 
BRANCH  27  28
HETATM   28  C10 UNL     1      38.377 -40.949  -9.931  1.00  0.00     0.277 C 
BRANCH  28  29
HETATM   29  N1  UNL     1      38.756 -41.893  -8.951  1.00  0.00     0.097 N 
HETATM   30  C11 UNL     1      38.035 -43.124  -9.067  1.00  0.00     0.299 C 
HETATM   31  C12 UNL     1      38.991 -44.319  -9.006  1.00  0.00     0.198 C 
HETATM   32  O3  UNL     1      40.023 -44.213  -9.900  1.00  0.00    -0.387 OA
HETATM   33  C13 UNL     1      40.585 -42.967 -10.028  1.00  0.00     0.203 C 
HETATM   34  C14 UNL     1      40.180 -42.121  -8.853  1.00  0.00     0.242 C 
HETATM   35  C15 UNL     1      40.979 -40.863  -8.806  1.00  0.00     0.045 C 
ENDBRANCH  28  29
ENDBRANCH  27  28
ENDBRANCH  26  27
ENDBRANCH   4  25
BRANCH   2  36
HETATM   36  O1  UNL     1      30.748 -41.555  -9.901  1.00  0.00    -0.340 OA
ATOM     37  H1  UNL     1      30.054 -42.135  -9.610  1.00  0.00     0.220 HD
ENDBRANCH   2  36
TORSDOF 14
ENDMDL
MODEL 4
REMARK VINA RESULT: -7.071707461      0.931      1.586
REMARK  14 active torsions:
REMARK  status: ('A' for Active; 'I' for Inactive)
REMARK    1  A    between atoms: C2_2  and  C3_3 
REMARK    2  A    between atoms: C3_3  and  C4_4 
REMARK    3  A    between atoms: C5_5  and  O1_6 
REMARK    4  A    between atoms: C6_9  and  C7_10 
REMARK    5  A    between atoms: C8_11  and  C9_12 
REMARK    6  A    between atoms: C9_12  and  C10_13 
REMARK    7  A    between atoms: C10_13  and  N1_14 
REMARK    8  A    between atoms: C16_21  and  O4_22 
REMARK    9  A    between atoms: O4_22  and  C17_23 
REMARK   10  A    between atoms: C18_25  and  C19_26 
REMARK   11  A    between atoms: C19_26  and  O6_27 
REMARK   12  A    between atoms: C20_29  and  O7_30 
REMARK   13  A    between atoms: C21_32  and  O8_33 
REMARK   14  A    between atoms: C22_35  and  O9_36 
ROOT
HETATM    1  C4  UNL     1      30.910 -40.691  -7.306  1.00  0.00     0.036 A 
HETATM    2  C5  UNL     1      30.643 -41.022  -8.599  1.00  0.00     0.193 A 
HETATM    3  O2  UNL     1      31.755 -41.380  -9.144  1.00  0.00    -0.285 OA
HETATM    4  C6  UNL     1      32.772 -41.319  -8.308  1.00  0.00     0.112 A 
HETATM    5  C16 UNL     1      32.271 -40.872  -7.090  1.00  0.00     0.117 A 
ENDROOT
BRANCH   5   6
HETATM    6  O4  UNL     1      33.016 -40.677  -5.968  1.00  0.00    -0.314 OA
BRANCH   6   7
HETATM    7  C17 UNL     1      33.165 -41.540  -4.870  1.00  0.00     0.298 C 
HETATM    8  O5  UNL     1      32.139 -41.276  -3.974  1.00  0.00    -0.348 OA
HETATM    9  C18 UNL     1      31.966 -42.355  -3.144  1.00  0.00     0.179 C 
HETATM   10  C20 UNL     1      33.198 -43.171  -2.979  1.00  0.00     0.180 C 
HETATM   11  C21 UNL     1      34.490 -42.390  -3.038  1.00  0.00     0.183 C 
HETATM   12  C22 UNL     1      34.459 -41.333  -4.125  1.00  0.00     0.205 C 
BRANCH   9  13
HETATM   13  C19 UNL     1      31.332 -41.974  -1.819  1.00  0.00     0.198 C 
BRANCH  13  14
HETATM   14  O6  UNL     1      31.739 -40.715  -1.385  1.00  0.00    -0.398 OA
ATOM     15  H6  UNL     1      31.847 -40.680  -0.442  1.00  0.00     0.209 HD
ENDBRANCH  13  14
ENDBRANCH   9  13
BRANCH  10  16
HETATM   16  O7  UNL     1      33.227 -43.871  -1.766  1.00  0.00    -0.390 OA
ATOM     17  H7  UNL     1      33.353 -44.806  -1.884  1.00  0.00     0.210 HD
ENDBRANCH  10  16
BRANCH  11  18
HETATM   18  O8  UNL     1      34.805 -41.781  -1.829  1.00  0.00    -0.390 OA
ATOM     19  H8  UNL     1      34.372 -40.943  -1.717  1.00  0.00     0.210 HD
ENDBRANCH  11  18
BRANCH  12  20
HETATM   20  O9  UNL     1      34.529 -40.061  -3.550  1.00  0.00    -0.388 OA
ATOM     21  H9  UNL     1      33.986 -39.994  -2.773  1.00  0.00     0.210 HD
ENDBRANCH  12  20
ENDBRANCH   6   7
ENDBRANCH   5   6
BRANCH   1  22
HETATM   22  C3  UNL     1      29.985 -40.219  -6.251  1.00  0.00     0.046 C 
BRANCH  22  23
HETATM   23  C2  UNL     1      29.319 -41.354  -5.505  1.00  0.00     0.000 C 
HETATM   24  C1  UNL     1      28.773 -40.931  -4.169  1.00  0.00     0.005 C 
ENDBRANCH  22  23
ENDBRANCH   1  22
BRANCH   4  25
HETATM   25  C7  UNL     1      34.128 -41.665  -8.657  1.00  0.00     0.036 C 
HETATM   26  C8  UNL     1      34.664 -42.802  -8.249  1.00  0.00    -0.022 C 
BRANCH  26  27
HETATM   27  C9  UNL     1      36.044 -43.173  -8.593  1.00  0.00     0.057 C 
BRANCH  27  28
HETATM   28  C10 UNL     1      36.865 -42.192  -9.333  1.00  0.00     0.277 C 
BRANCH  28  29
HETATM   29  N1  UNL     1      37.928 -41.568  -8.643  1.00  0.00     0.097 N 
HETATM   30  C11 UNL     1      39.033 -42.452  -8.422  1.00  0.00     0.299 C 
HETATM   31  C12 UNL     1      40.351 -41.779  -8.815  1.00  0.00     0.198 C 
HETATM   32  O3  UNL     1      40.321 -41.262 -10.083  1.00  0.00    -0.387 OA
HETATM   33  C13 UNL     1      39.159 -40.625 -10.447  1.00  0.00     0.203 C 
HETATM   34  C14 UNL     1      38.361 -40.312  -9.212  1.00  0.00     0.242 C 
HETATM   35  C15 UNL     1      37.236 -39.387  -9.529  1.00  0.00     0.045 C 
ENDBRANCH  28  29
ENDBRANCH  27  28
ENDBRANCH  26  27
ENDBRANCH   4  25
BRANCH   2  36
HETATM   36  O1  UNL     1      29.369 -40.961  -9.176  1.00  0.00    -0.340 OA
ATOM     37  H1  UNL     1      28.765 -41.693  -9.210  1.00  0.00     0.220 HD
ENDBRANCH   2  36
TORSDOF 14
ENDMDL
MODEL 5
REMARK VINA RESULT: -6.931431544      1.940      3.075
REMARK  14 active torsions:
REMARK  status: ('A' for Active; 'I' for Inactive)
REMARK    1  A    between atoms: C2_2  and  C3_3 
REMARK    2  A    between atoms: C3_3  and  C4_4 
REMARK    3  A    between atoms: C5_5  and  O1_6 
REMARK    4  A    between atoms: C6_9  and  C7_10 
REMARK    5  A    between atoms: C8_11  and  C9_12 
REMARK    6  A    between atoms: C9_12  and  C10_13 
REMARK    7  A    between atoms: C10_13  and  N1_14 
REMARK    8  A    between atoms: C16_21  and  O4_22 
REMARK    9  A    between atoms: O4_22  and  C17_23 
REMARK   10  A    between atoms: C18_25  and  C19_26 
REMARK   11  A    between atoms: C19_26  and  O6_27 
REMARK   12  A    between atoms: C20_29  and  O7_30 
REMARK   13  A    between atoms: C21_32  and  O8_33 
REMARK   14  A    between atoms: C22_35  and  O9_36 
ROOT
HETATM    1  C4  UNL     1      33.606 -40.979  -8.368  1.00  0.00     0.036 A 
HETATM    2  C5  UNL     1      34.303 -40.362  -9.361  1.00  0.00     0.193 A 
HETATM    3  O2  UNL     1      35.497 -40.848  -9.356  1.00  0.00    -0.285 OA
HETATM    4  C6  UNL     1      35.667 -41.764  -8.424  1.00  0.00     0.112 A 
HETATM    5  C16 UNL     1      34.458 -41.887  -7.748  1.00  0.00     0.117 A 
ENDROOT
BRANCH   5   6
HETATM    6  O4  UNL     1      34.230 -42.736  -6.710  1.00  0.00    -0.314 OA
BRANCH   6   7
HETATM    7  C17 UNL     1      34.325 -42.464  -5.336  1.00  0.00     0.298 C 
HETATM    8  O5  UNL     1      33.083 -42.705  -4.764  1.00  0.00    -0.348 OA
HETATM    9  C18 UNL     1      33.230 -42.901  -3.413  1.00  0.00     0.179 C 
HETATM   10  C20 UNL     1      34.431 -42.228  -2.852  1.00  0.00     0.180 C 
HETATM   11  C21 UNL     1      34.812 -40.934  -3.532  1.00  0.00     0.183 C 
HETATM   12  C22 UNL     1      34.670 -41.027  -5.039  1.00  0.00     0.205 C 
BRANCH   9  13
HETATM   13  C19 UNL     1      31.964 -42.585  -2.639  1.00  0.00     0.198 C 
BRANCH  13  14
HETATM   14  O6  UNL     1      31.550 -41.269  -2.824  1.00  0.00    -0.398 OA
ATOM     15  H6  UNL     1      30.709 -41.217  -3.263  1.00  0.00     0.209 HD
ENDBRANCH  13  14
ENDBRANCH   9  13
BRANCH  10  16
HETATM   16  O7  UNL     1      34.296 -41.923  -1.491  1.00  0.00    -0.390 OA
ATOM     17  H7  UNL     1      34.155 -40.997  -1.334  1.00  0.00     0.210 HD
ENDBRANCH  10  16
BRANCH  11  18
HETATM   18  O8  UNL     1      34.069 -39.850  -3.078  1.00  0.00    -0.390 OA
ATOM     19  H8  UNL     1      33.860 -39.233  -3.769  1.00  0.00     0.210 HD
ENDBRANCH  11  18
BRANCH  12  20
HETATM   20  O9  UNL     1      33.671 -40.152  -5.475  1.00  0.00    -0.388 OA
ATOM     21  H9  UNL     1      33.017 -40.001  -4.804  1.00  0.00     0.210 HD
ENDBRANCH  12  20
ENDBRANCH   6   7
ENDBRANCH   5   6
BRANCH   1  22
HETATM   22  C3  UNL     1      32.198 -40.787  -7.955  1.00  0.00     0.046 C 
BRANCH  22  23
HETATM   23  C2  UNL     1      31.234 -41.645  -8.746  1.00  0.00     0.000 C 
HETATM   24  C1  UNL     1      30.546 -40.884  -9.846  1.00  0.00     0.005 C 
ENDBRANCH  22  23
ENDBRANCH   1  22
BRANCH   4  25
HETATM   25  C7  UNL     1      36.905 -42.469  -8.199  1.00  0.00     0.036 C 
HETATM   26  C8  UNL     1      37.521 -43.089  -9.190  1.00  0.00    -0.022 C 
BRANCH  26  27
HETATM   27  C9  UNL     1      38.783 -43.814  -8.982  1.00  0.00     0.057 C 
BRANCH  27  28
HETATM   28  C10 UNL     1      40.037 -43.033  -8.947  1.00  0.00     0.277 C 
BRANCH  28  29
HETATM   29  N1  UNL     1      41.201 -43.676  -8.472  1.00  0.00     0.097 N 
HETATM   30  C11 UNL     1      40.914 -44.911  -7.807  1.00  0.00     0.299 C 
HETATM   31  C12 UNL     1      41.836 -46.025  -8.312  1.00  0.00     0.198 C 
HETATM   32  O3  UNL     1      41.830 -46.134  -9.678  1.00  0.00    -0.387 OA
HETATM   33  C13 UNL     1      41.833 -44.953 -10.378  1.00  0.00     0.203 C 
HETATM   34  C14 UNL     1      42.246 -43.836  -9.459  1.00  0.00     0.242 C 
HETATM   35  C15 UNL     1      42.527 -42.592 -10.230  1.00  0.00     0.045 C 
ENDBRANCH  28  29
ENDBRANCH  27  28
ENDBRANCH  26  27
ENDBRANCH   4  25
BRANCH   2  36
HETATM   36  O1  UNL     1      33.765 -39.380 -10.202  1.00  0.00    -0.340 OA
ATOM     37  H1  UNL     1      34.075 -39.206 -11.083  1.00  0.00     0.220 HD
ENDBRANCH   2  36
TORSDOF 14
ENDMDL
