MODEL 1
REMARK VINA RESULT: -7.313235551      0.000      0.000
REMARK  15 active torsions:
REMARK  status: ('A' for Active; 'I' for Inactive)
REMARK    1  A    between atoms: C2_2  and  O2_4 
REMARK    2  A    between atoms: O2_4  and  C3_5 
REMARK    3  A    between atoms: C9_11  and  O3_12 
REMARK    4  A    between atoms: C10_14  and  C11_15 
REMARK    5  A    between atoms: C11_15  and  O4_16 
REMARK    6  A    between atoms: O4_16  and  C12_17 
REMARK    7  A    between atoms: C12_17  and  C13_18 
REMARK    8  A    between atoms: C13_18  and  O5_19 
REMARK    9  A    between atoms: O5_19  and  C14_20 
REMARK   10  A    between atoms: C14_20  and  C15_21 
REMARK   11  A    between atoms: C15_21  and  O6_22 
REMARK   12  A    between atoms: O6_22  and  C16_23 
REMARK   13  A    between atoms: C19_27  and  O8_28 
REMARK   14  A    between atoms: C20_30  and  O9_31 
REMARK   15  A    between atoms: C21_33  and  O10_34 
ROOT
HETATM    1  C13 UNL     1     -15.600  13.091 -29.268  1.00  0.00     0.193 C 
ENDROOT
BRANCH   1   2
HETATM    2  C12 UNL     1     -14.740  12.215 -28.434  1.00  0.00     0.193 C 
BRANCH   2   3
HETATM    3  O4  UNL     1     -13.803  12.666 -27.644  1.00  0.00    -0.388 OA
BRANCH   3   4
HETATM    4  C11 UNL     1     -13.594  12.601 -26.346  1.00  0.00     0.177 C 
BRANCH   4   5
HETATM    5  C10 UNL     1     -13.351  11.268 -25.774  1.00  0.00     0.068 C 
HETATM    6  C3  UNL     1     -11.880  11.117 -25.300  1.00  0.00     0.140 C 
HETATM    7  C4  UNL     1     -11.727   9.615 -25.193  1.00  0.00     0.034 C 
HETATM    8  C5  UNL     1     -12.602   9.053 -24.141  1.00  0.00     0.014 C 
HETATM    9  C6  UNL     1     -13.803   9.816 -23.757  1.00  0.00    -0.021 C 
HETATM   10  C7  UNL     1     -15.015   8.869 -23.693  1.00  0.00     0.017 C 
HETATM   11  C8  UNL     1     -13.614  10.239 -22.288  1.00  0.00     0.017 C 
HETATM   12  C9  UNL     1     -14.155  11.026 -24.518  1.00  0.00     0.134 C 
BRANCH   6  13
HETATM   13  O2  UNL     1     -11.004  11.688 -26.232  1.00  0.00    -0.316 OA
BRANCH  13  14
HETATM   14  C2  UNL     1      -9.616  11.508 -26.095  1.00  0.00     0.255 C 
HETATM   15  C1  UNL     1      -8.798  10.899 -27.165  1.00  0.00     0.126 C 
HETATM   16  O1  UNL     1      -9.107  11.896 -25.012  1.00  0.00    -0.266 OA
ENDBRANCH  13  14
ENDBRANCH   6  13
BRANCH  12  17
HETATM   17  O3  UNL     1     -14.117  12.194 -23.717  1.00  0.00    -0.394 OA
ATOM     18  H3  UNL     1     -13.319  12.692 -23.845  1.00  0.00     0.210 HD
ENDBRANCH  12  17
ENDBRANCH   4   5
ENDBRANCH   3   4
ENDBRANCH   2   3
ENDBRANCH   1   2
BRANCH   1  19
HETATM   19  O5  UNL     1     -15.992  14.262 -28.634  1.00  0.00    -0.387 OA
BRANCH  19  20
HETATM   20  C14 UNL     1     -17.185  14.790 -29.030  1.00  0.00     0.194 C 
BRANCH  20  21
HETATM   21  C15 UNL     1     -17.790  14.005 -30.197  1.00  0.00     0.197 C 
BRANCH  21  22
HETATM   22  O6  UNL     1     -18.579  12.958 -29.718  1.00  0.00    -0.356 OA
BRANCH  22  23
HETATM   23  C16 UNL     1     -19.731  12.794 -30.483  1.00  0.00     0.291 C 
HETATM   24  O7  UNL     1     -19.430  12.858 -31.805  1.00  0.00    -0.351 OA
HETATM   25  C17 UNL     1     -20.370  12.461 -32.699  1.00  0.00     0.152 C 
HETATM   26  C18 UNL     1     -21.188  13.677 -33.106  1.00  0.00     0.042 C 
HETATM   27  C19 UNL     1     -21.310  11.393 -32.280  1.00  0.00     0.178 C 
HETATM   28  C20 UNL     1     -21.680  11.424 -30.820  1.00  0.00     0.183 C 
HETATM   29  C21 UNL     1     -20.381  11.505 -30.042  1.00  0.00     0.204 C 
BRANCH  27  30
HETATM   30  O8  UNL     1     -20.799  10.119 -32.547  1.00  0.00    -0.390 OA
ATOM     31  H8  UNL     1     -20.362   9.750 -31.789  1.00  0.00     0.210 HD
ENDBRANCH  27  30
BRANCH  28  32
HETATM   32  O9  UNL     1     -22.249  10.174 -30.523  1.00  0.00    -0.390 OA
ATOM     33  H9  UNL     1     -21.941   9.934 -29.656  1.00  0.00     0.210 HD
ENDBRANCH  28  32
BRANCH  29  34
HETATM   34  O10 UNL     1     -20.728  11.626 -28.698  1.00  0.00    -0.388 OA
ATOM     35  H10 UNL     1     -20.084  11.158 -28.180  1.00  0.00     0.210 HD
ENDBRANCH  29  34
ENDBRANCH  22  23
ENDBRANCH  21  22
ENDBRANCH  20  21
ENDBRANCH  19  20
ENDBRANCH   1  19
TORSDOF 15
ENDMDL
MODEL 2
REMARK VINA RESULT: -7.286628528      0.942      1.024
REMARK  15 active torsions:
REMARK  status: ('A' for Active; 'I' for Inactive)
REMARK    1  A    between atoms: C2_2  and  O2_4 
REMARK    2  A    between atoms: O2_4  and  C3_5 
REMARK    3  A    between atoms: C9_11  and  O3_12 
REMARK    4  A    between atoms: C10_14  and  C11_15 
REMARK    5  A    between atoms: C11_15  and  O4_16 
REMARK    6  A    between atoms: O4_16  and  C12_17 
REMARK    7  A    between atoms: C12_17  and  C13_18 
REMARK    8  A    between atoms: C13_18  and  O5_19 
REMARK    9  A    between atoms: O5_19  and  C14_20 
REMARK   10  A    between atoms: C14_20  and  C15_21 
REMARK   11  A    between atoms: C15_21  and  O6_22 
REMARK   12  A    between atoms: O6_22  and  C16_23 
REMARK   13  A    between atoms: C19_27  and  O8_28 
REMARK   14  A    between atoms: C20_30  and  O9_31 
REMARK   15  A    between atoms: C21_33  and  O10_34 
ROOT
HETATM    1  C13 UNL     1     -15.542  13.694 -28.265  1.00  0.00     0.193 C 
ENDROOT
BRANCH   1   2
HETATM    2  C12 UNL     1     -15.050  12.444 -28.897  1.00  0.00     0.193 C 
BRANCH   2   3
HETATM    3  O4  UNL     1     -13.787  12.124 -28.972  1.00  0.00    -0.388 OA
BRANCH   3   4
HETATM    4  C11 UNL     1     -12.794  12.121 -28.108  1.00  0.00     0.177 C 
BRANCH   4   5
HETATM    5  C10 UNL     1     -12.767  11.029 -27.123  1.00  0.00     0.068 C 
HETATM    6  C3  UNL     1     -11.374  10.912 -26.448  1.00  0.00     0.140 C 
HETATM    7  C4  UNL     1     -11.415   9.518 -25.860  1.00  0.00     0.034 C 
HETATM    8  C5  UNL     1     -12.443   9.404 -24.802  1.00  0.00     0.014 C 
HETATM    9  C6  UNL     1     -13.571  10.351 -24.826  1.00  0.00    -0.021 C 
HETATM   10  C7  UNL     1     -14.890   9.585 -24.621  1.00  0.00     0.017 C 
HETATM   11  C8  UNL     1     -13.464  11.209 -23.550  1.00  0.00     0.017 C 
HETATM   12  C9  UNL     1     -13.704  11.276 -25.964  1.00  0.00     0.134 C 
BRANCH   6  13
HETATM   13  O2  UNL     1     -10.354  11.073 -27.395  1.00  0.00    -0.316 OA
BRANCH  13  14
HETATM   14  C2  UNL     1      -9.023  11.237 -26.975  1.00  0.00     0.255 C 
HETATM   15  C1  UNL     1      -7.911  10.483 -27.591  1.00  0.00     0.126 C 
HETATM   16  O1  UNL     1      -8.828  12.064 -26.046  1.00  0.00    -0.266 OA
ENDBRANCH  13  14
ENDBRANCH   6  13
BRANCH  12  17
HETATM   17  O3  UNL     1     -13.596  12.633 -25.569  1.00  0.00    -0.394 OA
ATOM     18  H3  UNL     1     -14.288  12.890 -24.973  1.00  0.00     0.210 HD
ENDBRANCH  12  17
ENDBRANCH   4   5
ENDBRANCH   3   4
ENDBRANCH   2   3
ENDBRANCH   1   2
BRANCH   1  19
HETATM   19  O5  UNL     1     -16.135  14.579 -29.154  1.00  0.00    -0.387 OA
BRANCH  19  20
HETATM   20  C14 UNL     1     -17.346  15.085 -28.782  1.00  0.00     0.194 C 
BRANCH  20  21
HETATM   21  C15 UNL     1     -18.437  14.744 -29.800  1.00  0.00     0.197 C 
BRANCH  21  22
HETATM   22  O6  UNL     1     -18.677  13.368 -29.809  1.00  0.00    -0.356 OA
BRANCH  22  23
HETATM   23  C16 UNL     1     -19.832  13.055 -30.521  1.00  0.00     0.291 C 
HETATM   24  O7  UNL     1     -19.589  13.101 -31.855  1.00  0.00    -0.351 OA
HETATM   25  C17 UNL     1     -20.512  12.574 -32.697  1.00  0.00     0.152 C 
HETATM   26  C18 UNL     1     -21.470  13.681 -33.111  1.00  0.00     0.042 C 
HETATM   27  C19 UNL     1     -21.318  11.429 -32.204  1.00  0.00     0.178 C 
HETATM   28  C20 UNL     1     -21.635  11.476 -30.732  1.00  0.00     0.183 C 
HETATM   29  C21 UNL     1     -20.324  11.723 -30.011  1.00  0.00     0.204 C 
BRANCH  27  30
HETATM   30  O8  UNL     1     -20.684  10.207 -32.449  1.00  0.00    -0.390 OA
ATOM     31  H8  UNL     1     -21.265   9.473 -32.294  1.00  0.00     0.210 HD
ENDBRANCH  27  30
BRANCH  28  32
HETATM   32  O9  UNL     1     -22.057  10.186 -30.370  1.00  0.00    -0.390 OA
ATOM     33  H9  UNL     1     -22.898  10.046 -30.790  1.00  0.00     0.210 HD
ENDBRANCH  28  32
BRANCH  29  34
HETATM   34  O10 UNL     1     -20.633  11.857 -28.659  1.00  0.00    -0.388 OA
ATOM     35  H10 UNL     1     -20.419  11.042 -28.220  1.00  0.00     0.210 HD
ENDBRANCH  29  34
ENDBRANCH  22  23
ENDBRANCH  21  22
ENDBRANCH  20  21
ENDBRANCH  19  20
ENDBRANCH   1  19
TORSDOF 15
ENDMDL
MODEL 3
REMARK VINA RESULT: -6.973520774      1.406      3.236
REMARK  15 active torsions:
REMARK  status: ('A' for Active; 'I' for Inactive)
REMARK    1  A    between atoms: C2_2  and  O2_4 
REMARK    2  A    between atoms: O2_4  and  C3_5 
REMARK    3  A    between atoms: C9_11  and  O3_12 
REMARK    4  A    between atoms: C10_14  and  C11_15 
REMARK    5  A    between atoms: C11_15  and  O4_16 
REMARK    6  A    between atoms: O4_16  and  C12_17 
REMARK    7  A    between atoms: C12_17  and  C13_18 
REMARK    8  A    between atoms: C13_18  and  O5_19 
REMARK    9  A    between atoms: O5_19  and  C14_20 
REMARK   10  A    between atoms: C14_20  and  C15_21 
REMARK   11  A    between atoms: C15_21  and  O6_22 
REMARK   12  A    between atoms: O6_22  and  C16_23 
REMARK   13  A    between atoms: C19_27  and  O8_28 
REMARK   14  A    between atoms: C20_30  and  O9_31 
REMARK   15  A    between atoms: C21_33  and  O10_34 
ROOT
HETATM    1  C13 UNL     1     -15.569  13.021 -29.164  1.00  0.00     0.193 C 
ENDROOT
BRANCH   1   2
HETATM    2  C12 UNL     1     -14.733  12.226 -28.230  1.00  0.00     0.193 C 
BRANCH   2   3
HETATM    3  O4  UNL     1     -15.162  11.161 -27.609  1.00  0.00    -0.388 OA
BRANCH   3   4
HETATM    4  C11 UNL     1     -14.619  10.326 -26.748  1.00  0.00     0.177 C 
BRANCH   4   5
HETATM    5  C10 UNL     1     -13.394  10.772 -26.065  1.00  0.00     0.068 C 
HETATM    6  C3  UNL     1     -13.338  10.245 -24.606  1.00  0.00     0.140 C 
HETATM    7  C4  UNL     1     -12.306  11.153 -23.973  1.00  0.00     0.034 C 
HETATM    8  C5  UNL     1     -10.969  10.960 -24.577  1.00  0.00     0.014 C 
HETATM    9  C6  UNL     1     -10.898  10.410 -25.942  1.00  0.00    -0.021 C 
HETATM   10  C7  UNL     1      -9.913  11.245 -26.781  1.00  0.00     0.017 C 
HETATM   11  C8  UNL     1     -10.194   9.043 -25.839  1.00  0.00     0.017 C 
HETATM   12  C9  UNL     1     -12.145  10.203 -26.696  1.00  0.00     0.134 C 
BRANCH   6  13
HETATM   13  O2  UNL     1     -14.597  10.346 -23.999  1.00  0.00    -0.316 OA
BRANCH  13  14
HETATM   14  C2  UNL     1     -15.193   9.212 -23.421  1.00  0.00     0.255 C 
HETATM   15  C1  UNL     1     -14.389   8.093 -22.887  1.00  0.00     0.126 C 
HETATM   16  O1  UNL     1     -16.451   9.201 -23.382  1.00  0.00    -0.266 OA
ENDBRANCH  13  14
ENDBRANCH   6  13
BRANCH  12  17
HETATM   17  O3  UNL     1     -12.367   8.838 -27.003  1.00  0.00    -0.394 OA
ATOM     18  H3  UNL     1     -13.291   8.623 -27.036  1.00  0.00     0.210 HD
ENDBRANCH  12  17
ENDBRANCH   4   5
ENDBRANCH   3   4
ENDBRANCH   2   3
ENDBRANCH   1   2
BRANCH   1  19
HETATM   19  O5  UNL     1     -15.893  14.285 -28.691  1.00  0.00    -0.387 OA
BRANCH  19  20
HETATM   20  C14 UNL     1     -17.137  14.746 -29.012  1.00  0.00     0.194 C 
BRANCH  20  21
HETATM   21  C15 UNL     1     -17.738  13.976 -30.190  1.00  0.00     0.197 C 
BRANCH  21  22
HETATM   22  O6  UNL     1     -18.533  12.926 -29.726  1.00  0.00    -0.356 OA
BRANCH  22  23
HETATM   23  C16 UNL     1     -19.688  12.784 -30.490  1.00  0.00     0.291 C 
HETATM   24  O7  UNL     1     -19.388  12.842 -31.813  1.00  0.00    -0.351 OA
HETATM   25  C17 UNL     1     -20.335  12.462 -32.705  1.00  0.00     0.152 C 
HETATM   26  C18 UNL     1     -21.131  13.693 -33.112  1.00  0.00     0.042 C 
HETATM   27  C19 UNL     1     -21.296  11.412 -32.285  1.00  0.00     0.178 C 
HETATM   28  C20 UNL     1     -21.664  11.451 -30.824  1.00  0.00     0.183 C 
HETATM   29  C21 UNL     1     -20.363  11.509 -30.048  1.00  0.00     0.204 C 
BRANCH  27  30
HETATM   30  O8  UNL     1     -20.810  10.129 -32.551  1.00  0.00    -0.390 OA
ATOM     31  H8  UNL     1     -21.179   9.483 -31.961  1.00  0.00     0.210 HD
ENDBRANCH  27  30
BRANCH  28  32
HETATM   32  O9  UNL     1     -22.257  10.213 -30.526  1.00  0.00    -0.390 OA
ATOM     33  H9  UNL     1     -22.620  10.289 -29.651  1.00  0.00     0.210 HD
ENDBRANCH  28  32
BRANCH  29  34
HETATM   34  O10 UNL     1     -20.706  11.636 -28.704  1.00  0.00    -0.388 OA
ATOM     35  H10 UNL     1     -20.267  10.949 -28.216  1.00  0.00     0.210 HD
ENDBRANCH  29  34
ENDBRANCH  22  23
ENDBRANCH  21  22
ENDBRANCH  20  21
ENDBRANCH  19  20
ENDBRANCH   1  19
TORSDOF 15
ENDMDL
MODEL 4
REMARK VINA RESULT: -6.932069235      1.536      3.289
REMARK  15 active torsions:
REMARK  status: ('A' for Active; 'I' for Inactive)
REMARK    1  A    between atoms: C2_2  and  O2_4 
REMARK    2  A    between atoms: O2_4  and  C3_5 
REMARK    3  A    between atoms: C9_11  and  O3_12 
REMARK    4  A    between atoms: C10_14  and  C11_15 
REMARK    5  A    between atoms: C11_15  and  O4_16 
REMARK    6  A    between atoms: O4_16  and  C12_17 
REMARK    7  A    between atoms: C12_17  and  C13_18 
REMARK    8  A    between atoms: C13_18  and  O5_19 
REMARK    9  A    between atoms: O5_19  and  C14_20 
REMARK   10  A    between atoms: C14_20  and  C15_21 
REMARK   11  A    between atoms: C15_21  and  O6_22 
REMARK   12  A    between atoms: O6_22  and  C16_23 
REMARK   13  A    between atoms: C19_27  and  O8_28 
REMARK   14  A    between atoms: C20_30  and  O9_31 
REMARK   15  A    between atoms: C21_33  and  O10_34 
ROOT
HETATM    1  C13 UNL     1     -14.832  12.252 -28.759  1.00  0.00     0.193 C 
ENDROOT
BRANCH   1   2
HETATM    2  C12 UNL     1     -14.212  12.748 -27.505  1.00  0.00     0.193 C 
BRANCH   2   3
HETATM    3  O4  UNL     1     -12.924  12.767 -27.296  1.00  0.00    -0.388 OA
BRANCH   3   4
HETATM    4  C11 UNL     1     -11.936  11.958 -27.614  1.00  0.00     0.177 C 
BRANCH   4   5
HETATM    5  C10 UNL     1     -11.298  11.217 -26.514  1.00  0.00     0.068 C 
HETATM    6  C3  UNL     1     -11.561   9.692 -26.632  1.00  0.00     0.140 C 
HETATM    7  C4  UNL     1     -11.246   9.200 -25.236  1.00  0.00     0.034 C 
HETATM    8  C5  UNL     1      -9.817   9.389 -24.902  1.00  0.00     0.014 C 
HETATM    9  C6  UNL     1      -9.068  10.430 -25.627  1.00  0.00    -0.021 C 
HETATM   10  C7  UNL     1      -8.250  11.266 -24.626  1.00  0.00     0.017 C 
HETATM   11  C8  UNL     1      -7.981   9.710 -26.448  1.00  0.00     0.017 C 
HETATM   12  C9  UNL     1      -9.791  11.322 -26.548  1.00  0.00     0.134 C 
BRANCH   6  13
HETATM   13  O2  UNL     1     -12.889   9.451 -27.008  1.00  0.00    -0.316 OA
BRANCH  13  14
HETATM   14  C2  UNL     1     -13.839   9.084 -26.040  1.00  0.00     0.255 C 
HETATM   15  C1  UNL     1     -14.518  10.086 -25.192  1.00  0.00     0.126 C 
HETATM   16  O1  UNL     1     -14.082   7.854 -25.934  1.00  0.00    -0.266 OA
ENDBRANCH  13  14
ENDBRANCH   6  13
BRANCH  12  17
HETATM   17  O3  UNL     1      -9.353  11.181 -27.888  1.00  0.00    -0.394 OA
ATOM     18  H3  UNL     1      -9.087  12.010 -28.268  1.00  0.00     0.210 HD
ENDBRANCH  12  17
ENDBRANCH   4   5
ENDBRANCH   3   4
ENDBRANCH   2   3
ENDBRANCH   1   2
BRANCH   1  19
HETATM   19  O5  UNL     1     -16.149  12.653 -28.932  1.00  0.00    -0.387 OA
BRANCH  19  20
HETATM   20  C14 UNL     1     -16.336  13.852 -29.556  1.00  0.00     0.194 C 
BRANCH  20  21
HETATM   21  C15 UNL     1     -17.757  13.984 -30.110  1.00  0.00     0.197 C 
BRANCH  21  22
HETATM   22  O6  UNL     1     -18.541  12.907 -29.693  1.00  0.00    -0.356 OA
BRANCH  22  23
HETATM   23  C16 UNL     1     -19.686  12.776 -30.473  1.00  0.00     0.291 C 
HETATM   24  O7  UNL     1     -19.369  12.855 -31.791  1.00  0.00    -0.351 OA
HETATM   25  C17 UNL     1     -20.304  12.489 -32.702  1.00  0.00     0.152 C 
HETATM   26  C18 UNL     1     -21.097  13.725 -33.099  1.00  0.00     0.042 C 
HETATM   27  C19 UNL     1     -21.269  11.431 -32.310  1.00  0.00     0.178 C 
HETATM   28  C20 UNL     1     -21.656  11.446 -30.854  1.00  0.00     0.183 C 
HETATM   29  C21 UNL     1     -20.364  11.492 -30.060  1.00  0.00     0.204 C 
BRANCH  27  30
HETATM   30  O8  UNL     1     -20.777  10.152 -32.591  1.00  0.00    -0.390 OA
ATOM     31  H8  UNL     1     -21.479   9.534 -32.752  1.00  0.00     0.210 HD
ENDBRANCH  27  30
BRANCH  28  32
HETATM   32  O9  UNL     1     -22.250  10.202 -30.583  1.00  0.00    -0.390 OA
ATOM     33  H9  UNL     1     -23.186  10.316 -30.702  1.00  0.00     0.210 HD
ENDBRANCH  28  32
BRANCH  29  34
HETATM   34  O10 UNL     1     -20.725  11.598 -28.719  1.00  0.00    -0.388 OA
ATOM     35  H10 UNL     1     -21.591  11.222 -28.610  1.00  0.00     0.210 HD
ENDBRANCH  29  34
ENDBRANCH  22  23
ENDBRANCH  21  22
ENDBRANCH  20  21
ENDBRANCH  19  20
ENDBRANCH   1  19
TORSDOF 15
ENDMDL
MODEL 5
REMARK VINA RESULT: -6.925308801      1.650      2.657
REMARK  15 active torsions:
REMARK  status: ('A' for Active; 'I' for Inactive)
REMARK    1  A    between atoms: C2_2  and  O2_4 
REMARK    2  A    between atoms: O2_4  and  C3_5 
REMARK    3  A    between atoms: C9_11  and  O3_12 
REMARK    4  A    between atoms: C10_14  and  C11_15 
REMARK    5  A    between atoms: C11_15  and  O4_16 
REMARK    6  A    between atoms: O4_16  and  C12_17 
REMARK    7  A    between atoms: C12_17  and  C13_18 
REMARK    8  A    between atoms: C13_18  and  O5_19 
REMARK    9  A    between atoms: O5_19  and  C14_20 
REMARK   10  A    between atoms: C14_20  and  C15_21 
REMARK   11  A    between atoms: C15_21  and  O6_22 
REMARK   12  A    between atoms: O6_22  and  C16_23 
REMARK   13  A    between atoms: C19_27  and  O8_28 
REMARK   14  A    between atoms: C20_30  and  O9_31 
REMARK   15  A    between atoms: C21_33  and  O10_34 
ROOT
HETATM    1  C13 UNL     1     -14.993  12.445 -28.643  1.00  0.00     0.193 C 
ENDROOT
BRANCH   1   2
HETATM    2  C12 UNL     1     -14.538  13.160 -27.424  1.00  0.00     0.193 C 
BRANCH   2   3
HETATM    3  O4  UNL     1     -13.616  12.700 -26.622  1.00  0.00    -0.388 OA
BRANCH   3   4
HETATM    4  C11 UNL     1     -13.633  12.202 -25.404  1.00  0.00     0.177 C 
BRANCH   4   5
HETATM    5  C10 UNL     1     -12.896  10.947 -25.185  1.00  0.00     0.068 C 
HETATM    6  C3  UNL     1     -12.957  10.510 -23.696  1.00  0.00     0.140 C 
HETATM    7  C4  UNL     1     -11.813   9.523 -23.602  1.00  0.00     0.034 C 
HETATM    8  C5  UNL     1     -12.057   8.326 -24.436  1.00  0.00     0.014 C 
HETATM    9  C6  UNL     1     -12.980   8.453 -25.578  1.00  0.00    -0.021 C 
HETATM   10  C7  UNL     1     -12.348   7.806 -26.824  1.00  0.00     0.017 C 
HETATM   11  C8  UNL     1     -14.185   7.539 -25.284  1.00  0.00     0.017 C 
HETATM   12  C9  UNL     1     -13.513   9.782 -25.923  1.00  0.00     0.134 C 
BRANCH   6  13
HETATM   13  O2  UNL     1     -12.793  11.616 -22.853  1.00  0.00    -0.316 OA
BRANCH  13  14
HETATM   14  C2  UNL     1     -13.079  11.504 -21.481  1.00  0.00     0.255 C 
HETATM   15  C1  UNL     1     -12.220  12.123 -20.450  1.00  0.00     0.126 C 
HETATM   16  O1  UNL     1     -14.109  10.849 -21.177  1.00  0.00    -0.266 OA
ENDBRANCH  13  14
ENDBRANCH   6  13
BRANCH  12  17
HETATM   17  O3  UNL     1     -14.922   9.847 -25.787  1.00  0.00    -0.394 OA
ATOM     18  H3  UNL     1     -15.350  10.092 -26.598  1.00  0.00     0.210 HD
ENDBRANCH  12  17
ENDBRANCH   4   5
ENDBRANCH   3   4
ENDBRANCH   2   3
ENDBRANCH   1   2
BRANCH   1  19
HETATM   19  O5  UNL     1     -15.633  13.259 -29.566  1.00  0.00    -0.387 OA
BRANCH  19  20
HETATM   20  C14 UNL     1     -16.511  14.171 -29.058  1.00  0.00     0.194 C 
BRANCH  20  21
HETATM   21  C15 UNL     1     -17.845  14.148 -29.808  1.00  0.00     0.197 C 
BRANCH  21  22
HETATM   22  O6  UNL     1     -18.344  12.845 -29.867  1.00  0.00    -0.356 OA
BRANCH  22  23
HETATM   23  C16 UNL     1     -19.553  12.791 -30.556  1.00  0.00     0.291 C 
HETATM   24  O7  UNL     1     -19.336  12.874 -31.894  1.00  0.00    -0.351 OA
HETATM   25  C17 UNL     1     -20.359  12.576 -32.732  1.00  0.00     0.152 C 
HETATM   26  C18 UNL     1     -21.107  13.862 -33.051  1.00  0.00     0.042 C 
HETATM   27  C19 UNL     1     -21.349  11.569 -32.277  1.00  0.00     0.178 C 
HETATM   28  C20 UNL     1     -21.619  11.582 -30.795  1.00  0.00     0.183 C 
HETATM   29  C21 UNL     1     -20.269  11.542 -30.106  1.00  0.00     0.204 C 
BRANCH  27  30
HETATM   30  O8  UNL     1     -20.956  10.269 -32.611  1.00  0.00    -0.390 OA
ATOM     31  H8  UNL     1     -20.027  10.222 -32.805  1.00  0.00     0.210 HD
ENDBRANCH  27  30
BRANCH  28  32
HETATM   32  O9  UNL     1     -22.261  10.370 -30.493  1.00  0.00    -0.390 OA
ATOM     33  H9  UNL     1     -22.136  10.220 -29.563  1.00  0.00     0.210 HD
ENDBRANCH  28  32
BRANCH  29  34
HETATM   34  O10 UNL     1     -20.517  11.646 -28.739  1.00  0.00    -0.388 OA
ATOM     35  H10 UNL     1     -21.455  11.716 -28.609  1.00  0.00     0.210 HD
ENDBRANCH  29  34
ENDBRANCH  22  23
ENDBRANCH  21  22
ENDBRANCH  20  21
ENDBRANCH  19  20
ENDBRANCH   1  19
TORSDOF 15
ENDMDL
