MODEL 1
REMARK VINA RESULT: -5.447809145      0.000      0.000
REMARK  15 active torsions:
REMARK  status: ('A' for Active; 'I' for Inactive)
REMARK    1  A    between atoms: C2_2  and  C3_3 
REMARK    2  A    between atoms: C3_3  and  C4_4 
REMARK    3  A    between atoms: C4_4  and  C5_5 
REMARK    4  A    between atoms: C5_5  and  C6_6 
REMARK    5  A    between atoms: C6_6  and  O1_7 
REMARK    6  A    between atoms: C7_10  and  O3_11 
REMARK    7  A    between atoms: C7_10  and  C8_13 
REMARK    8  A    between atoms: C8_13  and  C9_14 
REMARK    9  A    between atoms: C13_18  and  O4_19 
REMARK   10  A    between atoms: C14_21  and  O5_22 
REMARK   11  A    between atoms: O5_22  and  C15_23 
REMARK   12  A    between atoms: C18_27  and  O7_28 
REMARK   13  A    between atoms: O7_28  and  C19_29 
REMARK   14  A    between atoms: C21_32  and  O9_33 
REMARK   15  A    between atoms: C22_35  and  O10_36 
ROOT
HETATM    1  C6  UNL     1     -21.249   6.326 -33.182  1.00  0.00     0.194 C 
HETATM    2  O2  UNL     1     -21.486   7.634 -33.449  1.00  0.00    -0.317 OA
HETATM    3  C7  UNL     1     -22.072   8.296 -32.344  1.00  0.00     0.168 C 
HETATM    4  C12 UNL     1     -23.468   7.800 -32.303  1.00  0.00     0.102 C 
HETATM    5  C13 UNL     1     -23.636   6.303 -32.395  1.00  0.00     0.157 C 
HETATM    6  C14 UNL     1     -22.486   5.522 -32.877  1.00  0.00     0.216 C 
ENDROOT
BRANCH   6   7
HETATM    7  O5  UNL     1     -22.134   4.497 -32.054  1.00  0.00    -0.345 OA
BRANCH   7   8
HETATM    8  C15 UNL     1     -22.682   4.473 -30.816  1.00  0.00     0.292 C 
HETATM    9  O6  UNL     1     -23.330   3.339 -30.413  1.00  0.00    -0.351 OA
HETATM   10  C16 UNL     1     -24.282   3.694 -29.462  1.00  0.00     0.152 C 
HETATM   11  C17 UNL     1     -24.592   2.514 -28.560  1.00  0.00     0.042 C 
HETATM   12  C18 UNL     1     -23.964   4.882 -28.641  1.00  0.00     0.191 C 
HETATM   13  C21 UNL     1     -22.522   5.252 -28.538  1.00  0.00     0.183 C 
HETATM   14  C22 UNL     1     -21.686   4.785 -29.697  1.00  0.00     0.204 C 
BRANCH  12  15
HETATM   15  O7  UNL     1     -24.489   4.772 -27.319  1.00  0.00    -0.311 OA
BRANCH  15  16
HETATM   16  C19 UNL     1     -25.323   5.720 -26.754  1.00  0.00     0.255 C 
HETATM   17  C20 UNL     1     -26.372   5.461 -25.767  1.00  0.00     0.126 C 
HETATM   18  O8  UNL     1     -25.146   6.922 -27.141  1.00  0.00    -0.266 OA
ENDBRANCH  15  16
ENDBRANCH  12  15
BRANCH  13  19
HETATM   19  O9  UNL     1     -22.356   6.659 -28.486  1.00  0.00    -0.390 OA
ATOM     20  H9  UNL     1     -21.605   6.935 -28.997  1.00  0.00     0.210 HD
ENDBRANCH  13  19
BRANCH  14  21
HETATM   21  O10 UNL     1     -21.030   3.613 -29.291  1.00  0.00    -0.388 OA
ATOM     22  H10 UNL     1     -20.241   3.484 -29.803  1.00  0.00     0.210 HD
ENDBRANCH  14  21
ENDBRANCH   7   8
ENDBRANCH   6   7
BRANCH   1  23
HETATM   23  C5  UNL     1     -20.562   5.743 -34.428  1.00  0.00     0.071 C 
BRANCH  23  24
HETATM   24  C4  UNL     1     -21.490   5.959 -35.622  1.00  0.00     0.005 C 
BRANCH  24  25
HETATM   25  C3  UNL     1     -20.592   6.197 -36.817  1.00  0.00    -0.000 C 
BRANCH  25  26
HETATM   26  C2  UNL     1     -21.351   6.852 -37.956  1.00  0.00    -0.005 C 
HETATM   27  C1  UNL     1     -20.676   8.160 -38.324  1.00  0.00     0.005 C 
ENDBRANCH  25  26
ENDBRANCH  24  25
ENDBRANCH  23  24
ENDBRANCH   1  23
BRANCH   1  28
HETATM   28  O1  UNL     1     -20.299   6.219 -32.174  1.00  0.00    -0.363 OA
ATOM     29  H1  UNL     1     -20.495   5.394 -31.745  1.00  0.00     0.213 HD
ENDBRANCH   1  28
BRANCH   5  30
HETATM   30  O4  UNL     1     -24.796   6.070 -33.142  1.00  0.00    -0.393 OA
ATOM     31  H4  UNL     1     -25.104   5.203 -32.908  1.00  0.00     0.210 HD
ENDBRANCH   5  30
BRANCH   3  32
HETATM   32  O3  UNL     1     -21.459   7.991 -31.143  1.00  0.00    -0.365 OA
ATOM     33  H3  UNL     1     -22.076   7.864 -30.432  1.00  0.00     0.213 HD
ENDBRANCH   3  32
BRANCH   3  34
HETATM   34  C8  UNL     1     -21.946   9.746 -32.602  1.00  0.00     0.072 C 
BRANCH  34  35
HETATM   35  C9  UNL     1     -21.061  10.591 -31.794  1.00  0.00    -0.018 C 
HETATM   36  C10 UNL     1     -21.637  11.188 -30.554  1.00  0.00     0.009 C 
HETATM   37  C11 UNL     1     -20.536  11.762 -32.653  1.00  0.00     0.009 C 
ENDBRANCH  34  35
ENDBRANCH   3  34
TORSDOF 15
ENDMDL
MODEL 2
REMARK VINA RESULT: -5.439276120      2.613      3.535
REMARK  15 active torsions:
REMARK  status: ('A' for Active; 'I' for Inactive)
REMARK    1  A    between atoms: C2_2  and  C3_3 
REMARK    2  A    between atoms: C3_3  and  C4_4 
REMARK    3  A    between atoms: C4_4  and  C5_5 
REMARK    4  A    between atoms: C5_5  and  C6_6 
REMARK    5  A    between atoms: C6_6  and  O1_7 
REMARK    6  A    between atoms: C7_10  and  O3_11 
REMARK    7  A    between atoms: C7_10  and  C8_13 
REMARK    8  A    between atoms: C8_13  and  C9_14 
REMARK    9  A    between atoms: C13_18  and  O4_19 
REMARK   10  A    between atoms: C14_21  and  O5_22 
REMARK   11  A    between atoms: O5_22  and  C15_23 
REMARK   12  A    between atoms: C18_27  and  O7_28 
REMARK   13  A    between atoms: O7_28  and  C19_29 
REMARK   14  A    between atoms: C21_32  and  O9_33 
REMARK   15  A    between atoms: C22_35  and  O10_36 
ROOT
HETATM    1  C6  UNL     1     -23.446   7.302 -32.872  1.00  0.00     0.194 C 
HETATM    2  O2  UNL     1     -23.287   8.646 -32.783  1.00  0.00    -0.317 OA
HETATM    3  C7  UNL     1     -22.110   8.987 -32.075  1.00  0.00     0.168 C 
HETATM    4  C12 UNL     1     -22.421   8.685 -30.657  1.00  0.00     0.102 C 
HETATM    5  C13 UNL     1     -23.031   7.330 -30.393  1.00  0.00     0.157 C 
HETATM    6  C14 UNL     1     -23.593   6.606 -31.544  1.00  0.00     0.216 C 
ENDROOT
BRANCH   6   7
HETATM    7  O5  UNL     1     -23.123   5.336 -31.677  1.00  0.00    -0.345 OA
BRANCH   7   8
HETATM    8  C15 UNL     1     -22.586   4.751 -30.580  1.00  0.00     0.292 C 
HETATM    9  O6  UNL     1     -23.346   3.853 -29.883  1.00  0.00    -0.351 OA
HETATM   10  C16 UNL     1     -22.907   3.841 -28.564  1.00  0.00     0.152 C 
HETATM   11  C17 UNL     1     -23.244   2.516 -27.907  1.00  0.00     0.042 C 
HETATM   12  C18 UNL     1     -21.477   4.155 -28.354  1.00  0.00     0.191 C 
HETATM   13  C21 UNL     1     -20.573   3.944 -29.522  1.00  0.00     0.183 C 
HETATM   14  C22 UNL     1     -21.265   4.029 -30.854  1.00  0.00     0.204 C 
BRANCH  12  15
HETATM   15  O7  UNL     1     -20.935   3.448 -27.240  1.00  0.00    -0.311 OA
BRANCH  15  16
HETATM   16  C19 UNL     1     -20.614   4.058 -26.040  1.00  0.00     0.255 C 
HETATM   17  C20 UNL     1     -20.293   3.371 -24.788  1.00  0.00     0.126 C 
HETATM   18  O8  UNL     1     -20.603   5.332 -26.046  1.00  0.00    -0.266 OA
ENDBRANCH  15  16
ENDBRANCH  12  15
BRANCH  13  19
HETATM   19  O9  UNL     1     -19.547   4.921 -29.558  1.00  0.00    -0.390 OA
ATOM     20  H9  UNL     1     -18.970   4.786 -30.300  1.00  0.00     0.210 HD
ENDBRANCH  13  19
BRANCH  14  21
HETATM   21  O10 UNL     1     -21.508   2.715 -31.281  1.00  0.00    -0.388 OA
ATOM     22  H10 UNL     1     -22.310   2.676 -31.788  1.00  0.00     0.210 HD
ENDBRANCH  14  21
ENDBRANCH   7   8
ENDBRANCH   6   7
BRANCH   1  23
HETATM   23  C5  UNL     1     -24.715   7.068 -33.709  1.00  0.00     0.071 C 
BRANCH  23  24
HETATM   24  C4  UNL     1     -25.921   7.195 -32.780  1.00  0.00     0.005 C 
BRANCH  24  25
HETATM   25  C3  UNL     1     -27.020   7.835 -33.603  1.00  0.00    -0.000 C 
BRANCH  25  26
HETATM   26  C2  UNL     1     -26.449   8.616 -34.772  1.00  0.00    -0.005 C 
HETATM   27  C1  UNL     1     -27.373   9.774 -35.104  1.00  0.00     0.005 C 
ENDBRANCH  25  26
ENDBRANCH  24  25
ENDBRANCH  23  24
ENDBRANCH   1  23
BRANCH   1  28
HETATM   28  O1  UNL     1     -22.418   6.759 -33.632  1.00  0.00    -0.363 OA
ATOM     29  H1  UNL     1     -21.624   6.998 -33.168  1.00  0.00     0.213 HD
ENDBRANCH   1  28
BRANCH   5  30
HETATM   30  O4  UNL     1     -23.957   7.497 -29.358  1.00  0.00    -0.393 OA
ATOM     31  H4  UNL     1     -23.602   8.157 -28.775  1.00  0.00     0.210 HD
ENDBRANCH   5  30
BRANCH   3  32
HETATM   32  O3  UNL     1     -21.013   8.240 -32.457  1.00  0.00    -0.365 OA
ATOM     33  H3  UNL     1     -20.475   8.674 -33.109  1.00  0.00     0.213 HD
ENDBRANCH   3  32
BRANCH   3  34
HETATM   34  C8  UNL     1     -21.848  10.416 -32.351  1.00  0.00     0.072 C 
BRANCH  34  35
HETATM   35  C9  UNL     1     -20.707  11.112 -31.749  1.00  0.00    -0.018 C 
HETATM   36  C10 UNL     1     -20.952  11.840 -30.470  1.00  0.00     0.009 C 
HETATM   37  C11 UNL     1     -20.142  12.143 -32.750  1.00  0.00     0.009 C 
ENDBRANCH  34  35
ENDBRANCH   3  34
TORSDOF 15
ENDMDL
MODEL 3
REMARK VINA RESULT: -5.431081539      2.764      5.141
REMARK  15 active torsions:
REMARK  status: ('A' for Active; 'I' for Inactive)
REMARK    1  A    between atoms: C2_2  and  C3_3 
REMARK    2  A    between atoms: C3_3  and  C4_4 
REMARK    3  A    between atoms: C4_4  and  C5_5 
REMARK    4  A    between atoms: C5_5  and  C6_6 
REMARK    5  A    between atoms: C6_6  and  O1_7 
REMARK    6  A    between atoms: C7_10  and  O3_11 
REMARK    7  A    between atoms: C7_10  and  C8_13 
REMARK    8  A    between atoms: C8_13  and  C9_14 
REMARK    9  A    between atoms: C13_18  and  O4_19 
REMARK   10  A    between atoms: C14_21  and  O5_22 
REMARK   11  A    between atoms: O5_22  and  C15_23 
REMARK   12  A    between atoms: C18_27  and  O7_28 
REMARK   13  A    between atoms: O7_28  and  C19_29 
REMARK   14  A    between atoms: C21_32  and  O9_33 
REMARK   15  A    between atoms: C22_35  and  O10_36 
ROOT
HETATM    1  C6  UNL     1     -22.281   8.075 -32.443  1.00  0.00     0.194 C 
HETATM    2  O2  UNL     1     -23.516   8.194 -32.990  1.00  0.00    -0.317 OA
HETATM    3  C7  UNL     1     -24.271   7.006 -32.840  1.00  0.00     0.168 C 
HETATM    4  C12 UNL     1     -23.670   6.052 -33.802  1.00  0.00     0.102 C 
HETATM    5  C13 UNL     1     -22.166   5.938 -33.761  1.00  0.00     0.157 C 
HETATM    6  C14 UNL     1     -21.426   7.006 -33.071  1.00  0.00     0.216 C 
ENDROOT
BRANCH   6   7
HETATM    7  O5  UNL     1     -20.555   6.551 -32.128  1.00  0.00    -0.345 OA
BRANCH   7   8
HETATM    8  C15 UNL     1     -20.648   5.249 -31.769  1.00  0.00     0.292 C 
HETATM    9  O6  UNL     1     -19.574   4.433 -31.998  1.00  0.00    -0.351 OA
HETATM   10  C16 UNL     1     -20.039   3.130 -32.139  1.00  0.00     0.152 C 
HETATM   11  C17 UNL     1     -18.945   2.139 -31.790  1.00  0.00     0.042 C 
HETATM   12  C18 UNL     1     -21.272   2.798 -31.392  1.00  0.00     0.191 C 
HETATM   13  C21 UNL     1     -21.589   3.660 -30.216  1.00  0.00     0.183 C 
HETATM   14  C22 UNL     1     -21.002   5.042 -30.296  1.00  0.00     0.204 C 
BRANCH  12  15
HETATM   15  O7  UNL     1     -21.283   1.438 -30.961  1.00  0.00    -0.311 OA
BRANCH  15  16
HETATM   16  C19 UNL     1     -22.289   0.547 -31.291  1.00  0.00     0.255 C 
HETATM   17  C20 UNL     1     -22.102  -0.769 -31.903  1.00  0.00     0.126 C 
HETATM   18  O8  UNL     1     -23.478   0.926 -31.032  1.00  0.00    -0.266 OA
ENDBRANCH  15  16
ENDBRANCH  12  15
BRANCH  13  19
HETATM   19  O9  UNL     1     -22.988   3.844 -30.078  1.00  0.00    -0.390 OA
ATOM     20  H9  UNL     1     -23.203   4.760 -29.954  1.00  0.00     0.210 HD
ENDBRANCH  13  19
BRANCH  14  21
HETATM   21  O10 UNL     1     -19.838   5.044 -29.511  1.00  0.00    -0.388 OA
ATOM     22  H10 UNL     1     -19.116   4.659 -29.993  1.00  0.00     0.210 HD
ENDBRANCH  14  21
ENDBRANCH   7   8
ENDBRANCH   6   7
BRANCH   1  23
HETATM   23  C5  UNL     1     -21.594   9.440 -32.617  1.00  0.00     0.071 C 
BRANCH  23  24
HETATM   24  C4  UNL     1     -21.764  10.223 -31.317  1.00  0.00     0.005 C 
BRANCH  24  25
HETATM   25  C3  UNL     1     -20.677  11.277 -31.314  1.00  0.00    -0.000 C 
BRANCH  25  26
HETATM   26  C2  UNL     1     -20.492  11.882 -32.693  1.00  0.00    -0.005 C 
HETATM   27  C1  UNL     1     -20.922  13.337 -32.666  1.00  0.00     0.005 C 
ENDBRANCH  25  26
ENDBRANCH  24  25
ENDBRANCH  23  24
ENDBRANCH   1  23
BRANCH   1  28
HETATM   28  O1  UNL     1     -22.393   7.911 -31.068  1.00  0.00    -0.363 OA
ATOM     29  H1  UNL     1     -22.373   6.970 -30.936  1.00  0.00     0.213 HD
ENDBRANCH   1  28
BRANCH   5  30
HETATM   30  O4  UNL     1     -21.737   5.751 -35.079  1.00  0.00    -0.393 OA
ATOM     31  H4  UNL     1     -21.400   4.864 -35.136  1.00  0.00     0.210 HD
ENDBRANCH   5  30
BRANCH   3  32
HETATM   32  O3  UNL     1     -24.185   6.468 -31.570  1.00  0.00    -0.365 OA
ATOM     33  H3  UNL     1     -23.735   5.631 -31.550  1.00  0.00     0.213 HD
ENDBRANCH   3  32
BRANCH   3  34
HETATM   34  C8  UNL     1     -25.678   7.358 -33.127  1.00  0.00     0.072 C 
BRANCH  34  35
HETATM   35  C9  UNL     1     -26.115   7.710 -34.481  1.00  0.00    -0.018 C 
HETATM   36  C10 UNL     1     -26.704   9.067 -34.674  1.00  0.00     0.009 C 
HETATM   37  C11 UNL     1     -27.169   6.691 -34.967  1.00  0.00     0.009 C 
ENDBRANCH  34  35
ENDBRANCH   3  34
TORSDOF 15
ENDMDL
MODEL 4
REMARK VINA RESULT: -5.423576771      1.696      1.914
REMARK  15 active torsions:
REMARK  status: ('A' for Active; 'I' for Inactive)
REMARK    1  A    between atoms: C2_2  and  C3_3 
REMARK    2  A    between atoms: C3_3  and  C4_4 
REMARK    3  A    between atoms: C4_4  and  C5_5 
REMARK    4  A    between atoms: C5_5  and  C6_6 
REMARK    5  A    between atoms: C6_6  and  O1_7 
REMARK    6  A    between atoms: C7_10  and  O3_11 
REMARK    7  A    between atoms: C7_10  and  C8_13 
REMARK    8  A    between atoms: C8_13  and  C9_14 
REMARK    9  A    between atoms: C13_18  and  O4_19 
REMARK   10  A    between atoms: C14_21  and  O5_22 
REMARK   11  A    between atoms: O5_22  and  C15_23 
REMARK   12  A    between atoms: C18_27  and  O7_28 
REMARK   13  A    between atoms: O7_28  and  C19_29 
REMARK   14  A    between atoms: C21_32  and  O9_33 
REMARK   15  A    between atoms: C22_35  and  O10_36 
ROOT
HETATM    1  C6  UNL     1     -21.944   6.135 -33.913  1.00  0.00     0.194 C 
HETATM    2  O2  UNL     1     -22.211   7.463 -33.854  1.00  0.00    -0.317 OA
HETATM    3  C7  UNL     1     -22.060   7.969 -32.541  1.00  0.00     0.168 C 
HETATM    4  C12 UNL     1     -23.234   7.452 -31.799  1.00  0.00     0.102 C 
HETATM    5  C13 UNL     1     -23.512   5.977 -31.955  1.00  0.00     0.157 C 
HETATM    6  C14 UNL     1     -22.858   5.281 -33.074  1.00  0.00     0.216 C 
ENDROOT
BRANCH   6   7
HETATM    7  O5  UNL     1     -22.175   4.164 -32.704  1.00  0.00    -0.345 OA
BRANCH   7   8
HETATM    8  C15 UNL     1     -22.054   3.917 -31.378  1.00  0.00     0.292 C 
HETATM    9  O6  UNL     1     -22.876   2.981 -30.813  1.00  0.00    -0.351 OA
HETATM   10  C16 UNL     1     -23.031   3.293 -29.466  1.00  0.00     0.152 C 
HETATM   11  C17 UNL     1     -23.386   2.048 -28.674  1.00  0.00     0.042 C 
HETATM   12  C18 UNL     1     -21.892   3.985 -28.826  1.00  0.00     0.191 C 
HETATM   13  C21 UNL     1     -20.562   3.822 -29.484  1.00  0.00     0.183 C 
HETATM   14  C22 UNL     1     -20.640   3.516 -30.954  1.00  0.00     0.204 C 
BRANCH  12  15
HETATM   15  O7  UNL     1     -21.754   3.625 -27.453  1.00  0.00    -0.311 OA
BRANCH  15  16
HETATM   16  C19 UNL     1     -21.690   4.555 -26.430  1.00  0.00     0.255 C 
HETATM   17  C20 UNL     1     -22.772   4.884 -25.501  1.00  0.00     0.126 C 
HETATM   18  O8  UNL     1     -20.581   5.169 -26.301  1.00  0.00    -0.266 OA
ENDBRANCH  15  16
ENDBRANCH  12  15
BRANCH  13  19
HETATM   19  O9  UNL     1     -19.790   5.007 -29.379  1.00  0.00    -0.390 OA
ATOM     20  H9  UNL     1     -19.162   4.946 -28.668  1.00  0.00     0.210 HD
ENDBRANCH  13  19
BRANCH  14  21
HETATM   21  O10 UNL     1     -20.463   2.131 -31.099  1.00  0.00    -0.388 OA
ATOM     22  H10 UNL     1     -20.385   1.905 -32.018  1.00  0.00     0.210 HD
ENDBRANCH  14  21
ENDBRANCH   7   8
ENDBRANCH   6   7
BRANCH   1  23
HETATM   23  C5  UNL     1     -22.083   5.727 -35.389  1.00  0.00     0.071 C 
BRANCH  23  24
HETATM   24  C4  UNL     1     -20.894   6.307 -36.152  1.00  0.00     0.005 C 
BRANCH  24  25
HETATM   25  C3  UNL     1     -21.406   6.646 -37.536  1.00  0.00    -0.000 C 
BRANCH  25  26
HETATM   26  C2  UNL     1     -20.596   7.764 -38.165  1.00  0.00    -0.005 C 
HETATM   27  C1  UNL     1     -19.232   7.233 -38.567  1.00  0.00     0.005 C 
ENDBRANCH  25  26
ENDBRANCH  24  25
ENDBRANCH  23  24
ENDBRANCH   1  23
BRANCH   1  28
HETATM   28  O1  UNL     1     -20.606   5.914 -33.611  1.00  0.00    -0.363 OA
ATOM     29  H1  UNL     1     -20.513   4.968 -33.609  1.00  0.00     0.213 HD
ENDBRANCH   1  28
BRANCH   5  30
HETATM   30  O4  UNL     1     -24.902   5.825 -31.963  1.00  0.00    -0.393 OA
ATOM     31  H4  UNL     1     -25.142   5.531 -32.834  1.00  0.00     0.210 HD
ENDBRANCH   5  30
BRANCH   3  32
HETATM   32  O3  UNL     1     -20.910   7.523 -31.918  1.00  0.00    -0.365 OA
ATOM     33  H3  UNL     1     -20.217   8.173 -31.905  1.00  0.00     0.213 HD
ENDBRANCH   3  32
BRANCH   3  34
HETATM   34  C8  UNL     1     -22.011   9.443 -32.657  1.00  0.00     0.072 C 
BRANCH  34  35
HETATM   35  C9  UNL     1     -21.194  10.253 -31.749  1.00  0.00    -0.018 C 
HETATM   36  C10 UNL     1     -21.842  10.727 -30.491  1.00  0.00     0.009 C 
HETATM   37  C11 UNL     1     -20.684  11.507 -32.490  1.00  0.00     0.009 C 
ENDBRANCH  34  35
ENDBRANCH   3  34
TORSDOF 15
ENDMDL
MODEL 5
REMARK VINA RESULT: -5.404823615      1.693      4.478
REMARK  15 active torsions:
REMARK  status: ('A' for Active; 'I' for Inactive)
REMARK    1  A    between atoms: C2_2  and  C3_3 
REMARK    2  A    between atoms: C3_3  and  C4_4 
REMARK    3  A    between atoms: C4_4  and  C5_5 
REMARK    4  A    between atoms: C5_5  and  C6_6 
REMARK    5  A    between atoms: C6_6  and  O1_7 
REMARK    6  A    between atoms: C7_10  and  O3_11 
REMARK    7  A    between atoms: C7_10  and  C8_13 
REMARK    8  A    between atoms: C8_13  and  C9_14 
REMARK    9  A    between atoms: C13_18  and  O4_19 
REMARK   10  A    between atoms: C14_21  and  O5_22 
REMARK   11  A    between atoms: O5_22  and  C15_23 
REMARK   12  A    between atoms: C18_27  and  O7_28 
REMARK   13  A    between atoms: O7_28  and  C19_29 
REMARK   14  A    between atoms: C21_32  and  O9_33 
REMARK   15  A    between atoms: C22_35  and  O10_36 
ROOT
HETATM    1  C6  UNL     1     -22.192   7.438 -32.539  1.00  0.00     0.194 C 
HETATM    2  O2  UNL     1     -21.368   7.373 -33.613  1.00  0.00    -0.317 OA
HETATM    3  C7  UNL     1     -21.704   6.294 -34.465  1.00  0.00     0.168 C 
HETATM    4  C12 UNL     1     -21.251   5.084 -33.739  1.00  0.00     0.102 C 
HETATM    5  C13 UNL     1     -21.668   4.992 -32.291  1.00  0.00     0.157 C 
HETATM    6  C14 UNL     1     -22.142   6.226 -31.645  1.00  0.00     0.216 C 
ENDROOT
BRANCH   6   7
HETATM    7  O5  UNL     1     -23.352   6.098 -31.035  1.00  0.00    -0.345 OA
BRANCH   7   8
HETATM    8  C15 UNL     1     -23.357   5.814 -29.711  1.00  0.00     0.292 C 
HETATM    9  O6  UNL     1     -22.157   5.646 -29.077  1.00  0.00    -0.351 OA
HETATM   10  C16 UNL     1     -22.356   4.815 -27.980  1.00  0.00     0.152 C 
HETATM   11  C17 UNL     1     -21.290   5.063 -26.929  1.00  0.00     0.042 C 
HETATM   12  C18 UNL     1     -23.696   4.875 -27.357  1.00  0.00     0.191 C 
HETATM   13  C21 UNL     1     -24.487   6.117 -27.601  1.00  0.00     0.183 C 
HETATM   14  C22 UNL     1     -24.116   6.839 -28.866  1.00  0.00     0.204 C 
BRANCH  12  15
HETATM   15  O7  UNL     1     -23.639   4.655 -25.949  1.00  0.00    -0.311 OA
BRANCH  15  16
HETATM   16  C19 UNL     1     -24.348   3.653 -25.309  1.00  0.00     0.255 C 
HETATM   17  C20 UNL     1     -23.780   2.621 -24.441  1.00  0.00     0.126 C 
HETATM   18  O8  UNL     1     -25.607   3.646 -25.507  1.00  0.00    -0.266 OA
ENDBRANCH  15  16
ENDBRANCH  12  15
BRANCH  13  19
HETATM   19  O9  UNL     1     -25.871   5.829 -27.713  1.00  0.00    -0.390 OA
ATOM     20  H9  UNL     1     -26.388   6.409 -27.167  1.00  0.00     0.210 HD
ENDBRANCH  13  19
BRANCH  14  21
HETATM   21  O10 UNL     1     -23.267   7.897 -28.507  1.00  0.00    -0.388 OA
ATOM     22  H10 UNL     1     -23.323   8.061 -27.573  1.00  0.00     0.210 HD
ENDBRANCH  14  21
ENDBRANCH   7   8
ENDBRANCH   6   7
BRANCH   1  23
HETATM   23  C5  UNL     1     -21.763   8.677 -31.734  1.00  0.00     0.071 C 
BRANCH  23  24
HETATM   24  C4  UNL     1     -21.649   9.852 -32.705  1.00  0.00     0.005 C 
BRANCH  24  25
HETATM   25  C3  UNL     1     -21.122  11.017 -31.895  1.00  0.00    -0.000 C 
BRANCH  25  26
HETATM   26  C2  UNL     1     -20.330  11.978 -32.762  1.00  0.00    -0.005 C 
HETATM   27  C1  UNL     1     -20.961  13.356 -32.693  1.00  0.00     0.005 C 
ENDBRANCH  25  26
ENDBRANCH  24  25
ENDBRANCH  23  24
ENDBRANCH   1  23
BRANCH   1  28
HETATM   28  O1  UNL     1     -23.486   7.721 -32.958  1.00  0.00    -0.363 OA
ATOM     29  H1  UNL     1     -23.936   8.008 -32.172  1.00  0.00     0.213 HD
ENDBRANCH   1  28
BRANCH   5  30
HETATM   30  O4  UNL     1     -20.609   4.395 -31.600  1.00  0.00    -0.393 OA
ATOM     31  H4  UNL     1     -20.770   3.459 -31.605  1.00  0.00     0.210 HD
ENDBRANCH   5  30
BRANCH   3  32
HETATM   32  O3  UNL     1     -23.062   6.189 -34.696  1.00  0.00    -0.365 OA
ATOM     33  H3  UNL     1     -23.279   5.542 -35.358  1.00  0.00     0.213 HD
ENDBRANCH   3  32
BRANCH   3  34
HETATM   34  C8  UNL     1     -21.008   6.532 -35.748  1.00  0.00     0.072 C 
BRANCH  34  35
HETATM   35  C9  UNL     1     -20.301   5.454 -36.444  1.00  0.00    -0.018 C 
HETATM   36  C10 UNL     1     -18.810   5.483 -36.406  1.00  0.00     0.009 C 
HETATM   37  C11 UNL     1     -20.711   5.441 -37.932  1.00  0.00     0.009 C 
ENDBRANCH  34  35
ENDBRANCH   3  34
TORSDOF 15
ENDMDL
