MODEL 1
REMARK VINA RESULT: -5.941930620      0.000      0.000
REMARK  15 active torsions:
REMARK  status: ('A' for Active; 'I' for Inactive)
REMARK    1  A    between atoms: C2_2  and  C3_3 
REMARK    2  A    between atoms: C3_3  and  N1_4 
REMARK    3  A    between atoms: C6_7  and  S1_8 
REMARK    4  A    between atoms: S1_8  and  C7_9 
REMARK    5  A    between atoms: C7_9  and  C8_10 
REMARK    6  A    between atoms: C9_12  and  C10_13 
REMARK    7  A    between atoms: C10_13  and  N2_14 
REMARK    8  A    between atoms: C10_13  and  O2_18 
REMARK    9  A    between atoms: C11_20  and  O3_21 
REMARK   10  A    between atoms: O3_21  and  C12_22 
REMARK   11  A    between atoms: C12_22  and  C13_24 
REMARK   12  A    between atoms: C13_24  and  C15_26 
REMARK   13  A    between atoms: C17_28  and  C18_29 
REMARK   14  A    between atoms: C18_29  and  N3_30 
REMARK   15  A    between atoms: C19_34  and  O5_35 
ROOT
HETATM    1  C8  UNL     1     -21.682   8.756 -31.498  1.00  0.00     0.160 C 
HETATM    2  O1  UNL     1     -22.697   8.558 -30.561  1.00  0.00    -0.370 OA
HETATM    3  C9  UNL     1     -22.443   7.412 -29.844  1.00  0.00     0.208 C 
HETATM    4  C11 UNL     1     -21.678   6.360 -30.629  1.00  0.00     0.173 C 
HETATM    5  C17 UNL     1     -21.928   6.405 -32.082  1.00  0.00     0.074 C 
HETATM    6  C19 UNL     1     -22.016   7.823 -32.653  1.00  0.00     0.156 C 
ENDROOT
BRANCH   1   7
HETATM    7  C7  UNL     1     -21.612  10.194 -31.950  1.00  0.00     0.108 C 
BRANCH   7   8
HETATM    8  S1  UNL     1     -21.810  11.360 -30.610  1.00  0.00    -0.162 SA
BRANCH   8   9
HETATM    9  C6  UNL     1     -20.421  12.481 -30.465  1.00  0.00     0.050 C 
HETATM   10  C5  UNL     1     -20.837  13.809 -29.831  1.00  0.00     0.034 C 
HETATM   11  C4  UNL     1     -19.649  14.764 -29.899  1.00  0.00     0.118 C 
HETATM   12  N1  UNL     1     -18.478  14.017 -30.193  1.00  0.00    -0.409 N 
HETATM   13  C21 UNL     1     -18.395  13.436 -31.483  1.00  0.00     0.118 C 
HETATM   14  C20 UNL     1     -19.766  12.809 -31.781  1.00  0.00     0.034 C 
BRANCH  12  15
HETATM   15  C3  UNL     1     -17.270  14.429 -29.574  1.00  0.00     0.143 C 
BRANCH  15  16
HETATM   16  C2  UNL     1     -17.575  15.577 -28.685  1.00  0.00    -0.018 C 
HETATM   17  C1  UNL     1     -16.743  16.037 -27.759  1.00  0.00     0.008 C 
ENDBRANCH  15  16
ENDBRANCH  12  15
ENDBRANCH   8   9
ENDBRANCH   7   8
ENDBRANCH   1   7
BRANCH   6  18
HETATM   18  O5  UNL     1     -23.306   7.995 -33.102  1.00  0.00    -0.392 OA
ATOM     19  H5  UNL     1     -23.440   7.611 -33.961  1.00  0.00     0.210 HD
ENDBRANCH   6  18
BRANCH   3  20
HETATM   20  C10 UNL     1     -23.716   6.872 -29.257  1.00  0.00     0.348 C 
BRANCH  20  21
HETATM   21  N2  UNL     1     -24.844   6.936 -30.108  1.00  0.00    -0.050 N 
ATOM     22  H23 UNL     1     -24.652   7.548 -30.901  1.00  0.00     0.277 HD
ATOM     23  H22 UNL     1     -24.969   6.048 -30.594  1.00  0.00     0.277 HD
ATOM     24  H21 UNL     1     -25.715   7.212 -29.654  1.00  0.00     0.277 HD
ENDBRANCH  20  21
BRANCH  20  25
HETATM   25  O2  UNL     1     -23.980   7.597 -28.095  1.00  0.00    -0.368 OA
ATOM     26  H2  UNL     1     -23.836   7.015 -27.358  1.00  0.00     0.212 HD
ENDBRANCH  20  25
ENDBRANCH   3  20
BRANCH   5  27
HETATM   27  C18 UNL     1     -20.821   5.734 -32.853  1.00  0.00     0.239 C 
BRANCH  27  28
HETATM   28  N3  UNL     1     -19.620   5.496 -32.100  1.00  0.00    -0.079 N 
ATOM     29  H33 UNL     1     -19.090   4.730 -32.515  1.00  0.00     0.274 HD
ATOM     30  H32 UNL     1     -18.960   6.262 -32.237  1.00  0.00     0.274 HD
ATOM     31  H31 UNL     1     -19.765   5.328 -31.105  1.00  0.00     0.274 HD
ENDBRANCH  27  28
ENDBRANCH   5  27
BRANCH   4  32
HETATM   32  O3  UNL     1     -22.098   5.102 -30.110  1.00  0.00    -0.312 OA
BRANCH  32  33
HETATM   33  C12 UNL     1     -21.352   4.312 -29.278  1.00  0.00     0.263 C 
HETATM   34  O4  UNL     1     -20.096   4.482 -29.195  1.00  0.00    -0.265 OA
BRANCH  33  35
HETATM   35  C13 UNL     1     -21.974   3.258 -28.468  1.00  0.00     0.081 C 
HETATM   36  C14 UNL     1     -23.445   3.173 -28.752  1.00  0.00     0.020 C 
BRANCH  35  37
HETATM   37  C15 UNL     1     -21.756   3.432 -26.978  1.00  0.00     0.010 C 
HETATM   38  C16 UNL     1     -22.440   4.679 -26.492  1.00  0.00     0.006 C 
ENDBRANCH  35  37
ENDBRANCH  33  35
ENDBRANCH  32  33
ENDBRANCH   4  32
TORSDOF 15
ENDMDL
MODEL 2
REMARK VINA RESULT: -5.894956574      0.850      1.430
REMARK  15 active torsions:
REMARK  status: ('A' for Active; 'I' for Inactive)
REMARK    1  A    between atoms: C2_2  and  C3_3 
REMARK    2  A    between atoms: C3_3  and  N1_4 
REMARK    3  A    between atoms: C6_7  and  S1_8 
REMARK    4  A    between atoms: S1_8  and  C7_9 
REMARK    5  A    between atoms: C7_9  and  C8_10 
REMARK    6  A    between atoms: C9_12  and  C10_13 
REMARK    7  A    between atoms: C10_13  and  N2_14 
REMARK    8  A    between atoms: C10_13  and  O2_18 
REMARK    9  A    between atoms: C11_20  and  O3_21 
REMARK   10  A    between atoms: O3_21  and  C12_22 
REMARK   11  A    between atoms: C12_22  and  C13_24 
REMARK   12  A    between atoms: C13_24  and  C15_26 
REMARK   13  A    between atoms: C17_28  and  C18_29 
REMARK   14  A    between atoms: C18_29  and  N3_30 
REMARK   15  A    between atoms: C19_34  and  O5_35 
ROOT
HETATM    1  C8  UNL     1     -21.681   8.747 -31.500  1.00  0.00     0.160 C 
HETATM    2  O1  UNL     1     -22.693   8.552 -30.559  1.00  0.00    -0.370 OA
HETATM    3  C9  UNL     1     -22.441   7.402 -29.847  1.00  0.00     0.208 C 
HETATM    4  C11 UNL     1     -21.686   6.349 -30.639  1.00  0.00     0.173 C 
HETATM    5  C17 UNL     1     -21.942   6.399 -32.090  1.00  0.00     0.074 C 
HETATM    6  C19 UNL     1     -22.025   7.820 -32.657  1.00  0.00     0.156 C 
ENDROOT
BRANCH   1   7
HETATM    7  C7  UNL     1     -21.604  10.186 -31.949  1.00  0.00     0.108 C 
BRANCH   7   8
HETATM    8  S1  UNL     1     -21.811  11.349 -30.608  1.00  0.00    -0.162 SA
BRANCH   8   9
HETATM    9  C6  UNL     1     -20.428  12.477 -30.459  1.00  0.00     0.050 C 
HETATM   10  C5  UNL     1     -20.853  13.805 -29.830  1.00  0.00     0.034 C 
HETATM   11  C4  UNL     1     -19.668  14.765 -29.895  1.00  0.00     0.118 C 
HETATM   12  N1  UNL     1     -18.493  14.023 -30.182  1.00  0.00    -0.409 N 
HETATM   13  C21 UNL     1     -18.402  13.439 -31.471  1.00  0.00     0.118 C 
HETATM   14  C20 UNL     1     -19.768  12.805 -31.773  1.00  0.00     0.034 C 
BRANCH  12  15
HETATM   15  C3  UNL     1     -17.290  14.442 -29.560  1.00  0.00     0.143 C 
BRANCH  15  16
HETATM   16  C2  UNL     1     -17.603  15.594 -28.678  1.00  0.00    -0.018 C 
HETATM   17  C1  UNL     1     -16.772  16.069 -27.759  1.00  0.00     0.008 C 
ENDBRANCH  15  16
ENDBRANCH  12  15
ENDBRANCH   8   9
ENDBRANCH   7   8
ENDBRANCH   1   7
BRANCH   6  18
HETATM   18  O5  UNL     1     -23.317   8.000 -33.099  1.00  0.00    -0.392 OA
ATOM     19  H5  UNL     1     -23.423   7.737 -34.006  1.00  0.00     0.210 HD
ENDBRANCH   6  18
BRANCH   3  20
HETATM   20  C10 UNL     1     -23.714   6.867 -29.256  1.00  0.00     0.348 C 
BRANCH  20  21
HETATM   21  N2  UNL     1     -24.845   6.932 -30.105  1.00  0.00    -0.050 N 
ATOM     22  H23 UNL     1     -24.895   7.846 -30.553  1.00  0.00     0.277 HD
ATOM     23  H22 UNL     1     -24.704   6.339 -30.923  1.00  0.00     0.277 HD
ATOM     24  H21 UNL     1     -25.734   6.710 -29.659  1.00  0.00     0.277 HD
ENDBRANCH  20  21
BRANCH  20  25
HETATM   25  O2  UNL     1     -23.974   7.597 -28.095  1.00  0.00    -0.368 OA
ATOM     26  H2  UNL     1     -24.385   7.007 -27.475  1.00  0.00     0.212 HD
ENDBRANCH  20  25
ENDBRANCH   3  20
BRANCH   5  27
HETATM   27  C18 UNL     1     -20.843   5.725 -32.868  1.00  0.00     0.239 C 
BRANCH  27  28
HETATM   28  N3  UNL     1     -19.623   5.522 -32.137  1.00  0.00    -0.079 N 
ATOM     29  H33 UNL     1     -18.982   6.299 -32.297  1.00  0.00     0.274 HD
ATOM     30  H32 UNL     1     -19.788   5.633 -31.136  1.00  0.00     0.274 HD
ATOM     31  H31 UNL     1     -19.155   4.635 -32.322  1.00  0.00     0.274 HD
ENDBRANCH  27  28
ENDBRANCH   5  27
BRANCH   4  32
HETATM   32  O3  UNL     1     -22.111   5.092 -30.121  1.00  0.00    -0.312 OA
BRANCH  32  33
HETATM   33  C12 UNL     1     -21.287   4.171 -29.531  1.00  0.00     0.263 C 
HETATM   34  O4  UNL     1     -20.136   4.517 -29.121  1.00  0.00    -0.265 OA
BRANCH  33  35
HETATM   35  C13 UNL     1     -21.705   2.775 -29.360  1.00  0.00     0.081 C 
HETATM   36  C14 UNL     1     -20.608   1.969 -28.727  1.00  0.00     0.020 C 
BRANCH  35  37
HETATM   37  C15 UNL     1     -22.140   2.111 -30.651  1.00  0.00     0.010 C 
HETATM   38  C16 UNL     1     -21.007   2.093 -31.638  1.00  0.00     0.006 C 
ENDBRANCH  35  37
ENDBRANCH  33  35
ENDBRANCH  32  33
ENDBRANCH   4  32
TORSDOF 15
ENDMDL
MODEL 3
REMARK VINA RESULT: -5.887471308      2.572      3.792
REMARK  15 active torsions:
REMARK  status: ('A' for Active; 'I' for Inactive)
REMARK    1  A    between atoms: C2_2  and  C3_3 
REMARK    2  A    between atoms: C3_3  and  N1_4 
REMARK    3  A    between atoms: C6_7  and  S1_8 
REMARK    4  A    between atoms: S1_8  and  C7_9 
REMARK    5  A    between atoms: C7_9  and  C8_10 
REMARK    6  A    between atoms: C9_12  and  C10_13 
REMARK    7  A    between atoms: C10_13  and  N2_14 
REMARK    8  A    between atoms: C10_13  and  O2_18 
REMARK    9  A    between atoms: C11_20  and  O3_21 
REMARK   10  A    between atoms: O3_21  and  C12_22 
REMARK   11  A    between atoms: C12_22  and  C13_24 
REMARK   12  A    between atoms: C13_24  and  C15_26 
REMARK   13  A    between atoms: C17_28  and  C18_29 
REMARK   14  A    between atoms: C18_29  and  N3_30 
REMARK   15  A    between atoms: C19_34  and  O5_35 
ROOT
HETATM    1  C8  UNL     1     -22.333   6.960 -30.996  1.00  0.00     0.160 C 
HETATM    2  O1  UNL     1     -21.154   6.418 -30.482  1.00  0.00    -0.370 OA
HETATM    3  C9  UNL     1     -20.899   5.212 -31.093  1.00  0.00     0.208 C 
HETATM    4  C11 UNL     1     -22.153   4.475 -31.531  1.00  0.00     0.173 C 
HETATM    5  C17 UNL     1     -23.334   4.761 -30.694  1.00  0.00     0.074 C 
HETATM    6  C19 UNL     1     -23.457   6.229 -30.276  1.00  0.00     0.156 C 
ENDROOT
BRANCH   1   7
HETATM    7  C7  UNL     1     -22.408   8.450 -30.770  1.00  0.00     0.108 C 
BRANCH   7   8
HETATM    8  S1  UNL     1     -21.752   9.399 -32.135  1.00  0.00    -0.162 SA
BRANCH   8   9
HETATM    9  C6  UNL     1     -20.847  10.847 -31.592  1.00  0.00     0.050 C 
HETATM   10  C5  UNL     1     -21.461  11.449 -30.326  1.00  0.00     0.034 C 
HETATM   11  C4  UNL     1     -20.747  12.763 -30.028  1.00  0.00     0.118 C 
HETATM   12  N1  UNL     1     -19.550  12.817 -30.790  1.00  0.00    -0.409 N 
HETATM   13  C21 UNL     1     -19.689  12.931 -32.196  1.00  0.00     0.118 C 
HETATM   14  C20 UNL     1     -20.791  11.947 -32.619  1.00  0.00     0.034 C 
BRANCH  12  15
HETATM   15  C3  UNL     1     -18.420  13.425 -30.186  1.00  0.00     0.143 C 
BRANCH  15  16
HETATM   16  C2  UNL     1     -18.823  14.769 -29.701  1.00  0.00    -0.018 C 
HETATM   17  C1  UNL     1     -18.066  15.532 -28.922  1.00  0.00     0.008 C 
ENDBRANCH  15  16
ENDBRANCH  12  15
ENDBRANCH   8   9
ENDBRANCH   7   8
ENDBRANCH   1   7
BRANCH   6  18
HETATM   18  O5  UNL     1     -23.309   6.270 -28.907  1.00  0.00    -0.392 OA
ATOM     19  H5  UNL     1     -24.085   5.961 -28.455  1.00  0.00     0.210 HD
ENDBRANCH   6  18
BRANCH   3  20
HETATM   20  C10 UNL     1     -20.014   4.365 -30.223  1.00  0.00     0.348 C 
BRANCH  20  21
HETATM   21  N2  UNL     1     -20.426   4.254 -28.874  1.00  0.00    -0.050 N 
ATOM     22  H23 UNL     1     -19.836   4.833 -28.278  1.00  0.00     0.277 HD
ATOM     23  H22 UNL     1     -21.325   4.719 -28.742  1.00  0.00     0.277 HD
ATOM     24  H21 UNL     1     -20.467   3.303 -28.510  1.00  0.00     0.277 HD
ENDBRANCH  20  21
BRANCH  20  25
HETATM   25  O2  UNL     1     -18.735   4.920 -30.265  1.00  0.00    -0.368 OA
ATOM     26  H2  UNL     1     -18.704   5.610 -29.613  1.00  0.00     0.212 HD
ENDBRANCH  20  25
ENDBRANCH   3  20
BRANCH   5  27
HETATM   27  C18 UNL     1     -24.615   4.446 -31.421  1.00  0.00     0.239 C 
BRANCH  27  28
HETATM   28  N3  UNL     1     -24.488   4.337 -32.848  1.00  0.00    -0.079 N 
ATOM     29  H33 UNL     1     -25.262   3.795 -33.231  1.00  0.00     0.274 HD
ATOM     30  H32 UNL     1     -24.669   5.240 -33.288  1.00  0.00     0.274 HD
ATOM     31  H31 UNL     1     -23.597   3.959 -33.171  1.00  0.00     0.274 HD
ENDBRANCH  27  28
ENDBRANCH   5  27
BRANCH   4  32
HETATM   32  O3  UNL     1     -21.838   3.088 -31.455  1.00  0.00    -0.312 OA
BRANCH  32  33
HETATM   33  C12 UNL     1     -21.560   2.290 -32.533  1.00  0.00     0.263 C 
HETATM   34  O4  UNL     1     -22.255   2.385 -33.591  1.00  0.00    -0.265 OA
BRANCH  33  35
HETATM   35  C13 UNL     1     -20.465   1.314 -32.495  1.00  0.00     0.081 C 
HETATM   36  C14 UNL     1     -20.386   0.661 -31.146  1.00  0.00     0.020 C 
BRANCH  35  37
HETATM   37  C15 UNL     1     -19.115   1.906 -32.850  1.00  0.00     0.010 C 
HETATM   38  C16 UNL     1     -18.093   1.537 -31.813  1.00  0.00     0.006 C 
ENDBRANCH  35  37
ENDBRANCH  33  35
ENDBRANCH  32  33
ENDBRANCH   4  32
TORSDOF 15
ENDMDL
MODEL 4
REMARK VINA RESULT: -5.850910580      2.065      3.461
REMARK  15 active torsions:
REMARK  status: ('A' for Active; 'I' for Inactive)
REMARK    1  A    between atoms: C2_2  and  C3_3 
REMARK    2  A    between atoms: C3_3  and  N1_4 
REMARK    3  A    between atoms: C6_7  and  S1_8 
REMARK    4  A    between atoms: S1_8  and  C7_9 
REMARK    5  A    between atoms: C7_9  and  C8_10 
REMARK    6  A    between atoms: C9_12  and  C10_13 
REMARK    7  A    between atoms: C10_13  and  N2_14 
REMARK    8  A    between atoms: C10_13  and  O2_18 
REMARK    9  A    between atoms: C11_20  and  O3_21 
REMARK   10  A    between atoms: O3_21  and  C12_22 
REMARK   11  A    between atoms: C12_22  and  C13_24 
REMARK   12  A    between atoms: C13_24  and  C15_26 
REMARK   13  A    between atoms: C17_28  and  C18_29 
REMARK   14  A    between atoms: C18_29  and  N3_30 
REMARK   15  A    between atoms: C19_34  and  O5_35 
ROOT
HETATM    1  C8  UNL     1     -22.725   7.673 -30.395  1.00  0.00     0.160 C 
HETATM    2  O1  UNL     1     -21.666   6.943 -29.852  1.00  0.00    -0.370 OA
HETATM    3  C9  UNL     1     -21.676   5.667 -30.366  1.00  0.00     0.208 C 
HETATM    4  C11 UNL     1     -23.064   5.169 -30.730  1.00  0.00     0.173 C 
HETATM    5  C17 UNL     1     -24.140   5.752 -29.907  1.00  0.00     0.074 C 
HETATM    6  C19 UNL     1     -23.954   7.243 -29.607  1.00  0.00     0.156 C 
ENDROOT
BRANCH   1   7
HETATM    7  C7  UNL     1     -22.492   9.160 -30.290  1.00  0.00     0.108 C 
BRANCH   7   8
HETATM    8  S1  UNL     1     -21.693   9.847 -31.733  1.00  0.00    -0.162 SA
BRANCH   8   9
HETATM    9  C6  UNL     1     -20.663  11.258 -31.340  1.00  0.00     0.050 C 
HETATM   10  C5  UNL     1     -21.246  12.073 -30.184  1.00  0.00     0.034 C 
HETATM   11  C4  UNL     1     -20.411  13.340 -30.024  1.00  0.00     0.118 C 
HETATM   12  N1  UNL     1     -19.196  13.181 -30.741  1.00  0.00    -0.409 N 
HETATM   13  C21 UNL     1     -19.286  13.128 -32.154  1.00  0.00     0.118 C 
HETATM   14  C20 UNL     1     -20.470  12.209 -32.493  1.00  0.00     0.034 C 
BRANCH  12  15
HETATM   15  C3  UNL     1     -18.026  13.749 -30.174  1.00  0.00     0.143 C 
BRANCH  15  16
HETATM   16  C2  UNL     1     -18.423  14.959 -29.411  1.00  0.00    -0.018 C 
HETATM   17  C1  UNL     1     -17.596  15.652 -28.640  1.00  0.00     0.008 C 
ENDBRANCH  15  16
ENDBRANCH  12  15
ENDBRANCH   8   9
ENDBRANCH   7   8
ENDBRANCH   1   7
BRANCH   6  18
HETATM   18  O5  UNL     1     -23.765   7.358 -28.248  1.00  0.00    -0.392 OA
ATOM     19  H5  UNL     1     -23.740   6.511 -27.818  1.00  0.00     0.210 HD
ENDBRANCH   6  18
BRANCH   3  20
HETATM   20  C10 UNL     1     -20.958   4.728 -29.440  1.00  0.00     0.348 C 
BRANCH  20  21
HETATM   21  N2  UNL     1     -21.256   4.893 -28.066  1.00  0.00    -0.050 N 
ATOM     22  H23 UNL     1     -21.033   5.843 -27.771  1.00  0.00     0.277 HD
ATOM     23  H22 UNL     1     -22.266   4.893 -27.923  1.00  0.00     0.277 HD
ATOM     24  H21 UNL     1     -20.813   4.219 -27.443  1.00  0.00     0.277 HD
ENDBRANCH  20  21
BRANCH  20  25
HETATM   25  O2  UNL     1     -19.590   4.915 -29.635  1.00  0.00    -0.368 OA
ATOM     26  H2  UNL     1     -19.206   4.061 -29.792  1.00  0.00     0.212 HD
ENDBRANCH  20  25
ENDBRANCH   3  20
BRANCH   5  27
HETATM   27  C18 UNL     1     -25.477   5.649 -30.593  1.00  0.00     0.239 C 
BRANCH  27  28
HETATM   28  N3  UNL     1     -25.413   5.498 -32.020  1.00  0.00    -0.079 N 
ATOM     29  H33 UNL     1     -26.339   5.621 -32.430  1.00  0.00     0.274 HD
ATOM     30  H32 UNL     1     -24.928   6.293 -32.438  1.00  0.00     0.274 HD
ATOM     31  H31 UNL     1     -24.998   4.623 -32.341  1.00  0.00     0.274 HD
ENDBRANCH  27  28
ENDBRANCH   5  27
BRANCH   4  32
HETATM   32  O3  UNL     1     -23.034   3.757 -30.546  1.00  0.00    -0.312 OA
BRANCH  32  33
HETATM   33  C12 UNL     1     -23.148   2.835 -31.552  1.00  0.00     0.263 C 
HETATM   34  O4  UNL     1     -24.264   2.661 -32.132  1.00  0.00    -0.265 OA
BRANCH  33  35
HETATM   35  C13 UNL     1     -21.998   2.032 -31.983  1.00  0.00     0.081 C 
HETATM   36  C14 UNL     1     -21.355   1.357 -30.807  1.00  0.00     0.020 C 
BRANCH  35  37
HETATM   37  C15 UNL     1     -20.955   2.828 -32.742  1.00  0.00     0.010 C 
HETATM   38  C16 UNL     1     -19.577   2.495 -32.243  1.00  0.00     0.006 C 
ENDBRANCH  35  37
ENDBRANCH  33  35
ENDBRANCH  32  33
ENDBRANCH   4  32
TORSDOF 15
ENDMDL
MODEL 5
REMARK VINA RESULT: -5.783631138      1.379      1.992
REMARK  15 active torsions:
REMARK  status: ('A' for Active; 'I' for Inactive)
REMARK    1  A    between atoms: C2_2  and  C3_3 
REMARK    2  A    between atoms: C3_3  and  N1_4 
REMARK    3  A    between atoms: C6_7  and  S1_8 
REMARK    4  A    between atoms: S1_8  and  C7_9 
REMARK    5  A    between atoms: C7_9  and  C8_10 
REMARK    6  A    between atoms: C9_12  and  C10_13 
REMARK    7  A    between atoms: C10_13  and  N2_14 
REMARK    8  A    between atoms: C10_13  and  O2_18 
REMARK    9  A    between atoms: C11_20  and  O3_21 
REMARK   10  A    between atoms: O3_21  and  C12_22 
REMARK   11  A    between atoms: C12_22  and  C13_24 
REMARK   12  A    between atoms: C13_24  and  C15_26 
REMARK   13  A    between atoms: C17_28  and  C18_29 
REMARK   14  A    between atoms: C18_29  and  N3_30 
REMARK   15  A    between atoms: C19_34  and  O5_35 
ROOT
HETATM    1  C8  UNL     1     -21.582   8.441 -31.808  1.00  0.00     0.160 C 
HETATM    2  O1  UNL     1     -22.465   8.178 -30.760  1.00  0.00    -0.370 OA
HETATM    3  C9  UNL     1     -22.083   7.023 -30.117  1.00  0.00     0.208 C 
HETATM    4  C11 UNL     1     -21.384   6.025 -31.023  1.00  0.00     0.173 C 
HETATM    5  C17 UNL     1     -21.813   6.099 -32.432  1.00  0.00     0.074 C 
HETATM    6  C19 UNL     1     -22.022   7.527 -32.943  1.00  0.00     0.156 C 
ENDROOT
BRANCH   1   7
HETATM    7  C7  UNL     1     -21.619   9.892 -32.220  1.00  0.00     0.108 C 
BRANCH   7   8
HETATM    8  S1  UNL     1     -21.845  11.006 -30.841  1.00  0.00    -0.162 SA
BRANCH   8   9
HETATM    9  C6  UNL     1     -20.503  12.180 -30.680  1.00  0.00     0.050 C 
HETATM   10  C5  UNL     1     -20.914  13.389 -29.837  1.00  0.00     0.034 C 
HETATM   11  C4  UNL     1     -19.785  14.414 -29.890  1.00  0.00     0.118 C 
HETATM   12  N1  UNL     1     -18.616  13.783 -30.392  1.00  0.00    -0.409 N 
HETATM   13  C21 UNL     1     -18.639  13.378 -31.750  1.00  0.00     0.118 C 
HETATM   14  C20 UNL     1     -20.002  12.714 -31.997  1.00  0.00     0.034 C 
BRANCH  12  15
HETATM   15  C3  UNL     1     -17.372  14.184 -29.842  1.00  0.00     0.143 C 
BRANCH  15  16
HETATM   16  C2  UNL     1     -17.626  15.284 -28.879  1.00  0.00    -0.018 C 
HETATM   17  C1  UNL     1     -16.709  15.770 -28.053  1.00  0.00     0.008 C 
ENDBRANCH  15  16
ENDBRANCH  12  15
ENDBRANCH   8   9
ENDBRANCH   7   8
ENDBRANCH   1   7
BRANCH   6  18
HETATM   18  O5  UNL     1     -23.363   7.660 -33.225  1.00  0.00    -0.392 OA
ATOM     19  H5  UNL     1     -23.881   6.968 -32.830  1.00  0.00     0.210 HD
ENDBRANCH   6  18
BRANCH   3  20
HETATM   20  C10 UNL     1     -23.254   6.418 -29.396  1.00  0.00     0.348 C 
BRANCH  20  21
HETATM   21  N2  UNL     1     -24.414   7.226 -29.350  1.00  0.00    -0.050 N 
ATOM     22  H23 UNL     1     -24.177   8.163 -29.024  1.00  0.00     0.277 HD
ATOM     23  H22 UNL     1     -24.731   7.440 -30.296  1.00  0.00     0.277 HD
ATOM     24  H21 UNL     1     -25.185   6.847 -28.800  1.00  0.00     0.277 HD
ENDBRANCH  20  21
BRANCH  20  25
HETATM   25  O2  UNL     1     -22.842   6.138 -28.093  1.00  0.00    -0.368 OA
ATOM     26  H2  UNL     1     -22.243   5.402 -28.137  1.00  0.00     0.212 HD
ENDBRANCH  20  25
ENDBRANCH   3  20
BRANCH   5  27
HETATM   27  C18 UNL     1     -20.787   5.493 -33.353  1.00  0.00     0.239 C 
BRANCH  27  28
HETATM   28  N3  UNL     1     -20.826   5.980 -34.705  1.00  0.00    -0.079 N 
ATOM     29  H33 UNL     1     -21.406   6.816 -34.761  1.00  0.00     0.274 HD
ATOM     30  H32 UNL     1     -19.922   6.374 -34.965  1.00  0.00     0.274 HD
ATOM     31  H31 UNL     1     -21.126   5.295 -35.398  1.00  0.00     0.274 HD
ENDBRANCH  27  28
ENDBRANCH   5  27
BRANCH   4  32
HETATM   32  O3  UNL     1     -21.692   4.738 -30.496  1.00  0.00    -0.312 OA
BRANCH  32  33
HETATM   33  C12 UNL     1     -20.792   3.911 -29.876  1.00  0.00     0.263 C 
HETATM   34  O4  UNL     1     -20.304   4.234 -28.750  1.00  0.00    -0.265 OA
BRANCH  33  35
HETATM   35  C13 UNL     1     -20.373   2.646 -30.489  1.00  0.00     0.081 C 
HETATM   36  C14 UNL     1     -20.244   1.573 -29.449  1.00  0.00     0.020 C 
BRANCH  35  37
HETATM   37  C15 UNL     1     -19.078   2.753 -31.270  1.00  0.00     0.010 C 
HETATM   38  C16 UNL     1     -19.249   2.178 -32.648  1.00  0.00     0.006 C 
ENDBRANCH  35  37
ENDBRANCH  33  35
ENDBRANCH  32  33
ENDBRANCH   4  32
TORSDOF 15
ENDMDL
