MODEL 1
REMARK VINA RESULT: -7.533194120      0.000      0.000
REMARK  6 active torsions:
REMARK  status: ('A' for Active; 'I' for Inactive)
REMARK    1  A    between atoms: C2_2  and  C3_3 
REMARK    2  A    between atoms: C9_11  and  N2_12 
REMARK    3  A    between atoms: C14_19  and  N4_20 
REMARK    4  A    between atoms: N4_20  and  C15_22 
REMARK    5  A    between atoms: C15_22  and  C16_23 
REMARK    6  A    between atoms: C16_23  and  O1_24 
ROOT
HETATM    1  C3  UNL     1      15.694   1.467  15.734  1.00  0.00    -0.019 C 
HETATM    2  C4  UNL     1      15.838   2.583  15.089  1.00  0.00    -0.046 C 
HETATM    3  C5  UNL     1      14.896   3.703  15.225  1.00  0.00     0.040 C 
HETATM    4  C6  UNL     1      15.450   5.040  14.798  1.00  0.00     0.011 C 
HETATM    5  C7  UNL     1      16.954   5.119  14.805  1.00  0.00     0.059 C 
HETATM    6  C8  UNL     1      17.560   4.015  14.024  1.00  0.00     0.041 A 
HETATM    7  N1  UNL     1      18.598   4.230  13.213  1.00  0.00    -0.194 N 
ATOM      8  H1  UNL     1      19.009   5.161  13.149  1.00  0.00     0.184 HD
HETATM    9  C9  UNL     1      19.114   3.207  12.467  1.00  0.00     0.682 A 
HETATM   10  N3  UNL     1      18.546   1.997  12.578  1.00  0.00    -0.176 N 
ATOM     11  H3  UNL     1      18.925   1.229  12.025  1.00  0.00     0.186 HD
HETATM   12  C14 UNL     1      17.483   1.748  13.401  1.00  0.00     0.129 A 
HETATM   13  C17 UNL     1      16.964   2.770  14.151  1.00  0.00     0.037 A 
ENDROOT
BRANCH  12  14
HETATM   14  N4  UNL     1      16.942   0.590  13.469  1.00  0.00    -0.373 N 
ATOM     15  H4  UNL     1      16.337   0.345  14.252  1.00  0.00     0.161 HD
BRANCH  14  16
HETATM   16  C15 UNL     1      17.204  -0.359  12.418  1.00  0.00     0.147 C 
BRANCH  16  17
HETATM   17  C16 UNL     1      16.361  -0.011  11.192  1.00  0.00     0.183 C 
BRANCH  17  18
HETATM   18  O1  UNL     1      17.174   0.425  10.150  1.00  0.00    -0.399 OA
ATOM     19  H1  UNL     1      17.338  -0.283   9.538  1.00  0.00     0.209 HD
ENDBRANCH  17  18
ENDBRANCH  16  17
ENDBRANCH  14  16
ENDBRANCH  12  14
BRANCH   9  20
HETATM   20  N2  UNL     1      20.223   3.455  11.607  1.00  0.00    -0.218 N 
HETATM   21  C10 UNL     1      21.140   4.584  11.799  1.00  0.00     0.141 C 
HETATM   22  C11 UNL     1      21.948   4.665  10.527  1.00  0.00     0.022 C 
HETATM   23  C12 UNL     1      21.964   3.247  10.058  1.00  0.00     0.022 C 
HETATM   24  C13 UNL     1      20.629   2.687  10.454  1.00  0.00     0.141 C 
ENDBRANCH   9  20
BRANCH   1  25
HETATM   25  C2  UNL     1      14.566   1.216  16.657  1.00  0.00     0.023 C 
HETATM   26  C1  UNL     1      15.067   1.480  18.084  1.00  0.00     0.009 C 
ENDBRANCH   1  25
TORSDOF 6
ENDMDL
MODEL 2
REMARK VINA RESULT: -7.002714576      1.573      5.997
REMARK  6 active torsions:
REMARK  status: ('A' for Active; 'I' for Inactive)
REMARK    1  A    between atoms: C2_2  and  C3_3 
REMARK    2  A    between atoms: C9_11  and  N2_12 
REMARK    3  A    between atoms: C14_19  and  N4_20 
REMARK    4  A    between atoms: N4_20  and  C15_22 
REMARK    5  A    between atoms: C15_22  and  C16_23 
REMARK    6  A    between atoms: C16_23  and  O1_24 
ROOT
HETATM    1  C3  UNL     1      19.288   2.797  10.401  1.00  0.00    -0.019 C 
HETATM    2  C4  UNL     1      19.397   3.289  11.596  1.00  0.00    -0.046 C 
HETATM    3  C5  UNL     1      20.448   4.249  11.963  1.00  0.00     0.040 C 
HETATM    4  C6  UNL     1      20.151   5.054  13.204  1.00  0.00     0.011 C 
HETATM    5  C7  UNL     1      18.690   5.136  13.556  1.00  0.00     0.059 C 
HETATM    6  C8  UNL     1      18.071   3.791  13.631  1.00  0.00     0.041 A 
HETATM    7  N1  UNL     1      17.212   3.477  14.602  1.00  0.00    -0.194 N 
ATOM      8  H1  UNL     1      16.945   4.181  15.290  1.00  0.00     0.184 HD
HETATM    9  C9  UNL     1      16.687   2.217  14.679  1.00  0.00     0.682 A 
HETATM   10  N3  UNL     1      17.063   1.321  13.755  1.00  0.00    -0.176 N 
ATOM     11  H3  UNL     1      16.677   0.378  13.805  1.00  0.00     0.186 HD
HETATM   12  C14 UNL     1      17.941   1.614  12.748  1.00  0.00     0.129 A 
HETATM   13  C17 UNL     1      18.467   2.876  12.667  1.00  0.00     0.037 A 
ENDROOT
BRANCH  12  14
HETATM   14  N4  UNL     1      18.305   0.733  11.895  1.00  0.00    -0.373 N 
ATOM     15  H4  UNL     1      19.205   0.809  11.421  1.00  0.00     0.161 HD
BRANCH  14  16
HETATM   16  C15 UNL     1      17.420  -0.369  11.617  1.00  0.00     0.147 C 
BRANCH  16  17
HETATM   17  C16 UNL     1      16.487   0.003  10.466  1.00  0.00     0.183 C 
BRANCH  17  18
HETATM   18  O1  UNL     1      15.592   0.991  10.865  1.00  0.00    -0.399 OA
ATOM     19  H1  UNL     1      15.002   1.213  10.153  1.00  0.00     0.209 HD
ENDBRANCH  17  18
ENDBRANCH  16  17
ENDBRANCH  14  16
ENDBRANCH  12  14
BRANCH   9  20
HETATM   20  N2  UNL     1      15.771   1.900  15.723  1.00  0.00    -0.218 N 
HETATM   21  C10 UNL     1      15.781   0.612  16.425  1.00  0.00     0.141 C 
HETATM   22  C11 UNL     1      14.487   0.568  17.200  1.00  0.00     0.022 C 
HETATM   23  C12 UNL     1      14.216   2.012  17.467  1.00  0.00     0.022 C 
HETATM   24  C13 UNL     1      14.722   2.737  16.255  1.00  0.00     0.141 C 
ENDBRANCH   9  20
BRANCH   1  25
HETATM   25  C2  UNL     1      20.213   3.149   9.302  1.00  0.00     0.023 C 
HETATM   26  C1  UNL     1      19.551   4.262   8.477  1.00  0.00     0.009 C 
ENDBRANCH   1  25
TORSDOF 6
ENDMDL
MODEL 3
REMARK VINA RESULT: -6.964627057      1.443      2.069
REMARK  6 active torsions:
REMARK  status: ('A' for Active; 'I' for Inactive)
REMARK    1  A    between atoms: C2_2  and  C3_3 
REMARK    2  A    between atoms: C9_11  and  N2_12 
REMARK    3  A    between atoms: C14_19  and  N4_20 
REMARK    4  A    between atoms: N4_20  and  C15_22 
REMARK    5  A    between atoms: C15_22  and  C16_23 
REMARK    6  A    between atoms: C16_23  and  O1_24 
ROOT
HETATM    1  C3  UNL     1      17.063   2.466  14.805  1.00  0.00    -0.019 C 
HETATM    2  C4  UNL     1      17.495   3.593  14.331  1.00  0.00    -0.046 C 
HETATM    3  C5  UNL     1      16.847   4.878  14.630  1.00  0.00     0.040 C 
HETATM    4  C6  UNL     1      17.722   6.086  14.404  1.00  0.00     0.011 C 
HETATM    5  C7  UNL     1      19.199   5.794  14.421  1.00  0.00     0.059 C 
HETATM    6  C8  UNL     1      19.548   4.699  13.486  1.00  0.00     0.041 A 
HETATM    7  N1  UNL     1      20.635   4.767  12.715  1.00  0.00    -0.194 N 
ATOM      8  H1  UNL     1      21.260   5.569  12.788  1.00  0.00     0.184 HD
HETATM    9  C9  UNL     1      20.915   3.766  11.826  1.00  0.00     0.682 A 
HETATM   10  N3  UNL     1      20.068   2.728  11.760  1.00  0.00    -0.176 N 
ATOM     11  H3  UNL     1      20.269   1.977  11.100  1.00  0.00     0.186 HD
HETATM   12  C14 UNL     1      18.948   2.631  12.538  1.00  0.00     0.129 A 
HETATM   13  C17 UNL     1      18.665   3.631  13.430  1.00  0.00     0.037 A 
ENDROOT
BRANCH  12  14
HETATM   14  N4  UNL     1      18.142   1.642  12.435  1.00  0.00    -0.373 N 
ATOM     15  H4  UNL     1      17.803   1.160  13.268  1.00  0.00     0.161 HD
BRANCH  14  16
HETATM   16  C15 UNL     1      17.721   1.225  11.123  1.00  0.00     0.147 C 
BRANCH  16  17
HETATM   17  C16 UNL     1      16.287   0.701  11.189  1.00  0.00     0.183 C 
BRANCH  17  18
HETATM   18  O1  UNL     1      15.382   1.758  11.206  1.00  0.00    -0.399 OA
ATOM     19  H1  UNL     1      15.538   2.317  11.959  1.00  0.00     0.209 HD
ENDBRANCH  17  18
ENDBRANCH  16  17
ENDBRANCH  14  16
ENDBRANCH  12  14
BRANCH   9  20
HETATM   20  N2  UNL     1      22.080   3.856  11.011  1.00  0.00    -0.218 N 
HETATM   21  C10 UNL     1      23.375   4.316  11.526  1.00  0.00     0.141 C 
HETATM   22  C11 UNL     1      24.226   4.562  10.304  1.00  0.00     0.022 C 
HETATM   23  C12 UNL     1      23.670   3.591   9.316  1.00  0.00     0.022 C 
HETATM   24  C13 UNL     1      22.199   3.529   9.611  1.00  0.00     0.141 C 
ENDBRANCH   9  20
BRANCH   1  25
HETATM   25  C2  UNL     1      15.876   2.368  15.682  1.00  0.00     0.023 C 
HETATM   26  C1  UNL     1      16.095   1.178  16.629  1.00  0.00     0.009 C 
ENDBRANCH   1  25
TORSDOF 6
ENDMDL
MODEL 4
REMARK VINA RESULT: -6.879001754      1.613      5.921
REMARK  6 active torsions:
REMARK  status: ('A' for Active; 'I' for Inactive)
REMARK    1  A    between atoms: C2_2  and  C3_3 
REMARK    2  A    between atoms: C9_11  and  N2_12 
REMARK    3  A    between atoms: C14_19  and  N4_20 
REMARK    4  A    between atoms: N4_20  and  C15_22 
REMARK    5  A    between atoms: C15_22  and  C16_23 
REMARK    6  A    between atoms: C16_23  and  O1_24 
ROOT
HETATM    1  C3  UNL     1      18.825   3.685  10.469  1.00  0.00    -0.019 C 
HETATM    2  C4  UNL     1      19.016   4.002  11.711  1.00  0.00    -0.046 C 
HETATM    3  C5  UNL     1      20.039   4.970  12.133  1.00  0.00     0.040 C 
HETATM    4  C6  UNL     1      19.813   5.560  13.503  1.00  0.00     0.011 C 
HETATM    5  C7  UNL     1      18.389   5.486  13.983  1.00  0.00     0.059 C 
HETATM    6  C8  UNL     1      17.858   4.105  13.902  1.00  0.00     0.041 A 
HETATM    7  N1  UNL     1      17.111   3.592  14.882  1.00  0.00    -0.194 N 
ATOM      8  H1  UNL     1      16.869   4.166  15.690  1.00  0.00     0.184 HD
HETATM    9  C9  UNL     1      16.669   2.300  14.809  1.00  0.00     0.682 A 
HETATM   10  N3  UNL     1      17.009   1.578  13.730  1.00  0.00    -0.176 N 
ATOM     11  H3  UNL     1      16.683   0.614  13.668  1.00  0.00     0.186 HD
HETATM   12  C14 UNL     1      17.771   2.078  12.711  1.00  0.00     0.129 A 
HETATM   13  C17 UNL     1      18.215   3.372  12.781  1.00  0.00     0.037 A 
ENDROOT
BRANCH  12  14
HETATM   14  N4  UNL     1      18.104   1.359  11.706  1.00  0.00    -0.373 N 
ATOM     15  H4  UNL     1      18.819   1.680  11.053  1.00  0.00     0.161 HD
BRANCH  14  16
HETATM   16  C15 UNL     1      17.451   0.090  11.515  1.00  0.00     0.147 C 
BRANCH  16  17
HETATM   17  C16 UNL     1      16.268   0.263  10.563  1.00  0.00     0.183 C 
BRANCH  17  18
HETATM   18  O1  UNL     1      15.431   1.281  11.007  1.00  0.00    -0.399 OA
ATOM     19  H1  UNL     1      15.350   1.258  11.954  1.00  0.00     0.209 HD
ENDBRANCH  17  18
ENDBRANCH  16  17
ENDBRANCH  14  16
ENDBRANCH  12  14
BRANCH   9  20
HETATM   20  N2  UNL     1      15.873   1.769  15.864  1.00  0.00    -0.218 N 
HETATM   21  C10 UNL     1      14.781   2.523  16.491  1.00  0.00     0.141 C 
HETATM   22  C11 UNL     1      14.424   1.749  17.737  1.00  0.00     0.022 C 
HETATM   23  C12 UNL     1      14.778   0.347  17.364  1.00  0.00     0.022 C 
HETATM   24  C13 UNL     1      15.983   0.468  16.478  1.00  0.00     0.141 C 
ENDBRANCH   9  20
BRANCH   1  25
HETATM   25  C2  UNL     1      19.622   4.259   9.363  1.00  0.00     0.023 C 
HETATM   26  C1  UNL     1      20.509   3.139   8.801  1.00  0.00     0.009 C 
ENDBRANCH   1  25
TORSDOF 6
ENDMDL
MODEL 5
REMARK VINA RESULT: -6.804635584      2.131      6.863
REMARK  6 active torsions:
REMARK  status: ('A' for Active; 'I' for Inactive)
REMARK    1  A    between atoms: C2_2  and  C3_3 
REMARK    2  A    between atoms: C9_11  and  N2_12 
REMARK    3  A    between atoms: C14_19  and  N4_20 
REMARK    4  A    between atoms: N4_20  and  C15_22 
REMARK    5  A    between atoms: C15_22  and  C16_23 
REMARK    6  A    between atoms: C16_23  and  O1_24 
ROOT
HETATM    1  C3  UNL     1      20.441   2.704  11.345  1.00  0.00    -0.019 C 
HETATM    2  C4  UNL     1      19.380   1.959  11.295  1.00  0.00    -0.046 C 
HETATM    3  C5  UNL     1      19.063   1.110  10.139  1.00  0.00     0.040 C 
HETATM    4  C6  UNL     1      18.092  -0.007  10.432  1.00  0.00     0.011 C 
HETATM    5  C7  UNL     1      18.012  -0.394  11.885  1.00  0.00     0.059 C 
HETATM    6  C8  UNL     1      17.750   0.783  12.747  1.00  0.00     0.041 A 
HETATM    7  N1  UNL     1      16.889   0.717  13.765  1.00  0.00    -0.194 N 
ATOM      8  H1  UNL     1      16.423  -0.164  13.979  1.00  0.00     0.184 HD
HETATM    9  C9  UNL     1      16.627   1.827  14.520  1.00  0.00     0.682 A 
HETATM   10  N3  UNL     1      17.259   2.967  14.205  1.00  0.00    -0.176 N 
ATOM     11  H3  UNL     1      17.070   3.799  14.763  1.00  0.00     0.186 HD
HETATM   12  C14 UNL     1      18.147   3.063  13.169  1.00  0.00     0.129 A 
HETATM   13  C17 UNL     1      18.413   1.953  12.412  1.00  0.00     0.037 A 
ENDROOT
BRANCH  12  14
HETATM   14  N4  UNL     1      18.717   4.170  12.873  1.00  0.00    -0.373 N 
ATOM     15  H4  UNL     1      18.771   4.483  11.904  1.00  0.00     0.161 HD
BRANCH  14  16
HETATM   16  C15 UNL     1      19.280   4.965  13.933  1.00  0.00     0.147 C 
BRANCH  16  17
HETATM   17  C16 UNL     1      18.445   6.230  14.122  1.00  0.00     0.183 C 
BRANCH  17  18
HETATM   18  O1  UNL     1      17.376   5.985  14.979  1.00  0.00    -0.399 OA
ATOM     19  H1  UNL     1      17.689   5.697  15.828  1.00  0.00     0.209 HD
ENDBRANCH  17  18
ENDBRANCH  16  17
ENDBRANCH  14  16
ENDBRANCH  12  14
BRANCH   9  20
HETATM   20  N2  UNL     1      15.705   1.738  15.602  1.00  0.00    -0.218 N 
HETATM   21  C10 UNL     1      15.542   0.523  16.409  1.00  0.00     0.141 C 
HETATM   22  C11 UNL     1      14.280   0.738  17.208  1.00  0.00     0.022 C 
HETATM   23  C12 UNL     1      14.237   2.224  17.358  1.00  0.00     0.022 C 
HETATM   24  C13 UNL     1      14.810   2.764  16.080  1.00  0.00     0.141 C 
ENDBRANCH   9  20
BRANCH   1  25
HETATM   25  C2  UNL     1      21.423   2.774  10.241  1.00  0.00     0.023 C 
HETATM   26  C1  UNL     1      22.538   3.738  10.672  1.00  0.00     0.009 C 
ENDBRANCH   1  25
TORSDOF 6
ENDMDL
