MODEL 1
REMARK VINA RESULT: -7.082432782      0.000      0.000
REMARK  6 active torsions:
REMARK  status: ('A' for Active; 'I' for Inactive)
REMARK    1  A    between atoms: C2_2  and  C3_4 
REMARK    2  A    between atoms: C3_4  and  N1_5 
REMARK    3  A    between atoms: C6_8  and  C7_9 
REMARK    4  A    between atoms: C6_8  and  C8_12 
REMARK    5  A    between atoms: C7_9  and  O2_10 
REMARK    6  A    between atoms: C8_12  and  O3_13 
ROOT
HETATM    1  N1  UNL     1      15.959   2.306  15.015  1.00  0.00    -0.401 N 
HETATM    2  C4  UNL     1      16.561   1.068  14.681  1.00  0.00     0.118 C 
HETATM    3  C5  UNL     1      17.398   1.043  13.436  1.00  0.00     0.034 C 
HETATM    4  C6  UNL     1      17.289   2.248  12.580  1.00  0.00     0.017 C 
HETATM    5  C13 UNL     1      17.482   3.543  13.307  1.00  0.00     0.001 C 
HETATM    6  C14 UNL     1      16.245   4.339  13.558  1.00  0.00     0.007 C 
HETATM    7  C15 UNL     1      16.262   4.661  15.062  1.00  0.00     0.025 C 
HETATM    8  C16 UNL     1      16.815   3.314  15.536  1.00  0.00     0.080 C 
HETATM    9  C17 UNL     1      18.108   3.348  14.696  1.00  0.00     0.030 C 
ENDROOT
BRANCH   4  10
HETATM   10  C7  UNL     1      15.929   2.173  11.880  1.00  0.00     0.177 C 
BRANCH  10  11
HETATM   11  O2  UNL     1      15.731   0.975  11.239  1.00  0.00    -0.400 OA
ATOM     12  H2  UNL     1      16.259   0.889  10.454  1.00  0.00     0.209 HD
ENDBRANCH  10  11
ENDBRANCH   4  10
BRANCH   4  13
HETATM   13  C8  UNL     1      18.317   2.198  11.481  1.00  0.00     0.068 C 
HETATM   14  C9  UNL     1      19.442   3.193  11.629  1.00  0.00     0.038 C 
HETATM   15  C10 UNL     1      20.442   2.679  10.601  1.00  0.00     0.003 C 
HETATM   16  C11 UNL     1      20.106   1.255  10.327  1.00  0.00     0.003 C 
HETATM   17  C12 UNL     1      19.056   0.905  11.364  1.00  0.00     0.038 C 
BRANCH  13  18
HETATM   18  O3  UNL     1      17.740   2.485  10.233  1.00  0.00    -0.389 OA
ATOM     19  H3  UNL     1      18.382   2.847   9.634  1.00  0.00     0.210 HD
ENDBRANCH  13  18
ENDBRANCH   4  13
BRANCH   1  20
HETATM   20  C3  UNL     1      14.721   2.211  15.714  1.00  0.00     0.195 C 
BRANCH  20  21
HETATM   21  C2  UNL     1      14.683   1.211  16.798  1.00  0.00     0.140 C 
HETATM   22  C1  UNL     1      15.079   1.592  18.168  1.00  0.00     0.092 C 
HETATM   23  O1  UNL     1      14.328   0.087  16.558  1.00  0.00    -0.297 OA
ENDBRANCH  20  21
ENDBRANCH   1  20
TORSDOF 6
ENDMDL
MODEL 2
REMARK VINA RESULT: -6.962452634      1.560      5.481
REMARK  6 active torsions:
REMARK  status: ('A' for Active; 'I' for Inactive)
REMARK    1  A    between atoms: C2_2  and  C3_4 
REMARK    2  A    between atoms: C3_4  and  N1_5 
REMARK    3  A    between atoms: C6_8  and  C7_9 
REMARK    4  A    between atoms: C6_8  and  C8_12 
REMARK    5  A    between atoms: C7_9  and  O2_10 
REMARK    6  A    between atoms: C8_12  and  O3_13 
ROOT
HETATM    1  N1  UNL     1      17.929   3.495  12.637  1.00  0.00    -0.401 N 
HETATM    2  C4  UNL     1      16.609   3.076  12.338  1.00  0.00     0.118 C 
HETATM    3  C5  UNL     1      15.859   2.384  13.438  1.00  0.00     0.034 C 
HETATM    4  C6  UNL     1      16.677   2.005  14.615  1.00  0.00     0.017 C 
HETATM    5  C13 UNL     1      17.507   3.118  15.176  1.00  0.00     0.001 C 
HETATM    6  C14 UNL     1      18.970   3.048  14.886  1.00  0.00     0.007 C 
HETATM    7  C15 UNL     1      19.339   4.425  14.306  1.00  0.00     0.025 C 
HETATM    8  C16 UNL     1      18.065   4.630  13.481  1.00  0.00     0.080 C 
HETATM    9  C17 UNL     1      17.071   4.495  14.654  1.00  0.00     0.030 C 
ENDROOT
BRANCH   4  10
HETATM   10  C7  UNL     1      17.526   0.802  14.197  1.00  0.00     0.177 C 
BRANCH  10  11
HETATM   11  O2  UNL     1      16.895   0.007  13.271  1.00  0.00    -0.400 OA
ATOM     12  H2  UNL     1      17.388  -0.779  13.068  1.00  0.00     0.209 HD
ENDBRANCH  10  11
ENDBRANCH   4  10
BRANCH   4  13
HETATM   13  C8  UNL     1      15.788   1.512  15.726  1.00  0.00     0.068 C 
HETATM   14  C9  UNL     1      16.408   1.574  17.100  1.00  0.00     0.038 C 
HETATM   15  C10 UNL     1      15.196   1.344  17.994  1.00  0.00     0.003 C 
HETATM   16  C11 UNL     1      13.984   1.663  17.190  1.00  0.00     0.003 C 
HETATM   17  C12 UNL     1      14.524   2.285  15.917  1.00  0.00     0.038 C 
BRANCH  13  18
HETATM   18  O3  UNL     1      15.449   0.161  15.542  1.00  0.00    -0.389 OA
ATOM     19  H3  UNL     1      15.865  -0.389  16.195  1.00  0.00     0.210 HD
ENDBRANCH  13  18
ENDBRANCH   4  13
BRANCH   1  20
HETATM   20  C3  UNL     1      18.825   3.514  11.530  1.00  0.00     0.195 C 
BRANCH  20  21
HETATM   21  C2  UNL     1      19.694   2.328  11.399  1.00  0.00     0.140 C 
HETATM   22  C1  UNL     1      19.199   1.123  10.706  1.00  0.00     0.092 C 
HETATM   23  O1  UNL     1      20.804   2.352  11.862  1.00  0.00    -0.297 OA
ENDBRANCH  20  21
ENDBRANCH   1  20
TORSDOF 6
ENDMDL
MODEL 3
REMARK VINA RESULT: -6.770490862      2.543      4.474
REMARK  6 active torsions:
REMARK  status: ('A' for Active; 'I' for Inactive)
REMARK    1  A    between atoms: C2_2  and  C3_4 
REMARK    2  A    between atoms: C3_4  and  N1_5 
REMARK    3  A    between atoms: C6_8  and  C7_9 
REMARK    4  A    between atoms: C6_8  and  C8_12 
REMARK    5  A    between atoms: C7_9  and  O2_10 
REMARK    6  A    between atoms: C8_12  and  O3_13 
ROOT
HETATM    1  N1  UNL     1      17.360   2.119  13.378  1.00  0.00    -0.401 N 
HETATM    2  C4  UNL     1      18.461   2.497  12.572  1.00  0.00     0.118 C 
HETATM    3  C5  UNL     1      18.861   3.943  12.617  1.00  0.00     0.034 C 
HETATM    4  C6  UNL     1      17.902   4.839  13.305  1.00  0.00     0.017 C 
HETATM    5  C13 UNL     1      17.487   4.375  14.666  1.00  0.00     0.001 C 
HETATM    6  C14 UNL     1      16.111   3.806  14.769  1.00  0.00     0.007 C 
HETATM    7  C15 UNL     1      16.281   2.446  15.468  1.00  0.00     0.025 C 
HETATM    8  C16 UNL     1      17.587   2.042  14.779  1.00  0.00     0.080 C 
HETATM    9  C17 UNL     1      18.406   3.274  15.215  1.00  0.00     0.030 C 
ENDROOT
BRANCH   4  10
HETATM   10  C7  UNL     1      16.707   5.016  12.364  1.00  0.00     0.177 C 
BRANCH  10  11
HETATM   11  O2  UNL     1      17.045   4.842  11.043  1.00  0.00    -0.400 OA
ATOM     12  H2  UNL     1      17.894   5.212  10.832  1.00  0.00     0.209 HD
ENDBRANCH  10  11
ENDBRANCH   4  10
BRANCH   4  13
HETATM   13  C8  UNL     1      18.500   6.212  13.466  1.00  0.00     0.068 C 
HETATM   14  C9  UNL     1      18.260   6.846  14.814  1.00  0.00     0.038 C 
HETATM   15  C10 UNL     1      19.235   8.016  14.780  1.00  0.00     0.003 C 
HETATM   16  C11 UNL     1      20.260   7.711  13.745  1.00  0.00     0.003 C 
HETATM   17  C12 UNL     1      19.989   6.271  13.353  1.00  0.00     0.038 C 
BRANCH  13  18
HETATM   18  O3  UNL     1      17.956   7.115  12.538  1.00  0.00    -0.389 OA
ATOM     19  H3  UNL     1      17.013   7.177  12.632  1.00  0.00     0.210 HD
ENDBRANCH  13  18
ENDBRANCH   4  13
BRANCH   1  20
HETATM   20  C3  UNL     1      16.587   1.031  12.879  1.00  0.00     0.195 C 
BRANCH  20  21
HETATM   21  C2  UNL     1      16.198   1.131  11.459  1.00  0.00     0.140 C 
HETATM   22  C1  UNL     1      16.555   0.050  10.519  1.00  0.00     0.092 C 
HETATM   23  O1  UNL     1      15.592   2.096  11.075  1.00  0.00    -0.297 OA
ENDBRANCH  20  21
ENDBRANCH   1  20
TORSDOF 6
ENDMDL
MODEL 4
REMARK VINA RESULT: -6.393329256      2.344      3.704
REMARK  6 active torsions:
REMARK  status: ('A' for Active; 'I' for Inactive)
REMARK    1  A    between atoms: C2_2  and  C3_4 
REMARK    2  A    between atoms: C3_4  and  N1_5 
REMARK    3  A    between atoms: C6_8  and  C7_9 
REMARK    4  A    between atoms: C6_8  and  C8_12 
REMARK    5  A    between atoms: C7_9  and  O2_10 
REMARK    6  A    between atoms: C8_12  and  O3_13 
ROOT
HETATM    1  N1  UNL     1      16.952   1.012  13.320  1.00  0.00    -0.401 N 
HETATM    2  C4  UNL     1      16.364   2.274  13.581  1.00  0.00     0.118 C 
HETATM    3  C5  UNL     1      16.844   3.424  12.745  1.00  0.00     0.034 C 
HETATM    4  C6  UNL     1      18.047   3.147  11.925  1.00  0.00     0.017 C 
HETATM    5  C13 UNL     1      17.957   1.906  11.093  1.00  0.00     0.001 C 
HETATM    6  C14 UNL     1      18.749   0.738  11.577  1.00  0.00     0.007 C 
HETATM    7  C15 UNL     1      17.759  -0.439  11.622  1.00  0.00     0.025 C 
HETATM    8  C16 UNL     1      16.550   0.351  12.128  1.00  0.00     0.080 C 
HETATM    9  C17 UNL     1      16.518   1.380  10.979  1.00  0.00     0.030 C 
ENDROOT
BRANCH   4  10
HETATM   10  C7  UNL     1      19.240   3.116  12.885  1.00  0.00     0.177 C 
BRANCH  10  11
HETATM   11  O2  UNL     1      18.956   3.691  14.099  1.00  0.00    -0.400 OA
ATOM     12  H2  UNL     1      18.431   3.128  14.656  1.00  0.00     0.209 HD
ENDBRANCH  10  11
ENDBRANCH   4  10
BRANCH   4  13
HETATM   13  C8  UNL     1      18.309   4.294  10.985  1.00  0.00     0.068 C 
HETATM   14  C9  UNL     1      19.105   3.929   9.757  1.00  0.00     0.038 C 
HETATM   15  C10 UNL     1      18.911   5.165   8.888  1.00  0.00     0.003 C 
HETATM   16  C11 UNL     1      17.701   5.874   9.387  1.00  0.00     0.003 C 
HETATM   17  C12 UNL     1      17.088   4.919  10.394  1.00  0.00     0.038 C 
BRANCH  13  18
HETATM   18  O3  UNL     1      19.055   5.305  11.614  1.00  0.00    -0.389 OA
ATOM     19  H3  UNL     1      18.489   5.991  11.947  1.00  0.00     0.210 HD
ENDBRANCH  13  18
ENDBRANCH   4  13
BRANCH   1  20
HETATM   20  C3  UNL     1      17.035   0.137  14.440  1.00  0.00     0.195 C 
BRANCH  20  21
HETATM   21  C2  UNL     1      17.231   0.797  15.746  1.00  0.00     0.140 C 
HETATM   22  C1  UNL     1      16.112   0.885  16.704  1.00  0.00     0.092 C 
HETATM   23  O1  UNL     1      18.306   1.262  16.020  1.00  0.00    -0.297 OA
ENDBRANCH  20  21
ENDBRANCH   1  20
TORSDOF 6
ENDMDL
MODEL 5
REMARK VINA RESULT: -6.315618740      2.129      3.607
REMARK  6 active torsions:
REMARK  status: ('A' for Active; 'I' for Inactive)
REMARK    1  A    between atoms: C2_2  and  C3_4 
REMARK    2  A    between atoms: C3_4  and  N1_5 
REMARK    3  A    between atoms: C6_8  and  C7_9 
REMARK    4  A    between atoms: C6_8  and  C8_12 
REMARK    5  A    between atoms: C7_9  and  O2_10 
REMARK    6  A    between atoms: C8_12  and  O3_13 
ROOT
HETATM    1  N1  UNL     1      16.998   0.931  13.193  1.00  0.00    -0.401 N 
HETATM    2  C4  UNL     1      16.417   2.220  13.272  1.00  0.00     0.118 C 
HETATM    3  C5  UNL     1      16.900   3.235  12.277  1.00  0.00     0.034 C 
HETATM    4  C6  UNL     1      18.098   2.835  11.501  1.00  0.00     0.017 C 
HETATM    5  C13 UNL     1      17.996   1.487  10.856  1.00  0.00     0.001 C 
HETATM    6  C14 UNL     1      18.784   0.396  11.501  1.00  0.00     0.007 C 
HETATM    7  C15 UNL     1      17.788  -0.756  11.719  1.00  0.00     0.025 C 
HETATM    8  C16 UNL     1      16.586   0.107  12.111  1.00  0.00     0.080 C 
HETATM    9  C17 UNL     1      16.554   0.960  10.826  1.00  0.00     0.030 C 
ENDROOT
BRANCH   4  10
HETATM   10  C7  UNL     1      19.295   2.935  12.450  1.00  0.00     0.177 C 
BRANCH  10  11
HETATM   11  O2  UNL     1      18.978   3.551  13.636  1.00  0.00    -0.400 OA
ATOM     12  H2  UNL     1      19.680   4.105  13.958  1.00  0.00     0.209 HD
ENDBRANCH  10  11
ENDBRANCH   4  10
BRANCH   4  13
HETATM   13  C8  UNL     1      18.362   3.833  10.404  1.00  0.00     0.068 C 
HETATM   14  C9  UNL     1      18.501   5.259  10.875  1.00  0.00     0.038 C 
HETATM   15  C10 UNL     1      19.076   5.935   9.637  1.00  0.00     0.003 C 
HETATM   16  C11 UNL     1      19.677   4.870   8.787  1.00  0.00     0.003 C 
HETATM   17  C12 UNL     1      19.635   3.625   9.652  1.00  0.00     0.038 C 
BRANCH  13  18
HETATM   18  O3  UNL     1      17.307   3.858   9.476  1.00  0.00    -0.389 OA
ATOM     19  H3  UNL     1      17.368   3.130   8.869  1.00  0.00     0.210 HD
ENDBRANCH  13  18
ENDBRANCH   4  13
BRANCH   1  20
HETATM   20  C3  UNL     1      17.081   0.225  14.428  1.00  0.00     0.195 C 
BRANCH  20  21
HETATM   21  C2  UNL     1      17.344   1.060  15.616  1.00  0.00     0.140 C 
HETATM   22  C1  UNL     1      16.268   1.310  16.596  1.00  0.00     0.092 C 
HETATM   23  O1  UNL     1      18.437   1.535  15.779  1.00  0.00    -0.297 OA
ENDBRANCH  20  21
ENDBRANCH   1  20
TORSDOF 6
ENDMDL
