MODEL 1
REMARK VINA RESULT: -6.872120371      0.000      0.000
REMARK  8 active torsions:
REMARK  status: ('A' for Active; 'I' for Inactive)
REMARK    1  A    between atoms: C2_2  and  C4_4 
REMARK    2  A    between atoms: C4_4  and  C5_5 
REMARK    3  A    between atoms: C5_5  and  C6_6 
REMARK    4  A    between atoms: C5_5  and  N2_13 
REMARK    5  A    between atoms: C6_6  and  O1_7 
REMARK    6  A    between atoms: N1_9  and  O2_11 
REMARK    7  A    between atoms: N2_13  and  C8_15 
REMARK    8  A    between atoms: C8_15  and  N3_17 
ROOT
HETATM    1  C5  UNL     1      16.924   2.736  14.947  1.00  0.00     0.163 C 
ENDROOT
BRANCH   1   2
HETATM    2  C4  UNL     1      15.540   2.946  14.490  1.00  0.00     0.037 C 
BRANCH   2   3
HETATM    3  C2  UNL     1      14.670   3.864  15.246  1.00  0.00    -0.020 C 
HETATM    4  C1  UNL     1      15.134   5.270  15.458  1.00  0.00     0.009 C 
HETATM    5  C3  UNL     1      14.390   3.312  16.666  1.00  0.00     0.009 C 
ENDBRANCH   2   3
ENDBRANCH   1   2
BRANCH   1   6
HETATM    6  C6  UNL     1      17.244   1.394  15.391  1.00  0.00     0.159 C 
HETATM    7  N1  UNL     1      16.523   0.338  15.095  1.00  0.00    -0.249 N 
ATOM      8  H1  UNL     1      15.691   0.470  14.520  1.00  0.00     0.196 HD
BRANCH   6   9
HETATM    9  O1  UNL     1      18.362   1.123  16.186  1.00  0.00    -0.347 OA
ATOM     10  H1  UNL     1      18.368   0.419  16.822  1.00  0.00     0.219 HD
ENDBRANCH   6   9
BRANCH   7  11
HETATM   11  O2  UNL     1      16.821  -0.921  15.510  1.00  0.00    -0.288 OA
ATOM     12  H2  UNL     1      16.907  -1.664  14.926  1.00  0.00     0.244 HD
ENDBRANCH   7  11
ENDBRANCH   1   6
BRANCH   1  13
HETATM   13  N2  UNL     1      17.901   3.236  13.956  1.00  0.00    -0.350 N 
HETATM   14  C7  UNL     1      19.041   3.905  14.508  1.00  0.00     0.153 C 
BRANCH  13  15
HETATM   15  C8  UNL     1      17.710   3.066  12.589  1.00  0.00     0.172 C 
HETATM   16  S1  UNL     1      17.106   4.452  11.830  1.00  0.00    -0.041 SA
BRANCH  15  17
HETATM   17  N3  UNL     1      17.937   1.954  11.773  1.00  0.00    -0.357 N 
HETATM   18  C9  UNL     1      19.187   1.424  11.362  1.00  0.00     0.132 C 
HETATM   19  C10 UNL     1      19.065   0.067  10.693  1.00  0.00     0.098 C 
HETATM   20  C11 UNL     1      18.017  -0.774  11.260  1.00  0.00     0.130 C 
HETATM   21  O3  UNL     1      18.065  -1.987  11.221  1.00  0.00    -0.298 OA
HETATM   22  C12 UNL     1      16.832  -0.150  11.919  1.00  0.00     0.098 C 
HETATM   23  C13 UNL     1      16.737   1.237  11.268  1.00  0.00     0.132 C 
ENDBRANCH  15  17
ENDBRANCH  13  15
ENDBRANCH   1  13
TORSDOF 8
ENDMDL
MODEL 2
REMARK VINA RESULT: -6.803741651      2.452      5.354
REMARK  8 active torsions:
REMARK  status: ('A' for Active; 'I' for Inactive)
REMARK    1  A    between atoms: C2_2  and  C4_4 
REMARK    2  A    between atoms: C4_4  and  C5_5 
REMARK    3  A    between atoms: C5_5  and  C6_6 
REMARK    4  A    between atoms: C5_5  and  N2_13 
REMARK    5  A    between atoms: C6_6  and  O1_7 
REMARK    6  A    between atoms: N1_9  and  O2_11 
REMARK    7  A    between atoms: N2_13  and  C8_15 
REMARK    8  A    between atoms: C8_15  and  N3_17 
ROOT
HETATM    1  C5  UNL     1      17.807   2.437  12.184  1.00  0.00     0.163 C 
ENDROOT
BRANCH   1   2
HETATM    2  C4  UNL     1      16.892   1.314  12.451  1.00  0.00     0.037 C 
BRANCH   2   3
HETATM    3  C2  UNL     1      17.165   0.007  11.829  1.00  0.00    -0.020 C 
HETATM    4  C1  UNL     1      18.563  -0.297  11.396  1.00  0.00     0.009 C 
HETATM    5  C3  UNL     1      16.297  -0.191  10.562  1.00  0.00     0.009 C 
ENDBRANCH   2   3
ENDBRANCH   1   2
BRANCH   1   6
HETATM    6  C6  UNL     1      17.533   3.200  10.983  1.00  0.00     0.159 C 
HETATM    7  N1  UNL     1      18.457   3.569  10.127  1.00  0.00    -0.249 N 
ATOM      8  H1  UNL     1      19.423   3.303  10.319  1.00  0.00     0.196 HD
BRANCH   6   9
HETATM    9  O1  UNL     1      16.239   3.610  10.645  1.00  0.00    -0.347 OA
ATOM     10  H1  UNL     1      15.802   4.321  11.098  1.00  0.00     0.219 HD
ENDBRANCH   6   9
BRANCH   7  11
HETATM   11  O2  UNL     1      18.202   4.284   9.002  1.00  0.00    -0.288 OA
ATOM     12  H2  UNL     1      18.828   4.872   8.596  1.00  0.00     0.244 HD
ENDBRANCH   7  11
ENDBRANCH   1   6
BRANCH   1  13
HETATM   13  N2  UNL     1      17.953   3.308  13.370  1.00  0.00    -0.350 N 
HETATM   14  C7  UNL     1      19.243   3.906  13.531  1.00  0.00     0.153 C 
BRANCH  13  15
HETATM   15  C8  UNL     1      16.903   3.518  14.258  1.00  0.00     0.172 C 
HETATM   16  S1  UNL     1      16.041   4.938  13.936  1.00  0.00    -0.041 SA
BRANCH  15  17
HETATM   17  N3  UNL     1      16.466   2.752  15.342  1.00  0.00    -0.357 N 
HETATM   18  C9  UNL     1      15.152   2.675  15.872  1.00  0.00     0.132 C 
HETATM   19  C10 UNL     1      14.987   1.556  16.884  1.00  0.00     0.098 C 
HETATM   20  C11 UNL     1      15.767   0.363  16.573  1.00  0.00     0.130 C 
HETATM   21  O3  UNL     1      15.432  -0.745  16.938  1.00  0.00    -0.298 OA
HETATM   22  C12 UNL     1      17.025   0.480  15.778  1.00  0.00     0.098 C 
HETATM   23  C13 UNL     1      17.488   1.920  16.031  1.00  0.00     0.132 C 
ENDBRANCH  15  17
ENDBRANCH  13  15
ENDBRANCH   1  13
TORSDOF 8
ENDMDL
MODEL 3
REMARK VINA RESULT: -6.789903039      2.722      5.862
REMARK  8 active torsions:
REMARK  status: ('A' for Active; 'I' for Inactive)
REMARK    1  A    between atoms: C2_2  and  C4_4 
REMARK    2  A    between atoms: C4_4  and  C5_5 
REMARK    3  A    between atoms: C5_5  and  C6_6 
REMARK    4  A    between atoms: C5_5  and  N2_13 
REMARK    5  A    between atoms: C6_6  and  O1_7 
REMARK    6  A    between atoms: N1_9  and  O2_11 
REMARK    7  A    between atoms: N2_13  and  C8_15 
REMARK    8  A    between atoms: C8_15  and  N3_17 
ROOT
HETATM    1  C5  UNL     1      18.056   2.464  11.869  1.00  0.00     0.163 C 
ENDROOT
BRANCH   1   2
HETATM    2  C4  UNL     1      18.913   1.568  11.074  1.00  0.00     0.037 C 
BRANCH   2   3
HETATM    3  C2  UNL     1      20.259   2.026  10.686  1.00  0.00    -0.020 C 
HETATM    4  C1  UNL     1      20.973   2.979  11.588  1.00  0.00     0.009 C 
HETATM    5  C3  UNL     1      20.224   2.724   9.304  1.00  0.00     0.009 C 
ENDBRANCH   2   3
ENDBRANCH   1   2
BRANCH   1   6
HETATM    6  C6  UNL     1      16.948   3.069  11.157  1.00  0.00     0.159 C 
HETATM    7  N1  UNL     1      16.908   4.334  10.809  1.00  0.00    -0.249 N 
ATOM      8  H1  UNL     1      17.704   4.924  11.054  1.00  0.00     0.196 HD
BRANCH   6   9
HETATM    9  O1  UNL     1      15.816   2.335  10.786  1.00  0.00    -0.347 OA
ATOM     10  H1  UNL     1      15.437   2.399   9.918  1.00  0.00     0.219 HD
ENDBRANCH   6   9
BRANCH   7  11
HETATM   11  O2  UNL     1      15.871   4.902  10.143  1.00  0.00    -0.288 OA
ATOM     12  H2  UNL     1      15.530   5.767  10.335  1.00  0.00     0.244 HD
ENDBRANCH   7  11
ENDBRANCH   1   6
BRANCH   1  13
HETATM   13  N2  UNL     1      17.618   1.819  13.125  1.00  0.00    -0.350 N 
HETATM   14  C7  UNL     1      17.371   0.412  13.033  1.00  0.00     0.153 C 
BRANCH  13  15
HETATM   15  C8  UNL     1      17.458   2.542  14.302  1.00  0.00     0.172 C 
HETATM   16  S1  UNL     1      18.584   3.795  14.465  1.00  0.00    -0.041 SA
BRANCH  15  17
HETATM   17  N3  UNL     1      16.532   2.395  15.338  1.00  0.00    -0.357 N 
HETATM   18  C9  UNL     1      15.268   3.026  15.465  1.00  0.00     0.132 C 
HETATM   19  C10 UNL     1      14.423   2.441  16.581  1.00  0.00     0.098 C 
HETATM   20  C11 UNL     1      14.589   1.002  16.751  1.00  0.00     0.130 C 
HETATM   21  O3  UNL     1      13.713   0.297  17.211  1.00  0.00    -0.298 OA
HETATM   22  C12 UNL     1      15.869   0.345  16.353  1.00  0.00     0.098 C 
HETATM   23  C13 UNL     1      16.905   1.473  16.444  1.00  0.00     0.132 C 
ENDBRANCH  15  17
ENDBRANCH  13  15
ENDBRANCH   1  13
TORSDOF 8
ENDMDL
MODEL 4
REMARK VINA RESULT: -6.706220126      1.542      2.075
REMARK  8 active torsions:
REMARK  status: ('A' for Active; 'I' for Inactive)
REMARK    1  A    between atoms: C2_2  and  C4_4 
REMARK    2  A    between atoms: C4_4  and  C5_5 
REMARK    3  A    between atoms: C5_5  and  C6_6 
REMARK    4  A    between atoms: C5_5  and  N2_13 
REMARK    5  A    between atoms: C6_6  and  O1_7 
REMARK    6  A    between atoms: N1_9  and  O2_11 
REMARK    7  A    between atoms: N2_13  and  C8_15 
REMARK    8  A    between atoms: C8_15  and  N3_17 
ROOT
HETATM    1  C5  UNL     1      16.306   2.630  15.693  1.00  0.00     0.163 C 
ENDROOT
BRANCH   1   2
HETATM    2  C4  UNL     1      14.855   2.664  15.943  1.00  0.00     0.037 C 
BRANCH   2   3
HETATM    3  C2  UNL     1      14.336   2.108  17.205  1.00  0.00    -0.020 C 
HETATM    4  C1  UNL     1      15.301   1.837  18.314  1.00  0.00     0.009 C 
HETATM    5  C3  UNL     1      13.616   0.759  16.957  1.00  0.00     0.009 C 
ENDBRANCH   2   3
ENDBRANCH   1   2
BRANCH   1   6
HETATM    6  C6  UNL     1      16.874   1.318  15.459  1.00  0.00     0.159 C 
HETATM    7  N1  UNL     1      16.317   0.408  14.695  1.00  0.00    -0.249 N 
ATOM      8  H1  UNL     1      15.434   0.639  14.239  1.00  0.00     0.196 HD
BRANCH   6   9
HETATM    9  O1  UNL     1      18.079   0.917  16.046  1.00  0.00    -0.347 OA
ATOM     10  H1  UNL     1      18.580   0.181  15.714  1.00  0.00     0.219 HD
ENDBRANCH   6   9
BRANCH   7  11
HETATM   11  O2  UNL     1      16.848  -0.822  14.474  1.00  0.00    -0.288 OA
ATOM     12  H2  UNL     1      16.759  -1.552  15.076  1.00  0.00     0.244 HD
ENDBRANCH   7  11
ENDBRANCH   1   6
BRANCH   1  13
HETATM   13  N2  UNL     1      16.694   3.595  14.642  1.00  0.00    -0.350 N 
HETATM   14  C7  UNL     1      15.868   4.760  14.548  1.00  0.00     0.153 C 
BRANCH  13  15
HETATM   15  C8  UNL     1      17.785   3.369  13.807  1.00  0.00     0.172 C 
HETATM   16  S1  UNL     1      19.213   4.068  14.385  1.00  0.00    -0.041 SA
BRANCH  15  17
HETATM   17  N3  UNL     1      17.873   2.670  12.600  1.00  0.00    -0.357 N 
HETATM   18  C9  UNL     1      18.822   1.678  12.244  1.00  0.00     0.132 C 
HETATM   19  C10 UNL     1      18.466   0.953  10.958  1.00  0.00     0.098 C 
HETATM   20  C11 UNL     1      17.033   0.754  10.774  1.00  0.00     0.130 C 
HETATM   21  O3  UNL     1      16.584  -0.166  10.121  1.00  0.00    -0.298 OA
HETATM   22  C12 UNL     1      16.062   1.699  11.398  1.00  0.00     0.098 C 
HETATM   23  C13 UNL     1      16.863   2.998  11.560  1.00  0.00     0.132 C 
ENDBRANCH  15  17
ENDBRANCH  13  15
ENDBRANCH   1  13
TORSDOF 8
ENDMDL
MODEL 5
REMARK VINA RESULT: -6.609164736      2.846      5.747
REMARK  8 active torsions:
REMARK  status: ('A' for Active; 'I' for Inactive)
REMARK    1  A    between atoms: C2_2  and  C4_4 
REMARK    2  A    between atoms: C4_4  and  C5_5 
REMARK    3  A    between atoms: C5_5  and  C6_6 
REMARK    4  A    between atoms: C5_5  and  N2_13 
REMARK    5  A    between atoms: C6_6  and  O1_7 
REMARK    6  A    between atoms: N1_9  and  O2_11 
REMARK    7  A    between atoms: N2_13  and  C8_15 
REMARK    8  A    between atoms: C8_15  and  N3_17 
ROOT
HETATM    1  C5  UNL     1      17.213   1.184  12.611  1.00  0.00     0.163 C 
ENDROOT
BRANCH   1   2
HETATM    2  C4  UNL     1      17.112  -0.258  12.331  1.00  0.00     0.037 C 
BRANCH   2   3
HETATM    3  C2  UNL     1      17.987  -0.848  11.304  1.00  0.00    -0.020 C 
HETATM    4  C1  UNL     1      18.377  -2.285  11.441  1.00  0.00     0.009 C 
HETATM    5  C3  UNL     1      19.325  -0.074  11.210  1.00  0.00     0.009 C 
ENDBRANCH   2   3
ENDBRANCH   1   2
BRANCH   1   6
HETATM    6  C6  UNL     1      16.497   2.054  11.700  1.00  0.00     0.159 C 
HETATM    7  N1  UNL     1      16.990   3.173  11.221  1.00  0.00    -0.249 N 
ATOM      8  H1  UNL     1      17.931   3.445  11.508  1.00  0.00     0.196 HD
BRANCH   6   9
HETATM    9  O1  UNL     1      15.203   1.761  11.258  1.00  0.00    -0.347 OA
ATOM     10  H1  UNL     1      15.033   1.425  10.386  1.00  0.00     0.219 HD
ENDBRANCH   6   9
BRANCH   7  11
HETATM   11  O2  UNL     1      16.321   3.989  10.367  1.00  0.00    -0.288 OA
ATOM     12  H2  UNL     1      16.093   4.889  10.565  1.00  0.00     0.244 HD
ENDBRANCH   7  11
ENDBRANCH   1   6
BRANCH   1  13
HETATM   13  N2  UNL     1      16.893   1.484  14.023  1.00  0.00    -0.350 N 
HETATM   14  C7  UNL     1      16.797   0.342  14.881  1.00  0.00     0.153 C 
BRANCH  13  15
HETATM   15  C8  UNL     1      16.697   2.787  14.470  1.00  0.00     0.172 C 
HETATM   16  S1  UNL     1      15.147   3.042  15.100  1.00  0.00    -0.041 SA
BRANCH  15  17
HETATM   17  N3  UNL     1      17.564   3.883  14.477  1.00  0.00    -0.357 N 
HETATM   18  C9  UNL     1      18.973   3.872  14.310  1.00  0.00     0.132 C 
HETATM   19  C10 UNL     1      19.558   5.259  14.118  1.00  0.00     0.098 C 
HETATM   20  C11 UNL     1      18.697   6.159  13.360  1.00  0.00     0.130 C 
HETATM   21  O3  UNL     1      19.137   7.084  12.708  1.00  0.00    -0.298 OA
HETATM   22  C12 UNL     1      17.218   5.960  13.367  1.00  0.00     0.098 C 
HETATM   23  C13 UNL     1      16.951   5.221  14.684  1.00  0.00     0.132 C 
ENDBRANCH  15  17
ENDBRANCH  13  15
ENDBRANCH   1  13
TORSDOF 8
ENDMDL
