MODEL 1
REMARK VINA RESULT: -7.029712299      0.000      0.000
REMARK  5 active torsions:
REMARK  status: ('A' for Active; 'I' for Inactive)
REMARK    1  A    between atoms: C2_2  and  C4_4 
REMARK    2  A    between atoms: C5_7  and  N2_8 
REMARK    3  A    between atoms: N2_8  and  C6_10 
REMARK    4  A    between atoms: C6_10  and  C7_11 
REMARK    5  A    between atoms: C10_14  and  N3_15 
ROOT
HETATM    1  C4  UNL     1      16.463   2.548  15.297  1.00  0.00     0.104 A 
HETATM    2  N1  UNL     1      16.880   1.886  14.191  1.00  0.00    -0.180 N 
ATOM      3  H1  UNL     1      17.119   2.407  13.348  1.00  0.00     0.185 HD
HETATM    4  C5  UNL     1      16.981   0.552  14.200  1.00  0.00     0.683 A 
HETATM    5  N4  UNL     1      16.659  -0.123  15.328  1.00  0.00    -0.141 N 
ATOM      6  H4  UNL     1      16.736  -1.141  15.336  1.00  0.00     0.189 HD
HETATM    7  C15 UNL     1      16.239   0.513  16.448  1.00  0.00     0.339 A 
HETATM    8  O1  UNL     1      15.939  -0.094  17.495  1.00  0.00    -0.246 OA
HETATM    9  N5  UNL     1      16.146   1.861  16.414  1.00  0.00    -0.297 N 
ATOM     10  H5  UNL     1      15.833   2.365  17.243  1.00  0.00     0.172 HD
ENDROOT
BRANCH   4  11
HETATM   11  N2  UNL     1      17.369  -0.135  13.184  1.00  0.00    -0.225 N 
ATOM     12  H2  UNL     1      18.214  -0.699  13.283  1.00  0.00     0.177 HD
BRANCH  11  13
HETATM   13  C6  UNL     1      16.690  -0.158  11.924  1.00  0.00     0.142 C 
BRANCH  13  14
HETATM   14  C7  UNL     1      17.488   0.606  10.852  1.00  0.00     0.004 C 
HETATM   15  C8  UNL     1      17.053   2.017  10.868  1.00  0.00     0.008 C 
HETATM   16  C9  UNL     1      18.120   3.044  10.720  1.00  0.00     0.036 C 
HETATM   17  C10 UNL     1      19.252   2.672  11.652  1.00  0.00     0.222 C 
HETATM   18  C13 UNL     1      19.868   1.434  11.096  1.00  0.00     0.036 C 
HETATM   19  C14 UNL     1      18.927   0.313  10.930  1.00  0.00     0.008 C 
BRANCH  17  20
HETATM   20  N3  UNL     1      20.163   3.734  11.891  1.00  0.00     0.084 N 
HETATM   21  C11 UNL     1      21.454   3.373  11.355  1.00  0.00     0.309 C 
HETATM   22  C12 UNL     1      19.711   5.022  11.447  1.00  0.00     0.309 C 
ENDBRANCH  17  20
ENDBRANCH  13  14
ENDBRANCH  11  13
ENDBRANCH   4  11
BRANCH   1  23
HETATM   23  C2  UNL     1      16.352   4.017  15.287  1.00  0.00     0.046 C 
HETATM   24  C1  UNL     1      17.372   4.665  14.377  1.00  0.00     0.017 C 
HETATM   25  C3  UNL     1      14.956   4.429  14.887  1.00  0.00     0.017 C 
ENDBRANCH   1  23
TORSDOF 5
ENDMDL
MODEL 2
REMARK VINA RESULT: -7.006403375      1.796      3.686
REMARK  5 active torsions:
REMARK  status: ('A' for Active; 'I' for Inactive)
REMARK    1  A    between atoms: C2_2  and  C4_4 
REMARK    2  A    between atoms: C5_7  and  N2_8 
REMARK    3  A    between atoms: N2_8  and  C6_10 
REMARK    4  A    between atoms: C6_10  and  C7_11 
REMARK    5  A    between atoms: C10_14  and  N3_15 
ROOT
HETATM    1  C4  UNL     1      15.720   1.650  16.356  1.00  0.00     0.104 A 
HETATM    2  N1  UNL     1      16.653   2.603  16.119  1.00  0.00    -0.180 N 
ATOM      3  H1  UNL     1      16.592   3.502  16.597  1.00  0.00     0.185 HD
HETATM    4  C5  UNL     1      17.653   2.372  15.261  1.00  0.00     0.683 A 
HETATM    5  N4  UNL     1      17.717   1.173  14.636  1.00  0.00    -0.141 N 
ATOM      6  H4  UNL     1      18.480   0.996  13.982  1.00  0.00     0.189 HD
HETATM    7  C15 UNL     1      16.798   0.202  14.854  1.00  0.00     0.339 A 
HETATM    8  O1  UNL     1      16.843  -0.907  14.286  1.00  0.00    -0.246 OA
HETATM    9  N5  UNL     1      15.798   0.460  15.725  1.00  0.00    -0.297 N 
ATOM     10  H5  UNL     1      15.093  -0.254  15.908  1.00  0.00     0.172 HD
ENDROOT
BRANCH   4  11
HETATM   11  N2  UNL     1      18.569   3.235  14.993  1.00  0.00    -0.225 N 
ATOM     12  H2  UNL     1      19.534   2.992  15.216  1.00  0.00     0.177 HD
BRANCH  11  13
HETATM   13  C6  UNL     1      18.316   4.513  14.400  1.00  0.00     0.142 C 
BRANCH  13  14
HETATM   14  C7  UNL     1      18.363   4.429  12.864  1.00  0.00     0.004 C 
HETATM   15  C8  UNL     1      19.488   3.552  12.481  1.00  0.00     0.008 C 
HETATM   16  C9  UNL     1      19.244   2.607  11.358  1.00  0.00     0.036 C 
HETATM   17  C10 UNL     1      17.910   1.935  11.601  1.00  0.00     0.222 C 
HETATM   18  C13 UNL     1      16.868   2.985  11.420  1.00  0.00     0.036 C 
HETATM   19  C14 UNL     1      17.037   4.161  12.290  1.00  0.00     0.008 C 
BRANCH  17  20
HETATM   20  N3  UNL     1      17.716   0.763  10.825  1.00  0.00     0.084 N 
HETATM   21  C11 UNL     1      18.702  -0.220  11.208  1.00  0.00     0.309 C 
HETATM   22  C12 UNL     1      16.376   0.249  10.841  1.00  0.00     0.309 C 
ENDBRANCH  17  20
ENDBRANCH  13  14
ENDBRANCH  11  13
ENDBRANCH   4  11
BRANCH   1  23
HETATM   23  C2  UNL     1      14.618   1.905  17.300  1.00  0.00     0.046 C 
HETATM   24  C1  UNL     1      13.462   0.949  17.108  1.00  0.00     0.017 C 
HETATM   25  C3  UNL     1      15.125   1.836  18.720  1.00  0.00     0.017 C 
ENDBRANCH   1  23
TORSDOF 5
ENDMDL
MODEL 3
REMARK VINA RESULT: -6.998630283      2.630      6.387
REMARK  5 active torsions:
REMARK  status: ('A' for Active; 'I' for Inactive)
REMARK    1  A    between atoms: C2_2  and  C4_4 
REMARK    2  A    between atoms: C5_7  and  N2_8 
REMARK    3  A    between atoms: N2_8  and  C6_10 
REMARK    4  A    between atoms: C6_10  and  C7_11 
REMARK    5  A    between atoms: C10_14  and  N3_15 
ROOT
HETATM    1  C4  UNL     1      18.447   0.980  10.881  1.00  0.00     0.104 A 
HETATM    2  N1  UNL     1      17.903   1.932  11.677  1.00  0.00    -0.180 N 
ATOM      3  H1  UNL     1      16.965   1.801  12.056  1.00  0.00     0.185 HD
HETATM    4  C5  UNL     1      18.588   3.043  11.967  1.00  0.00     0.683 A 
HETATM    5  N4  UNL     1      19.831   3.201  11.454  1.00  0.00    -0.141 N 
ATOM      6  H4  UNL     1      20.355   4.048  11.675  1.00  0.00     0.189 HD
HETATM    7  C15 UNL     1      20.399   2.265  10.655  1.00  0.00     0.339 A 
HETATM    8  O1  UNL     1      21.543   2.395  10.176  1.00  0.00    -0.246 OA
HETATM    9  N5  UNL     1      19.687   1.152  10.378  1.00  0.00    -0.297 N 
ATOM     10  H5  UNL     1      20.091   0.431   9.779  1.00  0.00     0.172 HD
ENDROOT
BRANCH   4  11
HETATM   11  N2  UNL     1      18.129   3.984  12.714  1.00  0.00    -0.225 N 
ATOM     12  H2  UNL     1      18.772   4.717  13.010  1.00  0.00     0.177 HD
BRANCH  11  13
HETATM   13  C6  UNL     1      16.769   4.064  13.157  1.00  0.00     0.142 C 
BRANCH  13  14
HETATM   14  C7  UNL     1      16.680   3.968  14.690  1.00  0.00     0.004 C 
HETATM   15  C8  UNL     1      15.253   3.978  15.073  1.00  0.00     0.008 C 
HETATM   16  C9  UNL     1      14.849   3.046  16.161  1.00  0.00     0.036 C 
HETATM   17  C10 UNL     1      15.464   1.696  15.865  1.00  0.00     0.222 C 
HETATM   18  C13 UNL     1      16.935   1.851  16.053  1.00  0.00     0.036 C 
HETATM   19  C14 UNL     1      17.543   2.904  15.223  1.00  0.00     0.008 C 
BRANCH  17  20
HETATM   20  N3  UNL     1      14.879   0.633  16.600  1.00  0.00     0.084 N 
HETATM   21  C11 UNL     1      15.725   0.323  17.729  1.00  0.00     0.309 C 
HETATM   22  C12 UNL     1      13.507   0.842  16.967  1.00  0.00     0.309 C 
ENDBRANCH  17  20
ENDBRANCH  13  14
ENDBRANCH  11  13
ENDBRANCH   4  11
BRANCH   1  23
HETATM   23  C2  UNL     1      17.692  -0.243  10.561  1.00  0.00     0.046 C 
HETATM   24  C1  UNL     1      18.220  -1.456  11.296  1.00  0.00     0.017 C 
HETATM   25  C3  UNL     1      16.227  -0.044  10.866  1.00  0.00     0.017 C 
ENDBRANCH   1  23
TORSDOF 5
ENDMDL
MODEL 4
REMARK VINA RESULT: -6.937387046      1.861      2.809
REMARK  5 active torsions:
REMARK  status: ('A' for Active; 'I' for Inactive)
REMARK    1  A    between atoms: C2_2  and  C4_4 
REMARK    2  A    between atoms: C5_7  and  N2_8 
REMARK    3  A    between atoms: N2_8  and  C6_10 
REMARK    4  A    between atoms: C6_10  and  C7_11 
REMARK    5  A    between atoms: C10_14  and  N3_15 
ROOT
HETATM    1  C4  UNL     1      15.239   1.899  16.090  1.00  0.00     0.104 A 
HETATM    2  N1  UNL     1      16.216   1.316  15.355  1.00  0.00    -0.180 N 
ATOM      3  H1  UNL     1      16.569   0.396  15.618  1.00  0.00     0.185 HD
HETATM    4  C5  UNL     1      16.719   1.940  14.284  1.00  0.00     0.683 A 
HETATM    5  N4  UNL     1      16.239   3.160  13.949  1.00  0.00    -0.141 N 
ATOM      6  H4  UNL     1      16.622   3.637  13.133  1.00  0.00     0.189 HD
HETATM    7  C15 UNL     1      15.263   3.767  14.668  1.00  0.00     0.339 A 
HETATM    8  O1  UNL     1      14.809   4.890  14.372  1.00  0.00    -0.246 OA
HETATM    9  N5  UNL     1      14.771   3.115  15.744  1.00  0.00    -0.297 N 
ATOM     10  H5  UNL     1      14.035   3.549  16.302  1.00  0.00     0.172 HD
ENDROOT
BRANCH   4  11
HETATM   11  N2  UNL     1      17.647   1.442  13.545  1.00  0.00    -0.225 N 
ATOM     12  H2  UNL     1      18.610   1.714  13.738  1.00  0.00     0.177 HD
BRANCH  11  13
HETATM   13  C6  UNL     1      17.409   0.528  12.468  1.00  0.00     0.142 C 
BRANCH  13  14
HETATM   14  C7  UNL     1      18.087   1.011  11.174  1.00  0.00     0.004 C 
HETATM   15  C8  UNL     1      17.679   2.409  10.931  1.00  0.00     0.008 C 
HETATM   16  C9  UNL     1      18.736   3.337  10.445  1.00  0.00     0.036 C 
HETATM   17  C10 UNL     1      19.965   3.127  11.302  1.00  0.00     0.222 C 
HETATM   18  C13 UNL     1      20.491   1.774  10.963  1.00  0.00     0.036 C 
HETATM   19  C14 UNL     1      19.520   0.683  11.151  1.00  0.00     0.008 C 
BRANCH  17  20
HETATM   20  N3  UNL     1      20.914   4.177  11.201  1.00  0.00     0.084 N 
HETATM   21  C11 UNL     1      20.799   5.025  12.364  1.00  0.00     0.309 C 
HETATM   22  C12 UNL     1      22.260   3.746  10.952  1.00  0.00     0.309 C 
ENDBRANCH  17  20
ENDBRANCH  13  14
ENDBRANCH  11  13
ENDBRANCH   4  11
BRANCH   1  23
HETATM   23  C2  UNL     1      14.686   1.211  17.270  1.00  0.00     0.046 C 
HETATM   24  C1  UNL     1      15.312  -0.148  17.490  1.00  0.00     0.017 C 
HETATM   25  C3  UNL     1      14.854   2.071  18.499  1.00  0.00     0.017 C 
ENDBRANCH   1  23
TORSDOF 5
ENDMDL
MODEL 5
REMARK VINA RESULT: -6.823813151      1.756      3.589
REMARK  5 active torsions:
REMARK  status: ('A' for Active; 'I' for Inactive)
REMARK    1  A    between atoms: C2_2  and  C4_4 
REMARK    2  A    between atoms: C5_7  and  N2_8 
REMARK    3  A    between atoms: N2_8  and  C6_10 
REMARK    4  A    between atoms: C6_10  and  C7_11 
REMARK    5  A    between atoms: C10_14  and  N3_15 
ROOT
HETATM    1  C4  UNL     1      16.007   1.037  16.342  1.00  0.00     0.104 A 
HETATM    2  N1  UNL     1      16.733   2.179  16.273  1.00  0.00    -0.180 N 
ATOM      3  H1  UNL     1      16.654   2.876  17.013  1.00  0.00     0.185 HD
HETATM    4  C5  UNL     1      17.552   2.398  15.238  1.00  0.00     0.683 A 
HETATM    5  N4  UNL     1      17.643   1.462  14.264  1.00  0.00    -0.141 N 
ATOM      6  H4  UNL     1      18.268   1.627  13.474  1.00  0.00     0.189 HD
HETATM    7  C15 UNL     1      16.928   0.311  14.308  1.00  0.00     0.339 A 
HETATM    8  O1  UNL     1      17.002  -0.561  13.420  1.00  0.00    -0.246 OA
HETATM    9  N5  UNL     1      16.109   0.114  15.364  1.00  0.00    -0.297 N 
ATOM     10  H5  UNL     1      15.561  -0.744  15.422  1.00  0.00     0.172 HD
ENDROOT
BRANCH   4  11
HETATM   11  N2  UNL     1      18.266   3.460  15.112  1.00  0.00    -0.225 N 
ATOM     12  H2  UNL     1      19.256   3.402  15.353  1.00  0.00     0.177 HD
BRANCH  11  13
HETATM   13  C6  UNL     1      17.758   4.718  14.655  1.00  0.00     0.142 C 
BRANCH  13  14
HETATM   14  C7  UNL     1      18.376   5.104  13.300  1.00  0.00     0.004 C 
HETATM   15  C8  UNL     1      19.834   4.879  13.373  1.00  0.00     0.008 C 
HETATM   16  C9  UNL     1      20.477   4.279  12.173  1.00  0.00     0.036 C 
HETATM   17  C10 UNL     1      19.629   3.106  11.731  1.00  0.00     0.222 C 
HETATM   18  C13 UNL     1      18.355   3.678  11.209  1.00  0.00     0.036 C 
HETATM   19  C14 UNL     1      17.632   4.523  12.174  1.00  0.00     0.008 C 
BRANCH  17  20
HETATM   20  N3  UNL     1      20.296   2.227  10.840  1.00  0.00     0.084 N 
HETATM   21  C11 UNL     1      19.701   0.916  10.943  1.00  0.00     0.309 C 
HETATM   22  C12 UNL     1      20.384   2.698   9.487  1.00  0.00     0.309 C 
ENDBRANCH  17  20
ENDBRANCH  13  14
ENDBRANCH  11  13
ENDBRANCH   4  11
BRANCH   1  23
HETATM   23  C2  UNL     1      15.105   0.797  17.482  1.00  0.00     0.046 C 
HETATM   24  C1  UNL     1      15.222   1.869  18.544  1.00  0.00     0.017 C 
HETATM   25  C3  UNL     1      13.678   0.690  17.001  1.00  0.00     0.017 C 
ENDBRANCH   1  23
TORSDOF 5
ENDMDL
