MODEL 1
REMARK VINA RESULT: -7.260754572      0.000      0.000
REMARK  5 active torsions:
REMARK  status: ('A' for Active; 'I' for Inactive)
REMARK    1  A    between atoms: C2_2  and  N1_3 
REMARK    2  A    between atoms: N2_6  and  C5_7 
REMARK    3  A    between atoms: C5_7  and  C6_8 
REMARK    4  A    between atoms: C7_10  and  N3_11 
REMARK    5  A    between atoms: C8_16  and  C9_17 
ROOT
HETATM    1  C6  UNL     1      17.495   3.630  12.584  1.00  0.00     0.117 A 
HETATM    2  O1  UNL     1      17.043   4.742  12.123  1.00  0.00    -0.276 OA
HETATM    3  C7  UNL     1      17.106   4.706  10.828  1.00  0.00     0.222 A 
HETATM    4  N4  UNL     1      17.573   3.533  10.418  1.00  0.00    -0.323 N 
ATOM      5  H4  UNL     1      17.701   3.248   9.447  1.00  0.00     0.169 HD
HETATM    6  C8  UNL     1      17.847   2.795  11.482  1.00  0.00     0.052 A 
ENDROOT
BRANCH   1   7
HETATM    7  C5  UNL     1      17.709   3.191  13.957  1.00  0.00     0.129 C 
BRANCH   7   8
HETATM    8  N2  UNL     1      16.838   2.388  14.642  1.00  0.00    -0.364 N 
HETATM    9  C4  UNL     1      17.510   1.659  15.679  1.00  0.00     0.158 C 
HETATM   10  C3  UNL     1      16.661   0.444  15.995  1.00  0.00     0.293 C 
HETATM   11  N1  UNL     1      15.365   0.853  16.404  1.00  0.00     0.094 N 
HETATM   12  C17 UNL     1      14.951   2.182  16.138  1.00  0.00     0.317 C 
HETATM   13  C16 UNL     1      15.523   2.767  14.872  1.00  0.00     0.093 C 
BRANCH  11  14
HETATM   14  C2  UNL     1      15.275   0.688  17.851  1.00  0.00     0.268 C 
HETATM   15  C1  UNL     1      14.879   1.922  18.585  1.00  0.00     0.037 C 
ENDBRANCH  11  14
ENDBRANCH   7   8
ENDBRANCH   1   7
BRANCH   6  16
HETATM   16  C9  UNL     1      18.079   1.365  11.633  1.00  0.00     0.043 C 
HETATM   17  C10 UNL     1      18.810   0.680  10.509  1.00  0.00     0.016 C 
HETATM   18  C11 UNL     1      18.066  -0.626  10.371  1.00  0.00    -0.013 C 
HETATM   19  C12 UNL     1      17.965  -1.387  11.667  1.00  0.00     0.005 C 
HETATM   20  C15 UNL     1      16.654  -0.004  10.322  1.00  0.00     0.010 C 
HETATM   21  C13 UNL     1      16.959  -0.626  12.534  1.00  0.00     0.006 C 
HETATM   22  C14 UNL     1      16.743   0.610  11.721  1.00  0.00    -0.004 C 
ENDBRANCH   6  16
BRANCH   3  23
HETATM   23  N3  UNL     1      16.734   5.750  10.110  1.00  0.00    -0.365 N 
ATOM     24  H32 UNL     1      16.496   6.692  10.420  1.00  0.00     0.159 HD
ATOM     25  H31 UNL     1      16.647   5.676   9.096  1.00  0.00     0.159 HD
ENDBRANCH   3  23
TORSDOF 5
ENDMDL
MODEL 2
REMARK VINA RESULT: -7.191009845      2.552      6.013
REMARK  5 active torsions:
REMARK  status: ('A' for Active; 'I' for Inactive)
REMARK    1  A    between atoms: C2_2  and  N1_3 
REMARK    2  A    between atoms: N2_6  and  C5_7 
REMARK    3  A    between atoms: C5_7  and  C6_8 
REMARK    4  A    between atoms: C7_10  and  N3_11 
REMARK    5  A    between atoms: C8_16  and  C9_17 
ROOT
HETATM    1  C6  UNL     1      16.582   2.124  13.523  1.00  0.00     0.117 A 
HETATM    2  O1  UNL     1      16.739   1.383  12.484  1.00  0.00    -0.276 OA
HETATM    3  C7  UNL     1      16.931   0.161  12.876  1.00  0.00     0.222 A 
HETATM    4  N4  UNL     1      16.864   0.083  14.200  1.00  0.00    -0.323 N 
ATOM      5  H4  UNL     1      16.964  -0.769  14.752  1.00  0.00     0.169 HD
HETATM    6  C8  UNL     1      16.647   1.295  14.682  1.00  0.00     0.052 A 
ENDROOT
BRANCH   1   7
HETATM    7  C5  UNL     1      16.410   3.566  13.640  1.00  0.00     0.129 C 
BRANCH   7   8
HETATM    8  N2  UNL     1      17.397   4.474  13.365  1.00  0.00    -0.364 N 
HETATM    9  C4  UNL     1      16.852   5.781  13.140  1.00  0.00     0.158 C 
HETATM   10  C3  UNL     1      17.869   6.558  12.328  1.00  0.00     0.293 C 
HETATM   11  N1  UNL     1      19.100   6.623  13.031  1.00  0.00     0.094 N 
HETATM   12  C17 UNL     1      19.317   5.736  14.115  1.00  0.00     0.317 C 
HETATM   13  C16 UNL     1      18.648   4.393  13.960  1.00  0.00     0.093 C 
BRANCH  11  14
HETATM   14  C2  UNL     1      19.235   7.967  13.581  1.00  0.00     0.268 C 
HETATM   15  C1  UNL     1      19.214   8.025  15.070  1.00  0.00     0.037 C 
ENDBRANCH  11  14
ENDBRANCH   7   8
ENDBRANCH   1   7
BRANCH   6  16
HETATM   16  C9  UNL     1      16.189   1.749  15.989  1.00  0.00     0.043 C 
HETATM   17  C10 UNL     1      16.421   0.812  17.145  1.00  0.00     0.016 C 
HETATM   18  C11 UNL     1      15.141   0.931  17.936  1.00  0.00    -0.013 C 
HETATM   19  C12 UNL     1      14.795   2.356  18.286  1.00  0.00     0.005 C 
HETATM   20  C15 UNL     1      14.190   0.718  16.739  1.00  0.00     0.010 C 
HETATM   21  C13 UNL     1      14.338   3.018  16.984  1.00  0.00     0.006 C 
HETATM   22  C14 UNL     1      14.666   1.958  15.981  1.00  0.00    -0.004 C 
ENDBRANCH   6  16
BRANCH   3  23
HETATM   23  N3  UNL     1      17.158  -0.798  11.996  1.00  0.00    -0.365 N 
ATOM     24  H32 UNL     1      18.041  -1.090  11.578  1.00  0.00     0.159 HD
ATOM     25  H31 UNL     1      16.389  -1.363  11.637  1.00  0.00     0.159 HD
ENDBRANCH   3  23
TORSDOF 5
ENDMDL
MODEL 3
REMARK VINA RESULT: -7.138662914      2.575      5.972
REMARK  5 active torsions:
REMARK  status: ('A' for Active; 'I' for Inactive)
REMARK    1  A    between atoms: C2_2  and  N1_3 
REMARK    2  A    between atoms: N2_6  and  C5_7 
REMARK    3  A    between atoms: C5_7  and  C6_8 
REMARK    4  A    between atoms: C7_10  and  N3_11 
REMARK    5  A    between atoms: C8_16  and  C9_17 
ROOT
HETATM    1  C6  UNL     1      16.608   1.998  13.519  1.00  0.00     0.117 A 
HETATM    2  O1  UNL     1      16.756   1.223  12.504  1.00  0.00    -0.276 OA
HETATM    3  C7  UNL     1      16.926   0.011  12.934  1.00  0.00     0.222 A 
HETATM    4  N4  UNL     1      16.852  -0.027  14.259  1.00  0.00    -0.323 N 
ATOM      5  H4  UNL     1      16.936  -0.863  14.837  1.00  0.00     0.169 HD
HETATM    6  C8  UNL     1      16.654   1.204  14.703  1.00  0.00     0.052 A 
ENDROOT
BRANCH   1   7
HETATM    7  C5  UNL     1      16.460   3.446  13.593  1.00  0.00     0.129 C 
BRANCH   7   8
HETATM    8  N2  UNL     1      17.477   4.297  13.930  1.00  0.00    -0.364 N 
HETATM    9  C4  UNL     1      18.451   4.384  12.880  1.00  0.00     0.158 C 
HETATM   10  C3  UNL     1      19.747   4.856  13.507  1.00  0.00     0.293 C 
HETATM   11  N1  UNL     1      19.549   6.113  14.137  1.00  0.00     0.094 N 
HETATM   12  C17 UNL     1      18.226   6.548  14.396  1.00  0.00     0.317 C 
HETATM   13  C16 UNL     1      17.254   5.434  14.695  1.00  0.00     0.093 C 
BRANCH  11  14
HETATM   14  C2  UNL     1      20.151   7.140  13.294  1.00  0.00     0.268 C 
HETATM   15  C1  UNL     1      19.241   8.272  12.965  1.00  0.00     0.037 C 
ENDBRANCH  11  14
ENDBRANCH   7   8
ENDBRANCH   1   7
BRANCH   6  16
HETATM   16  C9  UNL     1      16.199   1.704  15.994  1.00  0.00     0.043 C 
HETATM   17  C10 UNL     1      16.374   0.782  17.172  1.00  0.00     0.016 C 
HETATM   18  C11 UNL     1      15.090   0.974  17.942  1.00  0.00    -0.013 C 
HETATM   19  C12 UNL     1      14.802   2.419  18.258  1.00  0.00     0.005 C 
HETATM   20  C15 UNL     1      14.147   0.777  16.736  1.00  0.00     0.010 C 
HETATM   21  C13 UNL     1      14.392   3.073  16.937  1.00  0.00     0.006 C 
HETATM   22  C14 UNL     1      14.687   1.980  15.960  1.00  0.00    -0.004 C 
ENDBRANCH   6  16
BRANCH   3  23
HETATM   23  N3  UNL     1      17.140  -0.977  12.084  1.00  0.00    -0.365 N 
ATOM     24  H32 UNL     1      16.500  -1.394  11.408  1.00  0.00     0.159 HD
ATOM     25  H31 UNL     1      18.050  -1.438  12.045  1.00  0.00     0.159 HD
ENDBRANCH   3  23
TORSDOF 5
ENDMDL
MODEL 4
REMARK VINA RESULT: -6.890909224      2.188      6.060
REMARK  5 active torsions:
REMARK  status: ('A' for Active; 'I' for Inactive)
REMARK    1  A    between atoms: C2_2  and  N1_3 
REMARK    2  A    between atoms: N2_6  and  C5_7 
REMARK    3  A    between atoms: C5_7  and  C6_8 
REMARK    4  A    between atoms: C7_10  and  N3_11 
REMARK    5  A    between atoms: C8_16  and  C9_17 
ROOT
HETATM    1  C6  UNL     1      17.634   1.990  14.221  1.00  0.00     0.117 A 
HETATM    2  O1  UNL     1      17.795   1.365  13.109  1.00  0.00    -0.276 OA
HETATM    3  C7  UNL     1      17.236   0.198  13.209  1.00  0.00     0.222 A 
HETATM    4  N4  UNL     1      16.661   0.059  14.397  1.00  0.00    -0.323 N 
ATOM      5  H4  UNL     1      16.142  -0.759  14.716  1.00  0.00     0.169 HD
HETATM    6  C8  UNL     1      16.875   1.160  15.099  1.00  0.00     0.052 A 
ENDROOT
BRANCH   1   7
HETATM    7  C5  UNL     1      18.125   3.291  14.656  1.00  0.00     0.129 C 
BRANCH   7   8
HETATM    8  N2  UNL     1      17.796   4.470  14.044  1.00  0.00    -0.364 N 
HETATM    9  C4  UNL     1      18.684   4.754  12.954  1.00  0.00     0.158 C 
HETATM   10  C3  UNL     1      18.628   6.248  12.706  1.00  0.00     0.293 C 
HETATM   11  N1  UNL     1      17.296   6.638  12.406  1.00  0.00     0.094 N 
HETATM   12  C17 UNL     1      16.237   5.746  12.708  1.00  0.00     0.317 C 
HETATM   13  C16 UNL     1      16.478   4.888  13.924  1.00  0.00     0.093 C 
BRANCH  11  14
HETATM   14  C2  UNL     1      17.212   6.889  10.972  1.00  0.00     0.268 C 
HETATM   15  C1  UNL     1      16.248   6.010  10.252  1.00  0.00     0.037 C 
ENDBRANCH  11  14
ENDBRANCH   7   8
ENDBRANCH   1   7
BRANCH   6  16
HETATM   16  C9  UNL     1      16.239   1.679  16.303  1.00  0.00     0.043 C 
HETATM   17  C10 UNL     1      16.046   0.703  17.434  1.00  0.00     0.016 C 
HETATM   18  C11 UNL     1      14.670   1.053  17.948  1.00  0.00    -0.013 C 
HETATM   19  C12 UNL     1      14.522   2.513  18.288  1.00  0.00     0.005 C 
HETATM   20  C15 UNL     1      13.973   1.033  16.570  1.00  0.00     0.010 C 
HETATM   21  C13 UNL     1      14.480   3.262  16.954  1.00  0.00     0.006 C 
HETATM   22  C14 UNL     1      14.817   2.170  15.990  1.00  0.00    -0.004 C 
ENDBRANCH   6  16
BRANCH   3  23
HETATM   23  N3  UNL     1      17.295  -0.661  12.207  1.00  0.00    -0.365 N 
ATOM     24  H32 UNL     1      17.277  -1.680  12.231  1.00  0.00     0.159 HD
ATOM     25  H31 UNL     1      17.375  -0.329  11.245  1.00  0.00     0.159 HD
ENDBRANCH   3  23
TORSDOF 5
ENDMDL
MODEL 5
REMARK VINA RESULT: -6.810666919      2.588      4.085
REMARK  5 active torsions:
REMARK  status: ('A' for Active; 'I' for Inactive)
REMARK    1  A    between atoms: C2_2  and  N1_3 
REMARK    2  A    between atoms: N2_6  and  C5_7 
REMARK    3  A    between atoms: C5_7  and  C6_8 
REMARK    4  A    between atoms: C7_10  and  N3_11 
REMARK    5  A    between atoms: C8_16  and  C9_17 
ROOT
HETATM    1  C6  UNL     1      17.444   0.317  12.181  1.00  0.00     0.117 A 
HETATM    2  O1  UNL     1      17.373  -0.966  12.224  1.00  0.00    -0.276 OA
HETATM    3  C7  UNL     1      18.327  -1.455  11.494  1.00  0.00     0.222 A 
HETATM    4  N4  UNL     1      19.069  -0.479  10.984  1.00  0.00    -0.323 N 
ATOM      5  H4  UNL     1      19.889  -0.601  10.390  1.00  0.00     0.169 HD
HETATM    6  C8  UNL     1      18.565   0.680  11.376  1.00  0.00     0.052 A 
ENDROOT
BRANCH   1   7
HETATM    7  C5  UNL     1      16.575   1.334  12.759  1.00  0.00     0.129 C 
BRANCH   7   8
HETATM    8  N2  UNL     1      16.480   1.576  14.103  1.00  0.00    -0.364 N 
HETATM    9  C4  UNL     1      15.289   2.312  14.415  1.00  0.00     0.158 C 
HETATM   10  C3  UNL     1      15.522   3.000  15.745  1.00  0.00     0.293 C 
HETATM   11  N1  UNL     1      15.811   2.034  16.744  1.00  0.00     0.094 N 
HETATM   12  C17 UNL     1      16.175   0.724  16.344  1.00  0.00     0.317 C 
HETATM   13  C16 UNL     1      16.935   0.662  15.043  1.00  0.00     0.093 C 
BRANCH  11  14
HETATM   14  C2  UNL     1      14.627   1.883  17.582  1.00  0.00     0.268 C 
HETATM   15  C1  UNL     1      13.730   0.764  17.177  1.00  0.00     0.037 C 
ENDBRANCH  11  14
ENDBRANCH   7   8
ENDBRANCH   1   7
BRANCH   6  16
HETATM   16  C9  UNL     1      19.124   2.025  11.384  1.00  0.00     0.043 C 
HETATM   17  C10 UNL     1      18.398   3.060  10.564  1.00  0.00     0.016 C 
HETATM   18  C11 UNL     1      19.526   3.839   9.932  1.00  0.00    -0.013 C 
HETATM   19  C12 UNL     1      20.521   4.357  10.938  1.00  0.00     0.005 C 
HETATM   20  C15 UNL     1      20.299   2.609   9.409  1.00  0.00     0.010 C 
HETATM   21  C13 UNL     1      21.311   3.141  11.425  1.00  0.00     0.006 C 
HETATM   22  C14 UNL     1      20.545   2.019  10.799  1.00  0.00    -0.004 C 
ENDBRANCH   6  16
BRANCH   3  23
HETATM   23  N3  UNL     1      18.451  -2.761  11.340  1.00  0.00    -0.365 N 
ATOM     24  H32 UNL     1      17.751  -3.493  11.465  1.00  0.00     0.159 HD
ATOM     25  H31 UNL     1      19.345  -3.167  11.062  1.00  0.00     0.159 HD
ENDBRANCH   3  23
TORSDOF 5
ENDMDL
