MODEL 1
REMARK VINA RESULT: -6.959534215      0.000      0.000
REMARK  5 active torsions:
REMARK  status: ('A' for Active; 'I' for Inactive)
REMARK    1  A    between atoms: C2_2  and  C4_4 
REMARK    2  A    between atoms: C4_4  and  N1_5 
REMARK    3  A    between atoms: N1_5  and  C5_7 
REMARK    4  A    between atoms: C6_10  and  C7_11 
REMARK    5  A    between atoms: C10_16  and  N4_17 
ROOT
HETATM    1  C5  UNL     1      16.441   2.068  14.289  1.00  0.00     0.128 A 
HETATM    2  N2  UNL     1      17.105   1.126  13.520  1.00  0.00    -0.331 N 
ATOM      3  H2  UNL     1      17.071   0.151  13.818  1.00  0.00     0.168 HD
HETATM    4  C6  UNL     1      17.782   1.422  12.418  1.00  0.00     0.087 A 
HETATM    5  N3  UNL     1      17.814   2.707  12.042  1.00  0.00    -0.330 N 
ATOM      6  H3  UNL     1      18.328   2.958  11.197  1.00  0.00     0.168 HD
HETATM    7  C10 UNL     1      17.197   3.680  12.732  1.00  0.00     0.132 A 
HETATM    8  C14 UNL     1      16.480   3.377  13.897  1.00  0.00     0.121 A 
HETATM    9 CL1  UNL     1      15.694   4.700  14.754  1.00  0.00    -0.076 Cl
ENDROOT
BRANCH   7  10
HETATM   10  N4  UNL     1      17.246   5.033  12.314  1.00  0.00    -0.341 N 
HETATM   11  C11 UNL     1      18.124   6.040  12.830  1.00  0.00     0.251 C 
HETATM   12  N5  UNL     1      17.859   7.242  12.060  1.00  0.00    -0.344 N 
HETATM   13  C12 UNL     1      16.650   7.055  11.375  1.00  0.00     0.236 C 
ATOM     14  H5  UNL     1      18.447   8.074  12.025  1.00  0.00     0.164 HD
HETATM   15  O1  UNL     1      15.931   7.984  10.923  1.00  0.00    -0.272 OA
HETATM   16  C13 UNL     1      16.398   5.592  11.292  1.00  0.00     0.228 C 
ENDBRANCH   7  10
BRANCH   4  17
HETATM   17  C7  UNL     1      18.475   0.351  11.636  1.00  0.00     0.045 C 
HETATM   18  C8  UNL     1      17.553  -0.244  10.592  1.00  0.00     0.017 C 
HETATM   19  C9  UNL     1      19.740   0.912  11.020  1.00  0.00     0.017 C 
ENDBRANCH   4  17
BRANCH   1  20
HETATM   20  N1  UNL     1      15.829   1.685  15.314  1.00  0.00    -0.374 N 
ATOM     21  H1  UNL     1      14.843   1.481  15.157  1.00  0.00     0.161 HD
BRANCH  20  22
HETATM   22  C4  UNL     1      16.245   1.487  16.620  1.00  0.00     0.125 C 
BRANCH  22  23
HETATM   23  C2  UNL     1      15.090   1.082  17.555  1.00  0.00    -0.005 C 
HETATM   24  C1  UNL     1      15.010   2.024  18.741  1.00  0.00     0.011 C 
HETATM   25  C3  UNL     1      13.785   1.016  16.815  1.00  0.00     0.011 C 
ENDBRANCH  22  23
ENDBRANCH  20  22
ENDBRANCH   1  20
TORSDOF 5
ENDMDL
MODEL 2
REMARK VINA RESULT: -6.957897129      0.822      1.108
REMARK  5 active torsions:
REMARK  status: ('A' for Active; 'I' for Inactive)
REMARK    1  A    between atoms: C2_2  and  C4_4 
REMARK    2  A    between atoms: C4_4  and  N1_5 
REMARK    3  A    between atoms: N1_5  and  C5_7 
REMARK    4  A    between atoms: C6_10  and  C7_11 
REMARK    5  A    between atoms: C10_16  and  N4_17 
ROOT
HETATM    1  C5  UNL     1      16.581   1.866  14.306  1.00  0.00     0.128 A 
HETATM    2  N2  UNL     1      17.269   0.984  13.489  1.00  0.00    -0.331 N 
ATOM      3  H2  UNL     1      17.256  -0.007  13.730  1.00  0.00     0.168 HD
HETATM    4  C6  UNL     1      17.944   1.358  12.409  1.00  0.00     0.087 A 
HETATM    5  N3  UNL     1      17.949   2.664  12.108  1.00  0.00    -0.330 N 
ATOM      6  H3  UNL     1      18.462   2.974  11.282  1.00  0.00     0.168 HD
HETATM    7  C10 UNL     1      17.308   3.581  12.849  1.00  0.00     0.132 A 
HETATM    8  C14 UNL     1      16.592   3.195  13.991  1.00  0.00     0.121 A 
HETATM    9 CL1  UNL     1      15.773   4.450  14.918  1.00  0.00    -0.076 Cl
ENDROOT
BRANCH   7  10
HETATM   10  N4  UNL     1      17.328   4.957  12.511  1.00  0.00    -0.341 N 
HETATM   11  C11 UNL     1      16.447   5.606  11.587  1.00  0.00     0.251 C 
HETATM   12  N5  UNL     1      16.799   7.015  11.614  1.00  0.00    -0.344 N 
HETATM   13  C12 UNL     1      18.044   7.135  12.247  1.00  0.00     0.236 C 
ATOM     14  H5  UNL     1      16.239   7.781  11.240  1.00  0.00     0.164 HD
HETATM   15  O1  UNL     1      18.819   8.118  12.124  1.00  0.00    -0.272 OA
HETATM   16  C13 UNL     1      18.258   5.909  13.062  1.00  0.00     0.228 C 
ENDBRANCH   7  10
BRANCH   4  17
HETATM   17  C7  UNL     1      18.666   0.350  11.571  1.00  0.00     0.045 C 
HETATM   18  C8  UNL     1      17.735  -0.277  10.554  1.00  0.00     0.017 C 
HETATM   19  C9  UNL     1      19.865   1.002  10.915  1.00  0.00     0.017 C 
ENDBRANCH   4  17
BRANCH   1  20
HETATM   20  N1  UNL     1      15.973   1.410  15.305  1.00  0.00    -0.374 N 
ATOM     21  H1  UNL     1      15.066   0.999  15.086  1.00  0.00     0.161 HD
BRANCH  20  22
HETATM   22  C4  UNL     1      16.305   1.363  16.647  1.00  0.00     0.125 C 
BRANCH  22  23
HETATM   23  C2  UNL     1      15.100   1.026  17.545  1.00  0.00    -0.005 C 
HETATM   24  C1  UNL     1      15.040   1.969  18.732  1.00  0.00     0.011 C 
HETATM   25  C3  UNL     1      13.816   1.040  16.765  1.00  0.00     0.011 C 
ENDBRANCH  22  23
ENDBRANCH  20  22
ENDBRANCH   1  20
TORSDOF 5
ENDMDL
MODEL 3
REMARK VINA RESULT: -6.816996147      1.023      1.150
REMARK  5 active torsions:
REMARK  status: ('A' for Active; 'I' for Inactive)
REMARK    1  A    between atoms: C2_2  and  C4_4 
REMARK    2  A    between atoms: C4_4  and  N1_5 
REMARK    3  A    between atoms: N1_5  and  C5_7 
REMARK    4  A    between atoms: C6_10  and  C7_11 
REMARK    5  A    between atoms: C10_16  and  N4_17 
ROOT
HETATM    1  C5  UNL     1      17.260   2.505  14.662  1.00  0.00     0.128 A 
HETATM    2  N2  UNL     1      17.374   1.361  13.889  1.00  0.00    -0.331 N 
ATOM      3  H2  UNL     1      17.324   0.456  14.356  1.00  0.00     0.168 HD
HETATM    4  C6  UNL     1      17.546   1.379  12.573  1.00  0.00     0.087 A 
HETATM    5  N3  UNL     1      17.610   2.577  11.976  1.00  0.00    -0.330 N 
ATOM      6  H3  UNL     1      17.742   2.613  10.965  1.00  0.00     0.168 HD
HETATM    7  C10 UNL     1      17.508   3.731  12.654  1.00  0.00     0.132 A 
HETATM    8  C14 UNL     1      17.326   3.722  14.044  1.00  0.00     0.121 A 
HETATM    9 CL1  UNL     1      17.199   5.272  14.873  1.00  0.00    -0.076 Cl
ENDROOT
BRANCH   7  10
HETATM   10  N4  UNL     1      17.578   4.986  12.001  1.00  0.00    -0.341 N 
HETATM   11  C11 UNL     1      18.771   5.742  11.762  1.00  0.00     0.251 C 
HETATM   12  N5  UNL     1      18.362   6.916  11.011  1.00  0.00    -0.344 N 
HETATM   13  C12 UNL     1      16.968   7.025  11.110  1.00  0.00     0.236 C 
ATOM     14  H5  UNL     1      18.980   7.548  10.503  1.00  0.00     0.164 HD
HETATM   15  O1  UNL     1      16.316   8.084  10.915  1.00  0.00    -0.272 OA
HETATM   16  C13 UNL     1      16.434   5.687  11.477  1.00  0.00     0.228 C 
ENDBRANCH   7  10
BRANCH   4  17
HETATM   17  C7  UNL     1      17.663   0.102  11.801  1.00  0.00     0.045 C 
HETATM   18  C8  UNL     1      16.509  -0.052  10.831  1.00  0.00     0.017 C 
HETATM   19  C9  UNL     1      19.003   0.056  11.098  1.00  0.00     0.017 C 
ENDBRANCH   4  17
BRANCH   1  20
HETATM   20  N1  UNL     1      17.099   2.380  15.900  1.00  0.00    -0.374 N 
ATOM     21  H1  UNL     1      17.719   2.965  16.460  1.00  0.00     0.161 HD
BRANCH  20  22
HETATM   22  C4  UNL     1      16.237   1.596  16.646  1.00  0.00     0.125 C 
BRANCH  22  23
HETATM   23  C2  UNL     1      14.756   1.880  16.335  1.00  0.00    -0.005 C 
HETATM   24  C1  UNL     1      13.865   0.842  16.990  1.00  0.00     0.011 C 
HETATM   25  C3  UNL     1      14.369   3.273  16.743  1.00  0.00     0.011 C 
ENDBRANCH  22  23
ENDBRANCH  20  22
ENDBRANCH   1  20
TORSDOF 5
ENDMDL
MODEL 4
REMARK VINA RESULT: -6.743708374      2.241      2.519
REMARK  5 active torsions:
REMARK  status: ('A' for Active; 'I' for Inactive)
REMARK    1  A    between atoms: C2_2  and  C4_4 
REMARK    2  A    between atoms: C4_4  and  N1_5 
REMARK    3  A    between atoms: N1_5  and  C5_7 
REMARK    4  A    between atoms: C6_10  and  C7_11 
REMARK    5  A    between atoms: C10_16  and  N4_17 
ROOT
HETATM    1  C5  UNL     1      17.147   2.266  14.438  1.00  0.00     0.128 A 
HETATM    2  N2  UNL     1      16.868   1.117  13.716  1.00  0.00    -0.331 N 
ATOM      3  H2  UNL     1      16.317   0.386  14.166  1.00  0.00     0.168 HD
HETATM    4  C6  UNL     1      17.279   0.914  12.470  1.00  0.00     0.087 A 
HETATM    5  N3  UNL     1      18.002   1.885  11.895  1.00  0.00    -0.330 N 
ATOM      6  H3  UNL     1      18.328   1.751  10.938  1.00  0.00     0.168 HD
HETATM    7  C10 UNL     1      18.315   3.027  12.527  1.00  0.00     0.132 A 
HETATM    8  C14 UNL     1      17.885   3.250  13.843  1.00  0.00     0.121 A 
HETATM    9 CL1  UNL     1      18.329   4.771  14.614  1.00  0.00    -0.076 Cl
ENDROOT
BRANCH   7  10
HETATM   10  N4  UNL     1      19.080   4.040  11.898  1.00  0.00    -0.341 N 
HETATM   11  C11 UNL     1      18.560   5.127  11.124  1.00  0.00     0.251 C 
HETATM   12  N5  UNL     1      19.704   5.935  10.741  1.00  0.00    -0.344 N 
HETATM   13  C12 UNL     1      20.861   5.179  10.973  1.00  0.00     0.236 C 
ATOM     14  H5  UNL     1      19.670   6.884  10.369  1.00  0.00     0.164 HD
HETATM   15  O1  UNL     1      21.977   5.391  10.431  1.00  0.00    -0.272 OA
HETATM   16  C13 UNL     1      20.518   4.114  11.953  1.00  0.00     0.228 C 
ENDBRANCH   7  10
BRANCH   4  17
HETATM   17  C7  UNL     1      16.940  -0.353  11.750  1.00  0.00     0.045 C 
HETATM   18  C8  UNL     1      16.205  -0.063  10.458  1.00  0.00     0.017 C 
HETATM   19  C9  UNL     1      18.204  -1.155  11.515  1.00  0.00     0.017 C 
ENDBRANCH   4  17
BRANCH   1  20
HETATM   20  N1  UNL     1      16.711   2.359  15.611  1.00  0.00    -0.374 N 
ATOM     21  H1  UNL     1      16.773   3.298  16.003  1.00  0.00     0.161 HD
BRANCH  20  22
HETATM   22  C4  UNL     1      16.163   1.424  16.471  1.00  0.00     0.125 C 
BRANCH  22  23
HETATM   23  C2  UNL     1      14.852   1.909  17.116  1.00  0.00    -0.005 C 
HETATM   24  C1  UNL     1      14.396   3.211  16.484  1.00  0.00     0.011 C 
HETATM   25  C3  UNL     1      13.783   0.856  17.040  1.00  0.00     0.011 C 
ENDBRANCH  22  23
ENDBRANCH  20  22
ENDBRANCH   1  20
TORSDOF 5
ENDMDL
MODEL 5
REMARK VINA RESULT: -6.687797085      1.918      2.332
REMARK  5 active torsions:
REMARK  status: ('A' for Active; 'I' for Inactive)
REMARK    1  A    between atoms: C2_2  and  C4_4 
REMARK    2  A    between atoms: C4_4  and  N1_5 
REMARK    3  A    between atoms: N1_5  and  C5_7 
REMARK    4  A    between atoms: C6_10  and  C7_11 
REMARK    5  A    between atoms: C10_16  and  N4_17 
ROOT
HETATM    1  C5  UNL     1      16.725   2.501  14.335  1.00  0.00     0.128 A 
HETATM    2  N2  UNL     1      16.813   1.333  13.595  1.00  0.00    -0.331 N 
ATOM      3  H2  UNL     1      16.257   0.531  13.894  1.00  0.00     0.168 HD
HETATM    4  C6  UNL     1      17.579   1.201  12.520  1.00  0.00     0.087 A 
HETATM    5  N3  UNL     1      18.300   2.265  12.143  1.00  0.00    -0.330 N 
ATOM      6  H3  UNL     1      18.896   2.186  11.319  1.00  0.00     0.168 HD
HETATM    7  C10 UNL     1      18.271   3.432  12.806  1.00  0.00     0.132 A 
HETATM    8  C14 UNL     1      17.464   3.581  13.943  1.00  0.00     0.121 A 
HETATM    9 CL1  UNL     1      17.472   5.139  14.766  1.00  0.00    -0.076 Cl
ENDROOT
BRANCH   7  10
HETATM   10  N4  UNL     1      19.043   4.544  12.388  1.00  0.00    -0.341 N 
HETATM   11  C11 UNL     1      18.642   5.532  11.432  1.00  0.00     0.251 C 
HETATM   12  N5  UNL     1      19.721   6.502  11.376  1.00  0.00    -0.344 N 
HETATM   13  C12 UNL     1      20.842   5.935  11.997  1.00  0.00     0.236 C 
ATOM     14  H5  UNL     1      19.671   7.432  10.959  1.00  0.00     0.164 HD
HETATM   15  O1  UNL     1      22.030   6.310  11.815  1.00  0.00    -0.272 OA
HETATM   16  C13 UNL     1      20.364   4.838  12.881  1.00  0.00     0.228 C 
ENDBRANCH   7  10
BRANCH   4  17
HETATM   17  C7  UNL     1      17.624  -0.092  11.769  1.00  0.00     0.045 C 
HETATM   18  C8  UNL     1      16.509  -0.166  10.746  1.00  0.00     0.017 C 
HETATM   19  C9  UNL     1      18.988  -0.261  11.132  1.00  0.00     0.017 C 
ENDBRANCH   4  17
BRANCH   1  20
HETATM   20  N1  UNL     1      15.970   2.523  15.337  1.00  0.00    -0.374 N 
ATOM     21  H1  UNL     1      15.209   3.198  15.268  1.00  0.00     0.161 HD
BRANCH  20  22
HETATM   22  C4  UNL     1      15.977   1.801  16.517  1.00  0.00     0.125 C 
BRANCH  22  23
HETATM   23  C2  UNL     1      14.670   1.956  17.316  1.00  0.00    -0.005 C 
HETATM   24  C1  UNL     1      13.684   0.867  16.941  1.00  0.00     0.011 C 
HETATM   25  C3  UNL     1      14.932   1.975  18.795  1.00  0.00     0.011 C 
ENDBRANCH  22  23
ENDBRANCH  20  22
ENDBRANCH   1  20
TORSDOF 5
ENDMDL
