MODEL 1
REMARK VINA RESULT: -8.499044631      0.000      0.000
REMARK  3 active torsions:
REMARK  status: ('A' for Active; 'I' for Inactive)
REMARK    1  A    between atoms: C6_6  and  N1_7 
REMARK    2  A    between atoms: N2_9  and  N3_11 
REMARK    3  A    between atoms: N4_13  and  C7_15 
ROOT
HETATM    1  N1  UNL     1       5.209  -4.788  16.533  1.00  0.00    -0.316 N 
ATOM      2  H1  UNL     1       4.558  -5.048  17.275  1.00  0.00     0.182 HD
HETATM    3  N2  UNL     1       5.001  -5.168  15.344  1.00  0.00    -0.233 N 
ATOM      4  H2  UNL     1       5.665  -4.895  14.620  1.00  0.00     0.209 HD
ENDROOT
BRANCH   1   5
HETATM    5  C6  UNL     1       6.380  -3.979  16.838  1.00  0.00     0.100 C 
HETATM    6  C5  UNL     1       6.616  -3.911  18.339  1.00  0.00     0.027 C 
HETATM    7  C4  UNL     1       7.731  -2.992  18.682  1.00  0.00     0.002 C 
HETATM    8  C3  UNL     1       8.713  -3.417  19.684  1.00  0.00     0.000 C 
HETATM    9  C2  UNL     1       9.072  -4.825  19.852  1.00  0.00     0.000 C 
HETATM   10  C1  UNL     1      10.119  -5.422  18.982  1.00  0.00     0.000 C 
HETATM   11  C13 UNL     1      10.483  -4.719  17.735  1.00  0.00     0.000 C 
HETATM   12  C12 UNL     1       9.848  -5.279  16.482  1.00  0.00     0.000 C 
HETATM   13  C11 UNL     1       8.379  -5.515  16.564  1.00  0.00     0.002 C 
HETATM   14  C10 UNL     1       7.527  -4.437  16.029  1.00  0.00     0.027 C 
ENDBRANCH   1   5
BRANCH   3  15
HETATM   15  N3  UNL     1       3.912  -5.935  14.987  1.00  0.00    -0.233 N 
HETATM   16  N4  UNL     1       2.977  -5.533  14.213  1.00  0.00    -0.316 N 
ATOM     17  H4  UNL     1       2.197  -6.150  13.988  1.00  0.00     0.182 HD
ATOM     18  H3  UNL     1       3.849  -6.881  15.364  1.00  0.00     0.209 HD
BRANCH  16  19
HETATM   19  C7  UNL     1       3.034  -4.191  13.657  1.00  0.00     0.101 A 
HETATM   20  C8  UNL     1       1.996  -3.838  12.643  1.00  0.00     0.029 A 
HETATM   21  C9  UNL     1       3.422  -4.002  12.227  1.00  0.00     0.029 A 
ENDBRANCH  16  19
ENDBRANCH   3  15
TORSDOF 3
ENDMDL
MODEL 2
REMARK VINA RESULT: -7.960128405      1.305      2.584
REMARK  3 active torsions:
REMARK  status: ('A' for Active; 'I' for Inactive)
REMARK    1  A    between atoms: C6_6  and  N1_7 
REMARK    2  A    between atoms: N2_9  and  N3_11 
REMARK    3  A    between atoms: N4_13  and  C7_15 
ROOT
HETATM    1  N1  UNL     1       5.817  -3.460  16.217  1.00  0.00    -0.316 N 
ATOM      2  H1  UNL     1       6.315  -2.635  15.882  1.00  0.00     0.182 HD
HETATM    3  N2  UNL     1       4.578  -3.590  15.992  1.00  0.00    -0.233 N 
ATOM      4  H2  UNL     1       4.102  -4.423  16.337  1.00  0.00     0.209 HD
ENDROOT
BRANCH   1   5
HETATM    5  C6  UNL     1       6.527  -4.493  16.957  1.00  0.00     0.100 C 
HETATM    6  C5  UNL     1       7.997  -4.525  16.567  1.00  0.00     0.027 C 
HETATM    7  C4  UNL     1       8.717  -5.649  17.217  1.00  0.00     0.002 C 
HETATM    8  C3  UNL     1      10.038  -5.399  17.800  1.00  0.00     0.000 C 
HETATM    9  C2  UNL     1      10.383  -4.100  18.379  1.00  0.00     0.000 C 
HETATM   10  C1  UNL     1      10.015  -3.807  19.789  1.00  0.00     0.000 C 
HETATM   11  C13 UNL     1       8.987  -4.645  20.437  1.00  0.00     0.000 C 
HETATM   12  C12 UNL     1       7.606  -4.031  20.488  1.00  0.00     0.000 C 
HETATM   13  C11 UNL     1       7.113  -3.466  19.200  1.00  0.00     0.002 C 
HETATM   14  C10 UNL     1       6.250  -4.354  18.400  1.00  0.00     0.027 C 
ENDBRANCH   1   5
BRANCH   3  15
HETATM   15  N3  UNL     1       3.846  -2.650  15.298  1.00  0.00    -0.233 N 
HETATM   16  N4  UNL     1       3.255  -2.881  14.188  1.00  0.00    -0.316 N 
ATOM     17  H4  UNL     1       2.728  -2.141  13.723  1.00  0.00     0.182 HD
ATOM     18  H3  UNL     1       3.770  -1.713  15.696  1.00  0.00     0.209 HD
BRANCH  16  19
HETATM   19  C7  UNL     1       3.340  -4.204  13.593  1.00  0.00     0.101 A 
HETATM   20  C8  UNL     1       3.695  -4.269  12.144  1.00  0.00     0.029 A 
HETATM   21  C9  UNL     1       2.315  -4.629  12.592  1.00  0.00     0.029 A 
ENDBRANCH  16  19
ENDBRANCH   3  15
TORSDOF 3
ENDMDL
MODEL 3
REMARK VINA RESULT: -7.918699069      1.836      2.963
REMARK  3 active torsions:
REMARK  status: ('A' for Active; 'I' for Inactive)
REMARK    1  A    between atoms: C6_6  and  N1_7 
REMARK    2  A    between atoms: N2_9  and  N3_11 
REMARK    3  A    between atoms: N4_13  and  C7_15 
ROOT
HETATM    1  N1  UNL     1       5.294  -4.326  15.410  1.00  0.00    -0.316 N 
ATOM      2  H1  UNL     1       6.072  -4.793  14.942  1.00  0.00     0.182 HD
HETATM    3  N2  UNL     1       4.102  -4.640  15.125  1.00  0.00    -0.233 N 
ATOM      4  H2  UNL     1       3.341  -4.160  15.606  1.00  0.00     0.209 HD
ENDROOT
BRANCH   1   5
HETATM    5  C6  UNL     1       5.551  -3.298  16.407  1.00  0.00     0.100 C 
HETATM    6  C5  UNL     1       4.379  -3.168  17.367  1.00  0.00     0.027 C 
HETATM    7  C4  UNL     1       4.566  -2.043  18.318  1.00  0.00     0.002 C 
HETATM    8  C3  UNL     1       4.245  -2.253  19.733  1.00  0.00     0.000 C 
HETATM    9  C2  UNL     1       4.415  -3.560  20.367  1.00  0.00     0.000 C 
HETATM   10  C1  UNL     1       5.748  -3.946  20.902  1.00  0.00     0.000 C 
HETATM   11  C13 UNL     1       6.934  -3.199  20.439  1.00  0.00     0.000 C 
HETATM   12  C12 UNL     1       7.739  -3.887  19.359  1.00  0.00     0.000 C 
HETATM   13  C11 UNL     1       6.944  -4.409  18.211  1.00  0.00     0.002 C 
HETATM   14  C10 UNL     1       6.869  -3.527  17.031  1.00  0.00     0.027 C 
ENDBRANCH   1   5
BRANCH   3  15
HETATM   15  N3  UNL     1       3.788  -5.605  14.191  1.00  0.00    -0.233 N 
HETATM   16  N4  UNL     1       2.675  -5.659  13.565  1.00  0.00    -0.316 N 
ATOM     17  H4  UNL     1       2.504  -6.400  12.885  1.00  0.00     0.182 HD
ATOM     18  H3  UNL     1       4.488  -6.319  13.988  1.00  0.00     0.209 HD
BRANCH  16  19
HETATM   19  C7  UNL     1       1.655  -4.657  13.829  1.00  0.00     0.101 A 
HETATM   20  C8  UNL     1       0.327  -4.862  13.177  1.00  0.00     0.029 A 
HETATM   21  C9  UNL     1       1.215  -3.747  12.730  1.00  0.00     0.029 A 
ENDBRANCH  16  19
ENDBRANCH   3  15
TORSDOF 3
ENDMDL
MODEL 4
REMARK VINA RESULT: -7.685308065      1.225      1.765
REMARK  3 active torsions:
REMARK  status: ('A' for Active; 'I' for Inactive)
REMARK    1  A    between atoms: C6_6  and  N1_7 
REMARK    2  A    between atoms: N2_9  and  N3_11 
REMARK    3  A    between atoms: N4_13  and  C7_15 
ROOT
HETATM    1  N1  UNL     1       7.095  -5.130  15.932  1.00  0.00    -0.316 N 
ATOM      2  H1  UNL     1       7.500  -5.798  15.275  1.00  0.00     0.182 HD
HETATM    3  N2  UNL     1       5.842  -5.086  16.101  1.00  0.00    -0.233 N 
ATOM      4  H2  UNL     1       5.461  -4.410  16.763  1.00  0.00     0.209 HD
ENDROOT
BRANCH   1   5
HETATM    5  C6  UNL     1       7.957  -4.223  16.676  1.00  0.00     0.100 C 
HETATM    6  C5  UNL     1       7.258  -3.718  17.929  1.00  0.00     0.027 C 
HETATM    7  C4  UNL     1       8.069  -2.698  18.641  1.00  0.00     0.002 C 
HETATM    8  C3  UNL     1       8.184  -2.779  20.100  1.00  0.00     0.000 C 
HETATM    9  C2  UNL     1       8.159  -4.065  20.797  1.00  0.00     0.000 C 
HETATM   10  C1  UNL     1       9.417  -4.846  20.936  1.00  0.00     0.000 C 
HETATM   11  C13 UNL     1      10.550  -4.517  20.048  1.00  0.00     0.000 C 
HETATM   12  C12 UNL     1      10.715  -5.438  18.860  1.00  0.00     0.000 C 
HETATM   13  C11 UNL     1       9.471  -5.696  18.079  1.00  0.00     0.002 C 
HETATM   14  C10 UNL     1       9.277  -4.850  16.887  1.00  0.00     0.027 C 
ENDBRANCH   1   5
BRANCH   3  15
HETATM   15  N3  UNL     1       4.971  -5.916  15.428  1.00  0.00    -0.233 N 
HETATM   16  N4  UNL     1       3.767  -5.600  15.134  1.00  0.00    -0.316 N 
ATOM     17  H4  UNL     1       3.171  -6.260  14.634  1.00  0.00     0.182 HD
ATOM     18  H3  UNL     1       5.307  -6.837  15.148  1.00  0.00     0.209 HD
BRANCH  16  19
HETATM   19  C7  UNL     1       3.254  -4.295  15.516  1.00  0.00     0.101 A 
HETATM   20  C8  UNL     1       2.015  -3.830  14.824  1.00  0.00     0.029 A 
HETATM   21  C9  UNL     1       3.323  -3.163  14.544  1.00  0.00     0.029 A 
ENDBRANCH  16  19
ENDBRANCH   3  15
TORSDOF 3
ENDMDL
MODEL 5
REMARK VINA RESULT: -7.567744270      1.718      3.118
REMARK  3 active torsions:
REMARK  status: ('A' for Active; 'I' for Inactive)
REMARK    1  A    between atoms: C6_6  and  N1_7 
REMARK    2  A    between atoms: N2_9  and  N3_11 
REMARK    3  A    between atoms: N4_13  and  C7_15 
ROOT
HETATM    1  N1  UNL     1       4.550  -3.708  14.949  1.00  0.00    -0.316 N 
ATOM      2  H1  UNL     1       4.405  -2.719  15.156  1.00  0.00     0.182 HD
HETATM    3  N2  UNL     1       4.099  -4.204  13.876  1.00  0.00    -0.233 N 
ATOM      4  H2  UNL     1       4.257  -5.195  13.691  1.00  0.00     0.209 HD
ENDROOT
BRANCH   1   5
HETATM    5  C6  UNL     1       5.276  -4.552  15.886  1.00  0.00     0.100 C 
HETATM    6  C5  UNL     1       6.755  -4.197  15.903  1.00  0.00     0.027 C 
HETATM    7  C4  UNL     1       7.536  -5.125  16.760  1.00  0.00     0.002 C 
HETATM    8  C3  UNL     1       8.547  -4.568  17.664  1.00  0.00     0.000 C 
HETATM    9  C2  UNL     1       8.385  -3.246  18.268  1.00  0.00     0.000 C 
HETATM   10  C1  UNL     1       7.594  -3.105  19.519  1.00  0.00     0.000 C 
HETATM   11  C13 UNL     1       6.677  -4.198  19.898  1.00  0.00     0.000 C 
HETATM   12  C12 UNL     1       5.224  -3.956  19.559  1.00  0.00     0.000 C 
HETATM   13  C11 UNL     1       4.965  -3.488  18.167  1.00  0.00     0.002 C 
HETATM   14  C10 UNL     1       4.599  -4.538  17.198  1.00  0.00     0.027 C 
ENDBRANCH   1   5
BRANCH   3  15
HETATM   15  N3  UNL     1       3.404  -3.461  12.946  1.00  0.00    -0.233 N 
HETATM   16  N4  UNL     1       2.235  -3.759  12.522  1.00  0.00    -0.316 N 
ATOM     17  H4  UNL     1       1.773  -3.168  11.831  1.00  0.00     0.182 HD
ATOM     18  H3  UNL     1       3.849  -2.622  12.574  1.00  0.00     0.209 HD
BRANCH  16  19
HETATM   19  C7  UNL     1       1.570  -4.948  13.030  1.00  0.00     0.101 A 
HETATM   20  C8  UNL     1       0.077  -4.948  12.998  1.00  0.00     0.029 A 
HETATM   21  C9  UNL     1       0.796  -4.870  14.305  1.00  0.00     0.029 A 
ENDBRANCH  16  19
ENDBRANCH   3  15
TORSDOF 3
ENDMDL
