MODEL 1
REMARK VINA RESULT: -7.265953463      0.000      0.000
REMARK  3 active torsions:
REMARK  status: ('A' for Active; 'I' for Inactive)
REMARK    1  A    between atoms: S1_2  and  C2_3 
REMARK    2  A    between atoms: C11_12  and  C12_13 
REMARK    3  A    between atoms: N1_14  and  O1_16 
ROOT
HETATM    1  C2  UNL     1       5.788  -4.512  15.723  1.00  0.00     0.047 C 
HETATM    2  C3  UNL     1       5.537  -3.165  16.228  1.00  0.00     0.015 C 
HETATM    3  C4  UNL     1       4.511  -2.934  17.266  1.00  0.00     0.001 C 
HETATM    4  C5  UNL     1       4.588  -3.476  18.631  1.00  0.00     0.000 C 
HETATM    5  C6  UNL     1       5.320  -2.731  19.671  1.00  0.00     0.000 C 
HETATM    6  C7  UNL     1       6.473  -3.476  20.380  1.00  0.00     0.000 C 
HETATM    7  C8  UNL     1       7.366  -3.825  19.218  1.00  0.00     0.000 C 
HETATM    8  C9  UNL     1       8.540  -4.660  19.318  1.00  0.00     0.001 C 
HETATM    9  C10 UNL     1       8.688  -5.462  18.005  1.00  0.00     0.010 C 
HETATM   10  C11 UNL     1       8.106  -4.802  16.798  1.00  0.00     0.027 C 
HETATM   11  C13 UNL     1       6.856  -5.379  16.238  1.00  0.00     0.025 C 
ENDROOT
BRANCH  10  12
HETATM   12  C12 UNL     1       9.167  -4.900  15.718  1.00  0.00     0.091 C 
HETATM   13  N1  UNL     1       9.680  -6.002  15.363  1.00  0.00    -0.284 N 
ATOM     14  H1  UNL     1       9.346  -6.840  15.841  1.00  0.00     0.192 HD
BRANCH  13  15
HETATM   15  O1  UNL     1      10.625  -6.177  14.414  1.00  0.00    -0.291 OA
ATOM     16  H1  UNL     1      11.558  -6.030  14.516  1.00  0.00     0.244 HD
ENDBRANCH  13  15
ENDBRANCH  10  12
BRANCH   1  17
HETATM   17  S1  UNL     1       4.195  -5.429  15.936  1.00  0.00    -0.169 SA
HETATM   18  C1  UNL     1       3.569  -5.774  14.284  1.00  0.00     0.090 C 
ENDBRANCH   1  17
TORSDOF 3
ENDMDL
MODEL 2
REMARK VINA RESULT: -7.050865576      3.628      5.743
REMARK  3 active torsions:
REMARK  status: ('A' for Active; 'I' for Inactive)
REMARK    1  A    between atoms: S1_2  and  C2_3 
REMARK    2  A    between atoms: C11_12  and  C12_13 
REMARK    3  A    between atoms: N1_14  and  O1_16 
ROOT
HETATM    1  C2  UNL     1       7.520  -3.024  19.954  1.00  0.00     0.047 C 
HETATM    2  C3  UNL     1       8.678  -2.664  19.138  1.00  0.00     0.015 C 
HETATM    3  C4  UNL     1       9.820  -3.592  19.010  1.00  0.00     0.001 C 
HETATM    4  C5  UNL     1       9.735  -4.917  18.377  1.00  0.00     0.000 C 
HETATM    5  C6  UNL     1       9.909  -5.041  16.920  1.00  0.00     0.000 C 
HETATM    6  C7  UNL     1       8.749  -5.694  16.133  1.00  0.00     0.000 C 
HETATM    7  C8  UNL     1       7.601  -4.782  16.477  1.00  0.00     0.000 C 
HETATM    8  C9  UNL     1       6.228  -5.027  16.100  1.00  0.00     0.001 C 
HETATM    9  C10 UNL     1       5.306  -4.483  17.216  1.00  0.00     0.010 C 
HETATM   10  C11 UNL     1       5.876  -3.348  18.003  1.00  0.00     0.027 C 
HETATM   11  C13 UNL     1       6.302  -3.628  19.399  1.00  0.00     0.025 C 
ENDROOT
BRANCH  10  12
HETATM   12  C12 UNL     1       4.782  -2.299  18.071  1.00  0.00     0.091 C 
HETATM   13  N1  UNL     1       4.484  -1.559  17.087  1.00  0.00    -0.284 N 
ATOM     14  H1  UNL     1       5.018  -1.697  16.229  1.00  0.00     0.192 HD
BRANCH  13  15
HETATM   15  O1  UNL     1       3.527  -0.605  17.064  1.00  0.00    -0.291 OA
ATOM     16  H1  UNL     1       2.884  -0.436  17.742  1.00  0.00     0.244 HD
ENDBRANCH  13  15
ENDBRANCH  10  12
BRANCH   1  17
HETATM   17  S1  UNL     1       8.162  -4.183  21.244  1.00  0.00    -0.169 SA
HETATM   18  C1  UNL     1       7.257  -3.825  22.759  1.00  0.00     0.090 C 
ENDBRANCH   1  17
TORSDOF 3
ENDMDL
MODEL 3
REMARK VINA RESULT: -7.036877853      3.858      4.983
REMARK  3 active torsions:
REMARK  status: ('A' for Active; 'I' for Inactive)
REMARK    1  A    between atoms: S1_2  and  C2_3 
REMARK    2  A    between atoms: C11_12  and  C12_13 
REMARK    3  A    between atoms: N1_14  and  O1_16 
ROOT
HETATM    1  C2  UNL     1       4.324  -3.729  17.383  1.00  0.00     0.047 C 
HETATM    2  C3  UNL     1       4.870  -4.958  16.811  1.00  0.00     0.015 C 
HETATM    3  C4  UNL     1       5.922  -4.898  15.775  1.00  0.00     0.001 C 
HETATM    4  C5  UNL     1       7.270  -4.358  16.004  1.00  0.00     0.000 C 
HETATM    5  C6  UNL     1       8.325  -5.234  16.541  1.00  0.00     0.000 C 
HETATM    6  C7  UNL     1       9.005  -4.782  17.854  1.00  0.00     0.000 C 
HETATM    7  C8  UNL     1       7.827  -4.697  18.789  1.00  0.00     0.000 C 
HETATM    8  C9  UNL     1       7.895  -4.178  20.136  1.00  0.00     0.001 C 
HETATM    9  C10 UNL     1       6.558  -3.473  20.460  1.00  0.00     0.010 C 
HETATM   10  C11 UNL     1       5.375  -3.998  19.715  1.00  0.00     0.027 C 
HETATM   11  C13 UNL     1       4.807  -3.143  18.641  1.00  0.00     0.025 C 
ENDROOT
BRANCH  10  12
HETATM   12  C12 UNL     1       4.285  -4.196  20.752  1.00  0.00     0.091 C 
HETATM   13  N1  UNL     1       3.300  -3.408  20.865  1.00  0.00    -0.284 N 
ATOM     14  H1  UNL     1       3.266  -2.619  20.220  1.00  0.00     0.192 HD
BRANCH  13  15
HETATM   15  O1  UNL     1       2.290  -3.512  21.757  1.00  0.00    -0.291 OA
ATOM     16  H1  UNL     1       1.912  -2.803  22.264  1.00  0.00     0.244 HD
ENDBRANCH  13  15
ENDBRANCH  10  12
BRANCH   1  17
HETATM   17  S1  UNL     1       4.523  -2.439  16.072  1.00  0.00    -0.169 SA
HETATM   18  C1  UNL     1       3.224  -2.727  14.860  1.00  0.00     0.090 C 
ENDBRANCH   1  17
TORSDOF 3
ENDMDL
MODEL 4
REMARK VINA RESULT: -6.773336907      2.982      4.525
REMARK  3 active torsions:
REMARK  status: ('A' for Active; 'I' for Inactive)
REMARK    1  A    between atoms: S1_2  and  C2_3 
REMARK    2  A    between atoms: C11_12  and  C12_13 
REMARK    3  A    between atoms: N1_14  and  O1_16 
ROOT
HETATM    1  C2  UNL     1       4.789  -3.274  19.213  1.00  0.00     0.047 C 
HETATM    2  C3  UNL     1       5.998  -2.539  19.579  1.00  0.00     0.015 C 
HETATM    3  C4  UNL     1       6.935  -3.089  20.579  1.00  0.00     0.001 C 
HETATM    4  C5  UNL     1       7.699  -4.332  20.392  1.00  0.00     0.000 C 
HETATM    5  C6  UNL     1       8.998  -4.291  19.698  1.00  0.00     0.000 C 
HETATM    6  C7  UNL     1       9.148  -5.186  18.446  1.00  0.00     0.000 C 
HETATM    7  C8  UNL     1       8.037  -4.668  17.571  1.00  0.00     0.000 C 
HETATM    8  C9  UNL     1       7.647  -5.265  16.315  1.00  0.00     0.001 C 
HETATM    9  C10 UNL     1       6.121  -5.093  16.140  1.00  0.00     0.010 C 
HETATM   10  C11 UNL     1       5.540  -3.906  16.835  1.00  0.00     0.027 C 
HETATM   11  C13 UNL     1       4.709  -4.158  18.042  1.00  0.00     0.025 C 
ENDROOT
BRANCH  10  12
HETATM   12  C12 UNL     1       4.650  -3.221  15.815  1.00  0.00     0.091 C 
HETATM   13  N1  UNL     1       4.173  -3.826  14.809  1.00  0.00    -0.284 N 
ATOM     14  H1  UNL     1       4.415  -4.812  14.709  1.00  0.00     0.192 HD
BRANCH  13  15
HETATM   15  O1  UNL     1       3.376  -3.293  13.858  1.00  0.00    -0.291 OA
ATOM     16  H1  UNL     1       3.054  -3.735  13.081  1.00  0.00     0.244 HD
ENDBRANCH  13  15
ENDBRANCH  10  12
BRANCH   1  17
HETATM   17  S1  UNL     1       4.361  -4.297  20.694  1.00  0.00    -0.169 SA
HETATM   18  C1  UNL     1       2.879  -3.572  21.413  1.00  0.00     0.090 C 
ENDBRANCH   1  17
TORSDOF 3
ENDMDL
MODEL 5
REMARK VINA RESULT: -6.723812592      4.200      6.381
REMARK  3 active torsions:
REMARK  status: ('A' for Active; 'I' for Inactive)
REMARK    1  A    between atoms: S1_2  and  C2_3 
REMARK    2  A    between atoms: C11_12  and  C12_13 
REMARK    3  A    between atoms: N1_14  and  O1_16 
ROOT
HETATM    1  C2  UNL     1       9.089  -3.600  20.514  1.00  0.00     0.047 C 
HETATM    2  C3  UNL     1       9.704  -3.159  19.264  1.00  0.00     0.015 C 
HETATM    3  C4  UNL     1      10.432  -4.119  18.410  1.00  0.00     0.001 C 
HETATM    4  C5  UNL     1       9.801  -5.268  17.742  1.00  0.00     0.000 C 
HETATM    5  C6  UNL     1       9.175  -5.089  16.421  1.00  0.00     0.000 C 
HETATM    6  C7  UNL     1       7.682  -5.470  16.300  1.00  0.00     0.000 C 
HETATM    7  C8  UNL     1       7.057  -4.572  17.335  1.00  0.00     0.000 C 
HETATM    8  C9  UNL     1       5.667  -4.628  17.728  1.00  0.00     0.001 C 
HETATM    9  C10 UNL     1       5.565  -4.270  19.228  1.00  0.00     0.010 C 
HETATM   10  C11 UNL     1       6.648  -3.376  19.736  1.00  0.00     0.027 C 
HETATM   11  C13 UNL     1       7.674  -3.980  20.625  1.00  0.00     0.025 C 
ENDROOT
BRANCH  10  12
HETATM   12  C12 UNL     1       5.951  -2.288  20.531  1.00  0.00     0.091 C 
HETATM   13  N1  UNL     1       4.719  -2.028  20.396  1.00  0.00    -0.284 N 
ATOM     14  H1  UNL     1       4.202  -2.587  19.718  1.00  0.00     0.192 HD
BRANCH  13  15
HETATM   15  O1  UNL     1       4.023  -1.080  21.062  1.00  0.00    -0.291 OA
ATOM     16  H1  UNL     1       3.313  -1.230  21.675  1.00  0.00     0.244 HD
ENDBRANCH  13  15
ENDBRANCH  10  12
BRANCH   1  17
HETATM   17  S1  UNL     1      10.087  -5.053  21.075  1.00  0.00    -0.169 SA
HETATM   18  C1  UNL     1      11.354  -4.416  22.184  1.00  0.00     0.090 C 
ENDBRANCH   1  17
TORSDOF 3
ENDMDL
