MODEL 1
REMARK VINA RESULT: -6.606425182      0.000      0.000
REMARK  5 active torsions:
REMARK  status: ('A' for Active; 'I' for Inactive)
REMARK    1  A    between atoms: C2_2  and  S1_6 
REMARK    2  A    between atoms: S1_6  and  C3_7 
REMARK    3  A    between atoms: C3_7  and  S2_9 
REMARK    4  A    between atoms: S2_9  and  C5_10 
REMARK    5  A    between atoms: C5_10  and  C6_11 
ROOT
HETATM    1  C3  UNL     1       5.456  -4.248  16.761  1.00  0.00     0.110 C 
HETATM    2  C4  UNL     1       4.826  -2.843  16.911  1.00  0.00     0.033 C 
ENDROOT
BRANCH   1   3
HETATM    3  S1  UNL     1       7.103  -4.052  16.068  1.00  0.00    -0.102 SA
BRANCH   3   4
HETATM    4  C2  UNL     1       8.143  -5.331  16.797  1.00  0.00     0.037 C 
HETATM    5  C1  UNL     1       8.836  -5.126  18.112  1.00  0.00     0.076 C 
HETATM    6  N1  UNL     1       8.298  -6.429  16.200  1.00  0.00    -0.397 N 
ATOM      7  H12 UNL     1       8.886  -7.153  16.612  1.00  0.00     0.156 HD
ATOM      8  H11 UNL     1       7.827  -6.568  15.306  1.00  0.00     0.156 HD
ENDBRANCH   3   4
ENDBRANCH   1   3
BRANCH   1   9
HETATM    9  S2  UNL     1       4.350  -5.301  15.896  1.00  0.00    -0.153 SA
BRANCH   9  10
HETATM   10  C5  UNL     1       3.833  -4.808  14.285  1.00  0.00     0.079 C 
BRANCH  10  11
HETATM   11  C6  UNL     1       2.647  -3.850  14.225  1.00  0.00    -0.005 C 
HETATM   12  C7  UNL     1       1.594  -4.449  15.138  1.00  0.00     0.005 C 
HETATM   13  C8  UNL     1       0.946  -5.620  14.445  1.00  0.00     0.000 C 
HETATM   14  C9  UNL     1       0.045  -5.068  13.365  1.00  0.00     0.000 C 
HETATM   15  C10 UNL     1       0.651  -3.909  12.659  1.00  0.00     0.000 C 
HETATM   16  C11 UNL     1       2.137  -3.753  12.802  1.00  0.00     0.005 C 
ENDBRANCH  10  11
ENDBRANCH   9  10
ENDBRANCH   1   9
TORSDOF 5
ENDMDL
MODEL 2
REMARK VINA RESULT: -6.569399519      2.476      6.812
REMARK  5 active torsions:
REMARK  status: ('A' for Active; 'I' for Inactive)
REMARK    1  A    between atoms: C2_2  and  S1_6 
REMARK    2  A    between atoms: S1_6  and  C3_7 
REMARK    3  A    between atoms: C3_7  and  S2_9 
REMARK    4  A    between atoms: S2_9  and  C5_10 
REMARK    5  A    between atoms: C5_10  and  C6_11 
ROOT
HETATM    1  C3  UNL     1       3.682  -3.838  15.201  1.00  0.00     0.110 C 
HETATM    2  C4  UNL     1       3.771  -2.350  15.612  1.00  0.00     0.033 C 
ENDROOT
BRANCH   1   3
HETATM    3  S1  UNL     1       1.948  -4.256  14.982  1.00  0.00    -0.102 SA
BRANCH   3   4
HETATM    4  C2  UNL     1       1.595  -4.155  13.217  1.00  0.00     0.037 C 
HETATM    5  C1  UNL     1       0.266  -4.572  12.657  1.00  0.00     0.076 C 
HETATM    6  N1  UNL     1       2.472  -3.723  12.425  1.00  0.00    -0.397 N 
ATOM      7  H12 UNL     1       2.273  -3.666  11.426  1.00  0.00     0.156 HD
ATOM      8  H11 UNL     1       3.375  -3.440  12.806  1.00  0.00     0.156 HD
ENDBRANCH   3   4
ENDBRANCH   1   3
BRANCH   1   9
HETATM    9  S2  UNL     1       4.599  -4.819  16.332  1.00  0.00    -0.153 SA
BRANCH   9  10
HETATM   10  C5  UNL     1       6.281  -5.171  15.941  1.00  0.00     0.079 C 
BRANCH  10  11
HETATM   11  C6  UNL     1       7.269  -4.027  16.138  1.00  0.00    -0.005 C 
HETATM   12  C7  UNL     1       8.633  -4.681  16.250  1.00  0.00     0.005 C 
HETATM   13  C8  UNL     1       8.771  -5.307  17.615  1.00  0.00     0.000 C 
HETATM   14  C9  UNL     1       8.957  -4.187  18.613  1.00  0.00     0.000 C 
HETATM   15  C10 UNL     1       8.096  -3.014  18.314  1.00  0.00     0.000 C 
HETATM   16  C11 UNL     1       6.929  -3.266  17.404  1.00  0.00     0.005 C 
ENDBRANCH  10  11
ENDBRANCH   9  10
ENDBRANCH   1   9
TORSDOF 5
ENDMDL
MODEL 3
REMARK VINA RESULT: -6.568887081      2.124      2.936
REMARK  5 active torsions:
REMARK  status: ('A' for Active; 'I' for Inactive)
REMARK    1  A    between atoms: C2_2  and  S1_6 
REMARK    2  A    between atoms: S1_6  and  C3_7 
REMARK    3  A    between atoms: C3_7  and  S2_9 
REMARK    4  A    between atoms: S2_9  and  C5_10 
REMARK    5  A    between atoms: C5_10  and  C6_11 
ROOT
HETATM    1  C3  UNL     1       5.627  -4.490  16.355  1.00  0.00     0.110 C 
HETATM    2  C4  UNL     1       7.073  -5.035  16.272  1.00  0.00     0.033 C 
ENDROOT
BRANCH   1   3
HETATM    3  S1  UNL     1       5.273  -4.102  18.073  1.00  0.00    -0.102 SA
BRANCH   3   4
HETATM    4  C2  UNL     1       4.590  -2.434  18.113  1.00  0.00     0.037 C 
HETATM    5  C1  UNL     1       4.284  -1.681  16.851  1.00  0.00     0.076 C 
HETATM    6  N1  UNL     1       4.357  -1.877  19.217  1.00  0.00    -0.397 N 
ATOM      7  H12 UNL     1       3.970  -0.933  19.239  1.00  0.00     0.156 HD
ATOM      8  H11 UNL     1       4.565  -2.389  20.074  1.00  0.00     0.156 HD
ENDBRANCH   3   4
ENDBRANCH   1   3
BRANCH   1   9
HETATM    9  S2  UNL     1       4.532  -5.599  15.548  1.00  0.00    -0.153 SA
BRANCH   9  10
HETATM   10  C5  UNL     1       3.837  -5.096  14.008  1.00  0.00     0.079 C 
BRANCH  10  11
HETATM   11  C6  UNL     1       2.745  -4.034  14.081  1.00  0.00    -0.005 C 
HETATM   12  C7  UNL     1       1.719  -4.571  15.061  1.00  0.00     0.005 C 
HETATM   13  C8  UNL     1       0.909  -5.650  14.388  1.00  0.00     0.000 C 
HETATM   14  C9  UNL     1      -0.022  -4.976  13.407  1.00  0.00     0.000 C 
HETATM   15  C10 UNL     1       0.630  -3.849  12.690  1.00  0.00     0.000 C 
HETATM   16  C11 UNL     1       2.130  -3.834  12.710  1.00  0.00     0.005 C 
ENDBRANCH  10  11
ENDBRANCH   9  10
ENDBRANCH   1   9
TORSDOF 5
ENDMDL
MODEL 4
REMARK VINA RESULT: -6.528365080      2.760      6.951
REMARK  5 active torsions:
REMARK  status: ('A' for Active; 'I' for Inactive)
REMARK    1  A    between atoms: C2_2  and  S1_6 
REMARK    2  A    between atoms: S1_6  and  C3_7 
REMARK    3  A    between atoms: C3_7  and  S2_9 
REMARK    4  A    between atoms: S2_9  and  C5_10 
REMARK    5  A    between atoms: C5_10  and  C6_11 
ROOT
HETATM    1  C3  UNL     1       4.107  -3.138  15.175  1.00  0.00     0.110 C 
HETATM    2  C4  UNL     1       4.108  -2.053  16.278  1.00  0.00     0.033 C 
ENDROOT
BRANCH   1   3
HETATM    3  S1  UNL     1       2.405  -3.632  14.876  1.00  0.00    -0.102 SA
BRANCH   3   4
HETATM    4  C2  UNL     1       2.221  -3.862  13.098  1.00  0.00     0.037 C 
HETATM    5  C1  UNL     1       3.410  -4.075  12.208  1.00  0.00     0.076 C 
HETATM    6  N1  UNL     1       1.075  -3.850  12.579  1.00  0.00    -0.397 N 
ATOM      7  H12 UNL     1       0.971  -3.981  11.573  1.00  0.00     0.156 HD
ATOM      8  H11 UNL     1       0.267  -3.705  13.185  1.00  0.00     0.156 HD
ENDBRANCH   3   4
ENDBRANCH   1   3
BRANCH   1   9
HETATM    9  S2  UNL     1       5.242  -4.409  15.597  1.00  0.00    -0.153 SA
BRANCH   9  10
HETATM   10  C5  UNL     1       6.131  -4.250  17.110  1.00  0.00     0.079 C 
BRANCH  10  11
HETATM   11  C6  UNL     1       7.507  -3.600  17.014  1.00  0.00    -0.005 C 
HETATM   12  C7  UNL     1       8.346  -4.544  16.175  1.00  0.00     0.005 C 
HETATM   13  C8  UNL     1       8.741  -5.733  17.013  1.00  0.00     0.000 C 
HETATM   14  C9  UNL     1       9.799  -5.272  17.988  1.00  0.00     0.000 C 
HETATM   15  C10 UNL     1       9.512  -3.920  18.536  1.00  0.00     0.000 C 
HETATM   16  C11 UNL     1       8.098  -3.440  18.400  1.00  0.00     0.005 C 
ENDBRANCH  10  11
ENDBRANCH   9  10
ENDBRANCH   1   9
TORSDOF 5
ENDMDL
MODEL 5
REMARK VINA RESULT: -6.522307817      0.747      1.512
REMARK  5 active torsions:
REMARK  status: ('A' for Active; 'I' for Inactive)
REMARK    1  A    between atoms: C2_2  and  S1_6 
REMARK    2  A    between atoms: S1_6  and  C3_7 
REMARK    3  A    between atoms: C3_7  and  S2_9 
REMARK    4  A    between atoms: S2_9  and  C5_10 
REMARK    5  A    between atoms: C5_10  and  C6_11 
ROOT
HETATM    1  C3  UNL     1       5.768  -4.144  16.693  1.00  0.00     0.110 C 
HETATM    2  C4  UNL     1       5.094  -2.778  16.961  1.00  0.00     0.033 C 
ENDROOT
BRANCH   1   3
HETATM    3  S1  UNL     1       7.505  -3.852  16.338  1.00  0.00    -0.102 SA
BRANCH   3   4
HETATM    4  C2  UNL     1       8.409  -5.326  16.847  1.00  0.00     0.037 C 
HETATM    5  C1  UNL     1       9.353  -5.304  18.013  1.00  0.00     0.076 C 
HETATM    6  N1  UNL     1       8.250  -6.406  16.221  1.00  0.00    -0.397 N 
ATOM      7  H12 UNL     1       8.761  -7.241  16.509  1.00  0.00     0.156 HD
ATOM      8  H11 UNL     1       7.608  -6.421  15.429  1.00  0.00     0.156 HD
ENDBRANCH   3   4
ENDBRANCH   1   3
BRANCH   1   9
HETATM    9  S2  UNL     1       4.848  -5.029  15.488  1.00  0.00    -0.153 SA
BRANCH   9  10
HETATM   10  C5  UNL     1       3.106  -4.769  15.427  1.00  0.00     0.079 C 
BRANCH  10  11
HETATM   11  C6  UNL     1       2.336  -5.619  14.421  1.00  0.00    -0.005 C 
HETATM   12  C7  UNL     1       2.655  -5.028  13.061  1.00  0.00     0.005 C 
HETATM   13  C8  UNL     1       1.879  -3.748  12.882  1.00  0.00     0.000 C 
HETATM   14  C9  UNL     1       0.433  -4.120  12.652  1.00  0.00     0.000 C 
HETATM   15  C10 UNL     1      -0.005  -5.250  13.512  1.00  0.00     0.000 C 
HETATM   16  C11 UNL     1       0.851  -5.537  14.710  1.00  0.00     0.005 C 
ENDBRANCH  10  11
ENDBRANCH   9  10
ENDBRANCH   1   9
TORSDOF 5
ENDMDL
