MODEL 1
REMARK VINA RESULT: -6.732648732      0.000      0.000
REMARK  5 active torsions:
REMARK  status: ('A' for Active; 'I' for Inactive)
REMARK    1  A    between atoms: C2_2  and  C3_3 
REMARK    2  A    between atoms: C3_3  and  C5_5 
REMARK    3  A    between atoms: C7_9  and  C8_10 
REMARK    4  A    between atoms: C9_11  and  C10_12 
REMARK    5  A    between atoms: N1_14  and  O1_16 
ROOT
HETATM    1  C5  UNL     1       5.831  -3.930  17.481  1.00  0.00     0.020 C 
HETATM    2  S1  UNL     1       5.322  -4.119  19.315  1.00  0.00    -0.057 SA
HETATM    3  S2  UNL     1       4.383  -2.153  19.244  1.00  0.00    -0.088 SA
HETATM    4  C6  UNL     1       4.502  -1.985  17.406  1.00  0.00     0.126 C 
HETATM    5  C7  UNL     1       4.545  -3.482  17.001  1.00  0.00    -0.030 C 
ENDROOT
BRANCH   5   6
HETATM    6  C8  UNL     1       3.902  -3.763  15.781  1.00  0.00     0.011 C 
HETATM    7  C9  UNL     1       3.676  -3.094  14.702  1.00  0.00     0.027 C 
BRANCH   7   8
HETATM    8  C10 UNL     1       2.939  -3.690  13.548  1.00  0.00     0.028 C 
HETATM    9  C11 UNL     1       3.664  -4.209  12.377  1.00  0.00     0.070 C 
HETATM   10  N1  UNL     1       1.663  -3.755  13.576  1.00  0.00    -0.274 N 
ATOM     11  H1  UNL     1       1.167  -3.394  14.390  1.00  0.00     0.193 HD
BRANCH  10  12
HETATM   12  O1  UNL     1       0.950  -4.287  12.554  1.00  0.00    -0.290 OA
ATOM     13  H1  UNL     1       0.007  -4.385  12.597  1.00  0.00     0.244 HD
ENDBRANCH  10  12
ENDBRANCH   7   8
ENDBRANCH   5   6
BRANCH   1  14
HETATM   14  C3  UNL     1       7.062  -4.190  17.157  1.00  0.00    -0.066 C 
HETATM   15  C4  UNL     1       7.980  -4.698  18.291  1.00  0.00     0.044 C 
BRANCH  14  16
HETATM   16  C2  UNL     1       7.773  -4.089  15.879  1.00  0.00     0.030 C 
HETATM   17  C1  UNL     1       8.926  -5.113  15.850  1.00  0.00     0.010 C 
ENDBRANCH  14  16
ENDBRANCH   1  14
TORSDOF 5
ENDMDL
MODEL 2
REMARK VINA RESULT: -6.480053087      1.081      1.163
REMARK  5 active torsions:
REMARK  status: ('A' for Active; 'I' for Inactive)
REMARK    1  A    between atoms: C2_2  and  C3_3 
REMARK    2  A    between atoms: C3_3  and  C5_5 
REMARK    3  A    between atoms: C7_9  and  C8_10 
REMARK    4  A    between atoms: C9_11  and  C10_12 
REMARK    5  A    between atoms: N1_14  and  O1_16 
ROOT
HETATM    1  C5  UNL     1       5.979  -3.970  17.391  1.00  0.00     0.020 C 
HETATM    2  S1  UNL     1       5.296  -4.206  19.161  1.00  0.00    -0.057 SA
HETATM    3  S2  UNL     1       4.374  -2.233  19.056  1.00  0.00    -0.088 SA
HETATM    4  C6  UNL     1       4.671  -2.015  17.243  1.00  0.00     0.126 C 
HETATM    5  C7  UNL     1       4.747  -3.501  16.802  1.00  0.00    -0.030 C 
ENDROOT
BRANCH   5   6
HETATM    6  C8  UNL     1       4.223  -3.744  15.519  1.00  0.00     0.011 C 
HETATM    7  C9  UNL     1       3.128  -3.430  14.915  1.00  0.00     0.027 C 
BRANCH   7   8
HETATM    8  C10 UNL     1       2.857  -3.855  13.509  1.00  0.00     0.028 C 
HETATM    9  C11 UNL     1       1.498  -3.791  12.949  1.00  0.00     0.070 C 
HETATM   10  N1  UNL     1       3.817  -4.279  12.779  1.00  0.00    -0.274 N 
ATOM     11  H1  UNL     1       4.757  -4.321  13.172  1.00  0.00     0.193 HD
BRANCH  10  12
HETATM   12  O1  UNL     1       3.622  -4.676  11.497  1.00  0.00    -0.290 OA
ATOM     13  H1  UNL     1       3.229  -5.513  11.285  1.00  0.00     0.244 HD
ENDBRANCH  10  12
ENDBRANCH   7   8
ENDBRANCH   5   6
BRANCH   1  14
HETATM   14  C3  UNL     1       7.235  -4.228  17.179  1.00  0.00    -0.066 C 
HETATM   15  C4  UNL     1       8.057  -4.692  18.402  1.00  0.00     0.044 C 
BRANCH  14  16
HETATM   16  C2  UNL     1       8.050  -4.160  15.963  1.00  0.00     0.030 C 
HETATM   17  C1  UNL     1       9.077  -5.311  15.967  1.00  0.00     0.010 C 
ENDBRANCH  14  16
ENDBRANCH   1  14
TORSDOF 5
ENDMDL
MODEL 3
REMARK VINA RESULT: -6.437175698      3.658      5.603
REMARK  5 active torsions:
REMARK  status: ('A' for Active; 'I' for Inactive)
REMARK    1  A    between atoms: C2_2  and  C3_3 
REMARK    2  A    between atoms: C3_3  and  C5_5 
REMARK    3  A    between atoms: C7_9  and  C8_10 
REMARK    4  A    between atoms: C9_11  and  C10_12 
REMARK    5  A    between atoms: N1_14  and  O1_16 
ROOT
HETATM    1  C5  UNL     1       4.952  -3.556  15.903  1.00  0.00     0.020 C 
HETATM    2  S1  UNL     1       4.286  -1.930  16.659  1.00  0.00    -0.057 SA
HETATM    3  S2  UNL     1       4.566  -2.757  18.656  1.00  0.00    -0.088 SA
HETATM    4  C6  UNL     1       5.535  -4.225  18.087  1.00  0.00     0.126 C 
HETATM    5  C7  UNL     1       6.110  -3.670  16.757  1.00  0.00    -0.030 C 
ENDROOT
BRANCH   5   6
HETATM    6  C8  UNL     1       7.401  -4.141  16.450  1.00  0.00     0.011 C 
HETATM    7  C9  UNL     1       8.086  -5.182  16.784  1.00  0.00     0.027 C 
BRANCH   7   8
HETATM    8  C10 UNL     1       9.475  -5.401  16.278  1.00  0.00     0.028 C 
HETATM    9  C11 UNL     1      10.642  -5.004  17.081  1.00  0.00     0.070 C 
HETATM   10  N1  UNL     1       9.655  -5.942  15.134  1.00  0.00    -0.274 N 
ATOM     11  H1  UNL     1       8.842  -6.216  14.583  1.00  0.00     0.193 HD
BRANCH  10  12
HETATM   12  O1  UNL     1      10.894  -6.163  14.633  1.00  0.00    -0.290 OA
ATOM     13  H1  UNL     1      11.629  -5.599  14.843  1.00  0.00     0.244 HD
ENDBRANCH  10  12
ENDBRANCH   7   8
ENDBRANCH   5   6
BRANCH   1  14
HETATM   14  C3  UNL     1       4.271  -4.111  14.946  1.00  0.00    -0.066 C 
HETATM   15  C4  UNL     1       4.269  -5.656  14.909  1.00  0.00     0.044 C 
BRANCH  14  16
HETATM   16  C2  UNL     1       3.478  -3.535  13.857  1.00  0.00     0.030 C 
HETATM   17  C1  UNL     1       3.550  -4.459  12.623  1.00  0.00     0.010 C 
ENDBRANCH  14  16
ENDBRANCH   1  14
TORSDOF 5
ENDMDL
MODEL 4
REMARK VINA RESULT: -6.410550298      1.870      3.210
REMARK  5 active torsions:
REMARK  status: ('A' for Active; 'I' for Inactive)
REMARK    1  A    between atoms: C2_2  and  C3_3 
REMARK    2  A    between atoms: C3_3  and  C5_5 
REMARK    3  A    between atoms: C7_9  and  C8_10 
REMARK    4  A    between atoms: C9_11  and  C10_12 
REMARK    5  A    between atoms: N1_14  and  O1_16 
ROOT
HETATM    1  C5  UNL     1       5.756  -3.534  17.223  1.00  0.00     0.020 C 
HETATM    2  S1  UNL     1       7.623  -3.118  17.225  1.00  0.00    -0.057 SA
HETATM    3  S2  UNL     1       8.063  -5.145  16.554  1.00  0.00    -0.088 SA
HETATM    4  C6  UNL     1       6.304  -5.575  16.178  1.00  0.00     0.126 C 
HETATM    5  C7  UNL     1       5.729  -4.156  15.921  1.00  0.00    -0.030 C 
ENDROOT
BRANCH   5   6
HETATM    6  C8  UNL     1       4.727  -4.115  14.934  1.00  0.00     0.011 C 
HETATM    7  C9  UNL     1       3.638  -3.441  14.778  1.00  0.00     0.027 C 
BRANCH   7   8
HETATM    8  C10 UNL     1       2.759  -3.635  13.586  1.00  0.00     0.028 C 
HETATM    9  C11 UNL     1       3.336  -3.835  12.248  1.00  0.00     0.070 C 
HETATM   10  N1  UNL     1       1.488  -3.630  13.728  1.00  0.00    -0.274 N 
ATOM     11  H1  UNL     1       1.095  -3.492  14.658  1.00  0.00     0.193 HD
BRANCH  10  12
HETATM   12  O1  UNL     1       0.650  -3.803  12.677  1.00  0.00    -0.290 OA
ATOM     13  H1  UNL     1       0.763  -4.511  12.056  1.00  0.00     0.244 HD
ENDBRANCH  10  12
ENDBRANCH   7   8
ENDBRANCH   5   6
BRANCH   1  14
HETATM   14  C3  UNL     1       5.058  -3.222  18.273  1.00  0.00    -0.066 C 
HETATM   15  C4  UNL     1       4.908  -4.320  19.350  1.00  0.00     0.044 C 
BRANCH  14  16
HETATM   16  C2  UNL     1       4.360  -1.989  18.646  1.00  0.00     0.030 C 
HETATM   17  C1  UNL     1       4.368  -1.837  20.181  1.00  0.00     0.010 C 
ENDBRANCH  14  16
ENDBRANCH   1  14
TORSDOF 5
ENDMDL
MODEL 5
REMARK VINA RESULT: -6.368751500      1.270      1.398
REMARK  5 active torsions:
REMARK  status: ('A' for Active; 'I' for Inactive)
REMARK    1  A    between atoms: C2_2  and  C3_3 
REMARK    2  A    between atoms: C3_3  and  C5_5 
REMARK    3  A    between atoms: C7_9  and  C8_10 
REMARK    4  A    between atoms: C9_11  and  C10_12 
REMARK    5  A    between atoms: N1_14  and  O1_16 
ROOT
HETATM    1  C5  UNL     1       5.731  -4.120  18.317  1.00  0.00     0.020 C 
HETATM    2  S1  UNL     1       5.049  -4.173  20.103  1.00  0.00    -0.057 SA
HETATM    3  S2  UNL     1       4.323  -2.130  19.875  1.00  0.00    -0.088 SA
HETATM    4  C6  UNL     1       4.618  -2.059  18.051  1.00  0.00     0.126 C 
HETATM    5  C7  UNL     1       4.544  -3.570  17.706  1.00  0.00    -0.030 C 
ENDROOT
BRANCH   5   6
HETATM    6  C8  UNL     1       3.983  -3.842  16.445  1.00  0.00     0.011 C 
HETATM    7  C9  UNL     1       3.814  -3.159  15.363  1.00  0.00     0.027 C 
BRANCH   7   8
HETATM    8  C10 UNL     1       3.161  -3.749  14.157  1.00  0.00     0.028 C 
HETATM    9  C11 UNL     1       1.702  -3.681  13.978  1.00  0.00     0.070 C 
HETATM   10  N1  UNL     1       3.877  -4.321  13.265  1.00  0.00    -0.274 N 
ATOM     11  H1  UNL     1       4.887  -4.365  13.394  1.00  0.00     0.193 HD
BRANCH  10  12
HETATM   12  O1  UNL     1       3.331  -4.871  12.152  1.00  0.00    -0.290 OA
ATOM     13  H1  UNL     1       2.491  -5.312  12.171  1.00  0.00     0.244 HD
ENDBRANCH  10  12
ENDBRANCH   7   8
ENDBRANCH   5   6
BRANCH   1  14
HETATM   14  C3  UNL     1       6.952  -4.513  18.116  1.00  0.00    -0.066 C 
HETATM   15  C4  UNL     1       7.913  -4.420  19.323  1.00  0.00     0.044 C 
BRANCH  14  16
HETATM   16  C2  UNL     1       7.619  -5.044  16.924  1.00  0.00     0.030 C 
HETATM   17  C1  UNL     1       7.750  -3.928  15.867  1.00  0.00     0.010 C 
ENDBRANCH  14  16
ENDBRANCH   1  14
TORSDOF 5
ENDMDL
