MODEL 1
REMARK VINA RESULT: -5.887507931      0.000      0.000
REMARK  4 active torsions:
REMARK  status: ('A' for Active; 'I' for Inactive)
REMARK    1  A    between atoms: N1_2  and  N2_4 
REMARK    2  A    between atoms: N3_6  and  C3_8 
REMARK    3  A    between atoms: C4_12  and  O1_13 
REMARK    4  A    between atoms: C5_15  and  C6_16 
ROOT
HETATM    1  C3  UNL     1      55.184  35.309  86.178  1.00  0.00     0.120 A 
HETATM    2  S1  UNL     1      54.860  33.647  86.336  1.00  0.00     0.008 SA
HETATM    3  N4  UNL     1      55.009  33.190  84.726  1.00  0.00    -0.305 N 
ATOM      4  H4  UNL     1      54.896  32.258  84.327  1.00  0.00     0.176 HD
HETATM    5  C4  UNL     1      55.306  34.320  84.087  1.00  0.00     0.159 A 
HETATM    6  C5  UNL     1      55.404  35.453  84.831  1.00  0.00     0.068 A 
ENDROOT
BRANCH   1   7
HETATM    7  N3  UNL     1      55.226  36.346  87.192  1.00  0.00    -0.278 N 
HETATM    8  N2  UNL     1      56.235  36.316  87.960  1.00  0.00    -0.245 N 
ATOM      9  H2  UNL     1      56.926  35.581  87.809  1.00  0.00     0.208 HD
ATOM     10  H3  UNL     1      54.494  37.051  87.281  1.00  0.00     0.189 HD
BRANCH   8  11
HETATM   11  N1  UNL     1      56.462  37.210  88.985  1.00  0.00    -0.322 N 
HETATM   12  C1  UNL     1      56.982  36.704  90.242  1.00  0.00     0.172 C 
HETATM   13  C2  UNL     1      56.218  38.631  88.896  1.00  0.00     0.172 C 
ENDBRANCH   8  11
ENDBRANCH   1   7
BRANCH   6  14
HETATM   14  C6  UNL     1      55.736  36.821  84.255  1.00  0.00     0.130 C 
HETATM   15  C7  UNL     1      54.448  37.398  83.648  1.00  0.00     0.057 C 
HETATM   16  C8  UNL     1      56.731  36.778  83.156  1.00  0.00     0.057 C 
HETATM   17  F1  UNL     1      56.173  37.672  85.230  1.00  0.00    -0.238 F 
ENDBRANCH   6  14
BRANCH   5  18
HETATM   18  O1  UNL     1      55.481  34.256  82.795  1.00  0.00    -0.345 OA
ATOM     19  H1  UNL     1      55.820  35.028  82.358  1.00  0.00     0.219 HD
ENDBRANCH   5  18
TORSDOF 4
ENDMDL
MODEL 2
REMARK VINA RESULT: -5.819493157      1.890      2.351
REMARK  4 active torsions:
REMARK  status: ('A' for Active; 'I' for Inactive)
REMARK    1  A    between atoms: N1_2  and  N2_4 
REMARK    2  A    between atoms: N3_6  and  C3_8 
REMARK    3  A    between atoms: C4_12  and  O1_13 
REMARK    4  A    between atoms: C5_15  and  C6_16 
ROOT
HETATM    1  C3  UNL     1      54.929  34.899  85.382  1.00  0.00     0.120 A 
HETATM    2  S1  UNL     1      55.036  33.265  84.922  1.00  0.00     0.008 SA
HETATM    3  N4  UNL     1      55.798  33.453  83.437  1.00  0.00    -0.305 N 
ATOM      4  H4  UNL     1      56.073  32.724  82.778  1.00  0.00     0.176 HD
HETATM    5  C4  UNL     1      55.962  34.769  83.313  1.00  0.00     0.159 A 
HETATM    6  C5  UNL     1      55.512  35.554  84.327  1.00  0.00     0.068 A 
ENDROOT
BRANCH   1   7
HETATM    7  N3  UNL     1      54.370  35.490  86.583  1.00  0.00    -0.278 N 
HETATM    8  N2  UNL     1      54.362  34.740  87.606  1.00  0.00    -0.245 N 
ATOM      9  H2  UNL     1      54.741  33.798  87.509  1.00  0.00     0.208 HD
ATOM     10  H3  UNL     1      54.008  36.443  86.604  1.00  0.00     0.189 HD
BRANCH   8  11
HETATM   11  N1  UNL     1      53.875  35.111  88.842  1.00  0.00    -0.322 N 
HETATM   12  C1  UNL     1      54.119  36.465  89.305  1.00  0.00     0.172 C 
HETATM   13  C2  UNL     1      53.130  34.238  89.719  1.00  0.00     0.172 C 
ENDBRANCH   8  11
ENDBRANCH   1   7
BRANCH   6  14
HETATM   14  C6  UNL     1      55.623  37.071  84.339  1.00  0.00     0.130 C 
HETATM   15  C7  UNL     1      55.746  37.520  85.803  1.00  0.00     0.057 C 
HETATM   16  C8  UNL     1      54.428  37.759  83.793  1.00  0.00     0.057 C 
HETATM   17  F1  UNL     1      56.735  37.488  83.663  1.00  0.00    -0.238 F 
ENDBRANCH   6  14
BRANCH   5  18
HETATM   18  O1  UNL     1      56.542  35.206  82.228  1.00  0.00    -0.345 OA
ATOM     19  H1  UNL     1      55.988  35.578  81.552  1.00  0.00     0.219 HD
ENDBRANCH   5  18
TORSDOF 4
ENDMDL
MODEL 3
REMARK VINA RESULT: -5.646820151      1.312      1.482
REMARK  4 active torsions:
REMARK  status: ('A' for Active; 'I' for Inactive)
REMARK    1  A    between atoms: N1_2  and  N2_4 
REMARK    2  A    between atoms: N3_6  and  C3_8 
REMARK    3  A    between atoms: C4_12  and  O1_13 
REMARK    4  A    between atoms: C5_15  and  C6_16 
ROOT
HETATM    1  C3  UNL     1      54.903  34.972  85.473  1.00  0.00     0.120 A 
HETATM    2  S1  UNL     1      54.845  33.295  85.199  1.00  0.00     0.008 SA
HETATM    3  N4  UNL     1      55.573  33.245  83.686  1.00  0.00    -0.305 N 
ATOM      4  H4  UNL     1      55.759  32.426  83.108  1.00  0.00     0.176 HD
HETATM    5  C4  UNL     1      55.853  34.518  83.411  1.00  0.00     0.159 A 
HETATM    6  C5  UNL     1      55.510  35.449  84.339  1.00  0.00     0.068 A 
ENDROOT
BRANCH   1   7
HETATM    7  N3  UNL     1      54.439  35.742  86.612  1.00  0.00    -0.278 N 
HETATM    8  N2  UNL     1      55.043  35.519  87.704  1.00  0.00    -0.245 N 
ATOM      9  H2  UNL     1      55.795  34.829  87.699  1.00  0.00     0.208 HD
ATOM     10  H3  UNL     1      53.678  36.418  86.539  1.00  0.00     0.189 HD
BRANCH   8  11
HETATM   11  N1  UNL     1      54.754  36.144  88.899  1.00  0.00    -0.322 N 
HETATM   12  C1  UNL     1      55.514  37.327  89.262  1.00  0.00     0.172 C 
HETATM   13  C2  UNL     1      53.738  35.702  89.825  1.00  0.00     0.172 C 
ENDBRANCH   8  11
ENDBRANCH   1   7
BRANCH   6  14
HETATM   14  C6  UNL     1      55.759  36.941  84.178  1.00  0.00     0.130 C 
HETATM   15  C7  UNL     1      54.469  37.576  83.637  1.00  0.00     0.057 C 
HETATM   16  C8  UNL     1      56.824  37.263  83.197  1.00  0.00     0.057 C 
HETATM   17  F1  UNL     1      56.057  37.522  85.378  1.00  0.00    -0.238 F 
ENDBRANCH   6  14
BRANCH   5  18
HETATM   18  O1  UNL     1      56.437  34.776  82.272  1.00  0.00    -0.345 OA
ATOM     19  H1  UNL     1      56.244  35.610  81.858  1.00  0.00     0.219 HD
ENDBRANCH   5  18
TORSDOF 4
ENDMDL
MODEL 4
REMARK VINA RESULT: -5.615175738      1.784      1.989
REMARK  4 active torsions:
REMARK  status: ('A' for Active; 'I' for Inactive)
REMARK    1  A    between atoms: N1_2  and  N2_4 
REMARK    2  A    between atoms: N3_6  and  C3_8 
REMARK    3  A    between atoms: C4_12  and  O1_13 
REMARK    4  A    between atoms: C5_15  and  C6_16 
ROOT
HETATM    1  C3  UNL     1      54.892  34.785  85.456  1.00  0.00     0.120 A 
HETATM    2  S1  UNL     1      54.898  33.138  85.029  1.00  0.00     0.008 SA
HETATM    3  N4  UNL     1      55.632  33.255  83.522  1.00  0.00    -0.305 N 
ATOM      4  H4  UNL     1      55.851  32.499  82.873  1.00  0.00     0.176 HD
HETATM    5  C4  UNL     1      55.864  34.557  83.367  1.00  0.00     0.159 A 
HETATM    6  C5  UNL     1      55.483  35.386  84.374  1.00  0.00     0.068 A 
ENDROOT
BRANCH   1   7
HETATM    7  N3  UNL     1      54.396  35.429  86.658  1.00  0.00    -0.278 N 
HETATM    8  N2  UNL     1      54.303  34.682  87.679  1.00  0.00    -0.245 N 
ATOM      9  H2  UNL     1      54.578  33.705  87.579  1.00  0.00     0.208 HD
ATOM     10  H3  UNL     1      54.140  36.416  86.680  1.00  0.00     0.189 HD
BRANCH   8  11
HETATM   11  N1  UNL     1      53.854  35.099  88.914  1.00  0.00    -0.322 N 
HETATM   12  C1  UNL     1      53.111  34.161  89.734  1.00  0.00     0.172 C 
HETATM   13  C2  UNL     1      54.075  36.419  89.457  1.00  0.00     0.172 C 
ENDBRANCH   8  11
ENDBRANCH   1   7
BRANCH   6  14
HETATM   14  C6  UNL     1      55.676  36.894  84.351  1.00  0.00     0.130 C 
HETATM   15  C7  UNL     1      54.389  37.523  83.797  1.00  0.00     0.057 C 
HETATM   16  C8  UNL     1      56.774  37.340  83.459  1.00  0.00     0.057 C 
HETATM   17  F1  UNL     1      55.888  37.382  85.610  1.00  0.00    -0.238 F 
ENDBRANCH   6  14
BRANCH   5  18
HETATM   18  O1  UNL     1      56.440  34.940  82.259  1.00  0.00    -0.345 OA
ATOM     19  H1  UNL     1      55.983  35.579  81.724  1.00  0.00     0.219 HD
ENDBRANCH   5  18
TORSDOF 4
ENDMDL
MODEL 5
REMARK VINA RESULT: -5.530051835      2.179      3.274
REMARK  4 active torsions:
REMARK  status: ('A' for Active; 'I' for Inactive)
REMARK    1  A    between atoms: N1_2  and  N2_4 
REMARK    2  A    between atoms: N3_6  and  C3_8 
REMARK    3  A    between atoms: C4_12  and  O1_13 
REMARK    4  A    between atoms: C5_15  and  C6_16 
ROOT
HETATM    1  C3  UNL     1      55.091  35.741  85.577  1.00  0.00     0.120 A 
HETATM    2  S1  UNL     1      55.691  35.651  83.988  1.00  0.00     0.008 SA
HETATM    3  N4  UNL     1      55.361  34.035  83.667  1.00  0.00    -0.305 N 
ATOM      4  H4  UNL     1      55.552  33.516  82.810  1.00  0.00     0.176 HD
HETATM    5  C4  UNL     1      54.792  33.585  84.784  1.00  0.00     0.159 A 
HETATM    6  C5  UNL     1      54.638  34.466  85.807  1.00  0.00     0.068 A 
ENDROOT
BRANCH   1   7
HETATM    7  N3  UNL     1      55.049  36.867  86.490  1.00  0.00    -0.278 N 
HETATM    8  N2  UNL     1      56.086  37.031  87.202  1.00  0.00    -0.245 N 
ATOM      9  H2  UNL     1      56.855  36.372  87.080  1.00  0.00     0.208 HD
ATOM     10  H3  UNL     1      54.241  37.486  86.555  1.00  0.00     0.189 HD
BRANCH   8  11
HETATM   11  N1  UNL     1      56.246  38.039  88.129  1.00  0.00    -0.322 N 
HETATM   12  C1  UNL     1      55.891  39.394  87.747  1.00  0.00     0.172 C 
HETATM   13  C2  UNL     1      56.746  37.841  89.469  1.00  0.00     0.172 C 
ENDBRANCH   8  11
ENDBRANCH   1   7
BRANCH   6  14
HETATM   14  C6  UNL     1      54.009  34.111  87.146  1.00  0.00     0.130 C 
HETATM   15  C7  UNL     1      55.081  33.410  87.995  1.00  0.00     0.057 C 
HETATM   16  C8  UNL     1      52.877  33.159  87.037  1.00  0.00     0.057 C 
HETATM   17  F1  UNL     1      53.598  35.233  87.809  1.00  0.00    -0.238 F 
ENDBRANCH   6  14
BRANCH   5  18
HETATM   18  O1  UNL     1      54.426  32.332  84.813  1.00  0.00    -0.345 OA
ATOM     19  H1  UNL     1      54.912  31.745  85.379  1.00  0.00     0.219 HD
ENDBRANCH   5  18
TORSDOF 4
ENDMDL
