MODEL 1
REMARK VINA RESULT: -5.965396829      0.000      0.000
REMARK  5 active torsions:
REMARK  status: ('A' for Active; 'I' for Inactive)
REMARK    1  A    between atoms: C2_2  and  C3_3 
REMARK    2  A    between atoms: C3_3  and  C4_5 
REMARK    3  A    between atoms: C4_5  and  N1_6 
REMARK    4  A    between atoms: N1_6  and  C5_8 
REMARK    5  A    between atoms: C6_13  and  C7_14 
ROOT
HETATM    1  C5  UNL     1      54.085  33.999  85.805  1.00  0.00     0.165 A 
HETATM    2  N2  UNL     1      54.537  32.938  85.124  1.00  0.00    -0.279 N 
ATOM      3  H2  UNL     1      54.259  31.993  85.388  1.00  0.00     0.189 HD
HETATM    4  N3  UNL     1      55.317  33.133  84.143  1.00  0.00    -0.289 N 
ATOM      5  H3  UNL     1      55.668  32.334  83.615  1.00  0.00     0.188 HD
HETATM    6  C6  UNL     1      55.683  34.354  83.793  1.00  0.00     0.138 A 
HETATM    7  S1  UNL     1      54.833  35.289  84.975  1.00  0.00    -0.030 SA
ENDROOT
BRANCH   1   8
HETATM    8  N1  UNL     1      53.279  34.021  86.841  1.00  0.00    -0.344 N 
ATOM      9  H1  UNL     1      52.280  33.843  86.741  1.00  0.00     0.167 HD
BRANCH   8  10
HETATM   10  C4  UNL     1      53.857  34.302  88.104  1.00  0.00     0.114 C 
BRANCH  10  11
HETATM   11  C3  UNL     1      53.713  33.474  89.125  1.00  0.00     0.048 C 
HETATM   12 CL1  UNL     1      52.221  33.489  90.030  1.00  0.00    -0.083 Cl
BRANCH  11  13
HETATM   13  C2  UNL     1      54.762  32.545  89.523  1.00  0.00     0.015 C 
HETATM   14  C1  UNL     1      56.007  32.831  89.189  1.00  0.00     0.013 C 
ENDBRANCH  11  13
ENDBRANCH  10  11
ENDBRANCH   8  10
ENDBRANCH   1   8
BRANCH   6  15
HETATM   15  C7  UNL     1      56.561  34.804  82.713  1.00  0.00     0.180 C 
HETATM   16  C8  UNL     1      57.238  36.098  82.826  1.00  0.00     0.099 C 
HETATM   17  O1  UNL     1      56.710  34.072  81.724  1.00  0.00    -0.291 OA
ENDBRANCH   6  15
TORSDOF 5
ENDMDL
MODEL 2
REMARK VINA RESULT: -5.924374037      4.060      6.355
REMARK  5 active torsions:
REMARK  status: ('A' for Active; 'I' for Inactive)
REMARK    1  A    between atoms: C2_2  and  C3_3 
REMARK    2  A    between atoms: C3_3  and  C4_5 
REMARK    3  A    between atoms: C4_5  and  N1_6 
REMARK    4  A    between atoms: N1_6  and  C5_8 
REMARK    5  A    between atoms: C6_13  and  C7_14 
ROOT
HETATM    1  C5  UNL     1      53.745  34.165  86.260  1.00  0.00     0.165 A 
HETATM    2  N2  UNL     1      52.757  33.281  86.449  1.00  0.00    -0.279 N 
ATOM      3  H2  UNL     1      52.269  32.867  85.654  1.00  0.00     0.189 HD
HETATM    4  N3  UNL     1      52.440  32.968  87.636  1.00  0.00    -0.289 N 
ATOM      5  H3  UNL     1      51.690  32.296  87.794  1.00  0.00     0.188 HD
HETATM    6  C6  UNL     1      53.067  33.499  88.673  1.00  0.00     0.138 A 
HETATM    7  S1  UNL     1      54.198  34.528  87.864  1.00  0.00    -0.030 SA
ENDROOT
BRANCH   1   8
HETATM    8  N1  UNL     1      54.224  34.622  85.126  1.00  0.00    -0.344 N 
ATOM      9  H1  UNL     1      53.866  34.298  84.228  1.00  0.00     0.167 HD
BRANCH   8  10
HETATM   10  C4  UNL     1      55.261  35.584  85.204  1.00  0.00     0.114 C 
BRANCH  10  11
HETATM   11  C3  UNL     1      55.450  36.471  84.243  1.00  0.00     0.048 C 
HETATM   12 CL1  UNL     1      56.842  36.316  83.202  1.00  0.00    -0.083 Cl
BRANCH  11  13
HETATM   13  C2  UNL     1      54.532  37.580  84.018  1.00  0.00     0.015 C 
HETATM   14  C1  UNL     1      54.471  38.533  84.932  1.00  0.00     0.013 C 
ENDBRANCH  11  13
ENDBRANCH  10  11
ENDBRANCH   8  10
ENDBRANCH   1   8
BRANCH   6  15
HETATM   15  C7  UNL     1      52.868  33.286  90.106  1.00  0.00     0.180 C 
HETATM   16  C8  UNL     1      51.652  33.789  90.748  1.00  0.00     0.099 C 
HETATM   17  O1  UNL     1      53.742  32.680  90.744  1.00  0.00    -0.291 OA
ENDBRANCH   6  15
TORSDOF 5
ENDMDL
MODEL 3
REMARK VINA RESULT: -5.921714595      1.343      1.496
REMARK  5 active torsions:
REMARK  status: ('A' for Active; 'I' for Inactive)
REMARK    1  A    between atoms: C2_2  and  C3_3 
REMARK    2  A    between atoms: C3_3  and  C4_5 
REMARK    3  A    between atoms: C4_5  and  N1_6 
REMARK    4  A    between atoms: N1_6  and  C5_8 
REMARK    5  A    between atoms: C6_13  and  C7_14 
ROOT
HETATM    1  C5  UNL     1      54.068  34.079  85.751  1.00  0.00     0.165 A 
HETATM    2  N2  UNL     1      54.415  33.012  85.020  1.00  0.00    -0.279 N 
ATOM      3  H2  UNL     1      54.057  32.084  85.250  1.00  0.00     0.189 HD
HETATM    4  N3  UNL     1      55.197  33.178  84.036  1.00  0.00    -0.289 N 
ATOM      5  H3  UNL     1      55.470  32.374  83.471  1.00  0.00     0.188 HD
HETATM    6  C6  UNL     1      55.667  34.376  83.731  1.00  0.00     0.138 A 
HETATM    7  S1  UNL     1      54.917  35.331  84.964  1.00  0.00    -0.030 SA
ENDROOT
BRANCH   1   8
HETATM    8  N1  UNL     1      53.279  34.128  86.800  1.00  0.00    -0.344 N 
ATOM      9  H1  UNL     1      52.293  33.873  86.736  1.00  0.00     0.167 HD
BRANCH   8  10
HETATM   10  C4  UNL     1      53.855  34.550  88.023  1.00  0.00     0.114 C 
BRANCH  10  11
HETATM   11  C3  UNL     1      54.753  33.811  88.651  1.00  0.00     0.048 C 
HETATM   12 CL1  UNL     1      56.449  34.146  88.414  1.00  0.00    -0.083 Cl
BRANCH  11  13
HETATM   13  C2  UNL     1      54.376  32.720  89.540  1.00  0.00     0.015 C 
HETATM   14  C1  UNL     1      53.259  32.841  90.235  1.00  0.00     0.013 C 
ENDBRANCH  11  13
ENDBRANCH  10  11
ENDBRANCH   8  10
ENDBRANCH   1   8
BRANCH   6  15
HETATM   15  C7  UNL     1      56.568  34.791  82.657  1.00  0.00     0.180 C 
HETATM   16  C8  UNL     1      57.299  36.055  82.778  1.00  0.00     0.099 C 
HETATM   17  O1  UNL     1      56.691  34.057  81.666  1.00  0.00    -0.291 OA
ENDBRANCH   6  15
TORSDOF 5
ENDMDL
MODEL 4
REMARK VINA RESULT: -5.852367850      1.588      1.787
REMARK  5 active torsions:
REMARK  status: ('A' for Active; 'I' for Inactive)
REMARK    1  A    between atoms: C2_2  and  C3_3 
REMARK    2  A    between atoms: C3_3  and  C4_5 
REMARK    3  A    between atoms: C4_5  and  N1_6 
REMARK    4  A    between atoms: N1_6  and  C5_8 
REMARK    5  A    between atoms: C6_13  and  C7_14 
ROOT
HETATM    1  C5  UNL     1      54.266  33.746  85.380  1.00  0.00     0.165 A 
HETATM    2  N2  UNL     1      54.878  32.907  84.535  1.00  0.00    -0.279 N 
ATOM      3  H2  UNL     1      54.687  31.905  84.567  1.00  0.00     0.189 HD
HETATM    4  N3  UNL     1      55.700  33.382  83.695  1.00  0.00    -0.289 N 
ATOM      5  H3  UNL     1      56.173  32.754  83.045  1.00  0.00     0.188 HD
HETATM    6  C6  UNL     1      55.954  34.679  83.646  1.00  0.00     0.138 A 
HETATM    7  S1  UNL     1      54.925  35.250  84.915  1.00  0.00    -0.030 SA
ENDROOT
BRANCH   1   8
HETATM    8  N1  UNL     1      53.391  33.466  86.318  1.00  0.00    -0.344 N 
ATOM      9  H1  UNL     1      52.601  32.846  86.140  1.00  0.00     0.167 HD
BRANCH   8  10
HETATM   10  C4  UNL     1      53.591  34.062  87.588  1.00  0.00     0.114 C 
BRANCH  10  11
HETATM   11  C3  UNL     1      54.460  33.566  88.451  1.00  0.00     0.048 C 
HETATM   12 CL1  UNL     1      56.140  34.023  88.326  1.00  0.00    -0.083 Cl
BRANCH  11  13
HETATM   13  C2  UNL     1      54.065  32.646  89.509  1.00  0.00     0.015 C 
HETATM   14  C1  UNL     1      53.033  32.975  90.266  1.00  0.00     0.013 C 
ENDBRANCH  11  13
ENDBRANCH  10  11
ENDBRANCH   8  10
ENDBRANCH   1   8
BRANCH   6  15
HETATM   15  C7  UNL     1      56.852  35.433  82.772  1.00  0.00     0.180 C 
HETATM   16  C8  UNL     1      57.168  34.911  81.440  1.00  0.00     0.099 C 
HETATM   17  O1  UNL     1      57.324  36.503  83.184  1.00  0.00    -0.291 OA
ENDBRANCH   6  15
TORSDOF 5
ENDMDL
MODEL 5
REMARK VINA RESULT: -5.823609077      3.778      6.247
REMARK  5 active torsions:
REMARK  status: ('A' for Active; 'I' for Inactive)
REMARK    1  A    between atoms: C2_2  and  C3_3 
REMARK    2  A    between atoms: C3_3  and  C4_5 
REMARK    3  A    between atoms: C4_5  and  N1_6 
REMARK    4  A    between atoms: N1_6  and  C5_8 
REMARK    5  A    between atoms: C6_13  and  C7_14 
ROOT
HETATM    1  C5  UNL     1      53.537  34.015  86.444  1.00  0.00     0.165 A 
HETATM    2  N2  UNL     1      52.641  33.045  86.662  1.00  0.00    -0.279 N 
ATOM      3  H2  UNL     1      52.212  32.547  85.881  1.00  0.00     0.189 HD
HETATM    4  N3  UNL     1      52.336  32.757  87.858  1.00  0.00    -0.289 N 
ATOM      5  H3  UNL     1      51.655  32.019  88.039  1.00  0.00     0.188 HD
HETATM    6  C6  UNL     1      52.886  33.397  88.877  1.00  0.00     0.138 A 
HETATM    7  S1  UNL     1      53.921  34.498  88.035  1.00  0.00    -0.030 SA
ENDROOT
BRANCH   1   8
HETATM    8  N1  UNL     1      53.988  34.467  85.296  1.00  0.00    -0.344 N 
ATOM      9  H1  UNL     1      53.481  34.307  84.426  1.00  0.00     0.167 HD
BRANCH   8  10
HETATM   10  C4  UNL     1      55.210  35.184  85.319  1.00  0.00     0.114 C 
BRANCH  10  11
HETATM   11  C3  UNL     1      55.240  36.495  85.155  1.00  0.00     0.048 C 
HETATM   12 CL1  UNL     1      55.607  37.516  86.523  1.00  0.00    -0.083 Cl
BRANCH  11  13
HETATM   13  C2  UNL     1      54.977  37.123  83.867  1.00  0.00     0.015 C 
HETATM   14  C1  UNL     1      54.199  38.190  83.842  1.00  0.00     0.013 C 
ENDBRANCH  11  13
ENDBRANCH  10  11
ENDBRANCH   8  10
ENDBRANCH   1   8
BRANCH   6  15
HETATM   15  C7  UNL     1      52.685  33.231  90.316  1.00  0.00     0.180 C 
HETATM   16  C8  UNL     1      51.490  33.798  90.946  1.00  0.00     0.099 C 
HETATM   17  O1  UNL     1      53.537  32.611  90.969  1.00  0.00    -0.291 OA
ENDBRANCH   6  15
TORSDOF 5
ENDMDL
