MODEL 1
REMARK VINA RESULT: -5.605386741      0.000      0.000
REMARK  3 active torsions:
REMARK  status: ('A' for Active; 'I' for Inactive)
REMARK    1  A    between atoms: C2_2  and  C3_3 
REMARK    2  A    between atoms: C4_4  and  N1_5 
REMARK    3  A    between atoms: C5_9  and  O4_10 
ROOT
HETATM    1  C3  UNL     1      54.899  35.368  85.553  1.00  0.00     0.021 A 
HETATM    2  C4  UNL     1      54.420  34.089  85.711  1.00  0.00     0.224 A 
HETATM    3  O3  UNL     1      54.788  33.375  84.643  1.00  0.00    -0.263 OA
HETATM    4  C5  UNL     1      55.467  34.087  83.802  1.00  0.00     0.203 A 
HETATM    5  C6  UNL     1      55.562  35.354  84.337  1.00  0.00     0.080 A 
HETATM    6 BR1  UNL     1      56.446  36.853  83.556  1.00  0.00    -0.045 Br
ENDROOT
BRANCH   2   7
HETATM    7  N1  UNL     1      53.668  33.551  86.778  1.00  0.00    -0.090 N 
HETATM    8  O1  UNL     1      54.225  33.379  87.878  1.00  0.00    -0.530 OA
HETATM    9  O2  UNL     1      52.362  33.209  86.667  1.00  0.00    -0.530 OA
ENDBRANCH   2   7
BRANCH   1  10
HETATM   10  C2  UNL     1      54.761  36.513  86.477  1.00  0.00     0.040 C 
HETATM   11  C1  UNL     1      55.839  36.573  87.513  1.00  0.00     0.010 C 
ENDBRANCH   1  10
BRANCH   4  12
HETATM   12  O4  UNL     1      56.023  33.692  82.571  1.00  0.00    -0.340 OA
ATOM     13  H4  UNL     1      55.909  32.869  82.109  1.00  0.00     0.220 HD
ENDBRANCH   4  12
TORSDOF 3
ENDMDL
MODEL 2
REMARK VINA RESULT: -5.395523083      2.306      4.040
REMARK  3 active torsions:
REMARK  status: ('A' for Active; 'I' for Inactive)
REMARK    1  A    between atoms: C2_2  and  C3_3 
REMARK    2  A    between atoms: C4_4  and  N1_5 
REMARK    3  A    between atoms: C5_9  and  O4_10 
ROOT
HETATM    1  C3  UNL     1      55.608  35.852  84.375  1.00  0.00     0.021 A 
HETATM    2  C4  UNL     1      55.820  34.683  83.684  1.00  0.00     0.224 A 
HETATM    3  O3  UNL     1      55.653  33.664  84.533  1.00  0.00    -0.263 OA
HETATM    4  C5  UNL     1      55.349  34.077  85.721  1.00  0.00     0.203 A 
HETATM    5  C6  UNL     1      55.310  35.455  85.667  1.00  0.00     0.080 A 
HETATM    6 BR1  UNL     1      54.918  36.636  87.113  1.00  0.00    -0.045 Br
ENDROOT
BRANCH   2   7
HETATM    7  N1  UNL     1      56.159  34.507  82.325  1.00  0.00    -0.090 N 
HETATM    8  O1  UNL     1      55.402  33.833  81.601  1.00  0.00    -0.530 OA
HETATM    9  O2  UNL     1      57.270  35.037  81.761  1.00  0.00    -0.530 OA
ENDBRANCH   2   7
BRANCH   1  10
HETATM   10  C2  UNL     1      55.664  37.237  83.862  1.00  0.00     0.040 C 
HETATM   11  C1  UNL     1      54.314  37.852  83.664  1.00  0.00     0.010 C 
ENDBRANCH   1  10
BRANCH   4  12
HETATM   12  O4  UNL     1      55.097  33.312  86.875  1.00  0.00    -0.340 OA
ATOM     13  H4  UNL     1      54.990  33.611  87.770  1.00  0.00     0.220 HD
ENDBRANCH   4  12
TORSDOF 3
ENDMDL
MODEL 3
REMARK VINA RESULT: -5.393975889      2.110      3.689
REMARK  3 active torsions:
REMARK  status: ('A' for Active; 'I' for Inactive)
REMARK    1  A    between atoms: C2_2  and  C3_3 
REMARK    2  A    between atoms: C4_4  and  N1_5 
REMARK    3  A    between atoms: C5_9  and  O4_10 
ROOT
HETATM    1  C3  UNL     1      55.527  36.358  85.269  1.00  0.00     0.021 A 
HETATM    2  C4  UNL     1      55.396  35.016  85.537  1.00  0.00     0.224 A 
HETATM    3  O3  UNL     1      55.417  34.857  86.864  1.00  0.00    -0.263 OA
HETATM    4  C5  UNL     1      55.550  35.987  87.480  1.00  0.00     0.203 A 
HETATM    5  C6  UNL     1      55.624  36.964  86.509  1.00  0.00     0.080 A 
HETATM    6 BR1  UNL     1      55.829  38.838  86.799  1.00  0.00    -0.045 Br
ENDROOT
BRANCH   2   7
HETATM    7  N1  UNL     1      55.262  33.941  84.632  1.00  0.00    -0.090 N 
HETATM    8  O1  UNL     1      54.269  33.196  84.729  1.00  0.00    -0.530 OA
HETATM    9  O2  UNL     1      56.163  33.675  83.656  1.00  0.00    -0.530 OA
ENDBRANCH   2   7
BRANCH   1  10
HETATM   10  C2  UNL     1      55.544  37.026  83.950  1.00  0.00     0.040 C 
HETATM   11  C1  UNL     1      54.293  37.794  83.657  1.00  0.00     0.010 C 
ENDBRANCH   1  10
BRANCH   4  12
HETATM   12  O4  UNL     1      55.612  36.226  88.866  1.00  0.00    -0.340 OA
ATOM     13  H4  UNL     1      55.060  36.793  89.392  1.00  0.00     0.220 HD
ENDBRANCH   4  12
TORSDOF 3
ENDMDL
MODEL 4
REMARK VINA RESULT: -5.326997868      2.494      3.835
REMARK  3 active torsions:
REMARK  status: ('A' for Active; 'I' for Inactive)
REMARK    1  A    between atoms: C2_2  and  C3_3 
REMARK    2  A    between atoms: C4_4  and  N1_5 
REMARK    3  A    between atoms: C5_9  and  O4_10 
ROOT
HETATM    1  C3  UNL     1      54.808  34.968  86.627  1.00  0.00     0.021 A 
HETATM    2  C4  UNL     1      54.650  34.307  85.432  1.00  0.00     0.224 A 
HETATM    3  O3  UNL     1      53.710  33.372  85.597  1.00  0.00    -0.263 OA
HETATM    4  C5  UNL     1      53.243  33.372  86.804  1.00  0.00     0.203 A 
HETATM    5  C6  UNL     1      53.909  34.365  87.491  1.00  0.00     0.080 A 
HETATM    6 BR1  UNL     1      53.657  34.847  89.319  1.00  0.00    -0.045 Br
ENDROOT
BRANCH   2   7
HETATM    7  N1  UNL     1      55.323  34.517  84.209  1.00  0.00    -0.090 N 
HETATM    8  O1  UNL     1      55.131  35.583  83.594  1.00  0.00    -0.530 OA
HETATM    9  O2  UNL     1      56.174  33.615  83.665  1.00  0.00    -0.530 OA
ENDBRANCH   2   7
BRANCH   1  10
HETATM   10  C2  UNL     1      55.718  36.090  86.935  1.00  0.00     0.040 C 
HETATM   11  C1  UNL     1      55.127  37.434  86.642  1.00  0.00     0.010 C 
ENDBRANCH   1  10
BRANCH   4  12
HETATM   12  O4  UNL     1      52.249  32.542  87.357  1.00  0.00    -0.340 OA
ATOM     13  H4  UNL     1      51.491  32.163  86.928  1.00  0.00     0.220 HD
ENDBRANCH   4  12
TORSDOF 3
ENDMDL
MODEL 5
REMARK VINA RESULT: -5.284902880      2.588      3.357
REMARK  3 active torsions:
REMARK  status: ('A' for Active; 'I' for Inactive)
REMARK    1  A    between atoms: C2_2  and  C3_3 
REMARK    2  A    between atoms: C4_4  and  N1_5 
REMARK    3  A    between atoms: C5_9  and  O4_10 
ROOT
HETATM    1  C3  UNL     1      55.362  35.923  85.894  1.00  0.00     0.021 A 
HETATM    2  C4  UNL     1      55.291  35.346  84.648  1.00  0.00     0.224 A 
HETATM    3  O3  UNL     1      54.841  36.267  83.791  1.00  0.00    -0.263 OA
HETATM    4  C5  UNL     1      54.615  37.397  84.380  1.00  0.00     0.203 A 
HETATM    5  C6  UNL     1      54.931  37.225  85.711  1.00  0.00     0.080 A 
HETATM    6 BR1  UNL     1      54.801  38.539  87.088  1.00  0.00    -0.045 Br
ENDROOT
BRANCH   2   7
HETATM    7  N1  UNL     1      55.613  34.026  84.264  1.00  0.00    -0.090 N 
HETATM    8  O1  UNL     1      55.056  33.078  84.848  1.00  0.00    -0.530 OA
HETATM    9  O2  UNL     1      56.503  33.734  83.285  1.00  0.00    -0.530 OA
ENDBRANCH   2   7
BRANCH   1  10
HETATM   10  C2  UNL     1      55.817  35.307  87.159  1.00  0.00     0.040 C 
HETATM   11  C1  UNL     1      54.699  34.750  87.983  1.00  0.00     0.010 C 
ENDBRANCH   1  10
BRANCH   4  12
HETATM   12  O4  UNL     1      54.140  38.597  83.816  1.00  0.00    -0.340 OA
ATOM     13  H4  UNL     1      53.931  38.779  82.907  1.00  0.00     0.220 HD
ENDBRANCH   4  12
TORSDOF 3
ENDMDL
