MODEL 1
REMARK VINA RESULT: -6.862277145      0.000      0.000
REMARK  7 active torsions:
REMARK  status: ('A' for Active; 'I' for Inactive)
REMARK    1  A    between atoms: O1_1  and  N1_3 
REMARK    2  A    between atoms: N1_3  and  N2_5 
REMARK    3  A    between atoms: N2_5  and  C1_7 
REMARK    4  A    between atoms: C2_10  and  C3_11 
REMARK    5  A    between atoms: C3_11  and  O2_12 
REMARK    6  A    between atoms: C3_11  and  C4_14 
REMARK    7  A    between atoms: C4_14  and  C5_15 
ROOT
HETATM    1  C1  UNL     1      55.849  34.401  82.821  1.00  0.00     0.165 A 
HETATM    2  N3  UNL     1      55.226  33.801  83.822  1.00  0.00    -0.333 N 
ATOM      3  H3  UNL     1      54.938  32.826  83.736  1.00  0.00     0.168 HD
HETATM    4  C2  UNL     1      54.976  34.486  84.959  1.00  0.00     0.074 A 
HETATM    5  C6  UNL     1      55.412  35.778  84.953  1.00  0.00     0.085 A 
HETATM    6  S1  UNL     1      56.129  35.955  83.390  1.00  0.00    -0.062 SA
ENDROOT
BRANCH   4   7
HETATM    7  C3  UNL     1      54.293  33.844  86.069  1.00  0.00     0.095 C 
BRANCH   7   8
HETATM    8  O2  UNL     1      53.424  32.893  85.675  1.00  0.00    -0.358 OA
ATOM      9  H2  UNL     1      53.805  32.269  85.069  1.00  0.00     0.217 HD
ENDBRANCH   7   8
BRANCH   7  10
HETATM   10  C4  UNL     1      54.314  33.968  87.447  1.00  0.00     0.075 C 
BRANCH  10  11
HETATM   11  C5  UNL     1      54.352  33.305  88.536  1.00  0.00     0.106 C 
HETATM   12 CL1  UNL     1      55.592  32.548  89.448  1.00  0.00    -0.071 Cl
HETATM   13 CL2  UNL     1      52.703  33.105  89.319  1.00  0.00    -0.071 Cl
ENDBRANCH  10  11
ENDBRANCH   7  10
ENDBRANCH   4   7
BRANCH   1  14
HETATM   14  N2  UNL     1      56.162  33.859  81.649  1.00  0.00    -0.260 N 
ATOM     15  H2  UNL     1      57.145  33.742  81.403  1.00  0.00     0.191 HD
BRANCH  14  16
HETATM   16  N1  UNL     1      55.189  33.448  80.750  1.00  0.00    -0.208 N 
ATOM     17  H1  UNL     1      54.322  33.981  80.679  1.00  0.00     0.215 HD
BRANCH  16  18
HETATM   18  O1  UNL     1      55.347  32.428  80.015  1.00  0.00    -0.274 OA
ATOM     19  H1  UNL     1      55.026  31.573  80.272  1.00  0.00     0.246 HD
ENDBRANCH  16  18
ENDBRANCH  14  16
ENDBRANCH   1  14
TORSDOF 7
ENDMDL
MODEL 2
REMARK VINA RESULT: -6.858382755      0.193      1.126
REMARK  7 active torsions:
REMARK  status: ('A' for Active; 'I' for Inactive)
REMARK    1  A    between atoms: O1_1  and  N1_3 
REMARK    2  A    between atoms: N1_3  and  N2_5 
REMARK    3  A    between atoms: N2_5  and  C1_7 
REMARK    4  A    between atoms: C2_10  and  C3_11 
REMARK    5  A    between atoms: C3_11  and  O2_12 
REMARK    6  A    between atoms: C3_11  and  C4_14 
REMARK    7  A    between atoms: C4_14  and  C5_15 
ROOT
HETATM    1  C1  UNL     1      55.891  34.401  82.775  1.00  0.00     0.165 A 
HETATM    2  N3  UNL     1      55.350  33.775  83.806  1.00  0.00    -0.333 N 
ATOM      3  H3  UNL     1      55.115  32.784  83.739  1.00  0.00     0.168 HD
HETATM    4  C2  UNL     1      55.110  34.454  84.949  1.00  0.00     0.074 A 
HETATM    5  C6  UNL     1      55.468  35.770  84.916  1.00  0.00     0.085 A 
HETATM    6  S1  UNL     1      56.105  35.975  83.321  1.00  0.00    -0.062 SA
ENDROOT
BRANCH   4   7
HETATM    7  C3  UNL     1      54.515  33.784  86.093  1.00  0.00     0.095 C 
BRANCH   7   8
HETATM    8  O2  UNL     1      53.427  33.058  85.771  1.00  0.00    -0.358 OA
ATOM      9  H2  UNL     1      53.401  32.214  86.206  1.00  0.00     0.217 HD
ENDBRANCH   7   8
BRANCH   7  10
HETATM   10  C4  UNL     1      54.793  33.704  87.446  1.00  0.00     0.075 C 
BRANCH  10  11
HETATM   11  C5  UNL     1      54.350  33.267  88.559  1.00  0.00     0.106 C 
HETATM   12 CL1  UNL     1      52.824  33.280  89.342  1.00  0.00    -0.071 Cl
HETATM   13 CL2  UNL     1      55.634  32.427  89.569  1.00  0.00    -0.071 Cl
ENDBRANCH  10  11
ENDBRANCH   7  10
ENDBRANCH   4   7
BRANCH   1  14
HETATM   14  N2  UNL     1      56.184  33.868  81.593  1.00  0.00    -0.260 N 
ATOM     15  H2  UNL     1      57.162  33.781  81.317  1.00  0.00     0.191 HD
BRANCH  14  16
HETATM   16  N1  UNL     1      55.196  33.427  80.726  1.00  0.00    -0.208 N 
ATOM     17  H1  UNL     1      54.317  33.943  80.671  1.00  0.00     0.215 HD
BRANCH  16  18
HETATM   18  O1  UNL     1      55.355  32.402  80.000  1.00  0.00    -0.274 OA
ATOM     19  H1  UNL     1      54.893  32.295  79.177  1.00  0.00     0.246 HD
ENDBRANCH  16  18
ENDBRANCH  14  16
ENDBRANCH   1  14
TORSDOF 7
ENDMDL
MODEL 3
REMARK VINA RESULT: -6.658038582      1.130      1.248
REMARK  7 active torsions:
REMARK  status: ('A' for Active; 'I' for Inactive)
REMARK    1  A    between atoms: O1_1  and  N1_3 
REMARK    2  A    between atoms: N1_3  and  N2_5 
REMARK    3  A    between atoms: N2_5  and  C1_7 
REMARK    4  A    between atoms: C2_10  and  C3_11 
REMARK    5  A    between atoms: C3_11  and  O2_12 
REMARK    6  A    between atoms: C3_11  and  C4_14 
REMARK    7  A    between atoms: C4_14  and  C5_15 
ROOT
HETATM    1  C1  UNL     1      56.389  34.511  82.599  1.00  0.00     0.165 A 
HETATM    2  N3  UNL     1      55.643  33.729  83.362  1.00  0.00    -0.333 N 
ATOM      3  H3  UNL     1      55.484  32.756  83.098  1.00  0.00     0.168 HD
HETATM    4  C2  UNL     1      55.094  34.225  84.492  1.00  0.00     0.074 A 
HETATM    5  C6  UNL     1      55.382  35.536  84.737  1.00  0.00     0.085 A 
HETATM    6  S1  UNL     1      56.380  35.987  83.399  1.00  0.00    -0.062 SA
ENDROOT
BRANCH   4   7
HETATM    7  C3  UNL     1      54.272  33.382  85.343  1.00  0.00     0.095 C 
BRANCH   7   8
HETATM    8  O2  UNL     1      53.949  32.208  84.767  1.00  0.00    -0.358 OA
ATOM      9  H2  UNL     1      54.444  32.033  83.975  1.00  0.00     0.217 HD
ENDBRANCH   7   8
BRANCH   7  10
HETATM   10  C4  UNL     1      53.731  33.487  86.612  1.00  0.00     0.075 C 
BRANCH  10  11
HETATM   11  C5  UNL     1      53.922  33.988  87.769  1.00  0.00     0.106 C 
HETATM   12 CL1  UNL     1      54.301  35.552  88.362  1.00  0.00    -0.071 Cl
HETATM   13 CL2  UNL     1      53.753  32.761  89.125  1.00  0.00    -0.071 Cl
ENDBRANCH  10  11
ENDBRANCH   7  10
ENDBRANCH   4   7
BRANCH   1  14
HETATM   14  N2  UNL     1      56.991  34.166  81.466  1.00  0.00    -0.260 N 
ATOM     15  H2  UNL     1      58.010  34.148  81.431  1.00  0.00     0.191 HD
BRANCH  14  16
HETATM   16  N1  UNL     1      56.270  33.829  80.329  1.00  0.00    -0.208 N 
ATOM     17  H1  UNL     1      56.451  34.332  79.460  1.00  0.00     0.215 HD
BRANCH  16  18
HETATM   18  O1  UNL     1      55.395  32.914  80.341  1.00  0.00    -0.274 OA
ATOM     19  H1  UNL     1      55.026  32.586  81.153  1.00  0.00     0.246 HD
ENDBRANCH  16  18
ENDBRANCH  14  16
ENDBRANCH   1  14
TORSDOF 7
ENDMDL
MODEL 4
REMARK VINA RESULT: -6.533457922      3.281      3.796
REMARK  7 active torsions:
REMARK  status: ('A' for Active; 'I' for Inactive)
REMARK    1  A    between atoms: O1_1  and  N1_3 
REMARK    2  A    between atoms: N1_3  and  N2_5 
REMARK    3  A    between atoms: N2_5  and  C1_7 
REMARK    4  A    between atoms: C2_10  and  C3_11 
REMARK    5  A    between atoms: C3_11  and  O2_12 
REMARK    6  A    between atoms: C3_11  and  C4_14 
REMARK    7  A    between atoms: C4_14  and  C5_15 
ROOT
HETATM    1  C1  UNL     1      55.655  34.397  83.267  1.00  0.00     0.165 A 
HETATM    2  N3  UNL     1      55.447  35.696  83.400  1.00  0.00    -0.333 N 
ATOM      3  H3  UNL     1      55.642  36.328  82.623  1.00  0.00     0.168 HD
HETATM    4  C2  UNL     1      54.974  36.180  84.569  1.00  0.00     0.074 A 
HETATM    5  C6  UNL     1      54.751  35.236  85.528  1.00  0.00     0.085 A 
HETATM    6  S1  UNL     1      55.208  33.759  84.754  1.00  0.00    -0.062 SA
ENDROOT
BRANCH   4   7
HETATM    7  C3  UNL     1      54.739  37.604  84.734  1.00  0.00     0.095 C 
BRANCH   7   8
HETATM    8  O2  UNL     1      54.172  38.174  83.653  1.00  0.00    -0.358 OA
ATOM      9  H2  UNL     1      53.224  38.206  83.703  1.00  0.00     0.217 HD
ENDBRANCH   7   8
BRANCH   7  10
HETATM   10  C4  UNL     1      54.954  38.532  85.738  1.00  0.00     0.075 C 
BRANCH  10  11
HETATM   11  C5  UNL     1      55.413  38.676  86.919  1.00  0.00     0.106 C 
HETATM   12 CL1  UNL     1      56.603  39.680  87.640  1.00  0.00    -0.071 Cl
HETATM   13 CL2  UNL     1      54.627  37.555  88.143  1.00  0.00    -0.071 Cl
ENDBRANCH  10  11
ENDBRANCH   7  10
ENDBRANCH   4   7
BRANCH   1  14
HETATM   14  N2  UNL     1      56.114  33.778  82.184  1.00  0.00    -0.260 N 
ATOM     15  H2  UNL     1      57.019  33.308  82.227  1.00  0.00     0.191 HD
BRANCH  14  16
HETATM   16  N1  UNL     1      55.397  33.753  80.998  1.00  0.00    -0.208 N 
ATOM     17  H1  UNL     1      54.858  34.575  80.726  1.00  0.00     0.215 HD
BRANCH  16  18
HETATM   18  O1  UNL     1      55.393  32.736  80.242  1.00  0.00    -0.274 OA
ATOM     19  H1  UNL     1      54.633  32.502  79.723  1.00  0.00     0.246 HD
ENDBRANCH  16  18
ENDBRANCH  14  16
ENDBRANCH   1  14
TORSDOF 7
ENDMDL
MODEL 5
REMARK VINA RESULT: -6.501117464      3.297      3.836
REMARK  7 active torsions:
REMARK  status: ('A' for Active; 'I' for Inactive)
REMARK    1  A    between atoms: O1_1  and  N1_3 
REMARK    2  A    between atoms: N1_3  and  N2_5 
REMARK    3  A    between atoms: N2_5  and  C1_7 
REMARK    4  A    between atoms: C2_10  and  C3_11 
REMARK    5  A    between atoms: C3_11  and  O2_12 
REMARK    6  A    between atoms: C3_11  and  C4_14 
REMARK    7  A    between atoms: C4_14  and  C5_15 
ROOT
HETATM    1  C1  UNL     1      55.651  34.357  83.276  1.00  0.00     0.165 A 
HETATM    2  N3  UNL     1      55.495  35.657  83.458  1.00  0.00    -0.333 N 
ATOM      3  H3  UNL     1      55.724  36.311  82.709  1.00  0.00     0.168 HD
HETATM    4  C2  UNL     1      55.032  36.115  84.642  1.00  0.00     0.074 A 
HETATM    5  C6  UNL     1      54.761  35.144  85.561  1.00  0.00     0.085 A 
HETATM    6  S1  UNL     1      55.164  33.680  84.733  1.00  0.00    -0.062 SA
ENDROOT
BRANCH   4   7
HETATM    7  C3  UNL     1      54.854  37.540  84.861  1.00  0.00     0.095 C 
BRANCH   7   8
HETATM    8  O2  UNL     1      54.310  38.173  83.804  1.00  0.00    -0.358 OA
ATOM      9  H2  UNL     1      53.832  38.957  84.045  1.00  0.00     0.217 HD
ENDBRANCH   7   8
BRANCH   7  10
HETATM   10  C4  UNL     1      55.107  38.419  85.899  1.00  0.00     0.075 C 
BRANCH  10  11
HETATM   11  C5  UNL     1      55.322  38.488  87.154  1.00  0.00     0.106 C 
HETATM   12 CL1  UNL     1      54.808  37.590  88.521  1.00  0.00    -0.071 Cl
HETATM   13 CL2  UNL     1      56.442  39.868  87.621  1.00  0.00    -0.071 Cl
ENDBRANCH  10  11
ENDBRANCH   7  10
ENDBRANCH   4   7
BRANCH   1  14
HETATM   14  N2  UNL     1      56.095  33.762  82.173  1.00  0.00    -0.260 N 
ATOM     15  H2  UNL     1      57.019  33.329  82.180  1.00  0.00     0.191 HD
BRANCH  14  16
HETATM   16  N1  UNL     1      55.336  33.714  81.013  1.00  0.00    -0.208 N 
ATOM     17  H1  UNL     1      54.721  34.496  80.790  1.00  0.00     0.215 HD
BRANCH  16  18
HETATM   18  O1  UNL     1      55.387  32.724  80.224  1.00  0.00    -0.274 OA
ATOM     19  H1  UNL     1      54.683  32.089  80.173  1.00  0.00     0.246 HD
ENDBRANCH  16  18
ENDBRANCH  14  16
ENDBRANCH   1  14
TORSDOF 7
ENDMDL
