MODEL 1
REMARK VINA RESULT: -6.645277060      0.000      0.000
REMARK  5 active torsions:
REMARK  status: ('A' for Active; 'I' for Inactive)
REMARK    1  A    between atoms: O1_1  and  C1_3 
REMARK    2  A    between atoms: C1_3  and  C2_4 
REMARK    3  A    between atoms: C1_3  and  C10_18 
REMARK    4  A    between atoms: C2_4  and  N1_5 
REMARK    5  A    between atoms: C5_11  and  C6_12 
ROOT
HETATM    1  N1  UNL     1      15.495  -0.378  50.581  1.00  0.00    -0.319 N 
HETATM    2  C3  UNL     1      15.604   0.839  49.963  1.00  0.00     0.122 A 
HETATM    3 CL1  UNL     1      14.427   2.130  49.916  1.00  0.00    -0.063 Cl
HETATM    4  C4  UNL     1      16.834   0.904  49.356  1.00  0.00     0.132 A 
HETATM    5  N2  UNL     1      17.426  -0.255  49.618  1.00  0.00    -0.348 N 
ATOM      6  H2  UNL     1      18.360  -0.519  49.302  1.00  0.00     0.167 HD
HETATM    7  C5  UNL     1      16.626  -1.021  50.350  1.00  0.00     0.127 A 
ENDROOT
BRANCH   1   8
HETATM    8  C2  UNL     1      14.310  -0.764  51.314  1.00  0.00     0.166 C 
BRANCH   8   9
HETATM    9  C1  UNL     1      13.674  -2.012  50.761  1.00  0.00     0.169 C 
BRANCH   9  10
HETATM   10  O1  UNL     1      13.634  -3.043  51.696  1.00  0.00    -0.391 OA
ATOM     11  H1  UNL     1      14.221  -3.755  51.472  1.00  0.00     0.210 HD
ENDBRANCH   9  10
BRANCH   9  12
HETATM   12  C10 UNL     1      12.309  -1.744  50.178  1.00  0.00     0.208 C 
HETATM   13 CL3  UNL     1      12.382  -0.598  48.822  1.00  0.00    -0.105 Cl
HETATM   14 CL4  UNL     1      11.211  -1.075  51.403  1.00  0.00    -0.105 Cl
ENDBRANCH   9  12
ENDBRANCH   8   9
ENDBRANCH   1   8
BRANCH   7  15
HETATM   15  C6  UNL     1      16.985  -2.381  50.809  1.00  0.00     0.070 A 
HETATM   16  S1  UNL     1      17.255  -3.792  49.900  1.00  0.00    -0.097 SA
HETATM   17  C7  UNL     1      17.614  -4.881  51.157  1.00  0.00     0.052 A 
HETATM   18  C8  UNL     1      17.510  -4.094  52.278  1.00  0.00     0.032 A 
HETATM   19  C9  UNL     1      17.185  -2.804  52.093  1.00  0.00     0.055 A 
HETATM   20 CL2  UNL     1      17.016  -1.664  53.471  1.00  0.00    -0.083 Cl
ENDBRANCH   7  15
TORSDOF 5
ENDMDL
MODEL 2
REMARK VINA RESULT: -6.424656937      1.528      1.625
REMARK  5 active torsions:
REMARK  status: ('A' for Active; 'I' for Inactive)
REMARK    1  A    between atoms: O1_1  and  C1_3 
REMARK    2  A    between atoms: C1_3  and  C2_4 
REMARK    3  A    between atoms: C1_3  and  C10_18 
REMARK    4  A    between atoms: C2_4  and  N1_5 
REMARK    5  A    between atoms: C5_11  and  C6_12 
ROOT
HETATM    1  N1  UNL     1      15.601  -0.652  51.010  1.00  0.00    -0.319 N 
HETATM    2  C3  UNL     1      15.682   0.425  50.169  1.00  0.00     0.122 A 
HETATM    3 CL1  UNL     1      14.416   1.548  49.735  1.00  0.00    -0.063 Cl
HETATM    4  C4  UNL     1      16.968   0.502  49.691  1.00  0.00     0.132 A 
HETATM    5  N2  UNL     1      17.619  -0.514  50.246  1.00  0.00    -0.348 N 
ATOM      6  H2  UNL     1      18.603  -0.733  50.090  1.00  0.00     0.167 HD
HETATM    7  C5  UNL     1      16.801  -1.203  51.034  1.00  0.00     0.127 A 
ENDROOT
BRANCH   1   8
HETATM    8  C2  UNL     1      14.372  -1.011  51.681  1.00  0.00     0.166 C 
BRANCH   8   9
HETATM    9  C1  UNL     1      13.730  -2.237  51.085  1.00  0.00     0.169 C 
BRANCH   9  10
HETATM   10  O1  UNL     1      13.809  -3.339  51.933  1.00  0.00    -0.391 OA
ATOM     11  H1  UNL     1      13.799  -4.161  51.457  1.00  0.00     0.210 HD
ENDBRANCH   9  10
BRANCH   9  12
HETATM   12  C10 UNL     1      12.310  -1.979  50.648  1.00  0.00     0.208 C 
HETATM   13 CL3  UNL     1      12.240  -0.991  49.174  1.00  0.00    -0.105 Cl
HETATM   14 CL4  UNL     1      11.393  -1.138  51.915  1.00  0.00    -0.105 Cl
ENDBRANCH   9  12
ENDBRANCH   8   9
ENDBRANCH   1   8
BRANCH   7  15
HETATM   15  C6  UNL     1      17.214  -2.400  51.799  1.00  0.00     0.070 A 
HETATM   16  S1  UNL     1      17.558  -2.558  53.456  1.00  0.00    -0.097 SA
HETATM   17  C7  UNL     1      17.938  -4.215  53.517  1.00  0.00     0.052 A 
HETATM   18  C8  UNL     1      17.783  -4.609  52.210  1.00  0.00     0.032 A 
HETATM   19  C9  UNL     1      17.410  -3.668  51.326  1.00  0.00     0.055 A 
HETATM   20 CL2  UNL     1      17.170  -4.045  49.587  1.00  0.00    -0.083 Cl
ENDBRANCH   7  15
TORSDOF 5
ENDMDL
MODEL 3
REMARK VINA RESULT: -6.234174588      1.663      2.033
REMARK  5 active torsions:
REMARK  status: ('A' for Active; 'I' for Inactive)
REMARK    1  A    between atoms: O1_1  and  C1_3 
REMARK    2  A    between atoms: C1_3  and  C2_4 
REMARK    3  A    between atoms: C1_3  and  C10_18 
REMARK    4  A    between atoms: C2_4  and  N1_5 
REMARK    5  A    between atoms: C5_11  and  C6_12 
ROOT
HETATM    1  N1  UNL     1      15.759  -0.885  51.269  1.00  0.00    -0.319 N 
HETATM    2  C3  UNL     1      15.811   0.109  50.329  1.00  0.00     0.122 A 
HETATM    3 CL1  UNL     1      14.548   1.227  49.875  1.00  0.00    -0.063 Cl
HETATM    4  C4  UNL     1      17.064   0.102  49.766  1.00  0.00     0.132 A 
HETATM    5  N2  UNL     1      17.725  -0.880  50.370  1.00  0.00    -0.348 N 
ATOM      6  H2  UNL     1      18.691  -1.142  50.172  1.00  0.00     0.167 HD
HETATM    7  C5  UNL     1      16.945  -1.469  51.268  1.00  0.00     0.127 A 
ENDROOT
BRANCH   1   8
HETATM    8  C2  UNL     1      14.568  -1.145  52.047  1.00  0.00     0.166 C 
BRANCH   8   9
HETATM    9  C1  UNL     1      13.501  -1.844  51.246  1.00  0.00     0.169 C 
BRANCH   9  10
HETATM   10  O1  UNL     1      13.105  -3.045  51.829  1.00  0.00    -0.391 OA
ATOM     11  H1  UNL     1      12.291  -2.960  52.310  1.00  0.00     0.210 HD
ENDBRANCH   9  10
BRANCH   9  12
HETATM   12  C10 UNL     1      12.318  -0.949  50.972  1.00  0.00     0.208 C 
HETATM   13 CL3  UNL     1      10.928  -1.358  51.999  1.00  0.00    -0.105 Cl
HETATM   14 CL4  UNL     1      11.803  -1.071  49.277  1.00  0.00    -0.105 Cl
ENDBRANCH   9  12
ENDBRANCH   8   9
ENDBRANCH   1   8
BRANCH   7  15
HETATM   15  C6  UNL     1      17.377  -2.604  52.111  1.00  0.00     0.070 A 
HETATM   16  S1  UNL     1      17.699  -2.649  53.780  1.00  0.00    -0.097 SA
HETATM   17  C7  UNL     1      18.122  -4.288  53.949  1.00  0.00     0.052 A 
HETATM   18  C8  UNL     1      17.997  -4.767  52.668  1.00  0.00     0.032 A 
HETATM   19  C9  UNL     1      17.613  -3.894  51.722  1.00  0.00     0.055 A 
HETATM   20 CL2  UNL     1      17.409  -4.385  50.007  1.00  0.00    -0.083 Cl
ENDBRANCH   7  15
TORSDOF 5
ENDMDL
MODEL 4
REMARK VINA RESULT: -6.228663033      0.442      1.049
REMARK  5 active torsions:
REMARK  status: ('A' for Active; 'I' for Inactive)
REMARK    1  A    between atoms: O1_1  and  C1_3 
REMARK    2  A    between atoms: C1_3  and  C2_4 
REMARK    3  A    between atoms: C1_3  and  C10_18 
REMARK    4  A    between atoms: C2_4  and  N1_5 
REMARK    5  A    between atoms: C5_11  and  C6_12 
ROOT
HETATM    1  N1  UNL     1      15.702  -0.572  50.680  1.00  0.00    -0.319 N 
HETATM    2  C3  UNL     1      15.822   0.602  49.986  1.00  0.00     0.122 A 
HETATM    3 CL1  UNL     1      14.716   1.954  49.960  1.00  0.00    -0.063 Cl
HETATM    4  C4  UNL     1      16.999   0.564  49.277  1.00  0.00     0.132 A 
HETATM    5  N2  UNL     1      17.548  -0.613  49.556  1.00  0.00    -0.348 N 
ATOM      6  H2  UNL     1      18.437  -0.947  49.182  1.00  0.00     0.167 HD
HETATM    7  C5  UNL     1      16.773  -1.291  50.394  1.00  0.00     0.127 A 
ENDROOT
BRANCH   1   8
HETATM    8  C2  UNL     1      14.565  -0.849  51.528  1.00  0.00     0.166 C 
BRANCH   8   9
HETATM    9  C1  UNL     1      13.502  -1.649  50.821  1.00  0.00     0.169 C 
BRANCH   9  10
HETATM   10  O1  UNL     1      13.143  -2.792  51.530  1.00  0.00    -0.391 OA
ATOM     11  H1  UNL     1      12.230  -3.022  51.404  1.00  0.00     0.210 HD
ENDBRANCH   9  10
BRANCH   9  12
HETATM   12  C10 UNL     1      12.295  -0.813  50.477  1.00  0.00     0.208 C 
HETATM   13 CL3  UNL     1      10.906  -1.198  51.515  1.00  0.00    -0.105 Cl
HETATM   14 CL4  UNL     1      11.804  -1.064  48.789  1.00  0.00    -0.105 Cl
ENDBRANCH   9  12
ENDBRANCH   8   9
ENDBRANCH   1   8
BRANCH   7  15
HETATM   15  C6  UNL     1      17.097  -2.642  50.901  1.00  0.00     0.070 A 
HETATM   16  S1  UNL     1      17.266  -4.103  50.049  1.00  0.00    -0.097 SA
HETATM   17  C7  UNL     1      17.638  -5.149  51.338  1.00  0.00     0.052 A 
HETATM   18  C8  UNL     1      17.619  -4.309  52.425  1.00  0.00     0.032 A 
HETATM   19  C9  UNL     1      17.339  -3.015  52.194  1.00  0.00     0.055 A 
HETATM   20 CL2  UNL     1      17.281  -1.808  53.522  1.00  0.00    -0.083 Cl
ENDBRANCH   7  15
TORSDOF 5
ENDMDL
MODEL 5
REMARK VINA RESULT: -6.214337328      2.381      3.899
REMARK  5 active torsions:
REMARK  status: ('A' for Active; 'I' for Inactive)
REMARK    1  A    between atoms: O1_1  and  C1_3 
REMARK    2  A    between atoms: C1_3  and  C2_4 
REMARK    3  A    between atoms: C1_3  and  C10_18 
REMARK    4  A    between atoms: C2_4  and  N1_5 
REMARK    5  A    between atoms: C5_11  and  C6_12 
ROOT
HETATM    1  N1  UNL     1      14.825  -1.340  50.308  1.00  0.00    -0.319 N 
HETATM    2  C3  UNL     1      13.507  -1.196  49.970  1.00  0.00     0.122 A 
HETATM    3 CL1  UNL     1      12.841  -0.482  48.521  1.00  0.00    -0.063 Cl
HETATM    4  C4  UNL     1      12.742  -1.720  50.984  1.00  0.00     0.132 A 
HETATM    5  N2  UNL     1      13.605  -2.160  51.894  1.00  0.00    -0.348 N 
ATOM      6  H2  UNL     1      13.348  -2.607  52.774  1.00  0.00     0.167 HD
HETATM    7  C5  UNL     1      14.849  -1.933  51.489  1.00  0.00     0.127 A 
ENDROOT
BRANCH   1   8
HETATM    8  C2  UNL     1      15.894  -0.885  49.448  1.00  0.00     0.166 C 
BRANCH   8   9
HETATM    9  C1  UNL     1      16.728   0.192  50.090  1.00  0.00     0.169 C 
BRANCH   9  10
HETATM   10  O1  UNL     1      18.086  -0.118  50.083  1.00  0.00    -0.391 OA
ATOM     11  H1  UNL     1      18.632   0.655  50.153  1.00  0.00     0.210 HD
ENDBRANCH   9  10
BRANCH   9  12
HETATM   12  C10 UNL     1      16.471   1.549  49.482  1.00  0.00     0.208 C 
HETATM   13 CL3  UNL     1      14.841   2.144  49.859  1.00  0.00    -0.105 Cl
HETATM   14 CL4  UNL     1      16.642   1.500  47.715  1.00  0.00    -0.105 Cl
ENDBRANCH   9  12
ENDBRANCH   8   9
ENDBRANCH   1   8
BRANCH   7  15
HETATM   15  C6  UNL     1      16.047  -2.300  52.276  1.00  0.00     0.070 A 
HETATM   16  S1  UNL     1      16.609  -1.663  53.749  1.00  0.00    -0.097 SA
HETATM   17  C7  UNL     1      18.004  -2.613  53.960  1.00  0.00     0.052 A 
HETATM   18  C8  UNL     1      17.993  -3.420  52.849  1.00  0.00     0.032 A 
HETATM   19  C9  UNL     1      16.981  -3.254  51.981  1.00  0.00     0.055 A 
HETATM   20 CL2  UNL     1      16.843  -4.241  50.488  1.00  0.00    -0.083 Cl
ENDBRANCH   7  15
TORSDOF 5
ENDMDL
