MODEL 1
REMARK VINA RESULT: -7.154043036      0.000      0.000
REMARK  6 active torsions:
REMARK  status: ('A' for Active; 'I' for Inactive)
REMARK    1  A    between atoms: C1_2  and  S1_4 
REMARK    2  A    between atoms: S1_4  and  C2_5 
REMARK    3  A    between atoms: C5_8  and  O1_9 
REMARK    4  A    between atoms: O1_9  and  C6_10 
REMARK    5  A    between atoms: C9_13  and  C10_14 
REMARK    6  A    between atoms: C10_14  and  N1_16 
ROOT
HETATM    1  C6  UNL     1      10.398  -1.799  55.933  1.00  0.00     0.076 A 
HETATM    2  C7  UNL     1      10.791  -3.054  56.323  1.00  0.00     0.038 A 
HETATM    3  C8  UNL     1       9.886  -4.003  56.815  1.00  0.00     0.013 A 
HETATM    4  C9  UNL     1       8.577  -3.630  56.902  1.00  0.00    -0.020 A 
HETATM    5  C11 UNL     1       8.149  -2.376  56.522  1.00  0.00     0.013 A 
HETATM    6  C12 UNL     1       9.083  -1.460  56.035  1.00  0.00     0.038 A 
ENDROOT
BRANCH   1   7
HETATM    7  O1  UNL     1      11.287  -0.863  55.438  1.00  0.00    -0.311 OA
BRANCH   7   8
HETATM    8  C5  UNL     1      11.894  -1.085  54.196  1.00  0.00     0.076 A 
HETATM    9  C4  UNL     1      13.236  -1.300  54.089  1.00  0.00     0.038 A 
HETATM   10  C3  UNL     1      13.808  -1.506  52.851  1.00  0.00     0.021 A 
HETATM   11  C2  UNL     1      13.062  -1.510  51.650  1.00  0.00     0.005 A 
HETATM   12  C14 UNL     1      11.716  -1.301  51.776  1.00  0.00     0.021 A 
HETATM   13  C13 UNL     1      11.144  -1.090  53.039  1.00  0.00     0.038 A 
BRANCH  11  14
HETATM   14  S1  UNL     1      13.999  -1.586  50.166  1.00  0.00    -0.061 SA
BRANCH  14  15
HETATM   15  C1  UNL     1      13.750  -0.338  48.949  1.00  0.00     0.420 C 
HETATM   16  F1  UNL     1      12.531  -0.498  48.326  1.00  0.00    -0.202 F 
HETATM   17  F2  UNL     1      13.603   0.968  49.521  1.00  0.00    -0.202 F 
ENDBRANCH  14  15
ENDBRANCH  11  14
ENDBRANCH   7   8
ENDBRANCH   1   7
BRANCH   4  18
HETATM   18  C10 UNL     1       7.526  -4.576  57.404  1.00  0.00     0.223 C 
HETATM   19 CL1  UNL     1       6.009  -3.748  57.645  1.00  0.00    -0.096 Cl
BRANCH  18  20
HETATM   20  N1  UNL     1       7.461  -5.677  56.470  1.00  0.00    -0.311 N 
HETATM   21 CL2  UNL     1       8.237  -7.109  56.986  1.00  0.00     0.007 Cl
ATOM     22  H1  UNL     1       6.988  -5.604  55.570  1.00  0.00     0.176 HD
ENDBRANCH  18  20
ENDBRANCH   4  18
TORSDOF 6
ENDMDL
MODEL 2
REMARK VINA RESULT: -7.121271736      0.126      1.044
REMARK  6 active torsions:
REMARK  status: ('A' for Active; 'I' for Inactive)
REMARK    1  A    between atoms: C1_2  and  S1_4 
REMARK    2  A    between atoms: S1_4  and  C2_5 
REMARK    3  A    between atoms: C5_8  and  O1_9 
REMARK    4  A    between atoms: O1_9  and  C6_10 
REMARK    5  A    between atoms: C9_13  and  C10_14 
REMARK    6  A    between atoms: C10_14  and  N1_16 
ROOT
HETATM    1  C6  UNL     1      10.488  -1.798  55.959  1.00  0.00     0.076 A 
HETATM    2  C7  UNL     1       9.175  -1.406  56.040  1.00  0.00     0.038 A 
HETATM    3  C8  UNL     1       8.166  -2.260  56.500  1.00  0.00     0.013 A 
HETATM    4  C9  UNL     1       8.534  -3.521  56.867  1.00  0.00    -0.020 A 
HETATM    5  C11 UNL     1       9.843  -3.948  56.796  1.00  0.00     0.013 A 
HETATM    6  C12 UNL     1      10.820  -3.065  56.333  1.00  0.00     0.038 A 
ENDROOT
BRANCH   1   7
HETATM    7  O1  UNL     1      11.488  -0.954  55.515  1.00  0.00    -0.311 OA
BRANCH   7   8
HETATM    8  C5  UNL     1      12.043  -1.157  54.245  1.00  0.00     0.076 A 
HETATM    9  C4  UNL     1      13.376  -1.385  54.080  1.00  0.00     0.038 A 
HETATM   10  C3  UNL     1      13.895  -1.571  52.816  1.00  0.00     0.021 A 
HETATM   11  C2  UNL     1      13.102  -1.539  51.646  1.00  0.00     0.005 A 
HETATM   12  C14 UNL     1      11.765  -1.316  51.831  1.00  0.00     0.021 A 
HETATM   13  C13 UNL     1      11.247  -1.126  53.120  1.00  0.00     0.038 A 
BRANCH  11  14
HETATM   14  S1  UNL     1      13.978  -1.594  50.124  1.00  0.00    -0.061 SA
BRANCH  14  15
HETATM   15  C1  UNL     1      13.599  -0.395  48.892  1.00  0.00     0.420 C 
HETATM   16  F1  UNL     1      12.342  -0.610  48.369  1.00  0.00    -0.202 F 
HETATM   17  F2  UNL     1      13.455   0.925  49.434  1.00  0.00    -0.202 F 
ENDBRANCH  14  15
ENDBRANCH  11  14
ENDBRANCH   7   8
ENDBRANCH   1   7
BRANCH   4  18
HETATM   18  C10 UNL     1       7.532  -4.510  57.385  1.00  0.00     0.223 C 
HETATM   19 CL1  UNL     1       5.987  -3.746  57.657  1.00  0.00    -0.096 Cl
BRANCH  18  20
HETATM   20  N1  UNL     1       7.495  -5.610  56.448  1.00  0.00    -0.311 N 
HETATM   21 CL2  UNL     1       8.211  -7.058  57.006  1.00  0.00     0.007 Cl
ATOM     22  H1  UNL     1       7.073  -5.528  55.523  1.00  0.00     0.176 HD
ENDBRANCH  18  20
ENDBRANCH   4  18
TORSDOF 6
ENDMDL
MODEL 3
REMARK VINA RESULT: -6.973048497      6.070      8.033
REMARK  6 active torsions:
REMARK  status: ('A' for Active; 'I' for Inactive)
REMARK    1  A    between atoms: C1_2  and  S1_4 
REMARK    2  A    between atoms: S1_4  and  C2_5 
REMARK    3  A    between atoms: C5_8  and  O1_9 
REMARK    4  A    between atoms: O1_9  and  C6_10 
REMARK    5  A    between atoms: C9_13  and  C10_14 
REMARK    6  A    between atoms: C10_14  and  N1_16 
ROOT
HETATM    1  C6  UNL     1      10.035  -1.124  54.739  1.00  0.00     0.076 A 
HETATM    2  C7  UNL     1      11.363  -0.810  54.879  1.00  0.00     0.038 A 
HETATM    3  C8  UNL     1      12.246  -0.791  53.792  1.00  0.00     0.013 A 
HETATM    4  C9  UNL     1      11.736  -1.108  52.568  1.00  0.00    -0.020 A 
HETATM    5  C11 UNL     1      10.407  -1.432  52.392  1.00  0.00     0.013 A 
HETATM    6  C12 UNL     1       9.559  -1.437  53.502  1.00  0.00     0.038 A 
ENDROOT
BRANCH   1   7
HETATM    7  O1  UNL     1       9.158  -1.133  55.807  1.00  0.00    -0.311 OA
BRANCH   7   8
HETATM    8  C5  UNL     1       8.852  -2.347  56.433  1.00  0.00     0.076 A 
HETATM    9  C4  UNL     1       9.828  -3.225  56.797  1.00  0.00     0.038 A 
HETATM   10  C3  UNL     1       9.496  -4.418  57.403  1.00  0.00     0.021 A 
HETATM   11  C2  UNL     1       8.161  -4.796  57.679  1.00  0.00     0.005 A 
HETATM   12  C14 UNL     1       7.195  -3.900  57.314  1.00  0.00     0.021 A 
HETATM   13  C13 UNL     1       7.542  -2.690  56.697  1.00  0.00     0.038 A 
BRANCH  11  14
HETATM   14  S1  UNL     1       7.935  -6.435  58.267  1.00  0.00    -0.061 SA
BRANCH  14  15
HETATM   15  C1  UNL     1       8.618  -7.765  57.336  1.00  0.00     0.420 C 
HETATM   16  F1  UNL     1       9.946  -7.954  57.655  1.00  0.00    -0.202 F 
HETATM   17  F2  UNL     1       8.060  -9.035  57.698  1.00  0.00    -0.202 F 
ENDBRANCH  14  15
ENDBRANCH  11  14
ENDBRANCH   7   8
ENDBRANCH   1   7
BRANCH   4  18
HETATM   18  C10 UNL     1      12.594  -1.107  51.337  1.00  0.00     0.223 C 
HETATM   19 CL1  UNL     1      13.657  -2.491  51.318  1.00  0.00    -0.096 Cl
BRANCH  18  20
HETATM   20  N1  UNL     1      11.708  -1.021  50.199  1.00  0.00    -0.311 N 
HETATM   21 CL2  UNL     1      12.467  -0.622  48.721  1.00  0.00     0.007 Cl
ATOM     22  H1  UNL     1      10.705  -1.185  50.273  1.00  0.00     0.176 HD
ENDBRANCH  18  20
ENDBRANCH   4  18
TORSDOF 6
ENDMDL
MODEL 4
REMARK VINA RESULT: -6.967100167      1.131      1.294
REMARK  6 active torsions:
REMARK  status: ('A' for Active; 'I' for Inactive)
REMARK    1  A    between atoms: C1_2  and  S1_4 
REMARK    2  A    between atoms: S1_4  and  C2_5 
REMARK    3  A    between atoms: C5_8  and  O1_9 
REMARK    4  A    between atoms: O1_9  and  C6_10 
REMARK    5  A    between atoms: C9_13  and  C10_14 
REMARK    6  A    between atoms: C10_14  and  N1_16 
ROOT
HETATM    1  C6  UNL     1      10.353  -1.651  55.705  1.00  0.00     0.076 A 
HETATM    2  C7  UNL     1      10.804  -2.875  56.130  1.00  0.00     0.038 A 
HETATM    3  C8  UNL     1       9.951  -3.835  56.688  1.00  0.00     0.013 A 
HETATM    4  C9  UNL     1       8.632  -3.506  56.804  1.00  0.00    -0.020 A 
HETATM    5  C11 UNL     1       8.146  -2.284  56.389  1.00  0.00     0.013 A 
HETATM    6  C12 UNL     1       9.030  -1.355  55.837  1.00  0.00     0.038 A 
ENDROOT
BRANCH   1   7
HETATM    7  O1  UNL     1      11.190  -0.705  55.144  1.00  0.00    -0.311 OA
BRANCH   7   8
HETATM    8  C5  UNL     1      12.047  -1.080  54.102  1.00  0.00     0.076 A 
HETATM    9  C4  UNL     1      13.368  -1.328  54.322  1.00  0.00     0.038 A 
HETATM   10  C3  UNL     1      14.190  -1.686  53.274  1.00  0.00     0.021 A 
HETATM   11  C2  UNL     1      13.729  -1.815  51.943  1.00  0.00     0.005 A 
HETATM   12  C14 UNL     1      12.398  -1.569  51.742  1.00  0.00     0.021 A 
HETATM   13  C13 UNL     1      11.570  -1.204  52.813  1.00  0.00     0.038 A 
BRANCH  11  14
HETATM   14  S1  UNL     1      14.966  -2.079  50.725  1.00  0.00    -0.061 SA
BRANCH  14  15
HETATM   15  C1  UNL     1      15.769  -0.677  50.025  1.00  0.00     0.420 C 
HETATM   16  F1  UNL     1      15.056   0.475  50.281  1.00  0.00    -0.202 F 
HETATM   17  F2  UNL     1      17.018  -0.381  50.666  1.00  0.00    -0.202 F 
ENDBRANCH  14  15
ENDBRANCH  11  14
ENDBRANCH   7   8
ENDBRANCH   1   7
BRANCH   4  18
HETATM   18  C10 UNL     1       7.633  -4.467  57.377  1.00  0.00     0.223 C 
HETATM   19 CL1  UNL     1       6.111  -3.671  57.688  1.00  0.00    -0.096 Cl
BRANCH  18  20
HETATM   20  N1  UNL     1       7.545  -5.585  56.465  1.00  0.00    -0.311 N 
HETATM   21 CL2  UNL     1       8.309  -7.016  57.001  1.00  0.00     0.007 Cl
ATOM     22  H1  UNL     1       7.063  -5.523  55.568  1.00  0.00     0.176 HD
ENDBRANCH  18  20
ENDBRANCH   4  18
TORSDOF 6
ENDMDL
MODEL 5
REMARK VINA RESULT: -6.963475228      1.696      2.384
REMARK  6 active torsions:
REMARK  status: ('A' for Active; 'I' for Inactive)
REMARK    1  A    between atoms: C1_2  and  S1_4 
REMARK    2  A    between atoms: S1_4  and  C2_5 
REMARK    3  A    between atoms: C5_8  and  O1_9 
REMARK    4  A    between atoms: O1_9  and  C6_10 
REMARK    5  A    between atoms: C9_13  and  C10_14 
REMARK    6  A    between atoms: C10_14  and  N1_16 
ROOT
HETATM    1  C6  UNL     1       9.297  -3.203  56.534  1.00  0.00     0.076 A 
HETATM    2  C7  UNL     1       8.091  -3.613  57.043  1.00  0.00     0.038 A 
HETATM    3  C8  UNL     1       7.864  -4.930  57.463  1.00  0.00     0.013 A 
HETATM    4  C9  UNL     1       8.898  -5.810  57.341  1.00  0.00    -0.020 A 
HETATM    5  C11 UNL     1      10.122  -5.432  56.831  1.00  0.00     0.013 A 
HETATM    6  C12 UNL     1      10.308  -4.110  56.425  1.00  0.00     0.038 A 
ENDROOT
BRANCH   1   7
HETATM    7  O1  UNL     1       9.528  -1.902  56.129  1.00  0.00    -0.311 OA
BRANCH   7   8
HETATM    8  C5  UNL     1      10.294  -1.667  54.980  1.00  0.00     0.076 A 
HETATM    9  C4  UNL     1      11.627  -1.393  55.058  1.00  0.00     0.038 A 
HETATM   10  C3  UNL     1      12.353  -1.156  53.910  1.00  0.00     0.021 A 
HETATM   11  C2  UNL     1      11.781  -1.182  52.618  1.00  0.00     0.005 A 
HETATM   12  C14 UNL     1      10.444  -1.466  52.558  1.00  0.00     0.021 A 
HETATM   13  C13 UNL     1       9.712  -1.704  53.730  1.00  0.00     0.038 A 
BRANCH  11  14
HETATM   14  S1  UNL     1      12.824  -0.656  51.306  1.00  0.00    -0.061 SA
BRANCH  14  15
HETATM   15  C1  UNL     1      12.491  -1.244  49.680  1.00  0.00     0.420 C 
HETATM   16  F1  UNL     1      11.217  -0.898  49.285  1.00  0.00    -0.202 F 
HETATM   17  F2  UNL     1      13.282  -0.583  48.683  1.00  0.00    -0.202 F 
ENDBRANCH  14  15
ENDBRANCH  11  14
ENDBRANCH   7   8
ENDBRANCH   1   7
BRANCH   4  18
HETATM   18  C10 UNL     1       8.763  -7.241  57.772  1.00  0.00     0.223 C 
HETATM   19 CL1  UNL     1       7.652  -7.385  59.110  1.00  0.00    -0.096 Cl
BRANCH  18  20
HETATM   20  N1  UNL     1       8.390  -8.005  56.603  1.00  0.00    -0.311 N 
HETATM   21 CL2  UNL     1       8.363  -9.699  56.826  1.00  0.00     0.007 Cl
ATOM     22  H1  UNL     1       8.161  -7.566  55.712  1.00  0.00     0.176 HD
ENDBRANCH  18  20
ENDBRANCH   4  18
TORSDOF 6
ENDMDL
