MODEL 1
REMARK VINA RESULT: -8.176268003      0.000      0.000
REMARK  12 active torsions:
REMARK  status: ('A' for Active; 'I' for Inactive)
REMARK    1  A    between atoms: C2_4  and  C4_6 
REMARK    2  A    between atoms: C5_7  and  O1_8 
REMARK    3  A    between atoms: C6_10  and  N2_11 
REMARK    4  A    between atoms: C9_14  and  N3_15 
REMARK    5  A    between atoms: C10_18  and  O4_19 
REMARK    6  A    between atoms: C11_21  and  C12_22 
REMARK    7  A    between atoms: C12_22  and  O5_23 
REMARK    8  A    between atoms: C12_22  and  C13_25 
REMARK    9  A    between atoms: C13_25  and  C14_26 
REMARK   10  A    between atoms: C14_26  and  C15_27 
REMARK   11  A    between atoms: C19_32  and  C20_33 
REMARK   12  A    between atoms: C22_38  and  O6_40 
ROOT
HETATM    1  C4  UNL     1      14.566  -4.080  55.421  1.00  0.00     0.037 A 
HETATM    2  C5  UNL     1      15.151  -5.228  54.851  1.00  0.00     0.108 A 
HETATM    3  C6  UNL     1      16.257  -5.225  54.027  1.00  0.00     0.101 A 
HETATM    4  C9  UNL     1      16.827  -4.031  53.747  1.00  0.00     0.166 A 
HETATM    5  C10 UNL     1      16.289  -2.896  54.286  1.00  0.00     0.115 A 
HETATM    6  C11 UNL     1      15.163  -2.840  55.121  1.00  0.00     0.049 A 
ENDROOT
BRANCH   6   7
HETATM    7  C12 UNL     1      14.516  -1.624  55.346  1.00  0.00     0.092 C 
BRANCH   7   8
HETATM    8  O5  UNL     1      15.187  -0.726  56.007  1.00  0.00    -0.359 OA
ATOM      9  H5  UNL     1      16.033  -0.485  55.649  1.00  0.00     0.217 HD
ENDBRANCH   7   8
BRANCH   7  10
HETATM   10  C13 UNL     1      13.173  -1.072  55.010  1.00  0.00     0.027 C 
HETATM   11  C22 UNL     1      12.454  -0.084  55.742  1.00  0.00     0.052 C 
HETATM   12  C23 UNL     1      11.083   0.436  55.529  1.00  0.00     0.077 C 
BRANCH  10  13
HETATM   13  C14 UNL     1      12.733  -1.523  53.844  1.00  0.00     0.028 C 
BRANCH  13  14
HETATM   14  C15 UNL     1      13.000  -1.170  52.486  1.00  0.00    -0.034 A 
HETATM   15  C16 UNL     1      11.925  -1.059  51.584  1.00  0.00     0.014 A 
HETATM   16  C17 UNL     1      12.131  -0.812  50.250  1.00  0.00     0.044 A 
HETATM   17  C18 UNL     1      13.398  -0.662  49.728  1.00  0.00     0.131 A 
HETATM   18  F1  UNL     1      13.603  -0.417  48.408  1.00  0.00    -0.205 F 
HETATM   19  C19 UNL     1      14.469  -0.767  50.587  1.00  0.00     0.087 A 
HETATM   20  C21 UNL     1      14.269  -1.013  51.923  1.00  0.00     0.030 A 
BRANCH  19  21
HETATM   21  C20 UNL     1      15.835  -0.606  50.026  1.00  0.00     0.420 C 
HETATM   22  F2  UNL     1      15.913   0.566  49.301  1.00  0.00    -0.166 F 
HETATM   23  F3  UNL     1      16.083  -1.695  49.201  1.00  0.00    -0.166 F 
HETATM   24  F4  UNL     1      16.745  -0.542  51.065  1.00  0.00    -0.166 F 
ENDBRANCH  19  21
ENDBRANCH  13  14
ENDBRANCH  10  13
BRANCH  11  25
HETATM   25  O6  UNL     1      12.997   0.501  56.775  1.00  0.00    -0.364 OA
ATOM     26  H6  UNL     1      12.630   0.386  57.643  1.00  0.00     0.217 HD
ENDBRANCH  11  25
ENDBRANCH   7  10
ENDBRANCH   6   7
BRANCH   1  27
HETATM   27  C2  UNL     1      13.376  -4.297  56.224  1.00  0.00     0.015 C 
HETATM   28  N1  UNL     1      12.227  -4.636  55.852  1.00  0.00    -0.397 N 
HETATM   29  C1  UNL     1      11.067  -4.852  56.651  1.00  0.00     0.146 C 
ATOM     30  H1  UNL     1      12.107  -4.774  54.849  1.00  0.00     0.158 HD
HETATM   31  C3  UNL     1      13.439  -4.118  57.742  1.00  0.00     0.068 C 
ENDBRANCH   1  27
BRANCH   5  32
HETATM   32  O4  UNL     1      16.982  -1.709  53.976  1.00  0.00    -0.357 OA
ATOM     33  H4  UNL     1      17.503  -1.353  54.686  1.00  0.00     0.217 HD
ENDBRANCH   5  32
BRANCH   2  34
HETATM   34  O1  UNL     1      14.605  -6.482  55.112  1.00  0.00    -0.357 OA
ATOM     35  H1  UNL     1      14.922  -6.988  55.852  1.00  0.00     0.217 HD
ENDBRANCH   2  34
BRANCH   4  36
HETATM   36  N3  UNL     1      17.972  -3.973  52.899  1.00  0.00    -0.110 N 
HETATM   37  O2  UNL     1      19.093  -4.126  53.379  1.00  0.00    -0.532 OA
HETATM   38  O3  UNL     1      17.786  -3.746  51.571  1.00  0.00    -0.532 OA
ENDBRANCH   4  36
BRANCH   3  39
HETATM   39  N2  UNL     1      16.772  -6.439  53.493  1.00  0.00    -0.373 N 
HETATM   40  C7  UNL     1      17.667  -7.605  53.542  1.00  0.00     0.143 A 
HETATM   41  C8  UNL     1      16.717  -7.412  52.409  1.00  0.00     0.143 A 
ENDBRANCH   3  39
TORSDOF 12
ENDMDL
MODEL 2
REMARK VINA RESULT: -7.905068933      2.657      5.457
REMARK  12 active torsions:
REMARK  status: ('A' for Active; 'I' for Inactive)
REMARK    1  A    between atoms: C2_4  and  C4_6 
REMARK    2  A    between atoms: C5_7  and  O1_8 
REMARK    3  A    between atoms: C6_10  and  N2_11 
REMARK    4  A    between atoms: C9_14  and  N3_15 
REMARK    5  A    between atoms: C10_18  and  O4_19 
REMARK    6  A    between atoms: C11_21  and  C12_22 
REMARK    7  A    between atoms: C12_22  and  O5_23 
REMARK    8  A    between atoms: C12_22  and  C13_25 
REMARK    9  A    between atoms: C13_25  and  C14_26 
REMARK   10  A    between atoms: C14_26  and  C15_27 
REMARK   11  A    between atoms: C19_32  and  C20_33 
REMARK   12  A    between atoms: C22_38  and  O6_40 
ROOT
HETATM    1  C4  UNL     1      13.065  -3.371  56.265  1.00  0.00     0.037 A 
HETATM    2  C5  UNL     1      11.714  -3.486  56.649  1.00  0.00     0.108 A 
HETATM    3  C6  UNL     1      10.699  -2.653  56.226  1.00  0.00     0.101 A 
HETATM    4  C9  UNL     1      11.021  -1.654  55.373  1.00  0.00     0.166 A 
HETATM    5  C10 UNL     1      12.321  -1.516  54.975  1.00  0.00     0.115 A 
HETATM    6  C11 UNL     1      13.393  -2.326  55.381  1.00  0.00     0.049 A 
ENDROOT
BRANCH   6   7
HETATM    7  C12 UNL     1      14.708  -1.905  55.175  1.00  0.00     0.092 C 
BRANCH   7   8
HETATM    8  O5  UNL     1      15.013  -0.723  55.624  1.00  0.00    -0.359 OA
ATOM      9  H5  UNL     1      15.837  -0.649  56.091  1.00  0.00     0.217 HD
ENDBRANCH   7   8
BRANCH   7  10
HETATM   10  C13 UNL     1      15.911  -2.499  54.524  1.00  0.00     0.027 C 
HETATM   11  C22 UNL     1      17.111  -2.907  55.172  1.00  0.00     0.052 C 
HETATM   12  C23 UNL     1      18.377  -3.407  54.584  1.00  0.00     0.077 C 
BRANCH  10  13
HETATM   13  C14 UNL     1      15.708  -2.730  53.235  1.00  0.00     0.028 C 
BRANCH  13  14
HETATM   14  C15 UNL     1      15.775  -1.915  52.064  1.00  0.00    -0.034 A 
HETATM   15  C16 UNL     1      17.035  -1.548  51.556  1.00  0.00     0.014 A 
HETATM   16  C17 UNL     1      17.158  -0.694  50.490  1.00  0.00     0.044 A 
HETATM   17  C18 UNL     1      16.055  -0.152  49.865  1.00  0.00     0.131 A 
HETATM   18  F1  UNL     1      16.175   0.693  48.808  1.00  0.00    -0.205 F 
HETATM   19  C19 UNL     1      14.808  -0.492  50.341  1.00  0.00     0.087 A 
HETATM   20  C21 UNL     1      14.680  -1.347  51.407  1.00  0.00     0.030 A 
BRANCH  19  21
HETATM   21  C20 UNL     1      13.619   0.092  49.669  1.00  0.00     0.420 C 
HETATM   22  F2  UNL     1      13.594  -0.286  48.341  1.00  0.00    -0.166 F 
HETATM   23  F3  UNL     1      13.712   1.473  49.772  1.00  0.00    -0.166 F 
HETATM   24  F4  UNL     1      12.475  -0.384  50.283  1.00  0.00    -0.166 F 
ENDBRANCH  19  21
ENDBRANCH  13  14
ENDBRANCH  10  13
BRANCH  11  25
HETATM   25  O6  UNL     1      17.210  -2.865  56.473  1.00  0.00    -0.364 OA
ATOM     26  H6  UNL     1      16.635  -3.389  57.018  1.00  0.00     0.217 HD
ENDBRANCH  11  25
ENDBRANCH   7  10
ENDBRANCH   6   7
BRANCH   1  27
HETATM   27  C2  UNL     1      13.985  -4.323  56.861  1.00  0.00     0.015 C 
HETATM   28  N1  UNL     1      14.560  -4.269  57.975  1.00  0.00    -0.397 N 
HETATM   29  C1  UNL     1      15.457  -5.212  58.554  1.00  0.00     0.146 C 
ATOM     30  H1  UNL     1      14.361  -3.442  58.539  1.00  0.00     0.158 HD
HETATM   31  C3  UNL     1      14.357  -5.599  56.106  1.00  0.00     0.068 C 
ENDBRANCH   1  27
BRANCH   5  32
HETATM   32  O4  UNL     1      12.549  -0.477  54.050  1.00  0.00    -0.357 OA
ATOM     33  H4  UNL     1      13.128  -0.703  53.331  1.00  0.00     0.217 HD
ENDBRANCH   5  32
BRANCH   2  34
HETATM   34  O1  UNL     1      11.328  -4.500  57.521  1.00  0.00    -0.357 OA
ATOM     35  H1  UNL     1      10.441  -4.839  57.486  1.00  0.00     0.217 HD
ENDBRANCH   2  34
BRANCH   4  36
HETATM   36  N3  UNL     1      10.009  -0.765  54.906  1.00  0.00    -0.110 N 
HETATM   37  O2  UNL     1       9.746   0.248  55.550  1.00  0.00    -0.532 OA
HETATM   38  O3  UNL     1       9.359  -1.070  53.752  1.00  0.00    -0.532 OA
ENDBRANCH   4  36
BRANCH   3  39
HETATM   39  N2  UNL     1       9.363  -2.844  56.676  1.00  0.00    -0.373 N 
HETATM   40  C7  UNL     1       7.986  -3.330  56.495  1.00  0.00     0.143 A 
HETATM   41  C8  UNL     1       8.402  -2.645  57.754  1.00  0.00     0.143 A 
ENDBRANCH   3  39
TORSDOF 12
ENDMDL
MODEL 3
REMARK VINA RESULT: -7.829233221      2.278      5.675
REMARK  12 active torsions:
REMARK  status: ('A' for Active; 'I' for Inactive)
REMARK    1  A    between atoms: C2_4  and  C4_6 
REMARK    2  A    between atoms: C5_7  and  O1_8 
REMARK    3  A    between atoms: C6_10  and  N2_11 
REMARK    4  A    between atoms: C9_14  and  N3_15 
REMARK    5  A    between atoms: C10_18  and  O4_19 
REMARK    6  A    between atoms: C11_21  and  C12_22 
REMARK    7  A    between atoms: C12_22  and  O5_23 
REMARK    8  A    between atoms: C12_22  and  C13_25 
REMARK    9  A    between atoms: C13_25  and  C14_26 
REMARK   10  A    between atoms: C14_26  and  C15_27 
REMARK   11  A    between atoms: C19_32  and  C20_33 
REMARK   12  A    between atoms: C22_38  and  O6_40 
ROOT
HETATM    1  C4  UNL     1      15.607  -2.423  54.944  1.00  0.00     0.037 A 
HETATM    2  C5  UNL     1      15.085  -1.329  55.662  1.00  0.00     0.108 A 
HETATM    3  C6  UNL     1      13.753  -0.973  55.702  1.00  0.00     0.101 A 
HETATM    4  C9  UNL     1      12.879  -1.733  55.004  1.00  0.00     0.166 A 
HETATM    5  C10 UNL     1      13.349  -2.805  54.299  1.00  0.00     0.115 A 
HETATM    6  C11 UNL     1      14.691  -3.207  54.216  1.00  0.00     0.049 A 
ENDROOT
BRANCH   6   7
HETATM    7  C12 UNL     1      15.095  -4.104  53.225  1.00  0.00     0.092 C 
BRANCH   7   8
HETATM    8  O5  UNL     1      14.867  -5.363  53.458  1.00  0.00    -0.359 OA
ATOM      9  H5  UNL     1      14.076  -5.725  53.076  1.00  0.00     0.217 HD
ENDBRANCH   7   8
BRANCH   7  10
HETATM   10  C13 UNL     1      15.770  -3.972  51.902  1.00  0.00     0.027 C 
HETATM   11  C22 UNL     1      16.991  -4.589  51.508  1.00  0.00     0.052 C 
HETATM   12  C23 UNL     1      17.769  -4.425  50.257  1.00  0.00     0.077 C 
BRANCH  10  13
HETATM   13  C14 UNL     1      15.034  -3.284  51.041  1.00  0.00     0.028 C 
BRANCH  13  14
HETATM   14  C15 UNL     1      14.857  -1.890  50.789  1.00  0.00    -0.034 A 
HETATM   15  C16 UNL     1      13.581  -1.320  50.960  1.00  0.00     0.014 A 
HETATM   16  C17 UNL     1      13.334  -0.007  50.646  1.00  0.00     0.044 A 
HETATM   17  C18 UNL     1      14.321   0.816  50.146  1.00  0.00     0.131 A 
HETATM   18  F1  UNL     1      14.077   2.116  49.835  1.00  0.00    -0.205 F 
HETATM   19  C19 UNL     1      15.578   0.285  49.967  1.00  0.00     0.087 A 
HETATM   20  C21 UNL     1      15.831  -1.027  50.281  1.00  0.00     0.030 A 
BRANCH  19  21
HETATM   21  C20 UNL     1      16.642   1.172  49.427  1.00  0.00     0.420 C 
HETATM   22  F2  UNL     1      16.473   2.456  49.904  1.00  0.00    -0.166 F 
HETATM   23  F3  UNL     1      16.540   1.159  48.043  1.00  0.00    -0.166 F 
HETATM   24  F4  UNL     1      17.874   0.705  49.847  1.00  0.00    -0.166 F 
ENDBRANCH  19  21
ENDBRANCH  13  14
ENDBRANCH  10  13
BRANCH  11  25
HETATM   25  O6  UNL     1      17.595  -5.432  52.300  1.00  0.00    -0.364 OA
ATOM     26  H6  UNL     1      18.020  -6.205  51.949  1.00  0.00     0.217 HD
ENDBRANCH  11  25
ENDBRANCH   7  10
ENDBRANCH   6   7
BRANCH   1  27
HETATM   27  C2  UNL     1      17.047  -2.598  54.997  1.00  0.00     0.015 C 
HETATM   28  N1  UNL     1      17.735  -3.204  55.855  1.00  0.00    -0.397 N 
HETATM   29  C1  UNL     1      19.148  -3.375  55.894  1.00  0.00     0.146 C 
ATOM     30  H1  UNL     1      17.214  -3.627  56.624  1.00  0.00     0.158 HD
HETATM   31  C3  UNL     1      17.928  -2.005  53.897  1.00  0.00     0.068 C 
ENDBRANCH   1  27
BRANCH   5  32
HETATM   32  O4  UNL     1      12.357  -3.563  53.644  1.00  0.00    -0.357 OA
ATOM     33  H4  UNL     1      12.688  -4.196  53.017  1.00  0.00     0.217 HD
ENDBRANCH   5  32
BRANCH   2  34
HETATM   34  O1  UNL     1      15.942  -0.518  56.402  1.00  0.00    -0.357 OA
ATOM     35  H1  UNL     1      16.342   0.240  55.992  1.00  0.00     0.217 HD
ENDBRANCH   2  34
BRANCH   4  36
HETATM   36  N3  UNL     1      11.491  -1.406  55.011  1.00  0.00    -0.110 N 
HETATM   37  O2  UNL     1      11.029  -0.697  54.120  1.00  0.00    -0.532 OA
HETATM   38  O3  UNL     1      10.715  -1.894  56.015  1.00  0.00    -0.532 OA
ENDBRANCH   4  36
BRANCH   3  39
HETATM   39  N2  UNL     1      13.323   0.157  56.452  1.00  0.00    -0.373 N 
HETATM   40  C7  UNL     1      12.498   1.362  56.630  1.00  0.00     0.143 A 
HETATM   41  C8  UNL     1      13.457   0.923  57.685  1.00  0.00     0.143 A 
ENDBRANCH   3  39
TORSDOF 12
ENDMDL
MODEL 4
REMARK VINA RESULT: -7.801691261      4.349      5.858
REMARK  12 active torsions:
REMARK  status: ('A' for Active; 'I' for Inactive)
REMARK    1  A    between atoms: C2_4  and  C4_6 
REMARK    2  A    between atoms: C5_7  and  O1_8 
REMARK    3  A    between atoms: C6_10  and  N2_11 
REMARK    4  A    between atoms: C9_14  and  N3_15 
REMARK    5  A    between atoms: C10_18  and  O4_19 
REMARK    6  A    between atoms: C11_21  and  C12_22 
REMARK    7  A    between atoms: C12_22  and  O5_23 
REMARK    8  A    between atoms: C12_22  and  C13_25 
REMARK    9  A    between atoms: C13_25  and  C14_26 
REMARK   10  A    between atoms: C14_26  and  C15_27 
REMARK   11  A    between atoms: C19_32  and  C20_33 
REMARK   12  A    between atoms: C22_38  and  O6_40 
ROOT
HETATM    1  C4  UNL     1      14.203  -2.023  55.900  1.00  0.00     0.037 A 
HETATM    2  C5  UNL     1      15.263  -2.903  55.603  1.00  0.00     0.108 A 
HETATM    3  C6  UNL     1      15.850  -3.043  54.364  1.00  0.00     0.101 A 
HETATM    4  C9  UNL     1      15.379  -2.275  53.356  1.00  0.00     0.166 A 
HETATM    5  C10 UNL     1      14.354  -1.406  53.607  1.00  0.00     0.115 A 
HETATM    6  C11 UNL     1      13.715  -1.230  54.844  1.00  0.00     0.049 A 
ENDROOT
BRANCH   6   7
HETATM    7  C12 UNL     1      12.488  -0.567  54.911  1.00  0.00     0.092 C 
BRANCH   7   8
HETATM    8  O5  UNL     1      12.520   0.666  55.326  1.00  0.00    -0.359 OA
ATOM      9  H5  UNL     1      11.684   1.055  55.556  1.00  0.00     0.217 HD
ENDBRANCH   7   8
BRANCH   7  10
HETATM   10  C13 UNL     1      11.075  -0.942  54.622  1.00  0.00     0.027 C 
HETATM   11  C22 UNL     1      10.504  -1.173  53.338  1.00  0.00     0.052 C 
HETATM   12  C23 UNL     1       9.096  -1.447  52.967  1.00  0.00     0.077 C 
BRANCH  10  13
HETATM   13  C14 UNL     1      10.388  -1.166  55.733  1.00  0.00     0.028 C 
BRANCH  13  14
HETATM   14  C15 UNL     1       9.675  -2.294  56.241  1.00  0.00    -0.034 A 
HETATM   15  C16 UNL     1       8.375  -2.110  56.749  1.00  0.00     0.014 A 
HETATM   16  C17 UNL     1       7.680  -3.140  57.331  1.00  0.00     0.044 A 
HETATM   17  C18 UNL     1       8.220  -4.402  57.449  1.00  0.00     0.131 A 
HETATM   18  F1  UNL     1       7.531  -5.423  58.024  1.00  0.00    -0.205 F 
HETATM   19  C19 UNL     1       9.490  -4.612  56.962  1.00  0.00     0.087 A 
HETATM   20  C21 UNL     1      10.190  -3.585  56.378  1.00  0.00     0.030 A 
BRANCH  19  21
HETATM   21  C20 UNL     1      10.073  -5.973  57.089  1.00  0.00     0.420 C 
HETATM   22  F2  UNL     1      11.307  -6.018  56.472  1.00  0.00    -0.166 F 
HETATM   23  F3  UNL     1       9.201  -6.864  56.479  1.00  0.00    -0.166 F 
HETATM   24  F4  UNL     1      10.241  -6.268  58.429  1.00  0.00    -0.166 F 
ENDBRANCH  19  21
ENDBRANCH  13  14
ENDBRANCH  10  13
BRANCH  11  25
HETATM   25  O6  UNL     1      11.250  -1.152  52.267  1.00  0.00    -0.364 OA
ATOM     26  H6  UNL     1      11.100  -1.771  51.562  1.00  0.00     0.217 HD
ENDBRANCH  11  25
ENDBRANCH   7  10
ENDBRANCH   6   7
BRANCH   1  27
HETATM   27  C2  UNL     1      13.697  -2.062  57.260  1.00  0.00     0.015 C 
HETATM   28  N1  UNL     1      13.072  -2.982  57.841  1.00  0.00    -0.397 N 
HETATM   29  C1  UNL     1      12.586  -3.012  59.179  1.00  0.00     0.146 C 
ATOM     30  H1  UNL     1      12.889  -3.816  57.282  1.00  0.00     0.158 HD
HETATM   31  C3  UNL     1      13.914  -0.866  58.189  1.00  0.00     0.068 C 
ENDBRANCH   1  27
BRANCH   5  32
HETATM   32  O4  UNL     1      13.965  -0.616  52.507  1.00  0.00    -0.357 OA
ATOM     33  H4  UNL     1      13.083  -0.267  52.558  1.00  0.00     0.217 HD
ENDBRANCH   5  32
BRANCH   2  34
HETATM   34  O1  UNL     1      15.789  -3.712  56.607  1.00  0.00    -0.357 OA
ATOM     35  H1  UNL     1      16.086  -4.590  56.397  1.00  0.00     0.217 HD
ENDBRANCH   2  34
BRANCH   4  36
HETATM   36  N3  UNL     1      15.951  -2.382  52.054  1.00  0.00    -0.110 N 
HETATM   37  O2  UNL     1      15.513  -3.215  51.263  1.00  0.00    -0.532 OA
HETATM   38  O3  UNL     1      16.976  -1.551  51.724  1.00  0.00    -0.532 OA
ENDBRANCH   4  36
BRANCH   3  39
HETATM   39  N2  UNL     1      16.913  -3.966  54.160  1.00  0.00    -0.373 N 
HETATM   40  C7  UNL     1      17.435  -5.331  53.989  1.00  0.00     0.143 A 
HETATM   41  C8  UNL     1      18.347  -4.150  53.969  1.00  0.00     0.143 A 
ENDBRANCH   3  39
TORSDOF 12
ENDMDL
MODEL 5
REMARK VINA RESULT: -7.795021869      5.033      7.618
REMARK  12 active torsions:
REMARK  status: ('A' for Active; 'I' for Inactive)
REMARK    1  A    between atoms: C2_4  and  C4_6 
REMARK    2  A    between atoms: C5_7  and  O1_8 
REMARK    3  A    between atoms: C6_10  and  N2_11 
REMARK    4  A    between atoms: C9_14  and  N3_15 
REMARK    5  A    between atoms: C10_18  and  O4_19 
REMARK    6  A    between atoms: C11_21  and  C12_22 
REMARK    7  A    between atoms: C12_22  and  O5_23 
REMARK    8  A    between atoms: C12_22  and  C13_25 
REMARK    9  A    between atoms: C13_25  and  C14_26 
REMARK   10  A    between atoms: C14_26  and  C15_27 
REMARK   11  A    between atoms: C19_32  and  C20_33 
REMARK   12  A    between atoms: C22_38  and  O6_40 
ROOT
HETATM    1  C4  UNL     1      13.812  -1.336  57.213  1.00  0.00     0.037 A 
HETATM    2  C5  UNL     1      14.555  -0.831  58.299  1.00  0.00     0.108 A 
HETATM    3  C6  UNL     1      14.606   0.495  58.673  1.00  0.00     0.101 A 
HETATM    4  C9  UNL     1      13.885   1.380  57.948  1.00  0.00     0.166 A 
HETATM    5  C10 UNL     1      13.148   0.926  56.891  1.00  0.00     0.115 A 
HETATM    6  C11 UNL     1      13.067  -0.408  56.461  1.00  0.00     0.049 A 
ENDROOT
BRANCH   6   7
HETATM    7  C12 UNL     1      12.556  -0.708  55.197  1.00  0.00     0.092 C 
BRANCH   7   8
HETATM    8  O5  UNL     1      13.422  -0.802  54.231  1.00  0.00    -0.359 OA
ATOM      9  H5  UNL     1      14.336  -0.715  54.474  1.00  0.00     0.217 HD
ENDBRANCH   7   8
BRANCH   7  10
HETATM   10  C13 UNL     1      11.191  -0.948  54.646  1.00  0.00     0.027 C 
HETATM   11  C22 UNL     1      10.860  -1.215  53.288  1.00  0.00     0.052 C 
HETATM   12  C23 UNL     1       9.528  -1.362  52.653  1.00  0.00     0.077 C 
BRANCH  10  13
HETATM   13  C14 UNL     1      10.278  -1.007  55.605  1.00  0.00     0.028 C 
BRANCH  13  14
HETATM   14  C15 UNL     1       9.471  -2.059  56.135  1.00  0.00    -0.034 A 
HETATM   15  C16 UNL     1       8.194  -1.753  56.642  1.00  0.00     0.014 A 
HETATM   16  C17 UNL     1       7.414  -2.708  57.243  1.00  0.00     0.044 A 
HETATM   17  C18 UNL     1       7.842  -4.011  57.383  1.00  0.00     0.131 A 
HETATM   18  F1  UNL     1       7.069  -4.957  57.978  1.00  0.00    -0.205 F 
HETATM   19  C19 UNL     1       9.088  -4.339  56.897  1.00  0.00     0.087 A 
HETATM   20  C21 UNL     1       9.872  -3.388  56.293  1.00  0.00     0.030 A 
BRANCH  19  21
HETATM   21  C20 UNL     1       9.550  -5.743  57.047  1.00  0.00     0.420 C 
HETATM   22  F2  UNL     1      10.751  -5.918  56.390  1.00  0.00    -0.166 F 
HETATM   23  F3  UNL     1       8.579  -6.568  56.496  1.00  0.00    -0.166 F 
HETATM   24  F4  UNL     1       9.740  -6.014  58.390  1.00  0.00    -0.166 F 
ENDBRANCH  19  21
ENDBRANCH  13  14
ENDBRANCH  10  13
BRANCH  11  25
HETATM   25  O6  UNL     1      11.798  -1.361  52.392  1.00  0.00    -0.364 OA
ATOM     26  H6  UNL     1      12.099  -2.227  52.145  1.00  0.00     0.217 HD
ENDBRANCH  11  25
ENDBRANCH   7  10
ENDBRANCH   6   7
BRANCH   1  27
HETATM   27  C2  UNL     1      13.931  -2.760  56.960  1.00  0.00     0.015 C 
HETATM   28  N1  UNL     1      14.783  -3.368  56.269  1.00  0.00    -0.397 N 
HETATM   29  C1  UNL     1      14.894  -4.768  56.032  1.00  0.00     0.146 C 
ATOM     30  H1  UNL     1      15.487  -2.784  55.817  1.00  0.00     0.158 HD
HETATM   31  C3  UNL     1      12.929  -3.732  57.586  1.00  0.00     0.068 C 
ENDBRANCH   1  27
BRANCH   5  32
HETATM   32  O4  UNL     1      12.394   1.915  56.227  1.00  0.00    -0.357 OA
ATOM     33  H4  UNL     1      12.198   1.724  55.317  1.00  0.00     0.217 HD
ENDBRANCH   5  32
BRANCH   2  34
HETATM   34  O1  UNL     1      15.310  -1.701  59.081  1.00  0.00    -0.357 OA
ATOM     35  H1  UNL     1      15.054  -2.614  59.152  1.00  0.00     0.217 HD
ENDBRANCH   2  34
BRANCH   4  36
HETATM   36  N3  UNL     1      13.904   2.763  58.293  1.00  0.00    -0.110 N 
HETATM   37  O2  UNL     1      12.906   3.281  58.790  1.00  0.00    -0.532 OA
HETATM   38  O3  UNL     1      15.038   3.475  58.057  1.00  0.00    -0.532 OA
ENDBRANCH   4  36
BRANCH   3  39
HETATM   39  N2  UNL     1      15.393   0.910  59.783  1.00  0.00    -0.373 N 
HETATM   40  C7  UNL     1      15.576   1.190  61.216  1.00  0.00     0.143 A 
HETATM   41  C8  UNL     1      16.693   1.380  60.246  1.00  0.00     0.143 A 
ENDBRANCH   3  39
TORSDOF 12
ENDMDL
