MODEL 1
REMARK VINA RESULT: -9.243907778      0.000      0.000
REMARK  9 active torsions:
REMARK  status: ('A' for Active; 'I' for Inactive)
REMARK    1  A    between atoms: O1_2  and  C2_3 
REMARK    2  A    between atoms: C4_5  and  C5_6 
REMARK    3  A    between atoms: N1_7  and  N2_9 
REMARK    4  A    between atoms: N2_9  and  C6_11 
REMARK    5  A    between atoms: C7_16  and  C8_17 
REMARK    6  A    between atoms: C13_24  and  O2_25 
REMARK    7  A    between atoms: O2_25  and  C14_26 
REMARK    8  A    between atoms: C14_26  and  C15_27 
REMARK    9  A    between atoms: C22_38  and  O4_39 
ROOT
HETATM    1  C6  UNL     1      13.217  -1.342  56.108  1.00  0.00     0.180 A 
HETATM    2  N3  UNL     1      14.485  -1.202  55.702  1.00  0.00    -0.278 N 
ATOM      3  H3  UNL     1      15.248  -1.158  56.377  1.00  0.00     0.189 HD
HETATM    4  N4  UNL     1      14.714  -1.126  54.460  1.00  0.00    -0.291 N 
ATOM      5  H4  UNL     1      15.678  -1.020  54.140  1.00  0.00     0.187 HD
HETATM    6  C7  UNL     1      13.753  -1.180  53.571  1.00  0.00     0.105 A 
HETATM    7  S1  UNL     1      12.381  -1.357  54.617  1.00  0.00    -0.031 SA
ENDROOT
BRANCH   6   8
HETATM    8  C8  UNL     1      13.754  -1.053  52.112  1.00  0.00     0.036 A 
HETATM    9  C9  UNL     1      12.500  -1.084  51.489  1.00  0.00     0.020 A 
HETATM   10  C10 UNL     1      12.358  -0.890  50.123  1.00  0.00     0.046 A 
HETATM   11  C11 UNL     1      13.476  -0.661  49.354  1.00  0.00     0.157 A 
HETATM   12  F1  UNL     1      13.391  -0.460  47.999  1.00  0.00    -0.203 F 
HETATM   13  C12 UNL     1      14.708  -0.629  49.937  1.00  0.00     0.189 A 
HETATM   14  F2  UNL     1      15.804  -0.403  49.184  1.00  0.00    -0.200 F 
HETATM   15  C13 UNL     1      14.827  -0.832  51.331  1.00  0.00     0.123 A 
BRANCH  15  16
HETATM   16  O2  UNL     1      16.108  -0.811  51.856  1.00  0.00    -0.344 OA
BRANCH  16  17
HETATM   17  C14 UNL     1      17.035  -1.824  51.724  1.00  0.00     0.213 C 
BRANCH  17  18
HETATM   18  C15 UNL     1      17.017  -3.048  52.517  1.00  0.00     0.217 C 
HETATM   19  O3  UNL     1      18.202  -3.577  52.968  1.00  0.00    -0.378 OA
HETATM   20  C16 UNL     1      17.902  -4.564  53.903  1.00  0.00     0.168 C 
HETATM   21  C17 UNL     1      17.533  -5.825  53.156  1.00  0.00     0.032 C 
HETATM   22  C18 UNL     1      17.079  -5.455  51.783  1.00  0.00     0.084 C 
HETATM   23  C19 UNL     1      16.325  -4.151  51.704  1.00  0.00     0.271 C 
HETATM   24  F3  UNL     1      15.007  -4.310  52.080  1.00  0.00    -0.203 F 
HETATM   25  F4  UNL     1      16.290  -3.798  50.348  1.00  0.00    -0.203 F 
ENDBRANCH  17  18
ENDBRANCH  16  17
ENDBRANCH  15  16
ENDBRANCH   6   8
BRANCH   1  26
HETATM   26  N2  UNL     1      12.777  -1.436  57.344  1.00  0.00    -0.279 N 
ATOM     27  H2  UNL     1      13.202  -0.941  58.128  1.00  0.00     0.189 HD
BRANCH  26  28
HETATM   28  N1  UNL     1      11.656  -2.290  57.481  1.00  0.00    -0.309 N 
HETATM   29  C5  UNL     1      11.772  -3.425  58.072  1.00  0.00     0.118 C 
ATOM     30  H1  UNL     1      10.751  -2.003  57.109  1.00  0.00     0.186 HD
BRANCH  29  31
HETATM   31  C4  UNL     1      10.601  -4.280  58.198  1.00  0.00    -0.017 A 
HETATM   32  C3  UNL     1       9.475  -4.055  57.411  1.00  0.00     0.052 A 
HETATM   33  C2  UNL     1       8.344  -4.837  57.498  1.00  0.00     0.102 A 
HETATM   34  C22 UNL     1       8.305  -5.886  58.387  1.00  0.00     0.099 A 
HETATM   35  C21 UNL     1       9.420  -6.117  59.173  1.00  0.00     0.040 A 
HETATM   36  C20 UNL     1      10.546  -5.334  59.085  1.00  0.00     0.016 A 
BRANCH  33  37
HETATM   37  O1  UNL     1       7.242  -4.580  56.695  1.00  0.00    -0.353 OA
HETATM   38  C1  UNL     1       6.842  -3.263  56.390  1.00  0.00     0.210 C 
ENDBRANCH  33  37
BRANCH  34  39
HETATM   39  O4  UNL     1       7.170  -6.709  58.505  1.00  0.00    -0.358 OA
ATOM     40  H4  UNL     1       7.008  -7.222  59.288  1.00  0.00     0.217 HD
ENDBRANCH  34  39
ENDBRANCH  29  31
ENDBRANCH  26  28
ENDBRANCH   1  26
TORSDOF 9
ENDMDL
MODEL 2
REMARK VINA RESULT: -9.126749626      0.734      1.513
REMARK  9 active torsions:
REMARK  status: ('A' for Active; 'I' for Inactive)
REMARK    1  A    between atoms: O1_2  and  C2_3 
REMARK    2  A    between atoms: C4_5  and  C5_6 
REMARK    3  A    between atoms: N1_7  and  N2_9 
REMARK    4  A    between atoms: N2_9  and  C6_11 
REMARK    5  A    between atoms: C7_16  and  C8_17 
REMARK    6  A    between atoms: C13_24  and  O2_25 
REMARK    7  A    between atoms: O2_25  and  C14_26 
REMARK    8  A    between atoms: C14_26  and  C15_27 
REMARK    9  A    between atoms: C22_38  and  O4_39 
ROOT
HETATM    1  C6  UNL     1      13.548  -1.748  56.017  1.00  0.00     0.180 A 
HETATM    2  N3  UNL     1      14.731  -1.262  55.620  1.00  0.00    -0.278 N 
ATOM      3  H3  UNL     1      15.466  -1.057  56.297  1.00  0.00     0.189 HD
HETATM    4  N4  UNL     1      14.916  -1.064  54.384  1.00  0.00    -0.291 N 
ATOM      5  H4  UNL     1      15.814  -0.694  54.071  1.00  0.00     0.187 HD
HETATM    6  C7  UNL     1      13.990  -1.318  53.493  1.00  0.00     0.105 A 
HETATM    7  S1  UNL     1      12.725  -1.900  54.527  1.00  0.00    -0.031 SA
ENDROOT
BRANCH   6   8
HETATM    8  C8  UNL     1      13.938  -1.118  52.043  1.00  0.00     0.036 A 
HETATM    9  C9  UNL     1      12.663  -1.137  51.463  1.00  0.00     0.020 A 
HETATM   10  C10 UNL     1      12.471  -0.877  50.114  1.00  0.00     0.046 A 
HETATM   11  C11 UNL     1      13.558  -0.592  49.320  1.00  0.00     0.157 A 
HETATM   12  F1  UNL     1      13.423  -0.326  47.981  1.00  0.00    -0.203 F 
HETATM   13  C12 UNL     1      14.809  -0.570  49.861  1.00  0.00     0.189 A 
HETATM   14  F2  UNL     1      15.875  -0.290  49.083  1.00  0.00    -0.200 F 
HETATM   15  C13 UNL     1      14.980  -0.842  51.238  1.00  0.00     0.123 A 
BRANCH  15  16
HETATM   16  O2  UNL     1      16.278  -0.826  51.719  1.00  0.00    -0.344 OA
BRANCH  16  17
HETATM   17  C14 UNL     1      17.173  -1.871  51.616  1.00  0.00     0.213 C 
BRANCH  17  18
HETATM   18  C15 UNL     1      17.110  -3.077  52.435  1.00  0.00     0.217 C 
HETATM   19  O3  UNL     1      18.273  -3.622  52.922  1.00  0.00    -0.378 OA
HETATM   20  C16 UNL     1      17.929  -4.582  53.872  1.00  0.00     0.168 C 
HETATM   21  C17 UNL     1      17.548  -5.850  53.144  1.00  0.00     0.032 C 
HETATM   22  C18 UNL     1      17.132  -5.500  51.754  1.00  0.00     0.084 C 
HETATM   23  C19 UNL     1      16.409  -4.181  51.630  1.00  0.00     0.271 C 
HETATM   24  F3  UNL     1      15.081  -4.302  51.981  1.00  0.00    -0.203 F 
HETATM   25  F4  UNL     1      16.412  -3.857  50.267  1.00  0.00    -0.203 F 
ENDBRANCH  17  18
ENDBRANCH  16  17
ENDBRANCH  15  16
ENDBRANCH   6   8
BRANCH   1  26
HETATM   26  N2  UNL     1      13.165  -2.018  57.245  1.00  0.00    -0.279 N 
ATOM     27  H2  UNL     1      13.810  -2.072  58.034  1.00  0.00     0.189 HD
BRANCH  26  28
HETATM   28  N1  UNL     1      11.771  -2.227  57.369  1.00  0.00    -0.309 N 
HETATM   29  C5  UNL     1      11.278  -3.409  57.266  1.00  0.00     0.118 C 
ATOM     30  H1  UNL     1      11.152  -1.434  57.541  1.00  0.00     0.186 HD
BRANCH  29  31
HETATM   31  C4  UNL     1       9.840  -3.591  57.399  1.00  0.00    -0.017 A 
HETATM   32  C3  UNL     1       9.311  -4.849  57.676  1.00  0.00     0.052 A 
HETATM   33  C2  UNL     1       7.957  -5.068  57.808  1.00  0.00     0.102 A 
HETATM   34  C22 UNL     1       7.078  -4.019  57.668  1.00  0.00     0.099 A 
HETATM   35  C21 UNL     1       7.595  -2.766  57.392  1.00  0.00     0.040 A 
HETATM   36  C20 UNL     1       8.946  -2.550  57.259  1.00  0.00     0.016 A 
BRANCH  33  37
HETATM   37  O1  UNL     1       7.469  -6.337  58.085  1.00  0.00    -0.353 OA
HETATM   38  C1  UNL     1       8.036  -7.142  59.095  1.00  0.00     0.210 C 
ENDBRANCH  33  37
BRANCH  34  39
HETATM   39  O4  UNL     1       5.689  -4.201  57.796  1.00  0.00    -0.358 OA
ATOM     40  H4  UNL     1       5.323  -4.801  58.436  1.00  0.00     0.217 HD
ENDBRANCH  34  39
ENDBRANCH  29  31
ENDBRANCH  26  28
ENDBRANCH   1  26
TORSDOF 9
ENDMDL
MODEL 3
REMARK VINA RESULT: -8.875662075      1.346      2.037
REMARK  9 active torsions:
REMARK  status: ('A' for Active; 'I' for Inactive)
REMARK    1  A    between atoms: O1_2  and  C2_3 
REMARK    2  A    between atoms: C4_5  and  C5_6 
REMARK    3  A    between atoms: N1_7  and  N2_9 
REMARK    4  A    between atoms: N2_9  and  C6_11 
REMARK    5  A    between atoms: C7_16  and  C8_17 
REMARK    6  A    between atoms: C13_24  and  O2_25 
REMARK    7  A    between atoms: O2_25  and  C14_26 
REMARK    8  A    between atoms: C14_26  and  C15_27 
REMARK    9  A    between atoms: C22_38  and  O4_39 
ROOT
HETATM    1  C6  UNL     1      13.512  -1.796  56.025  1.00  0.00     0.180 A 
HETATM    2  N3  UNL     1      14.770  -1.678  55.583  1.00  0.00    -0.278 N 
ATOM      3  H3  UNL     1      15.558  -1.723  56.230  1.00  0.00     0.189 HD
HETATM    4  N4  UNL     1      14.959  -1.510  54.343  1.00  0.00    -0.291 N 
ATOM      5  H4  UNL     1      15.915  -1.419  53.997  1.00  0.00     0.187 HD
HETATM    6  C7  UNL     1      13.966  -1.448  53.491  1.00  0.00     0.105 A 
HETATM    7  S1  UNL     1      12.625  -1.652  54.571  1.00  0.00    -0.031 SA
ENDROOT
BRANCH   6   8
HETATM    8  C8  UNL     1      13.923  -1.201  52.048  1.00  0.00     0.036 A 
HETATM    9  C9  UNL     1      12.648  -1.052  51.486  1.00  0.00     0.020 A 
HETATM   10  C10 UNL     1      12.473  -0.731  50.148  1.00  0.00     0.046 A 
HETATM   11  C11 UNL     1      13.577  -0.554  49.347  1.00  0.00     0.157 A 
HETATM   12  F1  UNL     1      13.460  -0.234  48.017  1.00  0.00    -0.203 F 
HETATM   13  C12 UNL     1      14.828  -0.696  49.870  1.00  0.00     0.189 A 
HETATM   14  F2  UNL     1      15.911  -0.521  49.084  1.00  0.00    -0.200 F 
HETATM   15  C13 UNL     1      14.980  -1.026  51.236  1.00  0.00     0.123 A 
BRANCH  15  16
HETATM   16  O2  UNL     1      16.277  -1.179  51.699  1.00  0.00    -0.344 OA
BRANCH  16  17
HETATM   17  C14 UNL     1      17.100  -2.247  51.409  1.00  0.00     0.213 C 
BRANCH  17  18
HETATM   18  C15 UNL     1      16.989  -3.553  52.049  1.00  0.00     0.217 C 
HETATM   19  O3  UNL     1      15.772  -3.962  52.538  1.00  0.00    -0.378 OA
HETATM   20  C16 UNL     1      15.869  -5.317  52.847  1.00  0.00     0.168 C 
HETATM   21  C17 UNL     1      16.542  -5.447  54.195  1.00  0.00     0.032 C 
HETATM   22  C18 UNL     1      17.342  -4.213  54.453  1.00  0.00     0.084 C 
HETATM   23  C19 UNL     1      17.977  -3.610  53.223  1.00  0.00     0.271 C 
HETATM   24  F3  UNL     1      19.137  -4.273  52.881  1.00  0.00    -0.203 F 
HETATM   25  F4  UNL     1      18.373  -2.315  53.581  1.00  0.00    -0.203 F 
ENDBRANCH  17  18
ENDBRANCH  16  17
ENDBRANCH  15  16
ENDBRANCH   6   8
BRANCH   1  26
HETATM   26  N2  UNL     1      13.111  -1.974  57.265  1.00  0.00    -0.279 N 
ATOM     27  H2  UNL     1      13.745  -1.960  58.065  1.00  0.00     0.189 HD
BRANCH  26  28
HETATM   28  N1  UNL     1      11.717  -2.185  57.384  1.00  0.00    -0.309 N 
HETATM   29  C5  UNL     1      11.225  -3.365  57.257  1.00  0.00     0.118 C 
ATOM     30  H1  UNL     1      11.098  -1.396  57.571  1.00  0.00     0.186 HD
BRANCH  29  31
HETATM   31  C4  UNL     1       9.787  -3.550  57.385  1.00  0.00    -0.017 A 
HETATM   32  C3  UNL     1       9.259  -4.811  57.651  1.00  0.00     0.052 A 
HETATM   33  C2  UNL     1       7.905  -5.032  57.780  1.00  0.00     0.102 A 
HETATM   34  C22 UNL     1       7.025  -3.984  57.645  1.00  0.00     0.099 A 
HETATM   35  C21 UNL     1       7.541  -2.728  57.380  1.00  0.00     0.040 A 
HETATM   36  C20 UNL     1       8.892  -2.509  57.252  1.00  0.00     0.016 A 
BRANCH  33  37
HETATM   37  O1  UNL     1       7.419  -6.304  58.045  1.00  0.00    -0.353 OA
HETATM   38  C1  UNL     1       8.010  -7.132  59.022  1.00  0.00     0.210 C 
ENDBRANCH  33  37
BRANCH  34  39
HETATM   39  O4  UNL     1       5.636  -4.169  57.769  1.00  0.00    -0.358 OA
ATOM     40  H4  UNL     1       5.017  -3.605  57.320  1.00  0.00     0.217 HD
ENDBRANCH  34  39
ENDBRANCH  29  31
ENDBRANCH  26  28
ENDBRANCH   1  26
TORSDOF 9
ENDMDL
MODEL 4
REMARK VINA RESULT: -8.872688889      1.690      4.351
REMARK  9 active torsions:
REMARK  status: ('A' for Active; 'I' for Inactive)
REMARK    1  A    between atoms: O1_2  and  C2_3 
REMARK    2  A    between atoms: C4_5  and  C5_6 
REMARK    3  A    between atoms: N1_7  and  N2_9 
REMARK    4  A    between atoms: N2_9  and  C6_11 
REMARK    5  A    between atoms: C7_16  and  C8_17 
REMARK    6  A    between atoms: C13_24  and  O2_25 
REMARK    7  A    between atoms: O2_25  and  C14_26 
REMARK    8  A    between atoms: C14_26  and  C15_27 
REMARK    9  A    between atoms: C22_38  and  O4_39 
ROOT
HETATM    1  C6  UNL     1      12.785  -0.308  55.439  1.00  0.00     0.180 A 
HETATM    2  N3  UNL     1      13.927  -0.319  56.139  1.00  0.00    -0.278 N 
ATOM      3  H3  UNL     1      14.060   0.312  56.930  1.00  0.00     0.189 HD
HETATM    4  N4  UNL     1      14.835  -1.130  55.797  1.00  0.00    -0.291 N 
ATOM      5  H4  UNL     1      15.709  -1.146  56.325  1.00  0.00     0.187 HD
HETATM    6  C7  UNL     1      14.689  -1.950  54.786  1.00  0.00     0.105 A 
HETATM    7  S1  UNL     1      13.091  -1.518  54.271  1.00  0.00    -0.031 SA
ENDROOT
BRANCH   6   8
HETATM    8  C8  UNL     1      15.598  -2.917  54.165  1.00  0.00     0.036 A 
HETATM    9  C9  UNL     1      15.515  -4.233  54.637  1.00  0.00     0.020 A 
HETATM   10  C10 UNL     1      16.260  -5.259  54.075  1.00  0.00     0.046 A 
HETATM   11  C11 UNL     1      17.105  -4.982  53.026  1.00  0.00     0.157 A 
HETATM   12  F1  UNL     1      17.863  -5.960  52.432  1.00  0.00    -0.203 F 
HETATM   13  C12 UNL     1      17.205  -3.708  52.550  1.00  0.00     0.189 A 
HETATM   14  F2  UNL     1      18.034  -3.437  51.520  1.00  0.00    -0.200 F 
HETATM   15  C13 UNL     1      16.437  -2.679  53.142  1.00  0.00     0.123 A 
BRANCH  15  16
HETATM   16  O2  UNL     1      16.604  -1.404  52.627  1.00  0.00    -0.344 OA
BRANCH  16  17
HETATM   17  C14 UNL     1      16.181  -0.993  51.379  1.00  0.00     0.213 C 
BRANCH  17  18
HETATM   18  C15 UNL     1      14.781  -0.794  51.023  1.00  0.00     0.217 C 
HETATM   19  O3  UNL     1      14.006  -1.883  50.705  1.00  0.00    -0.378 OA
HETATM   20  C16 UNL     1      12.677  -1.465  50.669  1.00  0.00     0.168 C 
HETATM   21  C17 UNL     1      12.428  -0.800  49.335  1.00  0.00     0.032 C 
HETATM   22  C18 UNL     1      13.731  -0.325  48.783  1.00  0.00     0.084 C 
HETATM   23  C19 UNL     1      14.711   0.161  49.823  1.00  0.00     0.271 C 
HETATM   24  F3  UNL     1      14.424   1.452  50.216  1.00  0.00    -0.203 F 
HETATM   25  F4  UNL     1      15.958   0.229  49.188  1.00  0.00    -0.203 F 
ENDBRANCH  17  18
ENDBRANCH  16  17
ENDBRANCH  15  16
ENDBRANCH   6   8
BRANCH   1  26
HETATM   26  N2  UNL     1      11.732   0.455  55.634  1.00  0.00    -0.279 N 
ATOM     27  H2  UNL     1      11.738   1.465  55.487  1.00  0.00     0.189 HD
BRANCH  26  28
HETATM   28  N1  UNL     1      10.590  -0.259  56.068  1.00  0.00    -0.309 N 
HETATM   29  C5  UNL     1      10.572  -1.543  56.028  1.00  0.00     0.118 C 
ATOM     30  H1  UNL     1       9.776   0.249  56.415  1.00  0.00     0.186 HD
BRANCH  29  31
HETATM   31  C4  UNL     1       9.382  -2.248  56.483  1.00  0.00    -0.017 A 
HETATM   32  C3  UNL     1       9.473  -3.557  56.950  1.00  0.00     0.052 A 
HETATM   33  C2  UNL     1       8.374  -4.263  57.388  1.00  0.00     0.102 A 
HETATM   34  C22 UNL     1       7.132  -3.673  57.373  1.00  0.00     0.099 A 
HETATM   35  C21 UNL     1       7.032  -2.373  56.910  1.00  0.00     0.040 A 
HETATM   36  C20 UNL     1       8.130  -1.671  56.473  1.00  0.00     0.016 A 
BRANCH  33  37
HETATM   37  O1  UNL     1       8.507  -5.566  57.846  1.00  0.00    -0.353 OA
HETATM   38  C1  UNL     1       8.554  -6.660  56.958  1.00  0.00     0.210 C 
ENDBRANCH  33  37
BRANCH  34  39
HETATM   39  O4  UNL     1       5.985  -4.360  57.813  1.00  0.00    -0.358 OA
ATOM     40  H4  UNL     1       5.112  -4.080  57.563  1.00  0.00     0.217 HD
ENDBRANCH  34  39
ENDBRANCH  29  31
ENDBRANCH  26  28
ENDBRANCH   1  26
TORSDOF 9
ENDMDL
MODEL 5
REMARK VINA RESULT: -8.844200243      1.973      4.020
REMARK  9 active torsions:
REMARK  status: ('A' for Active; 'I' for Inactive)
REMARK    1  A    between atoms: O1_2  and  C2_3 
REMARK    2  A    between atoms: C4_5  and  C5_6 
REMARK    3  A    between atoms: N1_7  and  N2_9 
REMARK    4  A    between atoms: N2_9  and  C6_11 
REMARK    5  A    between atoms: C7_16  and  C8_17 
REMARK    6  A    between atoms: C13_24  and  O2_25 
REMARK    7  A    between atoms: O2_25  and  C14_26 
REMARK    8  A    between atoms: C14_26  and  C15_27 
REMARK    9  A    between atoms: C22_38  and  O4_39 
ROOT
HETATM    1  C6  UNL     1      14.014  -1.706  57.339  1.00  0.00     0.180 A 
HETATM    2  N3  UNL     1      14.612  -0.611  56.851  1.00  0.00    -0.278 N 
ATOM      3  H3  UNL     1      14.544   0.283  57.339  1.00  0.00     0.189 HD
HETATM    4  N4  UNL     1      15.263  -0.712  55.771  1.00  0.00    -0.291 N 
ATOM      5  H4  UNL     1      15.722   0.117  55.391  1.00  0.00     0.187 HD
HETATM    6  C7  UNL     1      15.366  -1.847  55.125  1.00  0.00     0.105 A 
HETATM    7  S1  UNL     1      14.437  -2.876  56.167  1.00  0.00    -0.031 SA
ENDROOT
BRANCH   6   8
HETATM    8  C8  UNL     1      15.995  -2.199  53.850  1.00  0.00     0.036 A 
HETATM    9  C9  UNL     1      17.022  -3.149  53.911  1.00  0.00     0.020 A 
HETATM   10  C10 UNL     1      17.641  -3.630  52.766  1.00  0.00     0.046 A 
HETATM   11  C11 UNL     1      17.239  -3.165  51.536  1.00  0.00     0.157 A 
HETATM   12  F1  UNL     1      17.816  -3.608  50.373  1.00  0.00    -0.203 F 
HETATM   13  C12 UNL     1      16.242  -2.238  51.451  1.00  0.00     0.189 A 
HETATM   14  F2  UNL     1      15.847  -1.782  50.244  1.00  0.00    -0.200 F 
HETATM   15  C13 UNL     1      15.629  -1.761  52.632  1.00  0.00     0.123 A 
BRANCH  15  16
HETATM   16  O2  UNL     1      14.641  -0.804  52.477  1.00  0.00    -0.344 OA
BRANCH  16  17
HETATM   17  C14 UNL     1      13.301  -1.073  52.282  1.00  0.00     0.213 C 
BRANCH  17  18
HETATM   18  C15 UNL     1      12.253  -0.701  53.226  1.00  0.00     0.217 C 
HETATM   19  O3  UNL     1      12.597  -0.336  54.504  1.00  0.00    -0.378 OA
HETATM   20  C16 UNL     1      11.471   0.220  55.108  1.00  0.00     0.168 C 
HETATM   21  C17 UNL     1      10.586  -0.909  55.585  1.00  0.00     0.032 C 
HETATM   22  C18 UNL     1      10.902  -2.135  54.792  1.00  0.00     0.084 C 
HETATM   23  C19 UNL     1      11.268  -1.872  53.352  1.00  0.00     0.271 C 
HETATM   24  F3  UNL     1      10.144  -1.677  52.576  1.00  0.00    -0.203 F 
HETATM   25  F4  UNL     1      11.858  -3.050  52.875  1.00  0.00    -0.203 F 
ENDBRANCH  17  18
ENDBRANCH  16  17
ENDBRANCH  15  16
ENDBRANCH   6   8
BRANCH   1  26
HETATM   26  N2  UNL     1      13.297  -1.805  58.437  1.00  0.00    -0.279 N 
ATOM     27  H2  UNL     1      13.556  -1.358  59.316  1.00  0.00     0.189 HD
BRANCH  26  28
HETATM   28  N1  UNL     1      12.130  -2.591  58.280  1.00  0.00    -0.309 N 
HETATM   29  C5  UNL     1      11.969  -3.661  58.973  1.00  0.00     0.118 C 
ATOM     30  H1  UNL     1      11.412  -2.307  57.614  1.00  0.00     0.186 HD
BRANCH  29  31
HETATM   31  C4  UNL     1      10.758  -4.448  58.790  1.00  0.00    -0.017 A 
HETATM   32  C3  UNL     1       9.751  -4.004  57.937  1.00  0.00     0.052 A 
HETATM   33  C2  UNL     1       8.588  -4.715  57.735  1.00  0.00     0.102 A 
HETATM   34  C22 UNL     1       8.395  -5.910  58.388  1.00  0.00     0.099 A 
HETATM   35  C21 UNL     1       9.391  -6.359  59.237  1.00  0.00     0.040 A 
HETATM   36  C20 UNL     1      10.550  -5.647  59.438  1.00  0.00     0.016 A 
BRANCH  33  37
HETATM   37  O1  UNL     1       7.608  -4.239  56.876  1.00  0.00    -0.353 OA
HETATM   38  C1  UNL     1       7.420  -2.857  56.663  1.00  0.00     0.210 C 
ENDBRANCH  33  37
BRANCH  34  39
HETATM   39  O4  UNL     1       7.222  -6.666  58.208  1.00  0.00    -0.358 OA
ATOM     40  H4  UNL     1       6.775  -6.698  57.370  1.00  0.00     0.217 HD
ENDBRANCH  34  39
ENDBRANCH  29  31
ENDBRANCH  26  28
ENDBRANCH   1  26
TORSDOF 9
ENDMDL
