MODEL 1
REMARK VINA RESULT: -8.776677202      0.000      0.000
REMARK  11 active torsions:
REMARK  status: ('A' for Active; 'I' for Inactive)
REMARK    1  A    between atoms: C2_2  and  O1_5 
REMARK    2  A    between atoms: O1_5  and  C5_6 
REMARK    3  A    between atoms: C5_6  and  C6_8 
REMARK    4  A    between atoms: C7_9  and  O3_10 
REMARK    5  A    between atoms: C7_9  and  C22_35 
REMARK    6  A    between atoms: O3_10  and  C8_11 
REMARK    7  A    between atoms: C9_14  and  C10_15 
REMARK    8  A    between atoms: C13_18  and  N2_19 
REMARK    9  A    between atoms: C15_23  and  C16_24 
REMARK   10  A    between atoms: C17_27  and  C18_28 
REMARK   11  A    between atoms: C18_28  and  O6_29 
ROOT
HETATM    1  C8  UNL     1      15.528  -2.950  53.383  1.00  0.00     0.154 C 
HETATM    2  N1  UNL     1      14.882  -2.240  52.327  1.00  0.00    -0.360 N 
ATOM      3  H1  UNL     1      14.132  -1.579  52.532  1.00  0.00     0.162 HD
HETATM    4  C9  UNL     1      15.302  -2.466  50.970  1.00  0.00     0.148 C 
HETATM    5  C17 UNL     1      16.524  -3.338  51.101  1.00  0.00     0.173 C 
HETATM    6  O7  UNL     1      16.138  -4.548  51.731  1.00  0.00    -0.363 OA
HETATM    7  C19 UNL     1      15.994  -4.320  53.111  1.00  0.00     0.119 C 
HETATM    8  C20 UNL     1      17.422  -4.472  53.663  1.00  0.00     0.055 C 
HETATM    9  C21 UNL     1      15.225  -5.459  53.684  1.00  0.00     0.055 C 
ENDROOT
BRANCH   1  10
HETATM   10  O3  UNL     1      14.955  -2.811  54.629  1.00  0.00    -0.293 OA
BRANCH  10  11
HETATM   11  C7  UNL     1      14.833  -1.874  55.562  1.00  0.00     0.125 C 
HETATM   12  C6  UNL     1      13.833  -1.025  55.608  1.00  0.00     0.120 C 
BRANCH  12  13
HETATM   13  C5  UNL     1      12.744  -1.003  54.665  1.00  0.00     0.286 C 
HETATM   14  O2  UNL     1      12.780  -0.396  53.573  1.00  0.00    -0.260 OA
BRANCH  13  15
HETATM   15  O1  UNL     1      11.579  -1.694  54.980  1.00  0.00    -0.308 OA
BRANCH  15  16
HETATM   16  C2  UNL     1      10.312  -1.127  55.068  1.00  0.00     0.060 C 
HETATM   17  C1  UNL     1      10.313   0.284  55.564  1.00  0.00     0.046 C 
HETATM   18  C3  UNL     1       9.437  -1.960  56.011  1.00  0.00     0.046 C 
HETATM   19  C4  UNL     1       9.603  -1.168  53.709  1.00  0.00     0.046 C 
ENDBRANCH  15  16
ENDBRANCH  13  15
ENDBRANCH  12  13
BRANCH  11  20
HETATM   20  C22 UNL     1      15.868  -1.742  56.648  1.00  0.00     0.410 C 
HETATM   21  F3  UNL     1      16.690  -2.854  56.656  1.00  0.00    -0.207 F 
HETATM   22  F4  UNL     1      16.626  -0.627  56.580  1.00  0.00    -0.207 F 
ENDBRANCH  11  20
ENDBRANCH  10  11
ENDBRANCH   1  10
BRANCH   4  23
HETATM   23  C10 UNL     1      15.602  -1.161  50.315  1.00  0.00    -0.021 A 
HETATM   24  C11 UNL     1      16.870  -0.627  50.403  1.00  0.00     0.012 A 
HETATM   25  C12 UNL     1      17.163   0.599  49.856  1.00  0.00     0.037 A 
HETATM   26  C13 UNL     1      16.191   1.327  49.201  1.00  0.00     0.103 A 
HETATM   27  C14 UNL     1      14.940   0.767  49.128  1.00  0.00     0.049 A 
HETATM   28  C15 UNL     1      14.607  -0.482  49.676  1.00  0.00     0.016 A 
BRANCH  26  29
HETATM   29  N2  UNL     1      16.493   2.597  48.633  1.00  0.00    -0.116 N 
HETATM   30  O4  UNL     1      16.008   3.606  49.164  1.00  0.00    -0.532 OA
HETATM   31  O5  UNL     1      17.297   2.646  47.532  1.00  0.00    -0.532 OA
ENDBRANCH  26  29
BRANCH  28  32
HETATM   32  C16 UNL     1      13.212  -0.950  49.466  1.00  0.00     0.387 C 
HETATM   33  F1  UNL     1      12.481  -0.538  50.571  1.00  0.00    -0.209 F 
HETATM   34  F2  UNL     1      12.562  -0.461  48.385  1.00  0.00    -0.209 F 
ENDBRANCH  28  32
ENDBRANCH   4  23
BRANCH   5  35
HETATM   35  C18 UNL     1      17.114  -3.787  49.808  1.00  0.00     0.198 C 
BRANCH  35  36
HETATM   36  O6  UNL     1      18.316  -4.425  50.085  1.00  0.00    -0.398 OA
ATOM     37  H6  UNL     1      18.168  -5.362  50.032  1.00  0.00     0.209 HD
ENDBRANCH  35  36
ENDBRANCH   5  35
TORSDOF 11
ENDMDL
MODEL 2
REMARK VINA RESULT: -8.536763376      0.884      1.236
REMARK  11 active torsions:
REMARK  status: ('A' for Active; 'I' for Inactive)
REMARK    1  A    between atoms: C2_2  and  O1_5 
REMARK    2  A    between atoms: O1_5  and  C5_6 
REMARK    3  A    between atoms: C5_6  and  C6_8 
REMARK    4  A    between atoms: C7_9  and  O3_10 
REMARK    5  A    between atoms: C7_9  and  C22_35 
REMARK    6  A    between atoms: O3_10  and  C8_11 
REMARK    7  A    between atoms: C9_14  and  C10_15 
REMARK    8  A    between atoms: C13_18  and  N2_19 
REMARK    9  A    between atoms: C15_23  and  C16_24 
REMARK   10  A    between atoms: C17_27  and  C18_28 
REMARK   11  A    between atoms: C18_28  and  O6_29 
ROOT
HETATM    1  C8  UNL     1      15.895  -3.418  53.496  1.00  0.00     0.154 C 
HETATM    2  N1  UNL     1      15.136  -2.668  52.548  1.00  0.00    -0.360 N 
ATOM      3  H1  UNL     1      14.391  -2.045  52.861  1.00  0.00     0.162 HD
HETATM    4  C9  UNL     1      15.434  -2.801  51.148  1.00  0.00     0.148 C 
HETATM    5  C17 UNL     1      16.686  -3.640  51.113  1.00  0.00     0.173 C 
HETATM    6  O7  UNL     1      16.392  -4.897  51.701  1.00  0.00    -0.363 OA
HETATM    7  C19 UNL     1      16.370  -4.754  53.099  1.00  0.00     0.119 C 
HETATM    8  C20 UNL     1      17.847  -4.893  53.510  1.00  0.00     0.055 C 
HETATM    9  C21 UNL     1      15.688  -5.948  53.670  1.00  0.00     0.055 C 
ENDROOT
BRANCH   1  10
HETATM   10  O3  UNL     1      15.437  -3.370  54.795  1.00  0.00    -0.293 OA
BRANCH  10  11
HETATM   11  C7  UNL     1      15.565  -2.587  55.860  1.00  0.00     0.125 C 
HETATM   12  C6  UNL     1      14.762  -1.581  56.119  1.00  0.00     0.120 C 
BRANCH  12  13
HETATM   13  C5  UNL     1      13.646  -1.201  55.292  1.00  0.00     0.286 C 
HETATM   14  O2  UNL     1      13.760  -0.706  54.150  1.00  0.00    -0.260 OA
BRANCH  13  15
HETATM   15  O1  UNL     1      12.359  -1.393  55.785  1.00  0.00    -0.308 OA
BRANCH  15  16
HETATM   16  C2  UNL     1      11.409  -2.244  55.229  1.00  0.00     0.060 C 
HETATM   17  C1  UNL     1      11.992  -3.361  54.425  1.00  0.00     0.046 C 
HETATM   18  C3  UNL     1      10.469  -1.444  54.319  1.00  0.00     0.046 C 
HETATM   19  C4  UNL     1      10.512  -2.841  56.320  1.00  0.00     0.046 C 
ENDBRANCH  15  16
ENDBRANCH  13  15
ENDBRANCH  12  13
BRANCH  11  20
HETATM   20  C22 UNL     1      16.669  -2.829  56.855  1.00  0.00     0.410 C 
HETATM   21  F3  UNL     1      17.233  -4.074  56.642  1.00  0.00    -0.207 F 
HETATM   22  F4  UNL     1      17.643  -1.894  56.864  1.00  0.00    -0.207 F 
ENDBRANCH  11  20
ENDBRANCH  10  11
ENDBRANCH   1  10
BRANCH   4  23
HETATM   23  C10 UNL     1      15.638  -1.452  50.549  1.00  0.00    -0.021 A 
HETATM   24  C11 UNL     1      16.903  -0.906  50.506  1.00  0.00     0.012 A 
HETATM   25  C12 UNL     1      17.115   0.358  50.009  1.00  0.00     0.037 A 
HETATM   26  C13 UNL     1      16.061   1.113  49.538  1.00  0.00     0.103 A 
HETATM   27  C14 UNL     1      14.814   0.541  49.591  1.00  0.00     0.049 A 
HETATM   28  C15 UNL     1      14.564  -0.747  50.093  1.00  0.00     0.016 A 
BRANCH  26  29
HETATM   29  N2  UNL     1      16.277   2.422  49.022  1.00  0.00    -0.116 N 
HETATM   30  O4  UNL     1      15.648   3.362  49.528  1.00  0.00    -0.532 OA
HETATM   31  O5  UNL     1      17.164   2.583  47.998  1.00  0.00    -0.532 OA
ENDBRANCH  26  29
BRANCH  28  32
HETATM   32  C16 UNL     1      13.156  -1.220  50.036  1.00  0.00     0.387 C 
HETATM   33  F1  UNL     1      12.488  -0.617  51.093  1.00  0.00    -0.209 F 
HETATM   34  F2  UNL     1      12.453  -0.908  48.923  1.00  0.00    -0.209 F 
ENDBRANCH  28  32
ENDBRANCH   4  23
BRANCH   5  35
HETATM   35  C18 UNL     1      17.165  -3.994  49.747  1.00  0.00     0.198 C 
BRANCH  35  36
HETATM   36  O6  UNL     1      18.525  -4.264  49.828  1.00  0.00    -0.398 OA
ATOM     37  H6  UNL     1      18.826  -4.509  48.960  1.00  0.00     0.209 HD
ENDBRANCH  35  36
ENDBRANCH   5  35
TORSDOF 11
ENDMDL
MODEL 3
REMARK VINA RESULT: -8.354481513      2.418      6.364
REMARK  11 active torsions:
REMARK  status: ('A' for Active; 'I' for Inactive)
REMARK    1  A    between atoms: C2_2  and  O1_5 
REMARK    2  A    between atoms: O1_5  and  C5_6 
REMARK    3  A    between atoms: C5_6  and  C6_8 
REMARK    4  A    between atoms: C7_9  and  O3_10 
REMARK    5  A    between atoms: C7_9  and  C22_35 
REMARK    6  A    between atoms: O3_10  and  C8_11 
REMARK    7  A    between atoms: C9_14  and  C10_15 
REMARK    8  A    between atoms: C13_18  and  N2_19 
REMARK    9  A    between atoms: C15_23  and  C16_24 
REMARK   10  A    between atoms: C17_27  and  C18_28 
REMARK   11  A    between atoms: C18_28  and  O6_29 
ROOT
HETATM    1  C8  UNL     1      13.815  -1.151  51.930  1.00  0.00     0.154 C 
HETATM    2  N1  UNL     1      14.865  -1.683  52.737  1.00  0.00    -0.360 N 
ATOM      3  H1  UNL     1      14.786  -1.679  53.755  1.00  0.00     0.162 HD
HETATM    4  C9  UNL     1      16.034  -2.225  52.100  1.00  0.00     0.148 C 
HETATM    5  C17 UNL     1      15.692  -2.222  50.633  1.00  0.00     0.173 C 
HETATM    6  O7  UNL     1      15.461  -0.880  50.235  1.00  0.00    -0.363 OA
HETATM    7  C19 UNL     1      14.182  -0.488  50.668  1.00  0.00     0.119 C 
HETATM    8  C20 UNL     1      13.244  -0.992  49.557  1.00  0.00     0.055 C 
HETATM    9  C21 UNL     1      14.112   0.998  50.599  1.00  0.00     0.055 C 
ENDROOT
BRANCH   1  10
HETATM   10  O3  UNL     1      12.814  -0.496  52.613  1.00  0.00    -0.293 OA
BRANCH  10  11
HETATM   11  C7  UNL     1      11.736  -0.807  53.326  1.00  0.00     0.125 C 
HETATM   12  C6  UNL     1      11.672  -0.689  54.631  1.00  0.00     0.120 C 
BRANCH  12  13
HETATM   13  C5  UNL     1      12.751  -0.207  55.455  1.00  0.00     0.286 C 
HETATM   14  O2  UNL     1      12.704   0.853  56.115  1.00  0.00    -0.260 OA
BRANCH  13  15
HETATM   15  O1  UNL     1      13.919  -0.958  55.525  1.00  0.00    -0.308 OA
BRANCH  15  16
HETATM   16  C2  UNL     1      14.269  -1.796  56.580  1.00  0.00     0.060 C 
HETATM   17  C1  UNL     1      13.154  -2.056  57.542  1.00  0.00     0.046 C 
HETATM   18  C3  UNL     1      15.436  -1.183  57.361  1.00  0.00     0.046 C 
HETATM   19  C4  UNL     1      14.787  -3.140  56.056  1.00  0.00     0.046 C 
ENDBRANCH  15  16
ENDBRANCH  13  15
ENDBRANCH  12  13
BRANCH  11  20
HETATM   20  C22 UNL     1      10.495  -1.320  52.643  1.00  0.00     0.410 C 
HETATM   21  F3  UNL     1       9.370  -0.885  53.319  1.00  0.00    -0.207 F 
HETATM   22  F4  UNL     1      10.386  -0.991  51.338  1.00  0.00    -0.207 F 
ENDBRANCH  11  20
ENDBRANCH  10  11
ENDBRANCH   1  10
BRANCH   4  23
HETATM   23  C10 UNL     1      16.298  -3.597  52.619  1.00  0.00    -0.021 A 
HETATM   24  C11 UNL     1      15.470  -4.637  52.255  1.00  0.00     0.012 A 
HETATM   25  C12 UNL     1      15.655  -5.902  52.760  1.00  0.00     0.037 A 
HETATM   26  C13 UNL     1      16.679  -6.162  53.646  1.00  0.00     0.103 A 
HETATM   27  C14 UNL     1      17.488  -5.106  53.988  1.00  0.00     0.049 A 
HETATM   28  C15 UNL     1      17.326  -3.802  53.491  1.00  0.00     0.016 A 
BRANCH  26  29
HETATM   29  N2  UNL     1      16.873  -7.471  54.170  1.00  0.00    -0.116 N 
HETATM   30  O4  UNL     1      18.025  -7.928  54.193  1.00  0.00    -0.532 OA
HETATM   31  O5  UNL     1      15.786  -8.162  54.620  1.00  0.00    -0.532 OA
ENDBRANCH  26  29
BRANCH  28  32
HETATM   32  C16 UNL     1      18.320  -2.793  53.939  1.00  0.00     0.387 C 
HETATM   33  F1  UNL     1      17.653  -1.925  54.792  1.00  0.00    -0.209 F 
HETATM   34  F2  UNL     1      19.386  -3.253  54.633  1.00  0.00    -0.209 F 
ENDBRANCH  28  32
ENDBRANCH   4  23
BRANCH   5  35
HETATM   35  C18 UNL     1      16.791  -2.671  49.732  1.00  0.00     0.198 C 
BRANCH  35  36
HETATM   36  O6  UNL     1      17.541  -1.555  49.384  1.00  0.00    -0.398 OA
ATOM     37  H6  UNL     1      18.448  -1.732  49.606  1.00  0.00     0.209 HD
ENDBRANCH  35  36
ENDBRANCH   5  35
TORSDOF 11
ENDMDL
MODEL 4
REMARK VINA RESULT: -8.175260573      2.776      6.555
REMARK  11 active torsions:
REMARK  status: ('A' for Active; 'I' for Inactive)
REMARK    1  A    between atoms: C2_2  and  O1_5 
REMARK    2  A    between atoms: O1_5  and  C5_6 
REMARK    3  A    between atoms: C5_6  and  C6_8 
REMARK    4  A    between atoms: C7_9  and  O3_10 
REMARK    5  A    between atoms: C7_9  and  C22_35 
REMARK    6  A    between atoms: O3_10  and  C8_11 
REMARK    7  A    between atoms: C9_14  and  C10_15 
REMARK    8  A    between atoms: C13_18  and  N2_19 
REMARK    9  A    between atoms: C15_23  and  C16_24 
REMARK   10  A    between atoms: C17_27  and  C18_28 
REMARK   11  A    between atoms: C18_28  and  O6_29 
ROOT
HETATM    1  C8  UNL     1      16.622  -2.875  53.468  1.00  0.00     0.154 C 
HETATM    2  N1  UNL     1      15.698  -1.860  53.860  1.00  0.00    -0.360 N 
ATOM      3  H1  UNL     1      15.498  -1.077  53.238  1.00  0.00     0.162 HD
HETATM    4  C9  UNL     1      15.054  -1.955  55.142  1.00  0.00     0.148 C 
HETATM    5  C17 UNL     1      15.457  -3.312  55.660  1.00  0.00     0.173 C 
HETATM    6  O7  UNL     1      16.870  -3.333  55.789  1.00  0.00    -0.363 OA
HETATM    7  C19 UNL     1      17.442  -3.505  54.516  1.00  0.00     0.119 C 
HETATM    8  C20 UNL     1      17.425  -5.029  54.304  1.00  0.00     0.055 C 
HETATM    9  C21 UNL     1      18.882  -3.136  54.609  1.00  0.00     0.055 C 
ENDROOT
BRANCH   1  10
HETATM   10  O3  UNL     1      17.325  -2.623  52.310  1.00  0.00    -0.293 OA
BRANCH  10  11
HETATM   11  C7  UNL     1      17.222  -2.892  51.013  1.00  0.00     0.125 C 
HETATM   12  C6  UNL     1      16.829  -2.013  50.121  1.00  0.00     0.120 C 
BRANCH  12  13
HETATM   13  C5  UNL     1      16.467  -0.653  50.428  1.00  0.00     0.286 C 
HETATM   14  O2  UNL     1      17.192   0.334  50.181  1.00  0.00    -0.260 OA
BRANCH  13  15
HETATM   15  O1  UNL     1      15.239  -0.415  51.036  1.00  0.00    -0.308 OA
BRANCH  15  16
HETATM   16  C2  UNL     1      14.105   0.065  50.387  1.00  0.00     0.060 C 
HETATM   17  C1  UNL     1      14.124   1.540  50.147  1.00  0.00     0.046 C 
HETATM   18  C3  UNL     1      12.858  -0.265  51.215  1.00  0.00     0.046 C 
HETATM   19  C4  UNL     1      13.906  -0.648  49.045  1.00  0.00     0.046 C 
ENDBRANCH  15  16
ENDBRANCH  13  15
ENDBRANCH  12  13
BRANCH  11  20
HETATM   20  C22 UNL     1      17.568  -4.261  50.489  1.00  0.00     0.410 C 
HETATM   21  F3  UNL     1      16.898  -5.229  51.215  1.00  0.00    -0.207 F 
HETATM   22  F4  UNL     1      17.327  -4.445  49.174  1.00  0.00    -0.207 F 
ENDBRANCH  11  20
ENDBRANCH  10  11
ENDBRANCH   1  10
BRANCH   4  23
HETATM   23  C10 UNL     1      13.579  -1.828  54.972  1.00  0.00    -0.021 A 
HETATM   24  C11 UNL     1      12.921  -2.640  54.073  1.00  0.00     0.012 A 
HETATM   25  C12 UNL     1      11.570  -2.510  53.855  1.00  0.00     0.037 A 
HETATM   26  C13 UNL     1      10.837  -1.559  54.534  1.00  0.00     0.103 A 
HETATM   27  C14 UNL     1      11.521  -0.767  55.424  1.00  0.00     0.049 A 
HETATM   28  C15 UNL     1      12.899  -0.874  55.670  1.00  0.00     0.016 A 
BRANCH  26  29
HETATM   29  N2  UNL     1       9.439  -1.422  54.310  1.00  0.00    -0.116 N 
HETATM   30  O4  UNL     1       9.055  -1.119  53.171  1.00  0.00    -0.532 OA
HETATM   31  O5  UNL     1       8.586  -1.628  55.355  1.00  0.00    -0.532 OA
ENDBRANCH  26  29
BRANCH  28  32
HETATM   32  C16 UNL     1      13.463   0.040  56.697  1.00  0.00     0.387 C 
HETATM   33  F1  UNL     1      12.631   1.149  56.747  1.00  0.00    -0.209 F 
HETATM   34  F2  UNL     1      13.531  -0.433  57.963  1.00  0.00    -0.209 F 
ENDBRANCH  28  32
ENDBRANCH   4  23
BRANCH   5  35
HETATM   35  C18 UNL     1      14.975  -3.626  57.035  1.00  0.00     0.198 C 
BRANCH  35  36
HETATM   36  O6  UNL     1      15.611  -2.764  57.919  1.00  0.00    -0.398 OA
ATOM     37  H6  UNL     1      15.401  -1.874  57.661  1.00  0.00     0.209 HD
ENDBRANCH  35  36
ENDBRANCH   5  35
TORSDOF 11
ENDMDL
MODEL 5
REMARK VINA RESULT: -8.086905513      1.218      1.540
REMARK  11 active torsions:
REMARK  status: ('A' for Active; 'I' for Inactive)
REMARK    1  A    between atoms: C2_2  and  O1_5 
REMARK    2  A    between atoms: O1_5  and  C5_6 
REMARK    3  A    between atoms: C5_6  and  C6_8 
REMARK    4  A    between atoms: C7_9  and  O3_10 
REMARK    5  A    between atoms: C7_9  and  C22_35 
REMARK    6  A    between atoms: O3_10  and  C8_11 
REMARK    7  A    between atoms: C9_14  and  C10_15 
REMARK    8  A    between atoms: C13_18  and  N2_19 
REMARK    9  A    between atoms: C15_23  and  C16_24 
REMARK   10  A    between atoms: C17_27  and  C18_28 
REMARK   11  A    between atoms: C18_28  and  O6_29 
ROOT
HETATM    1  C8  UNL     1      16.175  -3.244  53.459  1.00  0.00     0.154 C 
HETATM    2  N1  UNL     1      15.379  -2.469  52.563  1.00  0.00    -0.360 N 
ATOM      3  H1  UNL     1      14.714  -1.784  52.925  1.00  0.00     0.162 HD
HETATM    4  C9  UNL     1      15.524  -2.664  51.146  1.00  0.00     0.148 C 
HETATM    5  C17 UNL     1      16.704  -3.593  51.019  1.00  0.00     0.173 C 
HETATM    6  O7  UNL     1      16.383  -4.807  51.678  1.00  0.00    -0.363 OA
HETATM    7  C19 UNL     1      16.513  -4.622  53.066  1.00  0.00     0.119 C 
HETATM    8  C20 UNL     1      18.010  -4.857  53.334  1.00  0.00     0.055 C 
HETATM    9  C21 UNL     1      15.810  -5.746  53.744  1.00  0.00     0.055 C 
ENDROOT
BRANCH   1  10
HETATM   10  O3  UNL     1      15.855  -3.125  54.793  1.00  0.00    -0.293 OA
BRANCH  10  11
HETATM   11  C7  UNL     1      15.356  -2.206  55.612  1.00  0.00     0.125 C 
HETATM   12  C6  UNL     1      14.070  -2.045  55.822  1.00  0.00     0.120 C 
BRANCH  12  13
HETATM   13  C5  UNL     1      13.042  -2.841  55.202  1.00  0.00     0.286 C 
HETATM   14  O2  UNL     1      12.674  -2.702  54.016  1.00  0.00    -0.260 OA
BRANCH  13  15
HETATM   15  O1  UNL     1      12.415  -3.823  55.960  1.00  0.00    -0.308 OA
BRANCH  15  16
HETATM   16  C2  UNL     1      11.232  -3.651  56.672  1.00  0.00     0.060 C 
HETATM   17  C1  UNL     1      10.409  -2.492  56.207  1.00  0.00     0.046 C 
HETATM   18  C3  UNL     1      11.548  -3.442  58.157  1.00  0.00     0.046 C 
HETATM   19  C4  UNL     1      10.372  -4.918  56.610  1.00  0.00     0.046 C 
ENDBRANCH  15  16
ENDBRANCH  13  15
ENDBRANCH  12  13
BRANCH  11  20
HETATM   20  C22 UNL     1      16.273  -1.280  56.367  1.00  0.00     0.410 C 
HETATM   21  F3  UNL     1      17.139  -0.653  55.489  1.00  0.00    -0.207 F 
HETATM   22  F4  UNL     1      15.649  -0.347  57.118  1.00  0.00    -0.207 F 
ENDBRANCH  11  20
ENDBRANCH  10  11
ENDBRANCH   1  10
BRANCH   4  23
HETATM   23  C10 UNL     1      15.760  -1.352  50.481  1.00  0.00    -0.021 A 
HETATM   24  C11 UNL     1      17.036  -0.832  50.426  1.00  0.00     0.012 A 
HETATM   25  C12 UNL     1      17.277   0.400  49.867  1.00  0.00     0.037 A 
HETATM   26  C13 UNL     1      16.243   1.149  49.345  1.00  0.00     0.103 A 
HETATM   27  C14 UNL     1      14.985   0.604  49.413  1.00  0.00     0.049 A 
HETATM   28  C15 UNL     1      14.705  -0.651  49.976  1.00  0.00     0.016 A 
BRANCH  26  29
HETATM   29  N2  UNL     1      16.491   2.426  48.766  1.00  0.00    -0.116 N 
HETATM   30  O4  UNL     1      15.991   3.422  49.308  1.00  0.00    -0.532 OA
HETATM   31  O5  UNL     1      17.262   2.496  47.642  1.00  0.00    -0.532 OA
ENDBRANCH  26  29
BRANCH  28  32
HETATM   32  C16 UNL     1      13.289  -1.100  49.926  1.00  0.00     0.387 C 
HETATM   33  F1  UNL     1      12.651  -0.534  51.021  1.00  0.00    -0.209 F 
HETATM   34  F2  UNL     1      12.570  -0.730  48.842  1.00  0.00    -0.209 F 
ENDBRANCH  28  32
ENDBRANCH   4  23
BRANCH   5  35
HETATM   35  C18 UNL     1      17.017  -4.022  49.626  1.00  0.00     0.198 C 
BRANCH  35  36
HETATM   36  O6  UNL     1      18.399  -4.051  49.488  1.00  0.00    -0.398 OA
ATOM     37  H6  UNL     1      18.752  -4.575  50.197  1.00  0.00     0.209 HD
ENDBRANCH  35  36
ENDBRANCH   5  35
TORSDOF 11
ENDMDL
