MODEL 1
REMARK VINA RESULT: -5.471164645      0.000      0.000
REMARK  3 active torsions:
REMARK  status: ('A' for Active; 'I' for Inactive)
REMARK    1  A    between atoms: N1_1  and  N2_4 
REMARK       I    between atoms: N2_4  and  C1_6 
REMARK    2  A    between atoms: C1_6  and  C2_8 
REMARK    3  A    between atoms: C5_14  and  C6_15 
ROOT
HETATM    1  C2  UNL     1      24.497  70.990  56.598  1.00  0.00     0.178 A 
HETATM    2  N3  UNL     1      23.869  71.491  55.521  1.00  0.00    -0.326 N 
ATOM      3  H3  UNL     1      24.438  71.748  54.714  1.00  0.00     0.168 HD
HETATM    4  C3  UNL     1      22.541  71.676  55.438  1.00  0.00     0.120 A 
HETATM    5  N4  UNL     1      21.946  72.213  54.262  1.00  0.00    -0.083 NA
HETATM    6  C4  UNL     1      21.802  71.319  56.545  1.00  0.00     0.080 A 
HETATM    7  C5  UNL     1      22.384  70.799  57.684  1.00  0.00     0.102 A 
HETATM    8  N6  UNL     1      23.720  70.652  57.668  1.00  0.00    -0.334 N 
ATOM      9  H6  UNL     1      24.176  70.271  58.497  1.00  0.00     0.168 HD
ENDROOT
BRANCH   1  10
HETATM   10  C1  UNL     1      25.944  70.810  56.635  1.00  0.00     0.303 C 
HETATM   11  N2  UNL     1      26.860  71.732  56.101  1.00  0.00    -0.270 N 
ATOM     12  H2  UNL     1      26.495  72.576  55.660  1.00  0.00     0.189 HD
HETATM   13  O1  UNL     1      26.370  69.766  57.183  1.00  0.00    -0.263 OA
BRANCH  11  14
HETATM   14  N1  UNL     1      28.242  71.555  56.140  1.00  0.00    -0.342 N 
ATOM     15  H12 UNL     1      28.602  70.823  56.754  1.00  0.00     0.176 HD
ATOM     16  H11 UNL     1      28.898  72.114  55.593  1.00  0.00     0.176 HD
ENDBRANCH  11  14
ENDBRANCH   1  10
BRANCH   7  17
HETATM   17  C6  UNL     1      21.571  70.428  58.847  1.00  0.00     0.281 C 
HETATM   18  N5  UNL     1      22.002  70.837  60.134  1.00  0.00    -0.056 NA
HETATM   19  O2  UNL     1      20.513  69.766  58.749  1.00  0.00    -0.269 OA
ENDBRANCH   7  17
TORSDOF 3
ENDMDL
MODEL 2
REMARK VINA RESULT: -5.334288189      1.765      1.841
REMARK  3 active torsions:
REMARK  status: ('A' for Active; 'I' for Inactive)
REMARK    1  A    between atoms: N1_1  and  N2_4 
REMARK       I    between atoms: N2_4  and  C1_6 
REMARK    2  A    between atoms: C1_6  and  C2_8 
REMARK    3  A    between atoms: C5_14  and  C6_15 
ROOT
HETATM    1  C2  UNL     1      23.781  70.693  57.226  1.00  0.00     0.178 A 
HETATM    2  N3  UNL     1      23.405  71.230  56.053  1.00  0.00    -0.326 N 
ATOM      3  H3  UNL     1      24.074  71.211  55.283  1.00  0.00     0.168 HD
HETATM    4  C3  UNL     1      22.204  71.789  55.829  1.00  0.00     0.120 A 
HETATM    5  N4  UNL     1      21.876  72.339  54.558  1.00  0.00    -0.083 NA
HETATM    6  C4  UNL     1      21.324  71.797  56.888  1.00  0.00     0.080 A 
HETATM    7  C5  UNL     1      21.648  71.263  58.121  1.00  0.00     0.102 A 
HETATM    8  N6  UNL     1      22.874  70.727  58.244  1.00  0.00    -0.334 N 
ATOM      9  H6  UNL     1      23.139  70.325  59.144  1.00  0.00     0.168 HD
ENDROOT
BRANCH   1  10
HETATM   10  C1  UNL     1      25.100  70.098  57.416  1.00  0.00     0.303 C 
HETATM   11  N2  UNL     1      25.396  69.153  58.413  1.00  0.00    -0.270 N 
ATOM     12  H2  UNL     1      24.647  68.865  59.043  1.00  0.00     0.189 HD
HETATM   13  O1  UNL     1      26.005  70.467  56.631  1.00  0.00    -0.263 OA
BRANCH  11  14
HETATM   14  N1  UNL     1      26.658  68.588  58.588  1.00  0.00    -0.342 N 
ATOM     15  H12 UNL     1      26.914  67.818  57.970  1.00  0.00     0.176 HD
ATOM     16  H11 UNL     1      27.324  68.904  59.294  1.00  0.00     0.176 HD
ENDBRANCH  11  14
ENDBRANCH   1  10
BRANCH   7  17
HETATM   17  C6  UNL     1      20.689  71.287  59.230  1.00  0.00     0.281 C 
HETATM   18  N5  UNL     1      20.335  72.539  59.794  1.00  0.00    -0.056 NA
HETATM   19  O2  UNL     1      20.170  70.248  59.698  1.00  0.00    -0.269 OA
ENDBRANCH   7  17
TORSDOF 3
ENDMDL
MODEL 3
REMARK VINA RESULT: -5.245193615      1.489      4.830
REMARK  3 active torsions:
REMARK  status: ('A' for Active; 'I' for Inactive)
REMARK    1  A    between atoms: N1_1  and  N2_4 
REMARK       I    between atoms: N2_4  and  C1_6 
REMARK    2  A    between atoms: C1_6  and  C2_8 
REMARK    3  A    between atoms: C5_14  and  C6_15 
ROOT
HETATM    1  C2  UNL     1      21.751  71.188  58.083  1.00  0.00     0.178 A 
HETATM    2  N3  UNL     1      21.407  71.648  56.868  1.00  0.00    -0.326 N 
ATOM      3  H3  UNL     1      20.463  72.015  56.746  1.00  0.00     0.168 HD
HETATM    4  C3  UNL     1      22.226  71.655  55.803  1.00  0.00     0.120 A 
HETATM    5  N4  UNL     1      21.791  72.158  54.546  1.00  0.00    -0.083 NA
HETATM    6  C4  UNL     1      23.493  71.153  56.002  1.00  0.00     0.080 A 
HETATM    7  C5  UNL     1      23.911  70.664  57.225  1.00  0.00     0.102 A 
HETATM    8  N6  UNL     1      23.017  70.701  58.228  1.00  0.00    -0.334 N 
ATOM      9  H6  UNL     1      23.299  70.346  59.142  1.00  0.00     0.168 HD
ENDROOT
BRANCH   1  10
HETATM   10  C1  UNL     1      20.819  71.203  59.207  1.00  0.00     0.303 C 
HETATM   11  N2  UNL     1      20.589  72.328  60.017  1.00  0.00    -0.270 N 
ATOM     12  H2  UNL     1      21.102  73.185  59.810  1.00  0.00     0.189 HD
HETATM   13  O1  UNL     1      20.201  70.139  59.442  1.00  0.00    -0.263 OA
BRANCH  11  14
HETATM   14  N1  UNL     1      19.697  72.336  61.088  1.00  0.00    -0.342 N 
ATOM     15  H12 UNL     1      19.135  71.496  61.233  1.00  0.00     0.176 HD
ATOM     16  H11 UNL     1      19.584  73.128  61.721  1.00  0.00     0.176 HD
ENDBRANCH  11  14
ENDBRANCH   1  10
BRANCH   7  17
HETATM   17  C6  UNL     1      25.267  70.136  57.405  1.00  0.00     0.281 C 
HETATM   18  N5  UNL     1      26.316  70.677  56.620  1.00  0.00    -0.056 NA
HETATM   19  O2  UNL     1      25.536  69.228  58.225  1.00  0.00    -0.269 OA
ENDBRANCH   7  17
TORSDOF 3
ENDMDL
MODEL 4
REMARK VINA RESULT: -5.050995911      3.128      5.736
REMARK  3 active torsions:
REMARK  status: ('A' for Active; 'I' for Inactive)
REMARK    1  A    between atoms: N1_1  and  N2_4 
REMARK       I    between atoms: N2_4  and  C1_6 
REMARK    2  A    between atoms: C1_6  and  C2_8 
REMARK    3  A    between atoms: C5_14  and  C6_15 
ROOT
HETATM    1  C2  UNL     1      20.712  71.216  59.199  1.00  0.00     0.178 A 
HETATM    2  N3  UNL     1      20.614  69.877  59.250  1.00  0.00    -0.326 N 
ATOM      3  H3  UNL     1      20.169  69.461  60.069  1.00  0.00     0.168 HD
HETATM    4  C3  UNL     1      21.064  69.049  58.292  1.00  0.00     0.120 A 
HETATM    5  N4  UNL     1      20.924  67.638  58.416  1.00  0.00    -0.083 NA
HETATM    6  C4  UNL     1      21.658  69.642  57.200  1.00  0.00     0.080 A 
HETATM    7  C5  UNL     1      21.792  71.012  57.085  1.00  0.00     0.102 A 
HETATM    8  N6  UNL     1      21.310  71.753  58.097  1.00  0.00    -0.334 N 
ATOM      9  H6  UNL     1      21.396  72.768  58.038  1.00  0.00     0.168 HD
ENDROOT
BRANCH   1  10
HETATM   10  C1  UNL     1      20.207  72.069  60.270  1.00  0.00     0.303 C 
HETATM   11  N2  UNL     1      20.163  73.471  60.198  1.00  0.00    -0.270 N 
ATOM     12  H2  UNL     1      20.504  73.922  59.349  1.00  0.00     0.189 HD
HETATM   13  O1  UNL     1      19.793  71.493  61.304  1.00  0.00    -0.263 OA
BRANCH  11  14
HETATM   14  N1  UNL     1      19.678  74.281  61.224  1.00  0.00    -0.342 N 
ATOM     15  H12 UNL     1      18.673  74.264  61.395  1.00  0.00     0.176 HD
ATOM     16  H11 UNL     1      20.273  74.877  61.801  1.00  0.00     0.176 HD
ENDBRANCH  11  14
ENDBRANCH   1  10
BRANCH   7  17
HETATM   17  C6  UNL     1      22.430  71.613  55.910  1.00  0.00     0.281 C 
HETATM   18  N5  UNL     1      21.605  72.177  54.904  1.00  0.00    -0.056 NA
HETATM   19  O2  UNL     1      23.672  71.650  55.758  1.00  0.00    -0.269 OA
ENDBRANCH   7  17
TORSDOF 3
ENDMDL
MODEL 5
REMARK VINA RESULT: -5.048751517      2.987      5.335
REMARK  3 active torsions:
REMARK  status: ('A' for Active; 'I' for Inactive)
REMARK    1  A    between atoms: N1_1  and  N2_4 
REMARK       I    between atoms: N2_4  and  C1_6 
REMARK    2  A    between atoms: C1_6  and  C2_8 
REMARK    3  A    between atoms: C5_14  and  C6_15 
ROOT
HETATM    1  C2  UNL     1      21.007  69.450  58.339  1.00  0.00     0.178 A 
HETATM    2  N3  UNL     1      20.573  70.442  59.134  1.00  0.00    -0.326 N 
ATOM      3  H3  UNL     1      20.094  70.187  59.998  1.00  0.00     0.168 HD
HETATM    4  C3  UNL     1      20.730  71.750  58.865  1.00  0.00     0.120 A 
HETATM    5  N4  UNL     1      20.243  72.746  59.757  1.00  0.00    -0.083 NA
HETATM    6  C4  UNL     1      21.381  72.060  57.692  1.00  0.00     0.080 A 
HETATM    7  C5  UNL     1      21.852  71.089  56.830  1.00  0.00     0.102 A 
HETATM    8  N6  UNL     1      21.646  69.810  57.188  1.00  0.00    -0.334 N 
ATOM      9  H6  UNL     1      21.983  69.073  56.569  1.00  0.00     0.168 HD
ENDROOT
BRANCH   1  10
HETATM   10  C1  UNL     1      20.810  68.044  58.679  1.00  0.00     0.303 C 
HETATM   11  N2  UNL     1      21.801  67.059  58.539  1.00  0.00    -0.270 N 
ATOM     12  H2  UNL     1      22.713  67.339  58.178  1.00  0.00     0.189 HD
HETATM   13  O1  UNL     1      19.682  67.724  59.121  1.00  0.00    -0.263 OA
BRANCH  11  14
HETATM   14  N1  UNL     1      21.606  65.718  58.867  1.00  0.00    -0.342 N 
ATOM     15  H12 UNL     1      22.063  65.023  58.276  1.00  0.00     0.176 HD
ATOM     16  H11 UNL     1      21.038  65.407  59.655  1.00  0.00     0.176 HD
ENDBRANCH  11  14
ENDBRANCH   1  10
BRANCH   7  17
HETATM   17  C6  UNL     1      22.542  71.451  55.587  1.00  0.00     0.281 C 
HETATM   18  N5  UNL     1      21.790  72.046  54.542  1.00  0.00    -0.056 NA
HETATM   19  O2  UNL     1      23.767  71.258  55.412  1.00  0.00    -0.269 OA
ENDBRANCH   7  17
TORSDOF 3
ENDMDL
