MODEL 1
REMARK VINA RESULT: -5.577933574      0.000      0.000
REMARK  2 active torsions:
REMARK  status: ('A' for Active; 'I' for Inactive)
REMARK       I    between atoms: C1_4  and  N3_6 
REMARK    1  A    between atoms: N3_6  and  N4_8 
REMARK    2  A    between atoms: C2_10  and  C3_11 
ROOT
HETATM    1  C3  UNL     1      26.776  71.177  56.503  1.00  0.00     0.133 A 
HETATM    2  N5  UNL     1      27.330  72.323  56.060  1.00  0.00    -0.290 N 
ATOM      3  H5  UNL     1      26.721  73.017  55.626  1.00  0.00     0.187 HD
HETATM    4  N6  UNL     1      28.620  72.596  56.158  1.00  0.00    -0.251 N 
ATOM      5  H6  UNL     1      29.002  73.476  55.810  1.00  0.00     0.191 HD
HETATM    6  C4  UNL     1      29.407  71.670  56.733  1.00  0.00     0.341 A 
HETATM    7  O1  UNL     1      30.635  71.882  56.849  1.00  0.00    -0.245 OA
HETATM    8  N7  UNL     1      28.939  70.499  57.203  1.00  0.00    -0.272 N 
ATOM      9  H7  UNL     1      29.561  69.816  57.634  1.00  0.00     0.173 HD
HETATM   10  C5  UNL     1      27.617  70.264  57.081  1.00  0.00     0.279 A 
HETATM   11  O2  UNL     1      27.167  69.159  57.521  1.00  0.00    -0.265 OA
ENDROOT
BRANCH   1  12
HETATM   12  C2  UNL     1      25.346  70.912  56.376  1.00  0.00     0.143 C 
HETATM   13  N4  UNL     1      24.765  71.285  55.293  1.00  0.00    -0.307 N 
ATOM     14  H4  UNL     1      25.324  71.747  54.574  1.00  0.00     0.186 HD
BRANCH  13  15
HETATM   15  N3  UNL     1      23.405  71.087  55.056  1.00  0.00    -0.274 N 
HETATM   16  C1  UNL     1      22.525  72.193  55.188  1.00  0.00     0.200 C 
HETATM   17  N1  UNL     1      22.298  72.901  54.137  1.00  0.00    -0.372 N 
HETATM   18  N2  UNL     1      21.928  72.492  56.435  1.00  0.00    -0.062 NA
ATOM     19  H12 UNL     1      21.665  73.696  54.231  1.00  0.00     0.158 HD
ATOM     20  H11 UNL     1      22.729  72.686  53.238  1.00  0.00     0.158 HD
ATOM     21  H3  UNL     1      23.050  70.166  54.795  1.00  0.00     0.189 HD
ENDBRANCH  13  15
ENDBRANCH   1  12
TORSDOF 2
ENDMDL
MODEL 2
REMARK VINA RESULT: -5.214982421      1.525      1.887
REMARK  2 active torsions:
REMARK  status: ('A' for Active; 'I' for Inactive)
REMARK       I    between atoms: C1_4  and  N3_6 
REMARK    1  A    between atoms: N3_6  and  N4_8 
REMARK    2  A    between atoms: C2_10  and  C3_11 
ROOT
HETATM    1  C3  UNL     1      26.137  70.683  56.821  1.00  0.00     0.133 A 
HETATM    2  N5  UNL     1      26.617  69.711  57.622  1.00  0.00    -0.290 N 
ATOM      3  H5  UNL     1      25.952  69.072  58.057  1.00  0.00     0.187 HD
HETATM    4  N6  UNL     1      27.904  69.542  57.873  1.00  0.00    -0.251 N 
ATOM      5  H6  UNL     1      28.229  68.794  58.486  1.00  0.00     0.191 HD
HETATM    6  C4  UNL     1      28.766  70.394  57.290  1.00  0.00     0.341 A 
HETATM    7  O1  UNL     1      29.995  70.274  57.497  1.00  0.00    -0.245 OA
HETATM    8  N7  UNL     1      28.375  71.392  56.478  1.00  0.00    -0.272 N 
ATOM      9  H7  UNL     1      29.052  72.023  56.050  1.00  0.00     0.173 HD
HETATM   10  C5  UNL     1      27.052  71.527  56.251  1.00  0.00     0.279 A 
HETATM   11  O2  UNL     1      26.674  72.469  55.484  1.00  0.00    -0.265 OA
ENDROOT
BRANCH   1  12
HETATM   12  C2  UNL     1      24.707  70.839  56.568  1.00  0.00     0.143 C 
HETATM   13  N4  UNL     1      24.327  70.931  55.344  1.00  0.00    -0.307 N 
ATOM     14  H4  UNL     1      25.033  70.892  54.609  1.00  0.00     0.186 HD
BRANCH  13  15
HETATM   15  N3  UNL     1      22.989  71.083  54.976  1.00  0.00    -0.274 N 
HETATM   16  C1  UNL     1      22.379  72.354  55.142  1.00  0.00     0.200 C 
HETATM   17  N1  UNL     1      22.433  73.174  54.152  1.00  0.00    -0.372 N 
HETATM   18  N2  UNL     1      21.741  72.691  56.360  1.00  0.00    -0.062 NA
ATOM     19  H12 UNL     1      21.995  74.087  54.271  1.00  0.00     0.158 HD
ATOM     20  H11 UNL     1      22.894  72.931  53.274  1.00  0.00     0.158 HD
ATOM     21  H3  UNL     1      22.461  70.296  54.597  1.00  0.00     0.189 HD
ENDBRANCH  13  15
ENDBRANCH   1  12
TORSDOF 2
ENDMDL
MODEL 3
REMARK VINA RESULT: -5.135388168      5.101      7.382
REMARK  2 active torsions:
REMARK  status: ('A' for Active; 'I' for Inactive)
REMARK       I    between atoms: C1_4  and  N3_6 
REMARK    1  A    between atoms: N3_6  and  N4_8 
REMARK    2  A    between atoms: C2_10  and  C3_11 
ROOT
HETATM    1  C3  UNL     1      20.551  71.314  59.507  1.00  0.00     0.133 A 
HETATM    2  N5  UNL     1      20.455  72.658  59.534  1.00  0.00    -0.290 N 
ATOM      3  H5  UNL     1      20.696  73.176  58.689  1.00  0.00     0.187 HD
HETATM    4  N6  UNL     1      20.067  73.340  60.597  1.00  0.00    -0.251 N 
ATOM      5  H6  UNL     1      20.007  74.358  60.580  1.00  0.00     0.191 HD
HETATM    6  C4  UNL     1      19.753  72.640  61.702  1.00  0.00     0.341 A 
HETATM    7  O1  UNL     1      19.379  73.241  62.735  1.00  0.00    -0.245 OA
HETATM    8  N7  UNL     1      19.821  71.298  61.764  1.00  0.00    -0.272 N 
ATOM      9  H7  UNL     1      19.577  70.794  62.616  1.00  0.00     0.173 HD
HETATM   10  C5  UNL     1      20.223  70.644  60.656  1.00  0.00     0.279 A 
HETATM   11  O2  UNL     1      20.290  69.375  60.705  1.00  0.00    -0.265 OA
ENDROOT
BRANCH   1  12
HETATM   12  C2  UNL     1      20.986  70.595  58.312  1.00  0.00     0.143 C 
HETATM   13  N4  UNL     1      21.833  71.179  57.542  1.00  0.00    -0.307 N 
ATOM     14  H4  UNL     1      22.162  72.110  57.796  1.00  0.00     0.186 HD
BRANCH  13  15
HETATM   15  N3  UNL     1      22.322  70.593  56.374  1.00  0.00    -0.274 N 
HETATM   16  C1  UNL     1      22.760  71.441  55.322  1.00  0.00     0.200 C 
HETATM   17  N1  UNL     1      24.001  71.784  55.313  1.00  0.00    -0.372 N 
HETATM   18  N2  UNL     1      21.854  71.883  54.330  1.00  0.00    -0.062 NA
ATOM     19  H12 UNL     1      24.317  72.393  54.558  1.00  0.00     0.158 HD
ATOM     20  H11 UNL     1      24.654  71.465  56.029  1.00  0.00     0.158 HD
ATOM     21  H3  UNL     1      22.362  69.579  56.277  1.00  0.00     0.189 HD
ENDBRANCH  13  15
ENDBRANCH   1  12
TORSDOF 2
ENDMDL
MODEL 4
REMARK VINA RESULT: -5.066594547      4.604      6.376
REMARK  2 active torsions:
REMARK  status: ('A' for Active; 'I' for Inactive)
REMARK       I    between atoms: C1_4  and  N3_6 
REMARK    1  A    between atoms: N3_6  and  N4_8 
REMARK    2  A    between atoms: C2_10  and  C3_11 
ROOT
HETATM    1  C3  UNL     1      21.870  70.488  57.141  1.00  0.00     0.133 A 
HETATM    2  N5  UNL     1      21.262  71.686  57.244  1.00  0.00    -0.290 N 
ATOM      3  H5  UNL     1      20.592  71.823  58.001  1.00  0.00     0.187 HD
HETATM    4  N6  UNL     1      21.487  72.692  56.417  1.00  0.00    -0.251 N 
ATOM      5  H6  UNL     1      21.006  73.585  56.527  1.00  0.00     0.191 HD
HETATM    6  C4  UNL     1      22.373  72.492  55.425  1.00  0.00     0.341 A 
HETATM    7  O1  UNL     1      22.620  73.416  54.617  1.00  0.00    -0.245 OA
HETATM    8  N7  UNL     1      23.025  71.329  55.248  1.00  0.00    -0.272 N 
ATOM      9  H7  UNL     1      23.692  71.208  54.486  1.00  0.00     0.173 HD
HETATM   10  C5  UNL     1      22.763  70.331  56.115  1.00  0.00     0.279 A 
HETATM   11  O2  UNL     1      23.375  69.228  55.954  1.00  0.00    -0.265 OA
ENDROOT
BRANCH   1  12
HETATM   12  C2  UNL     1      21.594  69.399  58.074  1.00  0.00     0.143 C 
HETATM   13  N4  UNL     1      21.105  68.312  57.594  1.00  0.00    -0.307 N 
ATOM     14  H4  UNL     1      20.931  68.258  56.589  1.00  0.00     0.186 HD
BRANCH  13  15
HETATM   15  N3  UNL     1      20.800  67.205  58.385  1.00  0.00    -0.274 N 
HETATM   16  C1  UNL     1      19.581  66.516  58.149  1.00  0.00     0.200 C 
HETATM   17  N1  UNL     1      19.603  65.538  57.313  1.00  0.00    -0.372 N 
HETATM   18  N2  UNL     1      18.395  66.905  58.815  1.00  0.00    -0.062 NA
ATOM     19  H12 UNL     1      18.727  65.043  57.143  1.00  0.00     0.158 HD
ATOM     20  H11 UNL     1      20.458  65.257  56.831  1.00  0.00     0.158 HD
ATOM     21  H3  UNL     1      21.440  66.896  59.118  1.00  0.00     0.189 HD
ENDBRANCH  13  15
ENDBRANCH   1  12
TORSDOF 2
ENDMDL
MODEL 5
REMARK VINA RESULT: -5.013225339      4.809      6.473
REMARK  2 active torsions:
REMARK  status: ('A' for Active; 'I' for Inactive)
REMARK       I    between atoms: C1_4  and  N3_6 
REMARK    1  A    between atoms: N3_6  and  N4_8 
REMARK    2  A    between atoms: C2_10  and  C3_11 
ROOT
HETATM    1  C3  UNL     1      22.248  70.259  56.890  1.00  0.00     0.133 A 
HETATM    2  N5  UNL     1      23.037  70.267  55.797  1.00  0.00    -0.290 N 
ATOM      3  H5  UNL     1      23.544  69.414  55.562  1.00  0.00     0.187 HD
HETATM    4  N6  UNL     1      23.187  71.321  55.013  1.00  0.00    -0.251 N 
ATOM      5  H6  UNL     1      23.794  71.289  54.194  1.00  0.00     0.191 HD
HETATM    6  C4  UNL     1      22.510  72.436  55.339  1.00  0.00     0.341 A 
HETATM    7  O1  UNL     1      22.619  73.461  54.627  1.00  0.00    -0.245 OA
HETATM    8  N7  UNL     1      21.702  72.517  56.411  1.00  0.00    -0.272 N 
ATOM      9  H7  UNL     1      21.200  73.377  56.632  1.00  0.00     0.173 HD
HETATM   10  C5  UNL     1      21.579  71.418  57.182  1.00  0.00     0.279 A 
HETATM   11  O2  UNL     1      20.817  71.486  58.198  1.00  0.00    -0.265 OA
ENDROOT
BRANCH   1  12
HETATM   12  C2  UNL     1      22.108  69.074  57.732  1.00  0.00     0.143 C 
HETATM   13  N4  UNL     1      20.986  68.448  57.695  1.00  0.00    -0.307 N 
ATOM     14  H4  UNL     1      20.249  68.802  57.085  1.00  0.00     0.186 HD
BRANCH  13  15
HETATM   15  N3  UNL     1      20.733  67.305  58.453  1.00  0.00    -0.274 N 
HETATM   16  C1  UNL     1      19.545  66.570  58.198  1.00  0.00     0.200 C 
HETATM   17  N1  UNL     1      19.607  65.619  57.334  1.00  0.00    -0.372 N 
HETATM   18  N2  UNL     1      18.345  66.887  58.878  1.00  0.00    -0.062 NA
ATOM     19  H12 UNL     1      18.754  65.091  57.150  1.00  0.00     0.158 HD
ATOM     20  H11 UNL     1      20.473  65.391  56.843  1.00  0.00     0.158 HD
ATOM     21  H3  UNL     1      21.387  67.003  59.176  1.00  0.00     0.189 HD
ENDBRANCH  13  15
ENDBRANCH   1  12
TORSDOF 2
ENDMDL
