MODEL 1
REMARK VINA RESULT: -5.496217956      0.000      0.000
REMARK  4 active torsions:
REMARK  status: ('A' for Active; 'I' for Inactive)
REMARK    1  A    between atoms: C2_2  and  N1_3 
REMARK    2  A    between atoms: C4_8  and  C5_9 
REMARK       I    between atoms: C5_9  and  N3_11 
REMARK    3  A    between atoms: N3_11  and  N4_12 
REMARK    4  A    between atoms: C6_17  and  N6_18 
ROOT
HETATM    1  N1  UNL     1      20.722  70.162  59.128  1.00  0.00    -0.108 N 
HETATM    2  C3  UNL     1      21.213  69.332  58.158  1.00  0.00     0.346 A 
HETATM    3  O1  UNL     1      21.161  68.095  58.273  1.00  0.00    -0.246 OA
HETATM    4  N2  UNL     1      21.782  69.827  57.027  1.00  0.00    -0.288 N 
ATOM      5  H2  UNL     1      22.143  69.192  56.315  1.00  0.00     0.172 HD
HETATM    6  C4  UNL     1      21.863  71.143  56.856  1.00  0.00     0.210 A 
HETATM    7  N5  UNL     1      21.388  71.937  57.791  1.00  0.00    -0.169 N 
ATOM      8  H5  UNL     1      21.455  72.946  57.652  1.00  0.00     0.186 HD
HETATM    9  C6  UNL     1      20.810  71.476  58.939  1.00  0.00     0.688 A 
ENDROOT
BRANCH   6  10
HETATM   10  C5  UNL     1      22.480  71.659  55.605  1.00  0.00     0.379 C 
HETATM   11  O2  UNL     1      21.635  72.114  54.773  1.00  0.00    -0.246 OA
HETATM   12  N3  UNL     1      23.836  71.625  55.416  1.00  0.00    -0.285 NA
BRANCH  12  13
HETATM   13  N4  UNL     1      25.125  71.591  55.235  1.00  0.00    -0.276 N 
ATOM     14  H42 UNL     1      24.111  71.574  55.345  1.00  0.00     0.191 HD
ATOM     15  H41 UNL     1      26.134  71.565  55.093  1.00  0.00     0.191 HD
ENDBRANCH  12  13
ENDBRANCH   6  10
BRANCH   9  16
HETATM   16  N6  UNL     1      20.331  72.310  59.764  1.00  0.00    -0.234 N 
ATOM     17  H62 UNL     1      20.876  72.559  60.590  1.00  0.00     0.174 HD
ATOM     18  H61 UNL     1      19.434  72.771  59.611  1.00  0.00     0.174 HD
ENDBRANCH   9  16
BRANCH   1  19
HETATM   19  C2  UNL     1      20.150  69.503  60.241  1.00  0.00     0.110 C 
HETATM   20  C1  UNL     1      20.730  69.302  61.388  1.00  0.00     0.031 C 
ENDBRANCH   1  19
TORSDOF 4
ENDMDL
MODEL 2
REMARK VINA RESULT: -5.426953360      1.368      2.116
REMARK  4 active torsions:
REMARK  status: ('A' for Active; 'I' for Inactive)
REMARK    1  A    between atoms: C2_2  and  N1_3 
REMARK    2  A    between atoms: C4_8  and  C5_9 
REMARK       I    between atoms: C5_9  and  N3_11 
REMARK    3  A    between atoms: N3_11  and  N4_12 
REMARK    4  A    between atoms: C6_17  and  N6_18 
ROOT
HETATM    1  N1  UNL     1      20.708  70.180  59.144  1.00  0.00    -0.108 N 
HETATM    2  C3  UNL     1      20.824  71.519  58.895  1.00  0.00     0.346 A 
HETATM    3  O1  UNL     1      20.420  72.370  59.708  1.00  0.00    -0.246 OA
HETATM    4  N2  UNL     1      21.386  71.979  57.747  1.00  0.00    -0.288 N 
ATOM      5  H2  UNL     1      21.465  72.982  57.578  1.00  0.00     0.172 HD
HETATM    6  C4  UNL     1      21.834  71.110  56.844  1.00  0.00     0.210 A 
HETATM    7  N5  UNL     1      21.721  69.823  57.088  1.00  0.00    -0.169 N 
ATOM      8  H5  UNL     1      22.067  69.164  56.390  1.00  0.00     0.186 HD
HETATM    9  C6  UNL     1      21.163  69.326  58.231  1.00  0.00     0.688 A 
ENDROOT
BRANCH   6  10
HETATM   10  C5  UNL     1      22.455  71.638  55.599  1.00  0.00     0.379 C 
HETATM   11  O2  UNL     1      21.612  72.093  54.766  1.00  0.00    -0.246 OA
HETATM   12  N3  UNL     1      23.812  71.612  55.417  1.00  0.00    -0.285 NA
BRANCH  12  13
HETATM   13  N4  UNL     1      25.102  71.587  55.243  1.00  0.00    -0.276 N 
ATOM     14  H42 UNL     1      24.086  71.625  55.330  1.00  0.00     0.191 HD
ATOM     15  H41 UNL     1      26.113  71.567  55.108  1.00  0.00     0.191 HD
ENDBRANCH  12  13
ENDBRANCH   6  10
BRANCH   9  16
HETATM   16  N6  UNL     1      21.140  68.072  58.410  1.00  0.00    -0.234 N 
ATOM     17  H62 UNL     1      20.403  67.522  57.969  1.00  0.00     0.174 HD
ATOM     18  H61 UNL     1      21.858  67.587  58.948  1.00  0.00     0.174 HD
ENDBRANCH   9  16
BRANCH   1  19
HETATM   19  C2  UNL     1      20.112  69.855  60.385  1.00  0.00     0.110 C 
HETATM   20  C1  UNL     1      20.748  69.556  61.480  1.00  0.00     0.031 C 
ENDBRANCH   1  19
TORSDOF 4
ENDMDL
MODEL 3
REMARK VINA RESULT: -5.062845036      2.792      3.991
REMARK  4 active torsions:
REMARK  status: ('A' for Active; 'I' for Inactive)
REMARK    1  A    between atoms: C2_2  and  N1_3 
REMARK    2  A    between atoms: C4_8  and  C5_9 
REMARK       I    between atoms: C5_9  and  N3_11 
REMARK    3  A    between atoms: N3_11  and  N4_12 
REMARK    4  A    between atoms: C6_17  and  N6_18 
ROOT
HETATM    1  N1  UNL     1      22.893  70.281  57.048  1.00  0.00    -0.108 N 
HETATM    2  C3  UNL     1      23.120  70.970  55.889  1.00  0.00     0.346 A 
HETATM    3  O1  UNL     1      22.197  71.237  55.099  1.00  0.00    -0.246 OA
HETATM    4  N2  UNL     1      24.366  71.392  55.550  1.00  0.00    -0.288 N 
ATOM      5  H2  UNL     1      24.516  71.904  54.680  1.00  0.00     0.172 HD
HETATM    6  C4  UNL     1      25.389  71.132  56.360  1.00  0.00     0.210 A 
HETATM    7  N5  UNL     1      25.166  70.470  57.474  1.00  0.00    -0.169 N 
ATOM      8  H5  UNL     1      25.956  70.274  58.090  1.00  0.00     0.186 HD
HETATM    9  C6  UNL     1      23.927  70.032  57.847  1.00  0.00     0.688 A 
ENDROOT
BRANCH   6  10
HETATM   10  C5  UNL     1      26.742  71.613  55.972  1.00  0.00     0.379 C 
HETATM   11  O2  UNL     1      27.685  70.889  56.418  1.00  0.00    -0.246 OA
HETATM   12  N3  UNL     1      26.903  72.736  55.205  1.00  0.00    -0.285 NA
BRANCH  12  13
HETATM   13  N4  UNL     1      27.056  73.805  54.478  1.00  0.00    -0.276 N 
ATOM     14  H42 UNL     1      26.928  72.999  55.090  1.00  0.00     0.191 HD
ATOM     15  H41 UNL     1      27.177  74.642  53.907  1.00  0.00     0.191 HD
ENDBRANCH  12  13
ENDBRANCH   6  10
BRANCH   9  16
HETATM   16  N6  UNL     1      23.792  69.447  58.963  1.00  0.00    -0.234 N 
ATOM     17  H62 UNL     1      24.387  68.647  59.179  1.00  0.00     0.174 HD
ATOM     18  H61 UNL     1      23.133  69.773  59.670  1.00  0.00     0.174 HD
ENDBRANCH   9  16
BRANCH   1  19
HETATM   19  C2  UNL     1      21.544  69.919  57.270  1.00  0.00     0.110 C 
HETATM   20  C1  UNL     1      21.076  68.705  57.298  1.00  0.00     0.031 C 
ENDBRANCH   1  19
TORSDOF 4
ENDMDL
MODEL 4
REMARK VINA RESULT: -5.061984282      3.107      4.259
REMARK  4 active torsions:
REMARK  status: ('A' for Active; 'I' for Inactive)
REMARK    1  A    between atoms: C2_2  and  N1_3 
REMARK    2  A    between atoms: C4_8  and  C5_9 
REMARK       I    between atoms: C5_9  and  N3_11 
REMARK    3  A    between atoms: N3_11  and  N4_12 
REMARK    4  A    between atoms: C6_17  and  N6_18 
ROOT
HETATM    1  N1  UNL     1      23.031  70.881  56.902  1.00  0.00    -0.108 N 
HETATM    2  C3  UNL     1      23.848  70.341  57.857  1.00  0.00     0.346 A 
HETATM    3  O1  UNL     1      23.387  69.809  58.882  1.00  0.00    -0.246 OA
HETATM    4  N2  UNL     1      25.200  70.365  57.725  1.00  0.00    -0.288 N 
ATOM      5  H2  UNL     1      25.793  69.957  58.448  1.00  0.00     0.172 HD
HETATM    6  C4  UNL     1      25.744  70.923  56.647  1.00  0.00     0.210 A 
HETATM    7  N5  UNL     1      24.954  71.440  55.731  1.00  0.00    -0.169 N 
ATOM      8  H5  UNL     1      25.380  71.866  54.907  1.00  0.00     0.186 HD
HETATM    9  C6  UNL     1      23.592  71.433  55.829  1.00  0.00     0.688 A 
ENDROOT
BRANCH   6  10
HETATM   10  C5  UNL     1      27.226  70.927  56.522  1.00  0.00     0.379 C 
HETATM   11  O2  UNL     1      27.756  69.792  56.735  1.00  0.00    -0.246 OA
HETATM   12  N3  UNL     1      27.908  72.070  56.205  1.00  0.00    -0.285 NA
BRANCH  12  13
HETATM   13  N4  UNL     1      28.558  73.159  55.905  1.00  0.00    -0.276 N 
ATOM     14  H42 UNL     1      28.092  72.289  56.167  1.00  0.00     0.191 HD
ATOM     15  H41 UNL     1      29.065  74.011  55.669  1.00  0.00     0.191 HD
ENDBRANCH  12  13
ENDBRANCH   6  10
BRANCH   9  16
HETATM   16  N6  UNL     1      22.904  71.906  54.876  1.00  0.00    -0.234 N 
ATOM     17  H62 UNL     1      22.131  72.537  55.089  1.00  0.00     0.174 HD
ATOM     18  H61 UNL     1      23.122  71.709  53.899  1.00  0.00     0.174 HD
ENDBRANCH   9  16
BRANCH   1  19
HETATM   19  C2  UNL     1      21.647  70.771  57.172  1.00  0.00     0.110 C 
HETATM   20  C1  UNL     1      20.934  71.620  57.853  1.00  0.00     0.031 C 
ENDBRANCH   1  19
TORSDOF 4
ENDMDL
MODEL 5
REMARK VINA RESULT: -5.052878022      1.208      1.322
REMARK  4 active torsions:
REMARK  status: ('A' for Active; 'I' for Inactive)
REMARK    1  A    between atoms: C2_2  and  N1_3 
REMARK    2  A    between atoms: C4_8  and  C5_9 
REMARK       I    between atoms: C5_9  and  N3_11 
REMARK    3  A    between atoms: N3_11  and  N4_12 
REMARK    4  A    between atoms: C6_17  and  N6_18 
ROOT
HETATM    1  N1  UNL     1      20.811  69.934  59.106  1.00  0.00    -0.108 N 
HETATM    2  C3  UNL     1      21.305  68.947  58.299  1.00  0.00     0.346 A 
HETATM    3  O1  UNL     1      21.155  67.744  58.575  1.00  0.00    -0.246 OA
HETATM    4  N2  UNL     1      21.983  69.241  57.159  1.00  0.00    -0.288 N 
ATOM      5  H2  UNL     1      22.345  68.492  56.568  1.00  0.00     0.172 HD
HETATM    6  C4  UNL     1      22.172  70.513  56.818  1.00  0.00     0.210 A 
HETATM    7  N5  UNL     1      21.695  71.459  57.597  1.00  0.00    -0.169 N 
ATOM      8  H5  UNL     1      21.844  72.432  57.328  1.00  0.00     0.186 HD
HETATM    9  C6  UNL     1      21.007  71.201  58.749  1.00  0.00     0.688 A 
ENDROOT
BRANCH   6  10
HETATM   10  C5  UNL     1      22.909  70.809  55.560  1.00  0.00     0.379 C 
HETATM   11  O2  UNL     1      23.728  69.897  55.226  1.00  0.00    -0.246 OA
HETATM   12  N3  UNL     1      22.690  71.968  54.864  1.00  0.00    -0.285 NA
BRANCH  12  13
HETATM   13  N4  UNL     1      22.482  73.070  54.204  1.00  0.00    -0.276 N 
ATOM     14  H42 UNL     1      22.696  72.220  54.726  1.00  0.00     0.191 HD
ATOM     15  H41 UNL     1      22.319  73.933  53.686  1.00  0.00     0.191 HD
ENDBRANCH  12  13
ENDBRANCH   6  10
BRANCH   9  16
HETATM   16  N6  UNL     1      20.536  72.170  59.414  1.00  0.00    -0.234 N 
ATOM     17  H62 UNL     1      20.102  71.985  60.319  1.00  0.00     0.174 HD
ATOM     18  H61 UNL     1      20.610  73.136  59.094  1.00  0.00     0.174 HD
ENDBRANCH   9  16
BRANCH   1  19
HETATM   19  C2  UNL     1      20.118  69.474  60.250  1.00  0.00     0.110 C 
HETATM   20  C1  UNL     1      20.599  69.414  61.458  1.00  0.00     0.031 C 
ENDBRANCH   1  19
TORSDOF 4
ENDMDL
