MODEL 1
REMARK VINA RESULT: -5.235702580      0.000      0.000
REMARK  6 active torsions:
REMARK  status: ('A' for Active; 'I' for Inactive)
REMARK    1  A    between atoms: N2_4  and  N3_6 
REMARK       I    between atoms: N3_6  and  C1_8 
REMARK    2  A    between atoms: C1_8  and  C2_10 
REMARK    3  A    between atoms: C3_15  and  N6_16 
REMARK    4  A    between atoms: N6_16  and  O2_18 
REMARK    5  A    between atoms: N7_20  and  N8_21 
REMARK    6  A    between atoms: N8_21  and  O3_23 
ROOT
HETATM    1  C2  UNL     1      22.370  71.011  57.722  1.00  0.00     0.232 A 
HETATM    2  N4  UNL     1      21.422  71.956  57.862  1.00  0.00    -0.264 N 
ATOM      3  H4  UNL     1      20.891  72.107  58.719  1.00  0.00     0.189 HD
HETATM    4  N5  UNL     1      21.264  72.661  56.762  1.00  0.00    -0.127 N 
ATOM      5  H5  UNL     1      20.609  73.430  56.617  1.00  0.00     0.206 HD
HETATM    6  C3  UNL     1      22.134  72.168  55.867  1.00  0.00     0.741 A 
HETATM    7  N7  UNL     1      22.815  71.146  56.471  1.00  0.00    -0.040 N 
ENDROOT
BRANCH   1   8
HETATM    8  C1  UNL     1      22.738  70.095  58.798  1.00  0.00     0.309 C 
HETATM    9  N3  UNL     1      22.826  70.421  60.156  1.00  0.00    -0.249 N 
ATOM     10  H3  UNL     1      22.624  71.372  60.465  1.00  0.00     0.192 HD
HETATM   11  O1  UNL     1      23.010  68.874  58.499  1.00  0.00    -0.262 OA
BRANCH   9  12
HETATM   12  N2  UNL     1      23.189  69.454  61.085  1.00  0.00    -0.246 N 
HETATM   13  N1  UNL     1      22.329  68.578  61.411  1.00  0.00    -0.331 N 
ATOM     14  H12 UNL     1      21.400  68.597  60.991  1.00  0.00     0.178 HD
ATOM     15  H11 UNL     1      22.596  67.867  62.093  1.00  0.00     0.178 HD
ATOM     16  H2  UNL     1      24.123  69.448  61.495  1.00  0.00     0.207 HD
ENDBRANCH   9  12
ENDBRANCH   1   8
BRANCH   7  17
HETATM   17  N8  UNL     1      23.805  70.380  55.875  1.00  0.00    -0.187 N 
ATOM     18  H8  UNL     1      24.663  70.158  56.380  1.00  0.00     0.217 HD
BRANCH  17  19
HETATM   19  O3  UNL     1      23.632  69.971  54.728  1.00  0.00    -0.273 OA
ATOM     20  H3  UNL     1      24.242  70.236  54.049  1.00  0.00     0.246 HD
ENDBRANCH  17  19
ENDBRANCH   7  17
BRANCH   6  21
HETATM   21  N6  UNL     1      22.293  72.583  54.668  1.00  0.00    -0.095 N 
ATOM     22  H6  UNL     1      22.736  73.495  54.550  1.00  0.00     0.213 HD
BRANCH  21  23
HETATM   23  O2  UNL     1      21.932  71.933  53.547  1.00  0.00    -0.276 OA
ATOM     24  H2  UNL     1      21.327  72.248  52.886  1.00  0.00     0.245 HD
ENDBRANCH  21  23
ENDBRANCH   6  21
TORSDOF 6
ENDMDL
MODEL 2
REMARK VINA RESULT: -5.148210339      1.131      1.176
REMARK  6 active torsions:
REMARK  status: ('A' for Active; 'I' for Inactive)
REMARK    1  A    between atoms: N2_4  and  N3_6 
REMARK       I    between atoms: N3_6  and  C1_8 
REMARK    2  A    between atoms: C1_8  and  C2_10 
REMARK    3  A    between atoms: C3_15  and  N6_16 
REMARK    4  A    between atoms: N6_16  and  O2_18 
REMARK    5  A    between atoms: N7_20  and  N8_21 
REMARK    6  A    between atoms: N8_21  and  O3_23 
ROOT
HETATM    1  C2  UNL     1      22.325  71.001  57.722  1.00  0.00     0.232 A 
HETATM    2  N4  UNL     1      21.367  71.935  57.866  1.00  0.00    -0.264 N 
ATOM      3  H4  UNL     1      20.828  72.073  58.721  1.00  0.00     0.189 HD
HETATM    4  N5  UNL     1      21.208  72.650  56.771  1.00  0.00    -0.127 N 
ATOM      5  H5  UNL     1      20.547  73.414  56.630  1.00  0.00     0.206 HD
HETATM    6  C3  UNL     1      22.090  72.174  55.878  1.00  0.00     0.741 A 
HETATM    7  N7  UNL     1      22.777  71.154  56.476  1.00  0.00    -0.040 N 
ENDROOT
BRANCH   1   8
HETATM    8  C1  UNL     1      22.694  70.078  58.792  1.00  0.00     0.309 C 
HETATM    9  N3  UNL     1      22.424  68.705  58.818  1.00  0.00    -0.249 N 
ATOM     10  H3  UNL     1      21.927  68.270  58.041  1.00  0.00     0.192 HD
HETATM   11  O1  UNL     1      23.324  70.542  59.813  1.00  0.00    -0.262 OA
BRANCH   9  12
HETATM   12  N2  UNL     1      22.830  67.934  59.899  1.00  0.00    -0.246 N 
HETATM   13  N1  UNL     1      24.052  67.598  59.977  1.00  0.00    -0.331 N 
ATOM     14  H12 UNL     1      24.707  67.896  59.254  1.00  0.00     0.178 HD
ATOM     15  H11 UNL     1      24.350  67.031  60.771  1.00  0.00     0.178 HD
ATOM     16  H2  UNL     1      22.162  67.645  60.614  1.00  0.00     0.207 HD
ENDBRANCH   9  12
ENDBRANCH   1   8
BRANCH   7  17
HETATM   17  N8  UNL     1      23.779  70.403  55.879  1.00  0.00    -0.187 N 
ATOM     18  H8  UNL     1      24.637  70.189  56.386  1.00  0.00     0.217 HD
BRANCH  17  19
HETATM   19  O3  UNL     1      23.615  70.000  54.729  1.00  0.00    -0.273 OA
ATOM     20  H3  UNL     1      23.949  70.520  54.008  1.00  0.00     0.246 HD
ENDBRANCH  17  19
ENDBRANCH   7  17
BRANCH   6  21
HETATM   21  N6  UNL     1      22.253  72.604  54.684  1.00  0.00    -0.095 N 
ATOM     22  H6  UNL     1      22.660  73.533  54.579  1.00  0.00     0.213 HD
BRANCH  21  23
HETATM   23  O2  UNL     1      21.938  71.946  53.553  1.00  0.00    -0.276 OA
ATOM     24  H2  UNL     1      22.315  72.096  52.694  1.00  0.00     0.245 HD
ENDBRANCH  21  23
ENDBRANCH   6  21
TORSDOF 6
ENDMDL
MODEL 3
REMARK VINA RESULT: -5.073196595      1.190      1.283
REMARK  6 active torsions:
REMARK  status: ('A' for Active; 'I' for Inactive)
REMARK    1  A    between atoms: N2_4  and  N3_6 
REMARK       I    between atoms: N3_6  and  C1_8 
REMARK    2  A    between atoms: C1_8  and  C2_10 
REMARK    3  A    between atoms: C3_15  and  N6_16 
REMARK    4  A    between atoms: N6_16  and  O2_18 
REMARK    5  A    between atoms: N7_20  and  N8_21 
REMARK    6  A    between atoms: N8_21  and  O3_23 
ROOT
HETATM    1  C2  UNL     1      21.746  70.761  57.663  1.00  0.00     0.232 A 
HETATM    2  N4  UNL     1      21.103  71.930  57.838  1.00  0.00    -0.264 N 
ATOM      3  H4  UNL     1      20.579  72.172  58.678  1.00  0.00     0.189 HD
HETATM    4  N5  UNL     1      21.231  72.723  56.794  1.00  0.00    -0.127 N 
ATOM      5  H5  UNL     1      20.837  73.658  56.685  1.00  0.00     0.206 HD
HETATM    6  C3  UNL     1      21.983  72.058  55.903  1.00  0.00     0.741 A 
HETATM    7  N7  UNL     1      22.297  70.844  56.450  1.00  0.00    -0.040 N 
ENDROOT
BRANCH   1   8
HETATM    8  C1  UNL     1      21.759  69.707  58.674  1.00  0.00     0.309 C 
HETATM    9  N3  UNL     1      20.692  69.365  59.513  1.00  0.00    -0.249 N 
ATOM     10  H3  UNL     1      19.809  69.871  59.445  1.00  0.00     0.192 HD
HETATM   11  O1  UNL     1      22.834  69.018  58.829  1.00  0.00    -0.262 OA
BRANCH   9  12
HETATM   12  N2  UNL     1      20.832  68.339  60.438  1.00  0.00    -0.246 N 
HETATM   13  N1  UNL     1      20.751  67.140  60.028  1.00  0.00    -0.331 N 
ATOM     14  H12 UNL     1      20.587  66.952  59.038  1.00  0.00     0.178 HD
ATOM     15  H11 UNL     1      20.854  66.387  60.708  1.00  0.00     0.178 HD
ATOM     16  H2  UNL     1      20.997  68.544  61.424  1.00  0.00     0.207 HD
ENDBRANCH   9  12
ENDBRANCH   1   8
BRANCH   7  17
HETATM   17  N8  UNL     1      23.064  69.863  55.839  1.00  0.00    -0.187 N 
ATOM     18  H8  UNL     1      22.935  68.880  56.078  1.00  0.00     0.217 HD
BRANCH  17  19
HETATM   19  O3  UNL     1      23.902  70.198  55.003  1.00  0.00    -0.273 OA
ATOM     20  H3  UNL     1      23.606  70.534  54.165  1.00  0.00     0.246 HD
ENDBRANCH  17  19
ENDBRANCH   7  17
BRANCH   6  21
HETATM   21  N6  UNL     1      22.337  72.488  54.752  1.00  0.00    -0.095 N 
ATOM     22  H6  UNL     1      22.971  73.287  54.734  1.00  0.00     0.213 HD
BRANCH  21  23
HETATM   23  O2  UNL     1      21.954  71.988  53.563  1.00  0.00    -0.276 OA
ATOM     24  H2  UNL     1      22.048  72.413  52.719  1.00  0.00     0.245 HD
ENDBRANCH  21  23
ENDBRANCH   6  21
TORSDOF 6
ENDMDL
MODEL 4
REMARK VINA RESULT: -5.066164739      2.011      2.458
REMARK  6 active torsions:
REMARK  status: ('A' for Active; 'I' for Inactive)
REMARK    1  A    between atoms: N2_4  and  N3_6 
REMARK       I    between atoms: N3_6  and  C1_8 
REMARK    2  A    between atoms: C1_8  and  C2_10 
REMARK    3  A    between atoms: C3_15  and  N6_16 
REMARK    4  A    between atoms: N6_16  and  O2_18 
REMARK    5  A    between atoms: N7_20  and  N8_21 
REMARK    6  A    between atoms: N8_21  and  O3_23 
ROOT
HETATM    1  C2  UNL     1      21.424  71.618  57.665  1.00  0.00     0.232 A 
HETATM    2  N4  UNL     1      21.180  72.677  56.870  1.00  0.00    -0.264 N 
ATOM      3  H4  UNL     1      20.508  73.412  57.090  1.00  0.00     0.189 HD
HETATM    4  N5  UNL     1      21.911  72.650  55.775  1.00  0.00    -0.127 N 
ATOM      5  H5  UNL     1      21.908  73.336  55.020  1.00  0.00     0.206 HD
HETATM    6  C3  UNL     1      22.662  71.540  55.850  1.00  0.00     0.741 A 
HETATM    7  N7  UNL     1      22.353  70.908  57.023  1.00  0.00    -0.040 N 
ENDROOT
BRANCH   1   8
HETATM    8  C1  UNL     1      20.741  71.415  58.939  1.00  0.00     0.309 C 
HETATM    9  N3  UNL     1      20.432  72.413  59.871  1.00  0.00    -0.249 N 
ATOM     10  H3  UNL     1      20.688  73.382  59.682  1.00  0.00     0.192 HD
HETATM   11  O1  UNL     1      20.382  70.222  59.260  1.00  0.00    -0.262 OA
BRANCH   9  12
HETATM   12  N2  UNL     1      19.778  72.087  61.052  1.00  0.00    -0.246 N 
HETATM   13  N1  UNL     1      20.447  71.534  61.980  1.00  0.00    -0.331 N 
ATOM     14  H12 UNL     1      21.439  71.341  61.845  1.00  0.00     0.178 HD
ATOM     15  H11 UNL     1      19.966  71.294  62.848  1.00  0.00     0.178 HD
ATOM     16  H2  UNL     1      18.785  72.287  61.172  1.00  0.00     0.207 HD
ENDBRANCH   9  12
ENDBRANCH   1   8
BRANCH   7  17
HETATM   17  N8  UNL     1      22.918  69.722  57.469  1.00  0.00    -0.187 N 
ATOM     18  H8  UNL     1      23.544  69.717  58.274  1.00  0.00     0.217 HD
BRANCH  17  19
HETATM   19  O3  UNL     1      22.650  68.677  56.878  1.00  0.00    -0.273 OA
ATOM     20  H3  UNL     1      21.782  68.305  56.974  1.00  0.00     0.246 HD
ENDBRANCH  17  19
ENDBRANCH   7  17
BRANCH   6  21
HETATM   21  N6  UNL     1      23.512  71.150  54.977  1.00  0.00    -0.095 N 
ATOM     22  H6  UNL     1      24.086  71.870  54.538  1.00  0.00     0.213 HD
BRANCH  21  23
HETATM   23  O2  UNL     1      23.721  69.881  54.583  1.00  0.00    -0.276 OA
ATOM     24  H2  UNL     1      24.454  69.567  54.066  1.00  0.00     0.245 HD
ENDBRANCH  21  23
ENDBRANCH   6  21
TORSDOF 6
ENDMDL
MODEL 5
REMARK VINA RESULT: -4.908319173      2.045      2.127
REMARK  6 active torsions:
REMARK  status: ('A' for Active; 'I' for Inactive)
REMARK    1  A    between atoms: N2_4  and  N3_6 
REMARK       I    between atoms: N3_6  and  C1_8 
REMARK    2  A    between atoms: C1_8  and  C2_10 
REMARK    3  A    between atoms: C3_15  and  N6_16 
REMARK    4  A    between atoms: N6_16  and  O2_18 
REMARK    5  A    between atoms: N7_20  and  N8_21 
REMARK    6  A    between atoms: N8_21  and  O3_23 
ROOT
HETATM    1  C2  UNL     1      23.648  70.612  57.420  1.00  0.00     0.232 A 
HETATM    2  N4  UNL     1      22.495  70.930  58.037  1.00  0.00    -0.264 N 
ATOM      3  H4  UNL     1      22.263  70.653  58.990  1.00  0.00     0.189 HD
HETATM    4  N5  UNL     1      21.703  71.643  57.263  1.00  0.00    -0.127 N 
ATOM      5  H5  UNL     1      20.779  72.004  57.500  1.00  0.00     0.206 HD
HETATM    6  C3  UNL     1      22.354  71.801  56.099  1.00  0.00     0.741 A 
HETATM    7  N7  UNL     1      23.557  71.159  56.206  1.00  0.00    -0.040 N 
ENDROOT
BRANCH   1   8
HETATM    8  C1  UNL     1      24.697  69.825  58.063  1.00  0.00     0.309 C 
HETATM    9  N3  UNL     1      24.573  69.128  59.271  1.00  0.00    -0.249 N 
ATOM     10  H3  UNL     1      23.689  69.144  59.779  1.00  0.00     0.192 HD
HETATM   11  O1  UNL     1      25.847  69.751  57.492  1.00  0.00    -0.262 OA
BRANCH   9  12
HETATM   12  N2  UNL     1      25.651  68.415  59.779  1.00  0.00    -0.246 N 
HETATM   13  N1  UNL     1      25.921  67.283  59.270  1.00  0.00    -0.331 N 
ATOM     14  H12 UNL     1      25.350  66.921  58.506  1.00  0.00     0.178 HD
ATOM     15  H11 UNL     1      26.713  66.760  59.644  1.00  0.00     0.178 HD
ATOM     16  H2  UNL     1      26.212  68.792  60.543  1.00  0.00     0.207 HD
ENDBRANCH   9  12
ENDBRANCH   1   8
BRANCH   7  17
HETATM   17  N8  UNL     1      24.522  71.092  55.212  1.00  0.00    -0.187 N 
ATOM     18  H8  UNL     1      24.380  70.504  54.392  1.00  0.00     0.217 HD
BRANCH  17  19
HETATM   19  O3  UNL     1      25.551  71.754  55.337  1.00  0.00    -0.273 OA
ATOM     20  H3  UNL     1      26.048  71.981  54.560  1.00  0.00     0.246 HD
ENDBRANCH  17  19
ENDBRANCH   7  17
BRANCH   6  21
HETATM   21  N6  UNL     1      21.920  72.439  55.079  1.00  0.00    -0.095 N 
ATOM     22  H6  UNL     1      21.604  73.396  55.234  1.00  0.00     0.213 HD
BRANCH  21  23
HETATM   23  O2  UNL     1      21.842  71.968  53.821  1.00  0.00    -0.276 OA
ATOM     24  H2  UNL     1      22.569  71.845  53.222  1.00  0.00     0.245 HD
ENDBRANCH  21  23
ENDBRANCH   6  21
TORSDOF 6
ENDMDL
