MODEL 1
REMARK VINA RESULT: -5.262122634      0.000      0.000
REMARK  2 active torsions:
REMARK  status: ('A' for Active; 'I' for Inactive)
REMARK    1  A    between atoms: C1_4  and  C2_5 
REMARK       I    between atoms: C2_5  and  N2_7 
REMARK    2  A    between atoms: N2_7  and  C3_9 
ROOT
HETATM    1  C2  UNL     1      -3.286   3.750 -20.296  1.00  0.00     0.256 C 
HETATM    2  O1  UNL     1      -3.429   4.956 -19.998  1.00  0.00    -0.267 OA
HETATM    3  N2  UNL     1      -4.333   3.070 -20.945  1.00  0.00    -0.352 N 
ATOM      4  H2  UNL     1      -4.194   2.087 -21.178  1.00  0.00     0.163 HD
ENDROOT
BRANCH   1   5
HETATM    5  C1  UNL     1      -2.058   3.049 -19.982  1.00  0.00     0.155 C 
HETATM    6  N1  UNL     1      -1.965   1.763 -19.977  1.00  0.00    -0.404 N 
ATOM      7  H12 UNL     1      -2.804   1.230 -20.206  1.00  0.00     0.155 HD
ATOM      8  H11 UNL     1      -1.100   1.270 -19.755  1.00  0.00     0.155 HD
ENDBRANCH   1   5
BRANCH   3   9
HETATM    9  C3  UNL     1      -5.596   3.683 -21.301  1.00  0.00     0.084 A 
HETATM   10  C4  UNL     1      -5.851   4.233 -22.634  1.00  0.00     0.027 A 
HETATM   11  C5  UNL     1      -6.407   2.856 -22.280  1.00  0.00     0.027 A 
ENDBRANCH   3   9
TORSDOF 2
ENDMDL
MODEL 2
REMARK VINA RESULT: -5.184571529      1.575      1.575
REMARK  2 active torsions:
REMARK  status: ('A' for Active; 'I' for Inactive)
REMARK    1  A    between atoms: C1_4  and  C2_5 
REMARK       I    between atoms: C2_5  and  N2_7 
REMARK    2  A    between atoms: N2_7  and  C3_9 
ROOT
HETATM    1  C2  UNL     1      -2.779   4.265 -20.808  1.00  0.00     0.256 C 
HETATM    2  O1  UNL     1      -3.195   4.381 -19.634  1.00  0.00    -0.267 OA
HETATM    3  N2  UNL     1      -3.701   4.254 -21.870  1.00  0.00    -0.352 N 
ATOM      4  H2  UNL     1      -3.339   4.158 -22.819  1.00  0.00     0.163 HD
ENDROOT
BRANCH   1   5
HETATM    5  C1  UNL     1      -1.362   4.144 -21.084  1.00  0.00     0.155 C 
HETATM    6  N1  UNL     1      -0.887   4.005 -22.275  1.00  0.00    -0.404 N 
ATOM      7  H12 UNL     1      -1.554   3.982 -23.046  1.00  0.00     0.155 HD
ATOM      8  H11 UNL     1       0.110   3.919 -22.469  1.00  0.00     0.155 HD
ENDBRANCH   1   5
BRANCH   3   9
HETATM    9  C3  UNL     1      -5.134   4.370 -21.697  1.00  0.00     0.084 A 
HETATM   10  C4  UNL     1      -6.076   4.151 -22.796  1.00  0.00     0.027 A 
HETATM   11  C5  UNL     1      -5.856   3.038 -21.776  1.00  0.00     0.027 A 
ENDBRANCH   3   9
TORSDOF 2
ENDMDL
MODEL 3
REMARK VINA RESULT: -4.960168965      1.878      1.962
REMARK  2 active torsions:
REMARK  status: ('A' for Active; 'I' for Inactive)
REMARK    1  A    between atoms: C1_4  and  C2_5 
REMARK       I    between atoms: C2_5  and  N2_7 
REMARK    2  A    between atoms: N2_7  and  C3_9 
ROOT
HETATM    1  C2  UNL     1      -2.858   4.610 -20.581  1.00  0.00     0.256 C 
HETATM    2  O1  UNL     1      -2.783   5.850 -20.445  1.00  0.00    -0.267 OA
HETATM    3  N2  UNL     1      -4.060   3.951 -20.261  1.00  0.00    -0.352 N 
ATOM      4  H2  UNL     1      -4.098   2.939 -20.379  1.00  0.00     0.163 HD
ENDROOT
BRANCH   1   5
HETATM    5  C1  UNL     1      -1.725   3.846 -21.062  1.00  0.00     0.155 C 
HETATM    6  N1  UNL     1      -1.166   4.063 -22.204  1.00  0.00    -0.404 N 
ATOM      7  H12 UNL     1      -1.552   4.809 -22.782  1.00  0.00     0.155 HD
ATOM      8  H11 UNL     1      -0.368   3.525 -22.542  1.00  0.00     0.155 HD
ENDBRANCH   1   5
BRANCH   3   9
HETATM    9  C3  UNL     1      -5.245   4.626 -19.774  1.00  0.00     0.084 A 
HETATM   10  C4  UNL     1      -6.221   5.241 -20.676  1.00  0.00     0.027 A 
HETATM   11  C5  UNL     1      -6.527   3.873 -20.073  1.00  0.00     0.027 A 
ENDBRANCH   3   9
TORSDOF 2
ENDMDL
MODEL 4
REMARK VINA RESULT: -4.810619185      4.971      6.208
REMARK  2 active torsions:
REMARK  status: ('A' for Active; 'I' for Inactive)
REMARK    1  A    between atoms: C1_4  and  C2_5 
REMARK       I    between atoms: C2_5  and  N2_7 
REMARK    2  A    between atoms: N2_7  and  C3_9 
ROOT
HETATM    1  C2  UNL     1      -2.470  -2.043 -20.552  1.00  0.00     0.256 C 
HETATM    2  O1  UNL     1      -2.076  -2.766 -19.611  1.00  0.00    -0.267 OA
HETATM    3  N2  UNL     1      -2.114  -0.682 -20.574  1.00  0.00    -0.352 N 
ATOM      4  H2  UNL     1      -2.447  -0.111 -21.351  1.00  0.00     0.163 HD
ENDROOT
BRANCH   1   5
HETATM    5  C1  UNL     1      -3.286  -2.591 -21.617  1.00  0.00     0.155 C 
HETATM    6  N1  UNL     1      -4.372  -3.251 -21.401  1.00  0.00    -0.404 N 
ATOM      7  H12 UNL     1      -4.656  -3.384 -20.430  1.00  0.00     0.155 HD
ATOM      8  H11 UNL     1      -4.946  -3.636 -22.150  1.00  0.00     0.155 HD
ENDBRANCH   1   5
BRANCH   3   9
HETATM    9  C3  UNL     1      -1.304  -0.043 -19.557  1.00  0.00     0.084 A 
HETATM   10  C4  UNL     1      -0.049   0.643 -19.874  1.00  0.00     0.027 A 
HETATM   11  C5  UNL     1      -1.311   1.470 -19.650  1.00  0.00     0.027 A 
ENDBRANCH   3   9
TORSDOF 2
ENDMDL
MODEL 5
REMARK VINA RESULT: -4.720823562      2.246      2.401
REMARK  2 active torsions:
REMARK  status: ('A' for Active; 'I' for Inactive)
REMARK    1  A    between atoms: C1_4  and  C2_5 
REMARK       I    between atoms: C2_5  and  N2_7 
REMARK    2  A    between atoms: N2_7  and  C3_9 
ROOT
HETATM    1  C2  UNL     1      -1.732   4.043 -20.837  1.00  0.00     0.256 C 
HETATM    2  O1  UNL     1      -1.875   3.842 -19.612  1.00  0.00    -0.267 OA
HETATM    3  N2  UNL     1      -2.869   4.119 -21.663  1.00  0.00    -0.352 N 
ATOM      4  H2  UNL     1      -2.728   4.283 -22.659  1.00  0.00     0.163 HD
ENDROOT
BRANCH   1   5
HETATM    5  C1  UNL     1      -0.412   4.199 -21.414  1.00  0.00     0.155 C 
HETATM    6  N1  UNL     1       0.008   5.310 -21.918  1.00  0.00    -0.404 N 
ATOM      7  H12 UNL     1      -0.631   6.105 -21.901  1.00  0.00     0.155 HD
ATOM      8  H11 UNL     1       0.937   5.419 -22.324  1.00  0.00     0.155 HD
ENDBRANCH   1   5
BRANCH   3   9
HETATM    9  C3  UNL     1      -4.227   3.976 -21.181  1.00  0.00     0.084 A 
HETATM   10  C4  UNL     1      -5.109   5.127 -20.973  1.00  0.00     0.027 A 
HETATM   11  C5  UNL     1      -5.272   4.286 -22.235  1.00  0.00     0.027 A 
ENDBRANCH   3   9
TORSDOF 2
ENDMDL
