MODEL 1
REMARK VINA RESULT: -5.046588331      0.000      0.000
REMARK  1 active torsions:
REMARK  status: ('A' for Active; 'I' for Inactive)
REMARK    1  A    between atoms: C3_3  and  C5_5 
ROOT
HETATM    1  C1  UNL     1      -6.378   4.197 -23.232  1.00  0.00     0.018 C 
HETATM    2  C2  UNL     1      -5.925   4.443 -22.142  1.00  0.00    -0.073 C 
HETATM    3  C3  UNL     1      -5.397   4.741 -20.819  1.00  0.00     0.072 C 
HETATM    4  C4  UNL     1      -6.210   5.085 -19.848  1.00  0.00     0.038 C 
ENDROOT
BRANCH   3   5
HETATM    5  C5  UNL     1      -3.982   4.655 -20.580  1.00  0.00     0.272 C 
HETATM    6  N1  UNL     1      -3.097   4.232 -21.620  1.00  0.00    -0.057 NA
HETATM    7  O1  UNL     1      -3.469   4.939 -19.483  1.00  0.00    -0.270 OA
ENDBRANCH   3   5
TORSDOF 1
ENDMDL
MODEL 2
REMARK VINA RESULT: -5.021149447      1.118      1.118
REMARK  1 active torsions:
REMARK  status: ('A' for Active; 'I' for Inactive)
REMARK    1  A    between atoms: C3_3  and  C5_5 
ROOT
HETATM    1  C1  UNL     1      -6.311   4.216 -23.127  1.00  0.00     0.018 C 
HETATM    2  C2  UNL     1      -5.729   4.351 -22.079  1.00  0.00    -0.073 C 
HETATM    3  C3  UNL     1      -5.044   4.515 -20.806  1.00  0.00     0.072 C 
HETATM    4  C4  UNL     1      -5.728   4.804 -19.723  1.00  0.00     0.038 C 
ENDROOT
BRANCH   3   5
HETATM    5  C5  UNL     1      -3.617   4.358 -20.738  1.00  0.00     0.272 C 
HETATM    6  N1  UNL     1      -2.775   5.485 -20.486  1.00  0.00    -0.057 NA
HETATM    7  O1  UNL     1      -3.056   3.257 -20.890  1.00  0.00    -0.270 OA
ENDBRANCH   3   5
TORSDOF 1
ENDMDL
MODEL 3
REMARK VINA RESULT: -4.853686183      2.332      3.154
REMARK  1 active torsions:
REMARK  status: ('A' for Active; 'I' for Inactive)
REMARK    1  A    between atoms: C3_3  and  C5_5 
ROOT
HETATM    1  C1  UNL     1      -2.950   4.232 -21.395  1.00  0.00     0.018 C 
HETATM    2  C2  UNL     1      -4.149   4.212 -21.525  1.00  0.00    -0.073 C 
HETATM    3  C3  UNL     1      -5.593   4.183 -21.700  1.00  0.00     0.072 C 
HETATM    4  C4  UNL     1      -6.109   4.106 -22.904  1.00  0.00     0.038 C 
ENDROOT
BRANCH   3   5
HETATM    5  C5  UNL     1      -6.452   4.238 -20.548  1.00  0.00     0.272 C 
HETATM    6  N1  UNL     1      -6.836   5.497 -19.991  1.00  0.00    -0.057 NA
HETATM    7  O1  UNL     1      -6.895   3.217 -19.993  1.00  0.00    -0.270 OA
ENDBRANCH   3   5
TORSDOF 1
ENDMDL
MODEL 4
REMARK VINA RESULT: -4.760607969      2.793      3.382
REMARK  1 active torsions:
REMARK  status: ('A' for Active; 'I' for Inactive)
REMARK    1  A    between atoms: C3_3  and  C5_5 
ROOT
HETATM    1  C1  UNL     1      -3.256   4.221 -21.165  1.00  0.00     0.018 C 
HETATM    2  C2  UNL     1      -4.426   3.935 -21.229  1.00  0.00    -0.073 C 
HETATM    3  C3  UNL     1      -5.839   3.594 -21.287  1.00  0.00     0.072 C 
HETATM    4  C4  UNL     1      -6.524   3.435 -20.178  1.00  0.00     0.038 C 
ENDROOT
BRANCH   3   5
HETATM    5  C5  UNL     1      -6.482   3.434 -22.562  1.00  0.00     0.272 C 
HETATM    6  N1  UNL     1      -6.547   4.527 -23.482  1.00  0.00    -0.057 NA
HETATM    7  O1  UNL     1      -7.000   2.362 -22.922  1.00  0.00    -0.270 OA
ENDBRANCH   3   5
TORSDOF 1
ENDMDL
MODEL 5
REMARK VINA RESULT: -4.747647133      1.897      2.257
REMARK  1 active torsions:
REMARK  status: ('A' for Active; 'I' for Inactive)
REMARK    1  A    between atoms: C3_3  and  C5_5 
ROOT
HETATM    1  C1  UNL     1      -6.617   2.754 -22.577  1.00  0.00     0.018 C 
HETATM    2  C2  UNL     1      -5.845   3.380 -21.894  1.00  0.00    -0.073 C 
HETATM    3  C3  UNL     1      -4.901   4.135 -21.085  1.00  0.00     0.072 C 
HETATM    4  C4  UNL     1      -3.636   4.192 -21.431  1.00  0.00     0.038 C 
ENDROOT
BRANCH   3   5
HETATM    5  C5  UNL     1      -5.358   4.818 -19.905  1.00  0.00     0.272 C 
HETATM    6  N1  UNL     1      -6.641   5.449 -19.886  1.00  0.00    -0.057 NA
HETATM    7  O1  UNL     1      -4.678   4.890 -18.866  1.00  0.00    -0.270 OA
ENDBRANCH   3   5
TORSDOF 1
ENDMDL
