MODEL 1
REMARK VINA RESULT: -5.250409434      0.000      0.000
REMARK  1 active torsions:
REMARK  status: ('A' for Active; 'I' for Inactive)
REMARK    1  A    between atoms: N2_4  and  N3_6 
ROOT
HETATM    1  N3  UNL     1      -2.914   4.702 -20.943  1.00  0.00    -0.293 N 
ATOM      2  H3  UNL     1      -2.455   5.396 -20.354  1.00  0.00     0.188 HD
HETATM    3  C1  UNL     1      -4.126   4.364 -20.688  1.00  0.00     0.032 C 
HETATM    4  C2  UNL     1      -5.011   4.855 -19.606  1.00  0.00     0.083 C 
HETATM    5  C3  UNL     1      -6.364   4.271 -19.943  1.00  0.00     0.238 C 
HETATM    6  N4  UNL     1      -5.998   2.981 -20.509  1.00  0.00    -0.070 N 
ATOM      7  H41 UNL     1      -6.767   2.449 -20.914  1.00  0.00     0.277 HD
ATOM      8  H42 UNL     1      -5.737   2.266 -19.831  1.00  0.00     0.277 HD
HETATM    9  C4  UNL     1      -4.937   3.367 -21.451  1.00  0.00     0.286 C 
ENDROOT
BRANCH   1  10
HETATM   10  N2  UNL     1      -2.219   4.146 -21.998  1.00  0.00    -0.249 N 
HETATM   11  N1  UNL     1      -0.962   4.153 -22.124  1.00  0.00    -0.331 N 
ATOM     12  H12 UNL     1      -0.435   4.609 -21.380  1.00  0.00     0.178 HD
ATOM     13  H11 UNL     1      -0.449   3.742 -22.904  1.00  0.00     0.178 HD
ATOM     14  H2  UNL     1      -2.763   3.695 -22.733  1.00  0.00     0.207 HD
ENDBRANCH   1  10
TORSDOF 1
ENDMDL
MODEL 2
REMARK VINA RESULT: -5.102586699      5.755      6.257
REMARK  1 active torsions:
REMARK  status: ('A' for Active; 'I' for Inactive)
REMARK    1  A    between atoms: N2_4  and  N3_6 
ROOT
HETATM    1  N3  UNL     1      -2.067   0.131 -20.607  1.00  0.00    -0.293 N 
ATOM      2  H3  UNL     1      -2.607  -0.028 -21.457  1.00  0.00     0.188 HD
HETATM    3  C1  UNL     1      -1.721  -0.873 -19.886  1.00  0.00     0.032 C 
HETATM    4  C2  UNL     1      -2.001  -2.310 -20.111  1.00  0.00     0.083 C 
HETATM    5  C3  UNL     1      -1.165  -3.017 -19.068  1.00  0.00     0.238 C 
HETATM    6  N4  UNL     1      -1.234  -2.086 -17.952  1.00  0.00    -0.070 N 
ATOM      7  H41 UNL     1      -0.638  -2.314 -17.157  1.00  0.00     0.277 HD
ATOM      8  H42 UNL     1      -2.106  -2.105 -17.422  1.00  0.00     0.277 HD
HETATM    9  C4  UNL     1      -0.933  -0.810 -18.617  1.00  0.00     0.286 C 
ENDROOT
BRANCH   1  10
HETATM   10  N2  UNL     1      -1.725   1.421 -20.256  1.00  0.00    -0.249 N 
HETATM   11  N1  UNL     1      -2.515   2.407 -20.255  1.00  0.00    -0.331 N 
ATOM     12  H12 UNL     1      -3.476   2.217 -20.539  1.00  0.00     0.178 HD
ATOM     13  H11 UNL     1      -2.262   3.361 -19.996  1.00  0.00     0.178 HD
ATOM     14  H2  UNL     1      -0.760   1.591 -19.976  1.00  0.00     0.207 HD
ENDBRANCH   1  10
TORSDOF 1
ENDMDL
MODEL 3
REMARK VINA RESULT: -4.968289836      1.579      1.662
REMARK  1 active torsions:
REMARK  status: ('A' for Active; 'I' for Inactive)
REMARK    1  A    between atoms: N2_4  and  N3_6 
ROOT
HETATM    1  N3  UNL     1      -3.548   3.715 -19.996  1.00  0.00    -0.293 N 
ATOM      2  H3  UNL     1      -3.003   4.328 -19.390  1.00  0.00     0.188 HD
HETATM    3  C1  UNL     1      -4.801   3.944 -20.157  1.00  0.00     0.032 C 
HETATM    4  C2  UNL     1      -5.625   5.023 -19.563  1.00  0.00     0.083 C 
HETATM    5  C3  UNL     1      -6.950   4.913 -20.283  1.00  0.00     0.238 C 
HETATM    6  N4  UNL     1      -7.066   3.475 -20.474  1.00  0.00    -0.070 N 
ATOM      7  H41 UNL     1      -7.852   3.174 -21.049  1.00  0.00     0.277 HD
ATOM      8  H42 UNL     1      -7.348   2.947 -19.649  1.00  0.00     0.277 HD
HETATM    9  C4  UNL     1      -5.736   3.144 -21.007  1.00  0.00     0.286 C 
ENDROOT
BRANCH   1  10
HETATM   10  N2  UNL     1      -2.924   2.657 -20.625  1.00  0.00    -0.249 N 
HETATM   11  N1  UNL     1      -2.110   1.863 -20.075  1.00  0.00    -0.331 N 
ATOM     12  H12 UNL     1      -1.911   2.030 -19.088  1.00  0.00     0.178 HD
ATOM     13  H11 UNL     1      -1.649   1.081 -20.540  1.00  0.00     0.178 HD
ATOM     14  H2  UNL     1      -3.135   2.506 -21.611  1.00  0.00     0.207 HD
ENDBRANCH   1  10
TORSDOF 1
ENDMDL
MODEL 4
REMARK VINA RESULT: -4.962374329      1.171      1.436
REMARK  1 active torsions:
REMARK  status: ('A' for Active; 'I' for Inactive)
REMARK    1  A    between atoms: N2_4  and  N3_6 
ROOT
HETATM    1  N3  UNL     1      -2.960   4.279 -22.078  1.00  0.00    -0.293 N 
ATOM      2  H3  UNL     1      -3.138   4.388 -23.076  1.00  0.00     0.188 HD
HETATM    3  C1  UNL     1      -3.949   4.272 -21.260  1.00  0.00     0.032 C 
HETATM    4  C2  UNL     1      -5.394   4.406 -21.561  1.00  0.00     0.083 C 
HETATM    5  C3  UNL     1      -6.074   4.105 -20.245  1.00  0.00     0.238 C 
HETATM    6  N4  UNL     1      -5.134   4.671 -19.289  1.00  0.00    -0.070 N 
ATOM      7  H41 UNL     1      -5.342   4.482 -18.309  1.00  0.00     0.277 HD
ATOM      8  H42 UNL     1      -5.165   5.686 -19.196  1.00  0.00     0.277 HD
HETATM    9  C4  UNL     1      -3.859   4.124 -19.776  1.00  0.00     0.286 C 
ENDROOT
BRANCH   1  10
HETATM   10  N2  UNL     1      -1.660   4.143 -21.635  1.00  0.00    -0.249 N 
HETATM   11  N1  UNL     1      -0.655   3.961 -22.378  1.00  0.00    -0.331 N 
ATOM     12  H12 UNL     1      -0.836   3.913 -23.381  1.00  0.00     0.178 HD
ATOM     13  H11 UNL     1       0.306   3.860 -22.051  1.00  0.00     0.178 HD
ATOM     14  H2  UNL     1      -1.499   4.194 -20.629  1.00  0.00     0.207 HD
ENDBRANCH   1  10
TORSDOF 1
ENDMDL
MODEL 5
REMARK VINA RESULT: -4.909223700      1.857      1.943
REMARK  1 active torsions:
REMARK  status: ('A' for Active; 'I' for Inactive)
REMARK    1  A    between atoms: N2_4  and  N3_6 
ROOT
HETATM    1  N3  UNL     1      -3.882   3.515 -19.967  1.00  0.00    -0.293 N 
ATOM      2  H3  UNL     1      -3.854   3.599 -18.952  1.00  0.00     0.188 HD
HETATM    3  C1  UNL     1      -4.799   4.130 -20.623  1.00  0.00     0.032 C 
HETATM    4  C2  UNL     1      -5.885   4.992 -20.100  1.00  0.00     0.083 C 
HETATM    5  C3  UNL     1      -6.501   5.601 -21.340  1.00  0.00     0.238 C 
HETATM    6  N4  UNL     1      -6.381   4.511 -22.297  1.00  0.00    -0.070 N 
ATOM      7  H41 UNL     1      -6.641   4.743 -23.255  1.00  0.00     0.277 HD
ATOM      8  H42 UNL     1      -7.065   3.763 -22.193  1.00  0.00     0.277 HD
HETATM    9  C4  UNL     1      -4.980   4.110 -22.107  1.00  0.00     0.286 C 
ENDROOT
BRANCH   1  10
HETATM   10  N2  UNL     1      -2.935   2.743 -20.608  1.00  0.00    -0.249 N 
HETATM   11  N1  UNL     1      -2.126   1.961 -20.034  1.00  0.00    -0.331 N 
ATOM     12  H12 UNL     1      -2.192   1.908 -19.017  1.00  0.00     0.178 HD
ATOM     13  H11 UNL     1      -1.426   1.390 -20.508  1.00  0.00     0.178 HD
ATOM     14  H2  UNL     1      -2.885   2.809 -21.625  1.00  0.00     0.207 HD
ENDBRANCH   1  10
TORSDOF 1
ENDMDL
