MODEL 1
REMARK VINA RESULT: -5.579906896      0.000      0.000
REMARK  2 active torsions:
REMARK  status: ('A' for Active; 'I' for Inactive)
REMARK    1  A    between atoms: C2_2  and  C3_3 
REMARK    2  A    between atoms: C2_2  and  C4_6 
ROOT
HETATM    1  C1  UNL     1      -6.646   4.745 -20.007  1.00  0.00     0.024 C 
HETATM    2  C2  UNL     1      -5.510   4.437 -20.564  1.00  0.00     0.002 C 
ENDROOT
BRANCH   2   3
HETATM    3  C3  UNL     1      -4.288   4.827 -19.829  1.00  0.00     0.260 C 
HETATM    4  N1  UNL     1      -3.191   5.276 -20.607  1.00  0.00    -0.058 NA
HETATM    5  O1  UNL     1      -4.224   4.763 -18.577  1.00  0.00    -0.271 OA
ENDBRANCH   2   3
BRANCH   2   6
HETATM    6  C4  UNL     1      -5.371   3.744 -21.848  1.00  0.00     0.023 A 
HETATM    7  C5  UNL     1      -6.510   2.937 -22.391  1.00  0.00     0.010 A 
HETATM    8  C6  UNL     1      -6.206   4.255 -23.023  1.00  0.00     0.010 A 
ENDBRANCH   2   6
TORSDOF 2
ENDMDL
MODEL 2
REMARK VINA RESULT: -5.289489222      1.436      1.540
REMARK  2 active torsions:
REMARK  status: ('A' for Active; 'I' for Inactive)
REMARK    1  A    between atoms: C2_2  and  C3_3 
REMARK    2  A    between atoms: C2_2  and  C4_6 
ROOT
HETATM    1  C1  UNL     1      -4.982   4.748 -19.643  1.00  0.00     0.024 C 
HETATM    2  C2  UNL     1      -4.355   4.365 -20.717  1.00  0.00     0.002 C 
ENDROOT
BRANCH   2   3
HETATM    3  C3  UNL     1      -2.964   4.843 -20.875  1.00  0.00     0.260 C 
HETATM    4  N1  UNL     1      -2.111   4.064 -21.697  1.00  0.00    -0.058 NA
HETATM    5  O1  UNL     1      -2.558   5.886 -20.308  1.00  0.00    -0.271 OA
ENDBRANCH   2   3
BRANCH   2   6
HETATM    6  C4  UNL     1      -4.929   3.508 -21.759  1.00  0.00     0.023 A 
HETATM    7  C5  UNL     1      -6.366   3.091 -21.677  1.00  0.00     0.010 A 
HETATM    8  C6  UNL     1      -5.981   4.125 -22.682  1.00  0.00     0.010 A 
ENDBRANCH   2   6
TORSDOF 2
ENDMDL
MODEL 3
REMARK VINA RESULT: -5.199887988      1.485      2.336
REMARK  2 active torsions:
REMARK  status: ('A' for Active; 'I' for Inactive)
REMARK    1  A    between atoms: C2_2  and  C3_3 
REMARK    2  A    between atoms: C2_2  and  C4_6 
ROOT
HETATM    1  C1  UNL     1      -4.864   4.334 -22.267  1.00  0.00     0.024 C 
HETATM    2  C2  UNL     1      -4.538   4.273 -21.009  1.00  0.00     0.002 C 
ENDROOT
BRANCH   2   3
HETATM    3  C3  UNL     1      -3.098   4.121 -20.707  1.00  0.00     0.260 C 
HETATM    4  N1  UNL     1      -2.207   4.172 -21.807  1.00  0.00    -0.058 NA
HETATM    5  O1  UNL     1      -2.687   3.957 -19.533  1.00  0.00    -0.271 OA
ENDBRANCH   2   3
BRANCH   2   6
HETATM    6  C4  UNL     1      -5.490   4.341 -19.896  1.00  0.00     0.023 A 
HETATM    7  C5  UNL     1      -6.826   4.991 -20.092  1.00  0.00     0.010 A 
HETATM    8  C6  UNL     1      -6.764   3.502 -20.001  1.00  0.00     0.010 A 
ENDBRANCH   2   6
TORSDOF 2
ENDMDL
MODEL 4
REMARK VINA RESULT: -5.100123052      1.988      3.018
REMARK  2 active torsions:
REMARK  status: ('A' for Active; 'I' for Inactive)
REMARK    1  A    between atoms: C2_2  and  C3_3 
REMARK    2  A    between atoms: C2_2  and  C4_6 
ROOT
HETATM    1  C1  UNL     1      -6.251   3.919 -22.900  1.00  0.00     0.024 C 
HETATM    2  C2  UNL     1      -5.623   4.177 -21.790  1.00  0.00     0.002 C 
ENDROOT
BRANCH   2   3
HETATM    3  C3  UNL     1      -6.446   4.233 -20.563  1.00  0.00     0.260 C 
HETATM    4  N1  UNL     1      -6.837   5.520 -20.114  1.00  0.00    -0.058 NA
HETATM    5  O1  UNL     1      -6.782   3.192 -19.948  1.00  0.00    -0.271 OA
ENDBRANCH   2   3
BRANCH   2   6
HETATM    6  C4  UNL     1      -4.180   4.412 -21.683  1.00  0.00     0.023 A 
HETATM    7  C5  UNL     1      -3.600   4.941 -20.407  1.00  0.00     0.010 A 
HETATM    8  C6  UNL     1      -3.381   3.504 -20.747  1.00  0.00     0.010 A 
ENDBRANCH   2   6
TORSDOF 2
ENDMDL
MODEL 5
REMARK VINA RESULT: -5.062970471      2.747      3.501
REMARK  2 active torsions:
REMARK  status: ('A' for Active; 'I' for Inactive)
REMARK    1  A    between atoms: C2_2  and  C3_3 
REMARK    2  A    between atoms: C2_2  and  C4_6 
ROOT
HETATM    1  C1  UNL     1      -6.589   3.395 -20.255  1.00  0.00     0.024 C 
HETATM    2  C2  UNL     1      -6.008   3.913 -21.298  1.00  0.00     0.002 C 
ENDROOT
BRANCH   2   3
HETATM    3  C3  UNL     1      -6.561   3.536 -22.617  1.00  0.00     0.260 C 
HETATM    4  N1  UNL     1      -6.641   4.563 -23.592  1.00  0.00    -0.058 NA
HETATM    5  O1  UNL     1      -6.941   2.366 -22.861  1.00  0.00    -0.271 OA
ENDBRANCH   2   3
BRANCH   2   6
HETATM    6  C4  UNL     1      -4.863   4.826 -21.248  1.00  0.00     0.023 A 
HETATM    7  C5  UNL     1      -3.950   4.818 -20.059  1.00  0.00     0.010 A 
HETATM    8  C6  UNL     1      -3.464   4.214 -21.335  1.00  0.00     0.010 A 
ENDBRANCH   2   6
TORSDOF 2
ENDMDL
