MODEL 1
REMARK VINA RESULT: -5.445189089      0.000      0.000
REMARK  2 active torsions:
REMARK  status: ('A' for Active; 'I' for Inactive)
REMARK    1  A    between atoms: C1_2  and  N1_3 
REMARK    2  A    between atoms: N1_3  and  C2_5 
ROOT
HETATM    1  C2  UNL     1      -4.882   3.650 -20.844  1.00  0.00     0.083 C 
HETATM    2  C3  UNL     1      -5.114   4.501 -22.066  1.00  0.00     0.025 C 
HETATM    3  C4  UNL     1      -6.479   5.078 -21.740  1.00  0.00     0.002 C 
HETATM    4  C5  UNL     1      -6.582   5.097 -20.228  1.00  0.00     0.002 C 
HETATM    5  C6  UNL     1      -5.191   4.681 -19.751  1.00  0.00     0.025 C 
ENDROOT
BRANCH   1   6
HETATM    6  N1  UNL     1      -3.597   3.087 -20.724  1.00  0.00    -0.364 N 
ATOM      7  H1  UNL     1      -3.476   2.082 -20.603  1.00  0.00     0.162 HD
BRANCH   6   8
HETATM    8  C1  UNL     1      -2.475   3.953 -20.776  1.00  0.00     0.348 C 
HETATM    9  O1  UNL     1      -1.747   4.011 -21.799  1.00  0.00    -0.284 OA
ENDBRANCH   6   8
ENDBRANCH   1   6
TORSDOF 2
ENDMDL
MODEL 2
REMARK VINA RESULT: -5.380012201      1.098      1.565
REMARK  2 active torsions:
REMARK  status: ('A' for Active; 'I' for Inactive)
REMARK    1  A    between atoms: C1_2  and  N1_3 
REMARK    2  A    between atoms: N1_3  and  C2_5 
ROOT
HETATM    1  C2  UNL     1      -4.670   3.751 -21.474  1.00  0.00     0.083 C 
HETATM    2  C3  UNL     1      -5.473   5.016 -21.631  1.00  0.00     0.025 C 
HETATM    3  C4  UNL     1      -6.414   4.604 -22.748  1.00  0.00     0.002 C 
HETATM    4  C5  UNL     1      -6.555   3.099 -22.652  1.00  0.00     0.002 C 
HETATM    5  C6  UNL     1      -5.813   2.733 -21.367  1.00  0.00     0.025 C 
ENDROOT
BRANCH   1   6
HETATM    6  N1  UNL     1      -3.793   3.714 -20.373  1.00  0.00    -0.364 N 
ATOM      7  H1  UNL     1      -4.142   3.526 -19.434  1.00  0.00     0.162 HD
BRANCH   6   8
HETATM    8  C1  UNL     1      -2.412   3.945 -20.604  1.00  0.00     0.348 C 
HETATM    9  O1  UNL     1      -1.970   4.129 -21.766  1.00  0.00    -0.284 OA
ENDBRANCH   6   8
ENDBRANCH   1   6
TORSDOF 2
ENDMDL
MODEL 3
REMARK VINA RESULT: -5.323960415      1.354      1.808
REMARK  2 active torsions:
REMARK  status: ('A' for Active; 'I' for Inactive)
REMARK    1  A    between atoms: C1_2  and  N1_3 
REMARK    2  A    between atoms: N1_3  and  C2_5 
ROOT
HETATM    1  C2  UNL     1      -4.594   3.731 -21.476  1.00  0.00     0.083 C 
HETATM    2  C3  UNL     1      -5.282   4.901 -20.822  1.00  0.00     0.025 C 
HETATM    3  C4  UNL     1      -6.246   5.300 -21.924  1.00  0.00     0.002 C 
HETATM    4  C5  UNL     1      -6.519   4.044 -22.725  1.00  0.00     0.002 C 
HETATM    5  C6  UNL     1      -5.822   2.935 -21.936  1.00  0.00     0.025 C 
ENDROOT
BRANCH   1   6
HETATM    6  N1  UNL     1      -3.732   2.986 -20.648  1.00  0.00    -0.364 N 
ATOM      7  H1  UNL     1      -3.994   2.054 -20.326  1.00  0.00     0.162 HD
BRANCH   6   8
HETATM    8  C1  UNL     1      -2.492   3.563 -20.272  1.00  0.00     0.348 C 
HETATM    9  O1  UNL     1      -2.137   3.610 -19.067  1.00  0.00    -0.284 OA
ENDBRANCH   6   8
ENDBRANCH   1   6
TORSDOF 2
ENDMDL
MODEL 4
REMARK VINA RESULT: -5.182971228      1.218      1.431
REMARK  2 active torsions:
REMARK  status: ('A' for Active; 'I' for Inactive)
REMARK    1  A    between atoms: C1_2  and  N1_3 
REMARK    2  A    between atoms: N1_3  and  C2_5 
ROOT
HETATM    1  C2  UNL     1      -4.566   4.108 -20.840  1.00  0.00     0.083 C 
HETATM    2  C3  UNL     1      -5.542   3.024 -21.219  1.00  0.00     0.025 C 
HETATM    3  C4  UNL     1      -6.717   3.394 -20.333  1.00  0.00     0.002 C 
HETATM    4  C5  UNL     1      -6.617   4.887 -20.095  1.00  0.00     0.002 C 
HETATM    5  C6  UNL     1      -5.471   5.337 -21.002  1.00  0.00     0.025 C 
ENDROOT
BRANCH   1   6
HETATM    6  N1  UNL     1      -3.395   4.179 -21.619  1.00  0.00    -0.364 N 
ATOM      7  H1  UNL     1      -3.440   4.115 -22.636  1.00  0.00     0.162 HD
BRANCH   6   8
HETATM    8  C1  UNL     1      -2.153   4.342 -20.954  1.00  0.00     0.348 C 
HETATM    9  O1  UNL     1      -1.765   5.475 -20.573  1.00  0.00    -0.284 OA
ENDBRANCH   6   8
ENDBRANCH   1   6
TORSDOF 2
ENDMDL
MODEL 5
REMARK VINA RESULT: -5.084591788      1.177      1.202
REMARK  2 active torsions:
REMARK  status: ('A' for Active; 'I' for Inactive)
REMARK    1  A    between atoms: C1_2  and  N1_3 
REMARK    2  A    between atoms: N1_3  and  C2_5 
ROOT
HETATM    1  C2  UNL     1      -4.414   4.145 -20.793  1.00  0.00     0.083 C 
HETATM    2  C3  UNL     1      -5.125   4.066 -22.120  1.00  0.00     0.025 C 
HETATM    3  C4  UNL     1      -6.316   3.207 -21.739  1.00  0.00     0.002 C 
HETATM    4  C5  UNL     1      -6.558   3.445 -20.262  1.00  0.00     0.002 C 
HETATM    5  C6  UNL     1      -5.587   4.569 -19.898  1.00  0.00     0.025 C 
ENDROOT
BRANCH   1   6
HETATM    6  N1  UNL     1      -3.325   5.036 -20.733  1.00  0.00    -0.364 N 
ATOM      7  H1  UNL     1      -3.476   6.038 -20.617  1.00  0.00     0.162 HD
BRANCH   6   8
HETATM    8  C1  UNL     1      -2.014   4.505 -20.838  1.00  0.00     0.348 C 
HETATM    9  O1  UNL     1      -1.569   4.088 -21.937  1.00  0.00    -0.284 OA
ENDBRANCH   6   8
ENDBRANCH   1   6
TORSDOF 2
ENDMDL
