MODEL 1
REMARK VINA RESULT: -8.930315558      0.000      0.000
REMARK  10 active torsions:
REMARK  status: ('A' for Active; 'I' for Inactive)
REMARK       I    between atoms: N1_5  and  C5_7 
REMARK    1  A    between atoms: C5_7  and  C6_9 
REMARK    2  A    between atoms: C8_11  and  C9_12 
REMARK    3  A    between atoms: N4_20  and  C14_21 
REMARK    4  A    between atoms: C14_21  and  C15_22 
REMARK       I    between atoms: C15_22  and  N5_24 
REMARK    5  A    between atoms: N5_24  and  C16_26 
REMARK    6  A    between atoms: C17_29  and  C18_30 
REMARK    7  A    between atoms: C18_30  and  C19_31 
REMARK       I    between atoms: C19_31  and  N7_33 
REMARK    8  A    between atoms: C23_38  and  N8_39 
REMARK    9  A    between atoms: N8_39  and  C24_41 
REMARK   10  A    between atoms: C24_41  and  C25_42 
ROOT
HETATM    1  C1  UNL     1      -5.321   4.449 -10.627  1.00  0.00     0.069 C 
HETATM    2  C2  UNL     1      -5.603   2.980 -10.549  1.00  0.00     0.026 A 
HETATM    3  C3  UNL     1      -4.843   2.091 -11.288  1.00  0.00     0.074 A 
HETATM    4  C4  UNL     1      -5.111   0.753 -11.177  1.00  0.00     0.128 A 
HETATM    5  N1  UNL     1      -4.421  -0.086 -11.865  1.00  0.00    -0.307 N 
ATOM      6  H1  UNL     1      -4.646  -1.075 -11.756  1.00  0.00     0.170 HD
HETATM    7  C5  UNL     1      -3.382   0.245 -12.758  1.00  0.00     0.275 C 
HETATM    8  O1  UNL     1      -3.628   0.967 -13.747  1.00  0.00    -0.266 OA
HETATM    9  N4  UNL     1      -6.115   0.309 -10.348  1.00  0.00    -0.160 N 
HETATM   10  C23 UNL     1      -6.846   1.178  -9.640  1.00  0.00     0.682 A 
HETATM   11  N9  UNL     1      -6.558   2.497  -9.768  1.00  0.00    -0.196 N 
ATOM     12  H9  UNL     1      -7.112   3.160  -9.228  1.00  0.00     0.184 HD
ENDROOT
BRANCH   9  13
HETATM   13  C14 UNL     1      -6.267  -1.104 -10.281  1.00  0.00     0.252 C 
BRANCH  13  14
HETATM   14  C15 UNL     1      -6.845  -1.761 -11.483  1.00  0.00     0.242 C 
HETATM   15  O2  UNL     1      -6.981  -1.100 -12.528  1.00  0.00    -0.271 OA
HETATM   16  N5  UNL     1      -7.201  -3.085 -11.367  1.00  0.00    -0.306 N 
ATOM     17  H5  UNL     1      -7.043  -3.502 -10.450  1.00  0.00     0.171 HD
BRANCH  16  18
HETATM   18  C16 UNL     1      -7.703  -3.870 -12.250  1.00  0.00     0.151 A 
HETATM   19  N6  UNL     1      -7.310  -5.046 -12.730  1.00  0.00    -0.339 N 
HETATM   20  C17 UNL     1      -8.050  -5.669 -13.621  1.00  0.00     0.026 A 
ATOM     21  H6  UNL     1      -6.436  -5.464 -12.409  1.00  0.00     0.168 HD
HETATM   22  C22 UNL     1      -9.210  -5.049 -14.012  1.00  0.00     0.078 A 
HETATM   23  S1  UNL     1      -9.200  -3.626 -13.105  1.00  0.00    -0.064 SA
BRANCH  20  24
HETATM   24  C18 UNL     1      -7.674  -7.017 -14.242  1.00  0.00     0.160 C 
BRANCH  24  25
HETATM   25  C19 UNL     1      -6.185  -7.087 -14.381  1.00  0.00     0.224 C 
HETATM   26  O3  UNL     1      -5.479  -6.568 -13.468  1.00  0.00    -0.273 OA
HETATM   27  N7  UNL     1      -5.623  -7.721 -15.506  1.00  0.00    -0.361 N 
HETATM   28  C20 UNL     1      -6.462  -8.319 -16.491  1.00  0.00     0.152 C 
HETATM   29  C21 UNL     1      -4.188  -7.744 -15.645  1.00  0.00     0.152 C 
ENDBRANCH  24  25
ENDBRANCH  20  24
ENDBRANCH  16  18
ENDBRANCH  13  14
ENDBRANCH   9  13
BRANCH  10  30
HETATM   30  N8  UNL     1      -7.797   0.750  -8.888  1.00  0.00    -0.225 N 
ATOM     31  H8  UNL     1      -8.082  -0.226  -8.972  1.00  0.00     0.177 HD
BRANCH  30  32
HETATM   32  C24 UNL     1      -8.481   1.589  -7.925  1.00  0.00     0.142 C 
BRANCH  32  33
HETATM   33  C25 UNL     1      -9.430   0.824  -7.041  1.00  0.00    -0.004 C 
HETATM   34  C26 UNL     1      -9.646   1.548  -5.717  1.00  0.00     0.011 C 
HETATM   35  C27 UNL     1      -8.787  -0.503  -6.696  1.00  0.00     0.011 C 
ENDBRANCH  32  33
ENDBRANCH  30  32
ENDBRANCH  10  30
BRANCH   7  36
HETATM   36  C6  UNL     1      -2.029  -0.262 -12.513  1.00  0.00     0.120 A 
HETATM   37  C7  UNL     1      -1.542  -1.513 -12.857  1.00  0.00     0.064 A 
HETATM   38  C8  UNL     1      -0.236  -1.581 -12.440  1.00  0.00     0.036 A 
HETATM   39  N2  UNL     1       0.049  -0.394 -11.861  1.00  0.00    -0.302 N 
HETATM   40  N3  UNL     1      -1.017   0.377 -11.911  1.00  0.00    -0.291 N 
ATOM     41  H2  UNL     1       0.947  -0.136 -11.449  1.00  0.00     0.186 HD
HETATM   42  C13 UNL     1      -1.136   1.739 -11.395  1.00  0.00     0.178 C 
BRANCH  38  43
HETATM   43  C9  UNL     1       0.681  -2.746 -12.604  1.00  0.00    -0.007 C 
HETATM   44  C10 UNL     1       0.110  -3.645 -13.672  1.00  0.00     0.021 C 
HETATM   45  C11 UNL     1       0.876  -3.524 -11.328  1.00  0.00     0.021 C 
HETATM   46  C12 UNL     1       2.028  -2.217 -13.096  1.00  0.00     0.021 C 
ENDBRANCH  38  43
ENDBRANCH   7  36
TORSDOF 10
ENDMDL
MODEL 2
REMARK VINA RESULT: -8.724394365      3.439      6.444
REMARK  10 active torsions:
REMARK  status: ('A' for Active; 'I' for Inactive)
REMARK       I    between atoms: N1_5  and  C5_7 
REMARK    1  A    between atoms: C5_7  and  C6_9 
REMARK    2  A    between atoms: C8_11  and  C9_12 
REMARK    3  A    between atoms: N4_20  and  C14_21 
REMARK    4  A    between atoms: C14_21  and  C15_22 
REMARK       I    between atoms: C15_22  and  N5_24 
REMARK    5  A    between atoms: N5_24  and  C16_26 
REMARK    6  A    between atoms: C17_29  and  C18_30 
REMARK    7  A    between atoms: C18_30  and  C19_31 
REMARK       I    between atoms: C19_31  and  N7_33 
REMARK    8  A    between atoms: C23_38  and  N8_39 
REMARK    9  A    between atoms: N8_39  and  C24_41 
REMARK   10  A    between atoms: C24_41  and  C25_42 
ROOT
HETATM    1  C1  UNL     1       1.930  -1.505 -11.022  1.00  0.00     0.069 C 
HETATM    2  C2  UNL     1       0.781  -1.578 -11.980  1.00  0.00     0.026 A 
HETATM    3  C3  UNL     1       0.897  -2.321 -13.141  1.00  0.00     0.074 A 
HETATM    4  C4  UNL     1      -0.179  -2.386 -13.985  1.00  0.00     0.128 A 
HETATM    5  N1  UNL     1      -0.085  -3.064 -15.073  1.00  0.00    -0.307 N 
ATOM      6  H1  UNL     1      -0.906  -3.093 -15.677  1.00  0.00     0.170 HD
HETATM    7  C5  UNL     1       1.057  -3.769 -15.503  1.00  0.00     0.275 C 
HETATM    8  O1  UNL     1       2.121  -3.148 -15.711  1.00  0.00    -0.266 OA
HETATM    9  N4  UNL     1      -1.346  -1.723 -13.680  1.00  0.00    -0.160 N 
HETATM   10  C23 UNL     1      -1.445  -1.005 -12.556  1.00  0.00     0.682 A 
HETATM   11  N9  UNL     1      -0.364  -0.960 -11.738  1.00  0.00    -0.196 N 
ATOM     12  H9  UNL     1      -0.439  -0.414 -10.879  1.00  0.00     0.184 HD
ENDROOT
BRANCH   9  13
HETATM   13  C14 UNL     1      -2.408  -1.905 -14.609  1.00  0.00     0.252 C 
BRANCH  13  14
HETATM   14  C15 UNL     1      -3.249  -3.117 -14.417  1.00  0.00     0.242 C 
HETATM   15  O2  UNL     1      -4.101  -3.125 -13.511  1.00  0.00    -0.271 OA
HETATM   16  N5  UNL     1      -3.031  -4.176 -15.267  1.00  0.00    -0.306 N 
ATOM     17  H5  UNL     1      -2.294  -4.038 -15.958  1.00  0.00     0.171 HD
BRANCH  16  18
HETATM   18  C16 UNL     1      -3.624  -5.314 -15.314  1.00  0.00     0.151 A 
HETATM   19  N6  UNL     1      -4.644  -5.820 -14.628  1.00  0.00    -0.339 N 
HETATM   20  C17 UNL     1      -5.088  -7.025 -14.913  1.00  0.00     0.026 A 
ATOM     21  H6  UNL     1      -5.081  -5.277 -13.884  1.00  0.00     0.168 HD
HETATM   22  C22 UNL     1      -4.452  -7.703 -15.923  1.00  0.00     0.078 A 
HETATM   23  S1  UNL     1      -3.267  -6.610 -16.421  1.00  0.00    -0.064 SA
BRANCH  20  24
HETATM   24  C18 UNL     1      -6.246  -7.699 -14.171  1.00  0.00     0.160 C 
BRANCH  24  25
HETATM   25  C19 UNL     1      -7.291  -6.669 -13.870  1.00  0.00     0.224 C 
HETATM   26  O3  UNL     1      -7.057  -5.839 -12.945  1.00  0.00    -0.273 OA
HETATM   27  N7  UNL     1      -8.485  -6.656 -14.616  1.00  0.00    -0.361 N 
HETATM   28  C20 UNL     1      -8.687  -7.594 -15.671  1.00  0.00     0.152 C 
HETATM   29  C21 UNL     1      -9.498  -5.685 -14.288  1.00  0.00     0.152 C 
ENDBRANCH  24  25
ENDBRANCH  20  24
ENDBRANCH  16  18
ENDBRANCH  13  14
ENDBRANCH   9  13
BRANCH  10  30
HETATM   30  N8  UNL     1      -2.534  -0.372 -12.296  1.00  0.00    -0.225 N 
ATOM     31  H8  UNL     1      -3.281  -0.868 -11.810  1.00  0.00     0.177 HD
BRANCH  30  32
HETATM   32  C24 UNL     1      -2.748   1.014 -12.661  1.00  0.00     0.142 C 
BRANCH  32  33
HETATM   33  C25 UNL     1      -4.202   1.406 -12.671  1.00  0.00    -0.004 C 
HETATM   34  C26 UNL     1      -4.573   2.156 -11.396  1.00  0.00     0.011 C 
HETATM   35  C27 UNL     1      -5.031   0.140 -12.671  1.00  0.00     0.011 C 
ENDBRANCH  32  33
ENDBRANCH  30  32
ENDBRANCH  10  30
BRANCH   7  36
HETATM   36  C6  UNL     1       0.980  -5.220 -15.700  1.00  0.00     0.120 A 
HETATM   37  C7  UNL     1       0.528  -5.875 -16.834  1.00  0.00     0.064 A 
HETATM   38  C8  UNL     1       0.613  -7.225 -16.598  1.00  0.00     0.036 A 
HETATM   39  N2  UNL     1       1.109  -7.369 -15.349  1.00  0.00    -0.302 N 
HETATM   40  N3  UNL     1       1.323  -6.179 -14.829  1.00  0.00    -0.291 N 
ATOM     41  H2  UNL     1       1.288  -8.259 -14.883  1.00  0.00     0.186 HD
HETATM   42  C13 UNL     1       1.850  -5.888 -13.498  1.00  0.00     0.178 C 
BRANCH  38  43
HETATM   43  C9  UNL     1       0.233  -8.311 -17.547  1.00  0.00    -0.007 C 
HETATM   44  C10 UNL     1       1.491  -9.032 -17.962  1.00  0.00     0.021 C 
HETATM   45  C11 UNL     1      -0.492  -7.798 -18.765  1.00  0.00     0.021 C 
HETATM   46  C12 UNL     1      -0.658  -9.300 -16.796  1.00  0.00     0.021 C 
ENDBRANCH  38  43
ENDBRANCH   7  36
TORSDOF 10
ENDMDL
MODEL 3
REMARK VINA RESULT: -8.643895484      4.653      8.653
REMARK  10 active torsions:
REMARK  status: ('A' for Active; 'I' for Inactive)
REMARK       I    between atoms: N1_5  and  C5_7 
REMARK    1  A    between atoms: C5_7  and  C6_9 
REMARK    2  A    between atoms: C8_11  and  C9_12 
REMARK    3  A    between atoms: N4_20  and  C14_21 
REMARK    4  A    between atoms: C14_21  and  C15_22 
REMARK       I    between atoms: C15_22  and  N5_24 
REMARK    5  A    between atoms: N5_24  and  C16_26 
REMARK    6  A    between atoms: C17_29  and  C18_30 
REMARK    7  A    between atoms: C18_30  and  C19_31 
REMARK       I    between atoms: C19_31  and  N7_33 
REMARK    8  A    between atoms: C23_38  and  N8_39 
REMARK    9  A    between atoms: N8_39  and  C24_41 
REMARK   10  A    between atoms: C24_41  and  C25_42 
ROOT
HETATM    1  C1  UNL     1       3.101  -5.267 -13.194  1.00  0.00     0.069 C 
HETATM    2  C2  UNL     1       1.985  -5.163 -14.188  1.00  0.00     0.026 A 
HETATM    3  C3  UNL     1       1.033  -4.167 -14.055  1.00  0.00     0.074 A 
HETATM    4  C4  UNL     1       0.040  -4.085 -14.993  1.00  0.00     0.128 A 
HETATM    5  N1  UNL     1      -0.859  -3.173 -14.878  1.00  0.00    -0.307 N 
ATOM      6  H1  UNL     1      -1.583  -3.138 -15.597  1.00  0.00     0.170 HD
HETATM    7  C5  UNL     1      -0.930  -2.217 -13.845  1.00  0.00     0.275 C 
HETATM    8  O1  UNL     1      -1.062  -2.599 -12.663  1.00  0.00    -0.266 OA
HETATM    9  N4  UNL     1      -0.006  -4.975 -16.041  1.00  0.00    -0.160 N 
HETATM   10  C23 UNL     1       0.918  -5.935 -16.158  1.00  0.00     0.682 A 
HETATM   11  N9  UNL     1       1.892  -5.992 -15.216  1.00  0.00    -0.196 N 
ATOM     12  H9  UNL     1       2.598  -6.722 -15.305  1.00  0.00     0.184 HD
ENDROOT
BRANCH   9  13
HETATM   13  C14 UNL     1      -1.056  -4.758 -16.977  1.00  0.00     0.252 C 
BRANCH  13  14
HETATM   14  C15 UNL     1      -2.422  -5.139 -16.530  1.00  0.00     0.242 C 
HETATM   15  O2  UNL     1      -3.248  -4.244 -16.276  1.00  0.00    -0.271 OA
HETATM   16  N5  UNL     1      -2.698  -6.482 -16.421  1.00  0.00    -0.306 N 
ATOM     17  H5  UNL     1      -1.925  -7.107 -16.651  1.00  0.00     0.171 HD
BRANCH  16  18
HETATM   18  C16 UNL     1      -3.789  -7.061 -16.072  1.00  0.00     0.151 A 
HETATM   19  N6  UNL     1      -4.567  -6.934 -15.001  1.00  0.00    -0.339 N 
HETATM   20  C17 UNL     1      -5.675  -7.636 -14.912  1.00  0.00     0.026 A 
ATOM     21  H6  UNL     1      -4.305  -6.293 -14.251  1.00  0.00     0.168 HD
HETATM   22  C22 UNL     1      -5.965  -8.481 -15.953  1.00  0.00     0.078 A 
HETATM   23  S1  UNL     1      -4.667  -8.241 -17.005  1.00  0.00    -0.064 SA
BRANCH  20  24
HETATM   24  C18 UNL     1      -6.627  -7.568 -13.714  1.00  0.00     0.160 C 
BRANCH  24  25
HETATM   25  C19 UNL     1      -7.110  -6.159 -13.560  1.00  0.00     0.224 C 
HETATM   26  O3  UNL     1      -6.321  -5.315 -13.046  1.00  0.00    -0.273 OA
HETATM   27  N7  UNL     1      -8.409  -5.822 -13.986  1.00  0.00    -0.361 N 
HETATM   28  C20 UNL     1      -9.248  -6.804 -14.589  1.00  0.00     0.152 C 
HETATM   29  C21 UNL     1      -8.874  -4.471 -13.793  1.00  0.00     0.152 C 
ENDBRANCH  24  25
ENDBRANCH  20  24
ENDBRANCH  16  18
ENDBRANCH  13  14
ENDBRANCH   9  13
BRANCH  10  30
HETATM   30  N8  UNL     1       0.849  -6.774 -17.130  1.00  0.00    -0.225 N 
ATOM     31  H8  UNL     1       0.770  -6.412 -18.081  1.00  0.00     0.177 HD
BRANCH  30  32
HETATM   32  C24 UNL     1       0.878  -8.209 -16.938  1.00  0.00     0.142 C 
BRANCH  32  33
HETATM   33  C25 UNL     1       0.023  -8.957 -17.926  1.00  0.00    -0.004 C 
HETATM   34  C26 UNL     1      -0.623  -8.000 -18.922  1.00  0.00     0.011 C 
HETATM   35  C27 UNL     1      -1.115  -9.607 -17.167  1.00  0.00     0.011 C 
ENDBRANCH  32  33
ENDBRANCH  30  32
ENDBRANCH  10  30
BRANCH   7  36
HETATM   36  C6  UNL     1      -0.848  -0.790 -14.171  1.00  0.00     0.120 A 
HETATM   37  C7  UNL     1       0.303  -0.019 -14.211  1.00  0.00     0.064 A 
HETATM   38  C8  UNL     1      -0.064   1.261 -14.547  1.00  0.00     0.036 A 
HETATM   39  N2  UNL     1      -1.406   1.250 -14.706  1.00  0.00    -0.302 N 
HETATM   40  N3  UNL     1      -1.857   0.033 -14.483  1.00  0.00    -0.291 N 
ATOM     41  H2  UNL     1      -1.978   2.056 -14.959  1.00  0.00     0.186 HD
HETATM   42  C13 UNL     1      -3.248  -0.408 -14.546  1.00  0.00     0.178 C 
BRANCH  38  43
HETATM   43  C9  UNL     1       0.853   2.427 -14.707  1.00  0.00    -0.007 C 
HETATM   44  C10 UNL     1       0.038   3.600 -15.188  1.00  0.00     0.021 C 
HETATM   45  C11 UNL     1       1.983   2.156 -15.666  1.00  0.00     0.021 C 
HETATM   46  C12 UNL     1       1.418   2.771 -13.329  1.00  0.00     0.021 C 
ENDBRANCH  38  43
ENDBRANCH   7  36
TORSDOF 10
ENDMDL
MODEL 4
REMARK VINA RESULT: -8.587950742      3.347      8.299
REMARK  10 active torsions:
REMARK  status: ('A' for Active; 'I' for Inactive)
REMARK       I    between atoms: N1_5  and  C5_7 
REMARK    1  A    between atoms: C5_7  and  C6_9 
REMARK    2  A    between atoms: C8_11  and  C9_12 
REMARK    3  A    between atoms: N4_20  and  C14_21 
REMARK    4  A    between atoms: C14_21  and  C15_22 
REMARK       I    between atoms: C15_22  and  N5_24 
REMARK    5  A    between atoms: N5_24  and  C16_26 
REMARK    6  A    between atoms: C17_29  and  C18_30 
REMARK    7  A    between atoms: C18_30  and  C19_31 
REMARK       I    between atoms: C19_31  and  N7_33 
REMARK    8  A    between atoms: C23_38  and  N8_39 
REMARK    9  A    between atoms: N8_39  and  C24_41 
REMARK   10  A    between atoms: C24_41  and  C25_42 
ROOT
HETATM    1  C1  UNL     1      -7.499  -3.260  -5.902  1.00  0.00     0.069 C 
HETATM    2  C2  UNL     1      -7.500  -2.128  -6.883  1.00  0.00     0.026 A 
HETATM    3  C3  UNL     1      -7.076  -2.340  -8.183  1.00  0.00     0.074 A 
HETATM    4  C4  UNL     1      -7.111  -1.291  -9.061  1.00  0.00     0.128 A 
HETATM    5  N1  UNL     1      -6.711  -1.468 -10.269  1.00  0.00    -0.307 N 
ATOM      6  H1  UNL     1      -6.753  -0.665 -10.897  1.00  0.00     0.170 HD
HETATM    7  C5  UNL     1      -6.217  -2.677 -10.800  1.00  0.00     0.275 C 
HETATM    8  O1  UNL     1      -5.192  -3.191 -10.306  1.00  0.00    -0.266 OA
HETATM    9  N4  UNL     1      -7.558  -0.055  -8.653  1.00  0.00    -0.160 N 
HETATM   10  C23 UNL     1      -7.963   0.140  -7.393  1.00  0.00     0.682 A 
HETATM   11  N9  UNL     1      -7.919  -0.918  -6.545  1.00  0.00    -0.196 N 
ATOM     12  H9  UNL     1      -8.229  -0.771  -5.585  1.00  0.00     0.184 HD
ENDROOT
BRANCH   9  13
HETATM   13  C14 UNL     1      -7.593   0.943  -9.667  1.00  0.00     0.252 C 
BRANCH  13  14
HETATM   14  C15 UNL     1      -6.322   1.674  -9.914  1.00  0.00     0.242 C 
HETATM   15  O2  UNL     1      -5.974   2.568  -9.122  1.00  0.00    -0.271 OA
HETATM   16  N5  UNL     1      -5.591   1.311 -11.022  1.00  0.00    -0.306 N 
ATOM     17  H5  UNL     1      -5.998   0.568 -11.590  1.00  0.00     0.171 HD
BRANCH  16  18
HETATM   18  C16 UNL     1      -4.470   1.774 -11.442  1.00  0.00     0.151 A 
HETATM   19  N6  UNL     1      -3.675   2.740 -10.991  1.00  0.00    -0.339 N 
HETATM   20  C17 UNL     1      -2.538   2.988 -11.602  1.00  0.00     0.026 A 
ATOM     21  H6  UNL     1      -3.947   3.287 -10.174  1.00  0.00     0.168 HD
HETATM   22  C22 UNL     1      -2.236   2.218 -12.697  1.00  0.00     0.078 A 
HETATM   23  S1  UNL     1      -3.565   1.184 -12.807  1.00  0.00    -0.064 SA
BRANCH  20  24
HETATM   24  C18 UNL     1      -1.564   4.087 -11.167  1.00  0.00     0.160 C 
BRANCH  24  25
HETATM   25  C19 UNL     1      -2.240   4.959 -10.155  1.00  0.00     0.224 C 
HETATM   26  O3  UNL     1      -3.265   5.605 -10.519  1.00  0.00    -0.273 OA
HETATM   27  N7  UNL     1      -1.724   5.031  -8.847  1.00  0.00    -0.361 N 
HETATM   28  C20 UNL     1      -0.585   4.257  -8.477  1.00  0.00     0.152 C 
HETATM   29  C21 UNL     1      -2.362   5.906  -7.896  1.00  0.00     0.152 C 
ENDBRANCH  24  25
ENDBRANCH  20  24
ENDBRANCH  16  18
ENDBRANCH  13  14
ENDBRANCH   9  13
BRANCH  10  30
HETATM   30  N8  UNL     1      -8.356   1.306  -7.021  1.00  0.00    -0.225 N 
ATOM     31  H8  UNL     1      -8.067   2.116  -7.571  1.00  0.00     0.177 HD
BRANCH  30  32
HETATM   32  C24 UNL     1      -9.190   1.524  -5.857  1.00  0.00     0.142 C 
BRANCH  32  33
HETATM   33  C25 UNL     1     -10.337   2.465  -6.118  1.00  0.00    -0.004 C 
HETATM   34  C26 UNL     1     -10.008   3.423  -7.258  1.00  0.00     0.011 C 
HETATM   35  C27 UNL     1     -10.529   3.327  -4.888  1.00  0.00     0.011 C 
ENDBRANCH  32  33
ENDBRANCH  30  32
ENDBRANCH  10  30
BRANCH   7  36
HETATM   36  C6  UNL     1      -6.914  -3.313 -11.922  1.00  0.00     0.120 A 
HETATM   37  C7  UNL     1      -7.148  -4.669 -12.085  1.00  0.00     0.064 A 
HETATM   38  C8  UNL     1      -7.820  -4.837 -13.270  1.00  0.00     0.036 A 
HETATM   39  N2  UNL     1      -7.983  -3.605 -13.801  1.00  0.00    -0.302 N 
HETATM   40  N3  UNL     1      -7.446  -2.713 -12.996  1.00  0.00    -0.291 N 
ATOM     41  H2  UNL     1      -8.449  -3.399 -14.685  1.00  0.00     0.186 HD
HETATM   42  C13 UNL     1      -7.402  -1.267 -13.197  1.00  0.00     0.178 C 
BRANCH  38  43
HETATM   43  C9  UNL     1      -8.278  -6.134 -13.847  1.00  0.00    -0.007 C 
HETATM   44  C10 UNL     1      -8.938  -6.928 -12.748  1.00  0.00     0.021 C 
HETATM   45  C11 UNL     1      -7.154  -6.934 -14.455  1.00  0.00     0.021 C 
HETATM   46  C12 UNL     1      -9.329  -5.828 -14.914  1.00  0.00     0.021 C 
ENDBRANCH  38  43
ENDBRANCH   7  36
TORSDOF 10
ENDMDL
MODEL 5
REMARK VINA RESULT: -8.578254211      3.066      7.441
REMARK  10 active torsions:
REMARK  status: ('A' for Active; 'I' for Inactive)
REMARK       I    between atoms: N1_5  and  C5_7 
REMARK    1  A    between atoms: C5_7  and  C6_9 
REMARK    2  A    between atoms: C8_11  and  C9_12 
REMARK    3  A    between atoms: N4_20  and  C14_21 
REMARK    4  A    between atoms: C14_21  and  C15_22 
REMARK       I    between atoms: C15_22  and  N5_24 
REMARK    5  A    between atoms: N5_24  and  C16_26 
REMARK    6  A    between atoms: C17_29  and  C18_30 
REMARK    7  A    between atoms: C18_30  and  C19_31 
REMARK       I    between atoms: C19_31  and  N7_33 
REMARK    8  A    between atoms: C23_38  and  N8_39 
REMARK    9  A    between atoms: N8_39  and  C24_41 
REMARK   10  A    between atoms: C24_41  and  C25_42 
ROOT
HETATM    1  C1  UNL     1      -7.236  -2.247  -7.356  1.00  0.00     0.069 C 
HETATM    2  C2  UNL     1      -7.004  -1.808  -8.769  1.00  0.00     0.026 A 
HETATM    3  C3  UNL     1      -6.866  -0.462  -9.060  1.00  0.00     0.074 A 
HETATM    4  C4  UNL     1      -6.632  -0.096 -10.358  1.00  0.00     0.128 A 
HETATM    5  N1  UNL     1      -6.512   1.151 -10.647  1.00  0.00    -0.307 N 
ATOM      6  H1  UNL     1      -6.335   1.389 -11.623  1.00  0.00     0.170 HD
HETATM    7  C5  UNL     1      -6.605   2.218  -9.731  1.00  0.00     0.275 C 
HETATM    8  O1  UNL     1      -7.666   2.391  -9.095  1.00  0.00    -0.266 OA
HETATM    9  N4  UNL     1      -6.538  -1.048 -11.346  1.00  0.00    -0.160 N 
HETATM   10  C23 UNL     1      -6.676  -2.347 -11.054  1.00  0.00     0.682 A 
HETATM   11  N9  UNL     1      -6.905  -2.681  -9.760  1.00  0.00    -0.196 N 
ATOM     12  H9  UNL     1      -7.008  -3.671  -9.535  1.00  0.00     0.184 HD
ENDROOT
BRANCH   9  13
HETATM   13  C14 UNL     1      -6.245  -0.548 -12.646  1.00  0.00     0.252 C 
BRANCH  13  14
HETATM   14  C15 UNL     1      -4.813  -0.271 -12.935  1.00  0.00     0.242 C 
HETATM   15  O2  UNL     1      -4.365   0.872 -12.737  1.00  0.00    -0.271 OA
HETATM   16  N5  UNL     1      -4.054  -1.315 -13.413  1.00  0.00    -0.306 N 
ATOM     17  H5  UNL     1      -4.551  -2.196 -13.538  1.00  0.00     0.171 HD
BRANCH  16  18
HETATM   18  C16 UNL     1      -2.809  -1.336 -13.725  1.00  0.00     0.151 A 
HETATM   19  N6  UNL     1      -1.890  -0.378 -13.807  1.00  0.00    -0.339 N 
HETATM   20  C17 UNL     1      -0.650  -0.688 -14.116  1.00  0.00     0.026 A 
ATOM     21  H6  UNL     1      -2.146   0.594 -13.631  1.00  0.00     0.168 HD
HETATM   22  C22 UNL     1      -0.375  -2.012 -14.344  1.00  0.00     0.078 A 
HETATM   23  S1  UNL     1      -1.873  -2.753 -14.108  1.00  0.00    -0.064 SA
BRANCH  20  24
HETATM   24  C18 UNL     1       0.473   0.345 -14.249  1.00  0.00     0.160 C 
BRANCH  24  25
HETATM   25  C19 UNL     1      -0.082   1.586 -14.877  1.00  0.00     0.224 C 
HETATM   26  O3  UNL     1      -0.606   1.486 -16.024  1.00  0.00    -0.273 OA
HETATM   27  N7  UNL     1      -0.008   2.808 -14.180  1.00  0.00    -0.361 N 
HETATM   28  C20 UNL     1       0.563   2.860 -12.875  1.00  0.00     0.152 C 
HETATM   29  C21 UNL     1      -0.510   4.000 -14.815  1.00  0.00     0.152 C 
ENDBRANCH  24  25
ENDBRANCH  20  24
ENDBRANCH  16  18
ENDBRANCH  13  14
ENDBRANCH   9  13
BRANCH  10  30
HETATM   30  N8  UNL     1      -6.609  -3.224 -11.991  1.00  0.00    -0.225 N 
ATOM     31  H8  UNL     1      -5.701  -3.635 -12.209  1.00  0.00     0.177 HD
BRANCH  30  32
HETATM   32  C24 UNL     1      -7.763  -3.655 -12.753  1.00  0.00     0.142 C 
BRANCH  32  33
HETATM   33  C25 UNL     1      -8.667  -4.583 -11.985  1.00  0.00    -0.004 C 
HETATM   34  C26 UNL     1      -8.551  -6.012 -12.505  1.00  0.00     0.011 C 
HETATM   35  C27 UNL     1     -10.099  -4.160 -12.234  1.00  0.00     0.011 C 
ENDBRANCH  32  33
ENDBRANCH  30  32
ENDBRANCH  10  30
BRANCH   7  36
HETATM   36  C6  UNL     1      -5.456   3.107  -9.536  1.00  0.00     0.120 A 
HETATM   37  C7  UNL     1      -4.173   2.729  -9.173  1.00  0.00     0.064 A 
HETATM   38  C8  UNL     1      -3.410   3.867  -9.091  1.00  0.00     0.036 A 
HETATM   39  N2  UNL     1      -4.222   4.901  -9.401  1.00  0.00    -0.302 N 
HETATM   40  N3  UNL     1      -5.428   4.440  -9.662  1.00  0.00    -0.291 N 
ATOM     41  H2  UNL     1      -3.946   5.883  -9.427  1.00  0.00     0.186 HD
HETATM   42  C13 UNL     1      -6.601   5.225 -10.036  1.00  0.00     0.178 C 
BRANCH  38  43
HETATM   43  C9  UNL     1      -1.963   3.934  -8.733  1.00  0.00    -0.007 C 
HETATM   44  C10 UNL     1      -1.463   2.524  -8.539  1.00  0.00     0.021 C 
HETATM   45  C11 UNL     1      -1.704   4.747  -7.490  1.00  0.00     0.021 C 
HETATM   46  C12 UNL     1      -1.215   4.547  -9.915  1.00  0.00     0.021 C 
ENDBRANCH  38  43
ENDBRANCH   7  36
TORSDOF 10
ENDMDL
