MODEL 1
REMARK VINA RESULT: -7.769250810      0.000      0.000
REMARK  8 active torsions:
REMARK  status: ('A' for Active; 'I' for Inactive)
REMARK    1  A    between atoms: O1_2  and  C2_3 
REMARK    2  A    between atoms: C2_3  and  C3_4 
REMARK    3  A    between atoms: C4_5  and  C5_6 
REMARK       I    between atoms: C5_6  and  N1_8 
REMARK    4  A    between atoms: C7_10  and  O3_11 
REMARK    5  A    between atoms: C9_14  and  C10_15 
REMARK       I    between atoms: C10_15  and  N2_17 
REMARK    6  A    between atoms: C20_29  and  C21_30 
REMARK       I    between atoms: C21_30  and  N4_32 
REMARK    7  A    between atoms: C22_34  and  C23_35 
REMARK    8  A    between atoms: C25_38  and  C26_39 
ROOT
HETATM    1  C10 UNL     1      -4.778  -2.009 -13.111  1.00  0.00     0.226 C 
HETATM    2  O4  UNL     1      -5.430  -0.922 -13.222  1.00  0.00    -0.273 OA
HETATM    3  N2  UNL     1      -3.536  -2.113 -13.744  1.00  0.00    -0.332 N 
HETATM    4  C11 UNL     1      -2.921  -1.016 -14.515  1.00  0.00     0.179 C 
HETATM    5  C12 UNL     1      -1.526  -1.111 -13.921  1.00  0.00     0.007 C 
HETATM    6  N3  UNL     1      -0.516  -0.622 -13.379  1.00  0.00    -0.385 N 
ATOM      7  H3  UNL     1      -0.445   0.370 -13.152  1.00  0.00     0.160 HD
HETATM    8  C13 UNL     1       0.527  -1.542 -13.102  1.00  0.00     0.030 C 
HETATM    9  C14 UNL     1       1.156  -1.211 -11.779  1.00  0.00     0.031 C 
HETATM   10  C15 UNL     1       2.033  -0.032 -12.152  1.00  0.00     0.002 C 
HETATM   11  C16 UNL     1       2.466  -0.301 -13.561  1.00  0.00     0.002 C 
HETATM   12  C17 UNL     1       1.674  -1.494 -14.049  1.00  0.00     0.031 C 
HETATM   13  C18 UNL     1      -0.178  -2.892 -13.087  1.00  0.00     0.044 C 
HETATM   14  C19 UNL     1      -1.253  -2.593 -14.120  1.00  0.00     0.067 C 
HETATM   15  C20 UNL     1      -2.582  -3.204 -13.839  1.00  0.00     0.189 C 
ENDROOT
BRANCH   1  16
HETATM   16  C9  UNL     1      -5.446  -3.053 -12.293  1.00  0.00     0.098 C 
HETATM   17  C8  UNL     1      -5.567  -2.574 -10.896  1.00  0.00     0.049 C 
HETATM   18  C7  UNL     1      -6.980  -2.285 -10.440  1.00  0.00     0.137 C 
HETATM   19  C6  UNL     1      -7.765  -3.570 -10.649  1.00  0.00     0.157 C 
HETATM   20  N1  UNL     1      -7.786  -3.790 -12.061  1.00  0.00    -0.345 N 
HETATM   21  C5  UNL     1      -9.018  -4.281 -12.661  1.00  0.00     0.243 C 
HETATM   22  C28 UNL     1      -6.690  -3.565 -12.942  1.00  0.00     0.140 C 
HETATM   23  O2  UNL     1      -9.962  -4.463 -11.848  1.00  0.00    -0.268 OA
BRANCH  18  24
HETATM   24  O3  UNL     1      -6.943  -1.980  -9.100  1.00  0.00    -0.394 OA
ATOM     25  H3  UNL     1      -6.048  -1.795  -8.839  1.00  0.00     0.210 HD
ENDBRANCH  18  24
BRANCH  21  26
HETATM   26  C4  UNL     1      -9.119  -4.527 -14.062  1.00  0.00     0.072 C 
HETATM   27  C3  UNL     1      -9.051  -5.636 -14.678  1.00  0.00     0.005 C 
BRANCH  27  28
HETATM   28  C2  UNL     1      -8.852  -6.972 -14.145  1.00  0.00     0.194 C 
BRANCH  28  29
HETATM   29  O1  UNL     1      -7.524  -7.154 -13.720  1.00  0.00    -0.392 OA
HETATM   30  C1  UNL     1      -6.731  -7.532 -14.820  1.00  0.00     0.201 C 
ENDBRANCH  28  29
ENDBRANCH  27  28
ENDBRANCH  21  26
ENDBRANCH   1  16
BRANCH  15  31
HETATM   31  C21 UNL     1      -3.034  -4.174 -14.895  1.00  0.00     0.245 C 
HETATM   32  O5  UNL     1      -3.918  -5.009 -14.484  1.00  0.00    -0.271 OA
HETATM   33  N4  UNL     1      -2.594  -4.214 -16.172  1.00  0.00    -0.335 N 
HETATM   34  C22 UNL     1      -1.902  -4.778 -17.001  1.00  0.00     0.103 C 
ATOM     35  H4  UNL     1      -3.035  -3.429 -16.652  1.00  0.00     0.168 HD
BRANCH  34  36
HETATM   36  C23 UNL     1      -1.043  -5.983 -16.826  1.00  0.00    -0.013 A 
HETATM   37  C24 UNL     1       0.233  -5.849 -16.365  1.00  0.00     0.063 A 
HETATM   38  S1  UNL     1       0.808  -7.453 -16.331  1.00  0.00    -0.096 SA
HETATM   39  C25 UNL     1      -0.584  -8.255 -16.900  1.00  0.00     0.070 A 
HETATM   40  C27 UNL     1      -1.467  -7.228 -17.103  1.00  0.00     0.037 A 
BRANCH  39  41
HETATM   41  C26 UNL     1      -0.793  -9.688 -17.122  1.00  0.00     0.271 C 
HETATM   42  N5  UNL     1       0.207 -10.416 -17.789  1.00  0.00    -0.057 NA
HETATM   43  O6  UNL     1      -1.831 -10.218 -16.725  1.00  0.00    -0.270 OA
ENDBRANCH  39  41
ENDBRANCH  34  36
ENDBRANCH  15  31
TORSDOF 8
ENDMDL
MODEL 2
REMARK VINA RESULT: -7.466144365      3.258      4.708
REMARK  8 active torsions:
REMARK  status: ('A' for Active; 'I' for Inactive)
REMARK    1  A    between atoms: O1_2  and  C2_3 
REMARK    2  A    between atoms: C2_3  and  C3_4 
REMARK    3  A    between atoms: C4_5  and  C5_6 
REMARK       I    between atoms: C5_6  and  N1_8 
REMARK    4  A    between atoms: C7_10  and  O3_11 
REMARK    5  A    between atoms: C9_14  and  C10_15 
REMARK       I    between atoms: C10_15  and  N2_17 
REMARK    6  A    between atoms: C20_29  and  C21_30 
REMARK       I    between atoms: C21_30  and  N4_32 
REMARK    7  A    between atoms: C22_34  and  C23_35 
REMARK    8  A    between atoms: C25_38  and  C26_39 
ROOT
HETATM    1  C10 UNL     1      -3.225  -1.568 -13.683  1.00  0.00     0.226 C 
HETATM    2  O4  UNL     1      -3.728  -1.730 -14.840  1.00  0.00    -0.273 OA
HETATM    3  N2  UNL     1      -1.984  -0.933 -13.574  1.00  0.00    -0.332 N 
HETATM    4  C11 UNL     1      -1.232  -0.411 -14.731  1.00  0.00     0.179 C 
HETATM    5  C12 UNL     1      -0.876   0.944 -14.144  1.00  0.00     0.007 C 
HETATM    6  N3  UNL     1      -0.816   2.188 -14.184  1.00  0.00    -0.385 N 
ATOM      7  H3  UNL     1      -1.149   2.725 -14.984  1.00  0.00     0.160 HD
HETATM    8  C13 UNL     1      -0.251   2.803 -13.037  1.00  0.00     0.030 C 
HETATM    9  C14 UNL     1      -0.999   4.066 -12.719  1.00  0.00     0.031 C 
HETATM   10  C15 UNL     1      -0.426   5.019 -13.750  1.00  0.00     0.002 C 
HETATM   11  C16 UNL     1       0.993   4.576 -13.942  1.00  0.00     0.002 C 
HETATM   12  C17 UNL     1       1.154   3.267 -13.201  1.00  0.00     0.031 C 
HETATM   13  C18 UNL     1      -0.407   1.749 -11.949  1.00  0.00     0.044 C 
HETATM   14  C19 UNL     1      -0.271   0.509 -12.820  1.00  0.00     0.067 C 
HETATM   15  C20 UNL     1      -1.143  -0.633 -12.428  1.00  0.00     0.189 C 
ENDROOT
BRANCH   1  16
HETATM   16  C9  UNL     1      -4.055  -2.088 -12.566  1.00  0.00     0.098 C 
HETATM   17  C8  UNL     1      -5.013  -1.040 -12.142  1.00  0.00     0.049 C 
HETATM   18  C7  UNL     1      -6.463  -1.338 -12.450  1.00  0.00     0.137 C 
HETATM   19  C6  UNL     1      -6.774  -2.668 -11.783  1.00  0.00     0.157 C 
HETATM   20  N1  UNL     1      -5.967  -3.639 -12.452  1.00  0.00    -0.345 N 
HETATM   21  C5  UNL     1      -6.553  -4.940 -12.738  1.00  0.00     0.243 C 
HETATM   22  C28 UNL     1      -4.620  -3.438 -12.868  1.00  0.00     0.140 C 
HETATM   23  O2  UNL     1      -7.745  -5.075 -12.356  1.00  0.00    -0.268 OA
BRANCH  18  24
HETATM   24  O3  UNL     1      -7.232  -0.348 -11.885  1.00  0.00    -0.394 OA
ATOM     25  H3  UNL     1      -7.794  -0.722 -11.216  1.00  0.00     0.210 HD
ENDBRANCH  18  24
BRANCH  21  26
HETATM   26  C4  UNL     1      -5.811  -5.963 -13.399  1.00  0.00     0.072 C 
HETATM   27  C3  UNL     1      -6.231  -6.855 -14.200  1.00  0.00     0.005 C 
BRANCH  27  28
HETATM   28  C2  UNL     1      -7.581  -7.100 -14.676  1.00  0.00     0.194 C 
BRANCH  28  29
HETATM   29  O1  UNL     1      -7.567  -7.806 -15.893  1.00  0.00    -0.392 OA
HETATM   30  C1  UNL     1      -6.435  -8.642 -15.933  1.00  0.00     0.201 C 
ENDBRANCH  28  29
ENDBRANCH  27  28
ENDBRANCH  21  26
ENDBRANCH   1  16
BRANCH  15  31
HETATM   31  C21 UNL     1      -0.379  -1.866 -12.032  1.00  0.00     0.245 C 
HETATM   32  O5  UNL     1       0.257  -1.743 -10.924  1.00  0.00    -0.271 OA
HETATM   33  N4  UNL     1      -0.330  -3.024 -12.727  1.00  0.00    -0.335 N 
HETATM   34  C22 UNL     1       0.318  -3.756 -13.455  1.00  0.00     0.103 C 
ATOM     35  H4  UNL     1      -1.227  -3.487 -12.579  1.00  0.00     0.168 HD
BRANCH  34  36
HETATM   36  C23 UNL     1       1.698  -3.555 -13.981  1.00  0.00    -0.013 A 
HETATM   37  C24 UNL     1       2.608  -4.567 -13.910  1.00  0.00     0.063 A 
HETATM   38  S1  UNL     1       4.003  -3.890 -14.617  1.00  0.00    -0.096 SA
HETATM   39  C25 UNL     1       3.398  -2.340 -14.986  1.00  0.00     0.070 A 
HETATM   40  C27 UNL     1       2.106  -2.402 -14.538  1.00  0.00     0.037 A 
BRANCH  39  41
HETATM   41  C26 UNL     1       4.085  -1.213 -15.624  1.00  0.00     0.271 C 
HETATM   42  N5  UNL     1       5.400  -1.402 -16.081  1.00  0.00    -0.057 NA
HETATM   43  O6  UNL     1       3.500  -0.137 -15.743  1.00  0.00    -0.270 OA
ENDBRANCH  39  41
ENDBRANCH  34  36
ENDBRANCH  15  31
TORSDOF 8
ENDMDL
MODEL 3
REMARK VINA RESULT: -7.465025174      3.072      4.055
REMARK  8 active torsions:
REMARK  status: ('A' for Active; 'I' for Inactive)
REMARK    1  A    between atoms: O1_2  and  C2_3 
REMARK    2  A    between atoms: C2_3  and  C3_4 
REMARK    3  A    between atoms: C4_5  and  C5_6 
REMARK       I    between atoms: C5_6  and  N1_8 
REMARK    4  A    between atoms: C7_10  and  O3_11 
REMARK    5  A    between atoms: C9_14  and  C10_15 
REMARK       I    between atoms: C10_15  and  N2_17 
REMARK    6  A    between atoms: C20_29  and  C21_30 
REMARK       I    between atoms: C21_30  and  N4_32 
REMARK    7  A    between atoms: C22_34  and  C23_35 
REMARK    8  A    between atoms: C25_38  and  C26_39 
ROOT
HETATM    1  C10 UNL     1      -3.063  -1.146 -13.796  1.00  0.00     0.226 C 
HETATM    2  O4  UNL     1      -3.629  -1.224 -14.932  1.00  0.00    -0.273 OA
HETATM    3  N2  UNL     1      -1.847  -0.460 -13.698  1.00  0.00    -0.332 N 
HETATM    4  C11 UNL     1      -1.196   0.207 -14.841  1.00  0.00     0.179 C 
HETATM    5  C12 UNL     1      -0.866   1.517 -14.146  1.00  0.00     0.007 C 
HETATM    6  N3  UNL     1      -0.866   2.761 -14.068  1.00  0.00    -0.385 N 
ATOM      7  H3  UNL     1      -1.274   3.353 -14.790  1.00  0.00     0.160 HD
HETATM    8  C13 UNL     1      -0.259   3.293 -12.901  1.00  0.00     0.030 C 
HETATM    9  C14 UNL     1      -1.042   4.480 -12.418  1.00  0.00     0.031 C 
HETATM   10  C15 UNL     1      -0.581   5.554 -13.383  1.00  0.00     0.002 C 
HETATM   11  C16 UNL     1       0.841   5.206 -13.700  1.00  0.00     0.002 C 
HETATM   12  C17 UNL     1       1.110   3.843 -13.102  1.00  0.00     0.031 C 
HETATM   13  C18 UNL     1      -0.296   2.133 -11.915  1.00  0.00     0.044 C 
HETATM   14  C19 UNL     1      -0.159   0.991 -12.909  1.00  0.00     0.067 C 
HETATM   15  C20 UNL     1      -0.951  -0.227 -12.581  1.00  0.00     0.189 C 
ENDROOT
BRANCH   1  16
HETATM   16  C9  UNL     1      -3.795  -1.813 -12.689  1.00  0.00     0.098 C 
HETATM   17  C8  UNL     1      -4.865  -0.911 -12.200  1.00  0.00     0.049 C 
HETATM   18  C7  UNL     1      -6.274  -1.373 -12.494  1.00  0.00     0.137 C 
HETATM   19  C6  UNL     1      -6.403  -2.759 -11.883  1.00  0.00     0.157 C 
HETATM   20  N1  UNL     1      -5.498  -3.592 -12.610  1.00  0.00    -0.345 N 
HETATM   21  C5  UNL     1      -5.926  -4.943 -12.943  1.00  0.00     0.243 C 
HETATM   22  C28 UNL     1      -4.196  -3.208 -13.041  1.00  0.00     0.140 C 
HETATM   23  O2  UNL     1      -7.082  -5.241 -12.546  1.00  0.00    -0.268 OA
BRANCH  18  24
HETATM   24  O3  UNL     1      -7.145  -0.511 -11.872  1.00  0.00    -0.394 OA
ATOM     25  H3  UNL     1      -7.158  -0.689 -10.938  1.00  0.00     0.210 HD
ENDBRANCH  18  24
BRANCH  21  26
HETATM   26  C4  UNL     1      -5.079  -5.836 -13.664  1.00  0.00     0.072 C 
HETATM   27  C3  UNL     1      -5.398  -6.882 -14.311  1.00  0.00     0.005 C 
BRANCH  27  28
HETATM   28  C2  UNL     1      -6.709  -7.477 -14.507  1.00  0.00     0.194 C 
BRANCH  28  29
HETATM   29  O1  UNL     1      -6.898  -7.848 -15.851  1.00  0.00    -0.392 OA
HETATM   30  C1  UNL     1      -5.803  -8.621 -16.280  1.00  0.00     0.201 C 
ENDBRANCH  28  29
ENDBRANCH  27  28
ENDBRANCH  21  26
ENDBRANCH   1  16
BRANCH  15  31
HETATM   31  C21 UNL     1      -0.107  -1.451 -12.352  1.00  0.00     0.245 C 
HETATM   32  O5  UNL     1       1.033  -1.198 -11.819  1.00  0.00    -0.271 OA
HETATM   33  N4  UNL     1      -0.458  -2.721 -12.652  1.00  0.00    -0.335 N 
HETATM   34  C22 UNL     1      -0.321  -3.673 -13.401  1.00  0.00     0.103 C 
ATOM     35  H4  UNL     1      -1.132  -3.008 -11.943  1.00  0.00     0.168 HD
BRANCH  34  36
HETATM   36  C23 UNL     1       0.548  -3.787 -14.606  1.00  0.00    -0.013 A 
HETATM   37  C24 UNL     1       1.889  -3.562 -14.503  1.00  0.00     0.063 A 
HETATM   38  S1  UNL     1       2.450  -3.802 -16.094  1.00  0.00    -0.096 SA
HETATM   39  C25 UNL     1       0.971  -4.182 -16.851  1.00  0.00     0.070 A 
HETATM   40  C27 UNL     1       0.072  -4.108 -15.821  1.00  0.00     0.037 A 
BRANCH  39  41
HETATM   41  C26 UNL     1       0.715  -4.508 -18.257  1.00  0.00     0.271 C 
HETATM   42  N5  UNL     1      -0.616  -4.676 -18.674  1.00  0.00    -0.057 NA
HETATM   43  O6  UNL     1       1.662  -4.627 -19.033  1.00  0.00    -0.270 OA
ENDBRANCH  39  41
ENDBRANCH  34  36
ENDBRANCH  15  31
TORSDOF 8
ENDMDL
MODEL 4
REMARK VINA RESULT: -7.447874091      4.847     10.791
REMARK  8 active torsions:
REMARK  status: ('A' for Active; 'I' for Inactive)
REMARK    1  A    between atoms: O1_2  and  C2_3 
REMARK    2  A    between atoms: C2_3  and  C3_4 
REMARK    3  A    between atoms: C4_5  and  C5_6 
REMARK       I    between atoms: C5_6  and  N1_8 
REMARK    4  A    between atoms: C7_10  and  O3_11 
REMARK    5  A    between atoms: C9_14  and  C10_15 
REMARK       I    between atoms: C10_15  and  N2_17 
REMARK    6  A    between atoms: C20_29  and  C21_30 
REMARK       I    between atoms: C21_30  and  N4_32 
REMARK    7  A    between atoms: C22_34  and  C23_35 
REMARK    8  A    between atoms: C25_38  and  C26_39 
ROOT
HETATM    1  C10 UNL     1       0.068  -5.845 -18.969  1.00  0.00     0.226 C 
HETATM    2  O4  UNL     1      -0.133  -4.692 -19.467  1.00  0.00    -0.273 OA
HETATM    3  N2  UNL     1      -0.576  -6.181 -17.774  1.00  0.00    -0.332 N 
HETATM    4  C11 UNL     1      -1.504  -5.278 -17.069  1.00  0.00     0.179 C 
HETATM    5  C12 UNL     1      -2.606  -6.290 -16.803  1.00  0.00     0.007 C 
HETATM    6  N3  UNL     1      -3.793  -6.669 -16.829  1.00  0.00    -0.385 N 
ATOM      7  H3  UNL     1      -4.543  -6.089 -17.204  1.00  0.00     0.160 HD
HETATM    8  C13 UNL     1      -4.025  -7.965 -16.300  1.00  0.00     0.030 C 
HETATM    9  C14 UNL     1      -5.055  -8.674 -17.132  1.00  0.00     0.031 C 
HETATM   10  C15 UNL     1      -6.335  -8.031 -16.633  1.00  0.00     0.002 C 
HETATM   11  C16 UNL     1      -6.078  -7.725 -15.189  1.00  0.00     0.002 C 
HETATM   12  C17 UNL     1      -4.611  -7.988 -14.932  1.00  0.00     0.031 C 
HETATM   13  C18 UNL     1      -2.659  -8.635 -16.375  1.00  0.00     0.044 C 
HETATM   14  C19 UNL     1      -1.795  -7.402 -16.160  1.00  0.00     0.067 C 
HETATM   15  C20 UNL     1      -0.531  -7.374 -16.948  1.00  0.00     0.189 C 
ENDROOT
BRANCH   1  16
HETATM   16  C9  UNL     1       0.987  -6.709 -19.753  1.00  0.00     0.098 C 
HETATM   17  C8  UNL     1       0.276  -7.217 -20.950  1.00  0.00     0.049 C 
HETATM   18  C7  UNL     1       0.772  -6.668 -22.269  1.00  0.00     0.137 C 
HETATM   19  C6  UNL     1       2.255  -6.992 -22.333  1.00  0.00     0.157 C 
HETATM   20  N1  UNL     1       2.865  -6.245 -21.279  1.00  0.00    -0.345 N 
HETATM   21  C5  UNL     1       4.153  -5.618 -21.538  1.00  0.00     0.243 C 
HETATM   22  C28 UNL     1       2.312  -6.059 -19.980  1.00  0.00     0.140 C 
HETATM   23  O2  UNL     1       4.604  -5.804 -22.698  1.00  0.00    -0.268 OA
BRANCH  18  24
HETATM   24  O3  UNL     1       0.111  -7.323 -23.280  1.00  0.00    -0.394 OA
ATOM     25  H3  UNL     1      -0.813  -7.104 -23.253  1.00  0.00     0.210 HD
ENDBRANCH  18  24
BRANCH  21  26
HETATM   26  C4  UNL     1       4.827  -4.858 -20.537  1.00  0.00     0.072 C 
HETATM   27  C3  UNL     1       4.883  -3.595 -20.404  1.00  0.00     0.005 C 
BRANCH  27  28
HETATM   28  C2  UNL     1       4.283  -2.558 -21.224  1.00  0.00     0.194 C 
BRANCH  28  29
HETATM   29  O1  UNL     1       5.203  -2.067 -22.169  1.00  0.00    -0.392 OA
HETATM   30  C1  UNL     1       5.154  -0.660 -22.178  1.00  0.00     0.201 C 
ENDBRANCH  28  29
ENDBRANCH  27  28
ENDBRANCH  21  26
ENDBRANCH   1  16
BRANCH  15  31
HETATM   31  C21 UNL     1       0.708  -7.348 -16.098  1.00  0.00     0.245 C 
HETATM   32  O5  UNL     1       0.893  -8.425 -15.424  1.00  0.00    -0.271 OA
HETATM   33  N4  UNL     1       1.586  -6.324 -16.010  1.00  0.00    -0.335 N 
HETATM   34  C22 UNL     1       2.010  -5.391 -15.351  1.00  0.00     0.103 C 
ATOM     35  H4  UNL     1       2.132  -6.340 -16.871  1.00  0.00     0.168 HD
BRANCH  34  36
HETATM   36  C23 UNL     1       1.561  -4.924 -14.009  1.00  0.00    -0.013 A 
HETATM   37  C24 UNL     1       1.924  -5.615 -12.891  1.00  0.00     0.063 A 
HETATM   38  S1  UNL     1       1.198  -4.729 -11.630  1.00  0.00    -0.096 SA
HETATM   39  C25 UNL     1       0.451  -3.504 -12.550  1.00  0.00     0.070 A 
HETATM   40  C27 UNL     1       0.798  -3.831 -13.833  1.00  0.00     0.037 A 
BRANCH  39  41
HETATM   41  C26 UNL     1      -0.363  -2.376 -12.090  1.00  0.00     0.271 C 
HETATM   42  N5  UNL     1      -1.614  -2.163 -12.693  1.00  0.00    -0.057 NA
HETATM   43  O6  UNL     1       0.063  -1.646 -11.195  1.00  0.00    -0.270 OA
ENDBRANCH  39  41
ENDBRANCH  34  36
ENDBRANCH  15  31
TORSDOF 8
ENDMDL
MODEL 5
REMARK VINA RESULT: -7.343285474      2.404      3.042
REMARK  8 active torsions:
REMARK  status: ('A' for Active; 'I' for Inactive)
REMARK    1  A    between atoms: O1_2  and  C2_3 
REMARK    2  A    between atoms: C2_3  and  C3_4 
REMARK    3  A    between atoms: C4_5  and  C5_6 
REMARK       I    between atoms: C5_6  and  N1_8 
REMARK    4  A    between atoms: C7_10  and  O3_11 
REMARK    5  A    between atoms: C9_14  and  C10_15 
REMARK       I    between atoms: C10_15  and  N2_17 
REMARK    6  A    between atoms: C20_29  and  C21_30 
REMARK       I    between atoms: C21_30  and  N4_32 
REMARK    7  A    between atoms: C22_34  and  C23_35 
REMARK    8  A    between atoms: C25_38  and  C26_39 
ROOT
HETATM    1  C10 UNL     1      -4.874  -1.572 -13.174  1.00  0.00     0.226 C 
HETATM    2  O4  UNL     1      -5.804  -0.801 -13.572  1.00  0.00    -0.273 OA
HETATM    3  N2  UNL     1      -3.549  -1.231 -13.463  1.00  0.00    -0.332 N 
HETATM    4  C11 UNL     1      -3.164  -0.004 -14.184  1.00  0.00     0.179 C 
HETATM    5  C12 UNL     1      -2.041   0.430 -13.257  1.00  0.00     0.007 C 
HETATM    6  N3  UNL     1      -1.452   1.266 -12.546  1.00  0.00    -0.385 N 
ATOM      7  H3  UNL     1      -1.793   2.220 -12.429  1.00  0.00     0.160 HD
HETATM    8  C13 UNL     1      -0.274   0.796 -11.911  1.00  0.00     0.030 C 
HETATM    9  C14 UNL     1      -0.186   1.363 -10.523  1.00  0.00     0.031 C 
HETATM   10  C15 UNL     1       0.298   2.772 -10.807  1.00  0.00     0.002 C 
HETATM   11  C16 UNL     1       1.165   2.647 -12.022  1.00  0.00     0.002 C 
HETATM   12  C17 UNL     1       0.999   1.237 -12.544  1.00  0.00     0.031 C 
HETATM   13  C18 UNL     1      -0.445  -0.717 -11.908  1.00  0.00     0.044 C 
HETATM   14  C19 UNL     1      -1.231  -0.854 -13.203  1.00  0.00     0.067 C 
HETATM   15  C20 UNL     1      -2.291  -1.901 -13.188  1.00  0.00     0.189 C 
ENDROOT
BRANCH   1  16
HETATM   16  C9  UNL     1      -5.337  -2.769 -12.426  1.00  0.00     0.098 C 
HETATM   17  C8  UNL     1      -5.312  -2.477 -10.973  1.00  0.00     0.049 C 
HETATM   18  C7  UNL     1      -6.670  -2.388 -10.316  1.00  0.00     0.137 C 
HETATM   19  C6  UNL     1      -7.365  -3.710 -10.597  1.00  0.00     0.157 C 
HETATM   20  N1  UNL     1      -7.556  -3.759 -12.012  1.00  0.00    -0.345 N 
HETATM   21  C5  UNL     1      -8.812  -4.294 -12.518  1.00  0.00     0.243 C 
HETATM   22  C28 UNL     1      -6.609  -3.321 -12.982  1.00  0.00     0.140 C 
HETATM   23  O2  UNL     1      -9.620  -4.666 -11.628  1.00  0.00    -0.268 OA
BRANCH  18  24
HETATM   24  O3  UNL     1      -6.481  -2.244  -8.962  1.00  0.00    -0.394 OA
ATOM     25  H3  UNL     1      -6.169  -1.367  -8.774  1.00  0.00     0.210 HD
ENDBRANCH  18  24
BRANCH  21  26
HETATM   26  C4  UNL     1      -9.076  -4.378 -13.917  1.00  0.00     0.072 C 
HETATM   27  C3  UNL     1      -9.101  -5.410 -14.658  1.00  0.00     0.005 C 
BRANCH  27  28
HETATM   28  C2  UNL     1      -8.867  -6.799 -14.306  1.00  0.00     0.194 C 
BRANCH  28  29
HETATM   29  O1  UNL     1      -7.736  -7.305 -14.973  1.00  0.00    -0.392 OA
HETATM   30  C1  UNL     1      -6.605  -7.158 -14.149  1.00  0.00     0.201 C 
ENDBRANCH  28  29
ENDBRANCH  27  28
ENDBRANCH  21  26
ENDBRANCH   1  16
BRANCH  15  31
HETATM   31  C21 UNL     1      -2.073  -2.993 -14.198  1.00  0.00     0.245 C 
HETATM   32  O5  UNL     1      -2.976  -3.905 -14.174  1.00  0.00    -0.271 OA
HETATM   33  N4  UNL     1      -1.049  -3.064 -15.077  1.00  0.00    -0.335 N 
HETATM   34  C22 UNL     1       0.008  -3.589 -15.380  1.00  0.00     0.103 C 
ATOM     35  H4  UNL     1      -1.248  -2.379 -15.806  1.00  0.00     0.168 HD
BRANCH  34  36
HETATM   36  C23 UNL     1       0.753  -4.658 -14.655  1.00  0.00    -0.013 A 
HETATM   37  C24 UNL     1       1.208  -5.750 -15.333  1.00  0.00     0.063 A 
HETATM   38  S1  UNL     1       1.978  -6.669 -14.122  1.00  0.00    -0.096 SA
HETATM   39  C25 UNL     1       1.705  -5.647 -12.786  1.00  0.00     0.070 A 
HETATM   40  C27 UNL     1       1.010  -4.603 -13.337  1.00  0.00     0.037 A 
BRANCH  39  41
HETATM   41  C26 UNL     1       2.109  -5.831 -11.390  1.00  0.00     0.271 C 
HETATM   42  N5  UNL     1       3.201  -6.670 -11.113  1.00  0.00    -0.057 NA
HETATM   43  O6  UNL     1       1.488  -5.252 -10.498  1.00  0.00    -0.270 OA
ENDBRANCH  39  41
ENDBRANCH  34  36
ENDBRANCH  15  31
TORSDOF 8
ENDMDL
