MODEL 1
REMARK VINA RESULT: -6.605416589      0.000      0.000
REMARK  9 active torsions:
REMARK  status: ('A' for Active; 'I' for Inactive)
REMARK    1  A    between atoms: C2_2  and  O2_4 
REMARK    2  A    between atoms: O2_4  and  C3_5 
REMARK       I    between atoms: N1_15  and  C11_16 
REMARK    3  A    between atoms: C11_16  and  C12_18 
REMARK    4  A    between atoms: C12_18  and  N2_19 
REMARK    5  A    between atoms: N2_19  and  C13_22 
REMARK    6  A    between atoms: C13_22  and  C16_25 
REMARK    7  A    between atoms: C21_32  and  C22_33 
REMARK    8  A    between atoms: N4_36  and  C23_37 
REMARK    9  A    between atoms: C23_37  and  C25_39 
ROOT
HETATM    1  C3  UNL     1       3.055   2.569 -15.862  1.00  0.00     0.156 C 
HETATM    2  C4  UNL     1       2.299   1.981 -14.954  1.00  0.00     0.013 C 
HETATM    3  C5  UNL     1       2.871   0.784 -14.210  1.00  0.00     0.162 C 
HETATM    4  S1  UNL     1       1.993   0.649 -12.509  1.00  0.00     0.046 S 
HETATM    5  O3  UNL     1       2.810   0.141 -10.999  1.00  0.00    -0.248 OA
HETATM    6  C6  UNL     1       1.200  -0.986 -12.747  1.00  0.00     0.130 C 
HETATM    7  C7  UNL     1       0.499  -1.415 -13.984  1.00  0.00     0.059 C 
HETATM    8  C8  UNL     1       0.008  -2.801 -13.821  1.00  0.00     0.011 C 
HETATM    9  C9  UNL     1       0.683  -3.675 -12.854  1.00  0.00     0.012 C 
HETATM   10  C10 UNL     1      -1.446  -2.624 -13.319  1.00  0.00     0.137 C 
HETATM   11  N1  UNL     1      -1.845  -1.343 -13.858  1.00  0.00    -0.314 N 
HETATM   12  C11 UNL     1      -3.173  -0.840 -13.786  1.00  0.00     0.250 C 
HETATM   13  O4  UNL     1      -3.434   0.331 -14.281  1.00  0.00    -0.271 OA
HETATM   14  C19 UNL     1      -0.736  -0.769 -14.466  1.00  0.00     0.090 C 
HETATM   15  C20 UNL     1      -0.612   0.706 -14.630  1.00  0.00     0.291 C 
HETATM   16  O5  UNL     1      -1.263   1.264 -15.546  1.00  0.00    -0.264 OA
HETATM   17  N3  UNL     1       0.172   1.624 -13.879  1.00  0.00    -0.202 N 
HETATM   18  C21 UNL     1       0.914   2.509 -14.758  1.00  0.00     0.146 C 
HETATM   19  N4  UNL     1       0.300   1.524 -12.512  1.00  0.00    -0.235 N 
ENDROOT
BRANCH  12  20
HETATM   20  C12 UNL     1      -4.369  -1.469 -13.210  1.00  0.00     0.336 C 
BRANCH  20  21
HETATM   21  N2  UNL     1      -4.589  -1.194 -11.839  1.00  0.00    -0.058 N 
ATOM     22  H22 UNL     1      -4.054  -1.826 -11.244  1.00  0.00     0.278 HD
ATOM     23  H21 UNL     1      -4.158  -0.311 -11.565  1.00  0.00     0.278 HD
BRANCH  21  24
HETATM   24  C13 UNL     1      -6.014  -1.219 -11.493  1.00  0.00     0.122 C 
HETATM   25  C14 UNL     1      -6.874  -1.076 -12.723  1.00  0.00     0.046 C 
HETATM   26  C15 UNL     1      -6.299  -0.062 -10.568  1.00  0.00     0.046 C 
BRANCH  24  27
HETATM   27  C16 UNL     1      -6.350  -2.505 -10.773  1.00  0.00     0.013 C 
HETATM   28  C17 UNL     1      -6.687  -2.280  -9.326  1.00  0.00     0.012 C 
HETATM   29  C18 UNL     1      -7.351  -3.337 -11.508  1.00  0.00     0.012 C 
ENDBRANCH  24  27
ENDBRANCH  21  24
ENDBRANCH  20  21
ENDBRANCH  12  20
BRANCH  18  30
HETATM   30  C22 UNL     1       0.725   3.917 -14.610  1.00  0.00     0.229 C 
HETATM   31  O6  UNL     1      -0.019   4.589 -15.344  1.00  0.00    -0.643 OA
HETATM   32  O7  UNL     1       1.370   4.637 -13.612  1.00  0.00    -0.643 OA
ENDBRANCH  18  30
BRANCH  19  33
HETATM   33  C23 UNL     1      -0.123   2.310 -11.533  1.00  0.00     0.117 C 
HETATM   34  C24 UNL     1      -0.412   1.658 -10.162  1.00  0.00     0.035 C 
BRANCH  33  35
HETATM   35  C25 UNL     1      -1.450   3.021 -11.858  1.00  0.00     0.003 C 
HETATM   36  C26 UNL     1      -1.512   4.365 -11.200  1.00  0.00     0.011 C 
HETATM   37  C27 UNL     1      -2.610   2.178 -11.359  1.00  0.00     0.011 C 
ENDBRANCH  33  35
ENDBRANCH  19  33
BRANCH   1  38
HETATM   38  O2  UNL     1       4.350   2.141 -16.163  1.00  0.00    -0.291 OA
BRANCH  38  39
HETATM   39  C2  UNL     1       4.930   2.650 -17.315  1.00  0.00     0.259 C 
HETATM   40  C1  UNL     1       6.114   1.891 -17.837  1.00  0.00     0.126 C 
HETATM   41  O1  UNL     1       4.504   3.671 -17.891  1.00  0.00    -0.265 OA
ENDBRANCH  38  39
ENDBRANCH   1  38
TORSDOF 9
ENDMDL
MODEL 2
REMARK VINA RESULT: -6.417733268      7.936     10.105
REMARK  9 active torsions:
REMARK  status: ('A' for Active; 'I' for Inactive)
REMARK    1  A    between atoms: C2_2  and  O2_4 
REMARK    2  A    between atoms: O2_4  and  C3_5 
REMARK       I    between atoms: N1_15  and  C11_16 
REMARK    3  A    between atoms: C11_16  and  C12_18 
REMARK    4  A    between atoms: C12_18  and  N2_19 
REMARK    5  A    between atoms: N2_19  and  C13_22 
REMARK    6  A    between atoms: C13_22  and  C16_25 
REMARK    7  A    between atoms: C21_32  and  C22_33 
REMARK    8  A    between atoms: N4_36  and  C23_37 
REMARK    9  A    between atoms: C23_37  and  C25_39 
ROOT
HETATM    1  C3  UNL     1       0.412  -7.502 -23.271  1.00  0.00     0.156 C 
HETATM    2  C4  UNL     1       1.020  -7.297 -22.118  1.00  0.00     0.013 C 
HETATM    3  C5  UNL     1       1.532  -8.508 -21.352  1.00  0.00     0.162 C 
HETATM    4  S1  UNL     1       2.989  -7.949 -20.234  1.00  0.00     0.046 S 
HETATM    5  O3  UNL     1       4.439  -8.946 -19.909  1.00  0.00    -0.248 OA
HETATM    6  C6  UNL     1       2.238  -8.333 -18.606  1.00  0.00     0.130 C 
HETATM    7  C7  UNL     1       0.840  -8.014 -18.223  1.00  0.00     0.059 C 
HETATM    8  C8  UNL     1       0.582  -8.491 -16.846  1.00  0.00     0.011 C 
HETATM    9  C9  UNL     1       1.403  -9.589 -16.320  1.00  0.00     0.012 C 
HETATM   10  C10 UNL     1       0.876  -7.255 -15.963  1.00  0.00     0.137 C 
HETATM   11  N1  UNL     1       0.608  -6.133 -16.835  1.00  0.00    -0.314 N 
HETATM   12  C11 UNL     1       0.589  -4.782 -16.394  1.00  0.00     0.250 C 
HETATM   13  O4  UNL     1       0.358  -3.839 -17.255  1.00  0.00    -0.271 OA
HETATM   14  C19 UNL     1       0.340  -6.632 -18.104  1.00  0.00     0.090 C 
HETATM   15  C20 UNL     1       0.560  -5.811 -19.327  1.00  0.00     0.291 C 
HETATM   16  O5  UNL     1      -0.284  -4.930 -19.618  1.00  0.00    -0.264 OA
HETATM   17  N3  UNL     1       1.626  -5.879 -20.266  1.00  0.00    -0.202 N 
HETATM   18  C21 UNL     1       1.117  -5.889 -21.625  1.00  0.00     0.146 C 
HETATM   19  N4  UNL     1       2.931  -6.079 -19.874  1.00  0.00    -0.235 N 
ENDROOT
BRANCH  12  20
HETATM   20  C12 UNL     1       0.799  -4.248 -15.042  1.00  0.00     0.336 C 
BRANCH  20  21
HETATM   21  N2  UNL     1      -0.364  -4.189 -14.235  1.00  0.00    -0.058 N 
ATOM     22  H22 UNL     1      -1.170  -4.583 -14.719  1.00  0.00     0.278 HD
ATOM     23  H21 UNL     1      -0.307  -4.844 -13.455  1.00  0.00     0.278 HD
BRANCH  21  24
HETATM   24  C13 UNL     1      -0.640  -2.827 -13.766  1.00  0.00     0.122 C 
HETATM   25  C14 UNL     1       0.158  -1.812 -14.545  1.00  0.00     0.046 C 
HETATM   26  C15 UNL     1      -0.247  -2.736 -12.313  1.00  0.00     0.046 C 
BRANCH  24  27
HETATM   27  C16 UNL     1      -2.116  -2.527 -13.886  1.00  0.00     0.013 C 
HETATM   28  C17 UNL     1      -2.384  -1.077 -14.171  1.00  0.00     0.012 C 
HETATM   29  C18 UNL     1      -2.827  -3.469 -14.804  1.00  0.00     0.012 C 
ENDBRANCH  24  27
ENDBRANCH  21  24
ENDBRANCH  20  21
ENDBRANCH  12  20
BRANCH  18  30
HETATM   30  C22 UNL     1       1.570  -4.872 -22.520  1.00  0.00     0.229 C 
HETATM   31  O6  UNL     1       0.920  -3.844 -22.776  1.00  0.00    -0.643 OA
HETATM   32  O7  UNL     1       2.793  -4.969 -23.171  1.00  0.00    -0.643 OA
ENDBRANCH  18  30
BRANCH  19  33
HETATM   33  C23 UNL     1       3.992  -5.287 -19.925  1.00  0.00     0.117 C 
HETATM   34  C24 UNL     1       5.090  -5.487 -18.857  1.00  0.00     0.035 C 
BRANCH  33  35
HETATM   35  C25 UNL     1       3.641  -3.794 -19.777  1.00  0.00     0.003 C 
HETATM   36  C26 UNL     1       4.488  -2.953 -20.681  1.00  0.00     0.011 C 
HETATM   37  C27 UNL     1       3.876  -3.360 -18.341  1.00  0.00     0.011 C 
ENDBRANCH  33  35
ENDBRANCH  19  33
BRANCH   1  38
HETATM   38  O2  UNL     1       0.225  -8.775 -23.815  1.00  0.00    -0.291 OA
BRANCH  38  39
HETATM   39  C2  UNL     1       0.928  -9.075 -24.972  1.00  0.00     0.259 C 
HETATM   40  C1  UNL     1       2.189  -9.865 -24.781  1.00  0.00     0.126 C 
HETATM   41  O1  UNL     1       0.546  -8.719 -26.105  1.00  0.00    -0.265 OA
ENDBRANCH  38  39
ENDBRANCH   1  38
TORSDOF 9
ENDMDL
MODEL 3
REMARK VINA RESULT: -6.313987702      8.065     10.607
REMARK  9 active torsions:
REMARK  status: ('A' for Active; 'I' for Inactive)
REMARK    1  A    between atoms: C2_2  and  O2_4 
REMARK    2  A    between atoms: O2_4  and  C3_5 
REMARK       I    between atoms: N1_15  and  C11_16 
REMARK    3  A    between atoms: C11_16  and  C12_18 
REMARK    4  A    between atoms: C12_18  and  N2_19 
REMARK    5  A    between atoms: N2_19  and  C13_22 
REMARK    6  A    between atoms: C13_22  and  C16_25 
REMARK    7  A    between atoms: C21_32  and  C22_33 
REMARK    8  A    between atoms: N4_36  and  C23_37 
REMARK    9  A    between atoms: C23_37  and  C25_39 
ROOT
HETATM    1  C3  UNL     1       0.433  -7.550 -23.383  1.00  0.00     0.156 C 
HETATM    2  C4  UNL     1       0.984  -7.367 -22.198  1.00  0.00     0.013 C 
HETATM    3  C5  UNL     1       1.409  -8.595 -21.407  1.00  0.00     0.162 C 
HETATM    4  S1  UNL     1       2.824  -8.089 -20.211  1.00  0.00     0.046 S 
HETATM    5  O3  UNL     1       4.217  -9.138 -19.810  1.00  0.00    -0.248 OA
HETATM    6  C6  UNL     1       1.973  -8.444 -18.627  1.00  0.00     0.130 C 
HETATM    7  C7  UNL     1       0.569  -8.074 -18.319  1.00  0.00     0.059 C 
HETATM    8  C8  UNL     1       0.219  -8.540 -16.959  1.00  0.00     0.011 C 
HETATM    9  C9  UNL     1       0.970  -9.667 -16.390  1.00  0.00     0.012 C 
HETATM   10  C10 UNL     1       0.510  -7.315 -16.059  1.00  0.00     0.137 C 
HETATM   11  N1  UNL     1       0.331  -6.185 -16.944  1.00  0.00    -0.314 N 
HETATM   12  C11 UNL     1       0.338  -4.834 -16.503  1.00  0.00     0.250 C 
HETATM   13  O4  UNL     1       0.188  -3.883 -17.374  1.00  0.00    -0.271 OA
HETATM   14  C19 UNL     1       0.114  -6.675 -18.226  1.00  0.00     0.090 C 
HETATM   15  C20 UNL     1       0.430  -5.863 -19.434  1.00  0.00     0.291 C 
HETATM   16  O5  UNL     1      -0.364  -4.952 -19.769  1.00  0.00    -0.264 OA
HETATM   17  N3  UNL     1       1.542  -5.971 -20.315  1.00  0.00    -0.202 N 
HETATM   18  C21 UNL     1       1.106  -5.963 -21.699  1.00  0.00     0.146 C 
HETATM   19  N4  UNL     1       2.815  -6.218 -19.853  1.00  0.00    -0.235 N 
ENDROOT
BRANCH  12  20
HETATM   20  C12 UNL     1       0.494  -4.307 -15.141  1.00  0.00     0.336 C 
BRANCH  20  21
HETATM   21  N2  UNL     1       1.743  -3.695 -14.874  1.00  0.00    -0.058 N 
ATOM     22  H22 UNL     1       2.304  -3.615 -15.723  1.00  0.00     0.278 HD
ATOM     23  H21 UNL     1       1.631  -2.703 -14.661  1.00  0.00     0.278 HD
BRANCH  21  24
HETATM   24  C13 UNL     1       2.481  -4.386 -13.813  1.00  0.00     0.122 C 
HETATM   25  C14 UNL     1       3.333  -3.421 -13.028  1.00  0.00     0.046 C 
HETATM   26  C15 UNL     1       3.380  -5.414 -14.451  1.00  0.00     0.046 C 
BRANCH  24  27
HETATM   27  C16 UNL     1       1.518  -5.095 -12.889  1.00  0.00     0.013 C 
HETATM   28  C17 UNL     1       1.914  -6.523 -12.637  1.00  0.00     0.012 C 
HETATM   29  C18 UNL     1       1.225  -4.317 -11.647  1.00  0.00     0.012 C 
ENDBRANCH  24  27
ENDBRANCH  21  24
ENDBRANCH  20  21
ENDBRANCH  12  20
BRANCH  18  30
HETATM   30  C22 UNL     1       1.644  -4.965 -22.567  1.00  0.00     0.229 C 
HETATM   31  O6  UNL     1       1.061  -3.899 -22.830  1.00  0.00    -0.643 OA
HETATM   32  O7  UNL     1       2.880  -5.124 -23.181  1.00  0.00    -0.643 OA
ENDBRANCH  18  30
BRANCH  19  33
HETATM   33  C23 UNL     1       3.905  -5.466 -19.846  1.00  0.00     0.117 C 
HETATM   34  C24 UNL     1       4.955  -5.730 -18.743  1.00  0.00     0.035 C 
BRANCH  33  35
HETATM   35  C25 UNL     1       3.604  -3.965 -19.675  1.00  0.00     0.003 C 
HETATM   36  C26 UNL     1       4.606  -3.130 -20.413  1.00  0.00     0.011 C 
HETATM   37  C27 UNL     1       3.657  -3.603 -18.202  1.00  0.00     0.011 C 
ENDBRANCH  33  35
ENDBRANCH  19  33
BRANCH   1  38
HETATM   38  O2  UNL     1       0.229  -8.816 -23.937  1.00  0.00    -0.291 OA
BRANCH  38  39
HETATM   39  C2  UNL     1       0.992  -9.148 -25.047  1.00  0.00     0.259 C 
HETATM   40  C1  UNL     1       2.226  -9.955 -24.769  1.00  0.00     0.126 C 
HETATM   41  O1  UNL     1       0.682  -8.807 -26.205  1.00  0.00    -0.265 OA
ENDBRANCH  38  39
ENDBRANCH   1  38
TORSDOF 9
ENDMDL
MODEL 4
REMARK VINA RESULT: -6.273726067      8.496     11.033
REMARK  9 active torsions:
REMARK  status: ('A' for Active; 'I' for Inactive)
REMARK    1  A    between atoms: C2_2  and  O2_4 
REMARK    2  A    between atoms: O2_4  and  C3_5 
REMARK       I    between atoms: N1_15  and  C11_16 
REMARK    3  A    between atoms: C11_16  and  C12_18 
REMARK    4  A    between atoms: C12_18  and  N2_19 
REMARK    5  A    between atoms: N2_19  and  C13_22 
REMARK    6  A    between atoms: C13_22  and  C16_25 
REMARK    7  A    between atoms: C21_32  and  C22_33 
REMARK    8  A    between atoms: N4_36  and  C23_37 
REMARK    9  A    between atoms: C23_37  and  C25_39 
ROOT
HETATM    1  C3  UNL     1       0.751  -7.650 -23.821  1.00  0.00     0.156 C 
HETATM    2  C4  UNL     1       1.012  -7.662 -22.528  1.00  0.00     0.013 C 
HETATM    3  C5  UNL     1       0.624  -8.896 -21.728  1.00  0.00     0.162 C 
HETATM    4  S1  UNL     1       1.767  -9.009 -20.190  1.00  0.00     0.046 S 
HETATM    5  O3  UNL     1       2.385 -10.547 -19.515  1.00  0.00    -0.248 OA
HETATM    6  C6  UNL     1       0.484  -8.840 -18.892  1.00  0.00     0.130 C 
HETATM    7  C7  UNL     1      -0.628  -7.857 -18.923  1.00  0.00     0.059 C 
HETATM    8  C8  UNL     1      -1.476  -8.028 -17.723  1.00  0.00     0.011 C 
HETATM    9  C9  UNL     1      -1.484  -9.333 -17.051  1.00  0.00     0.012 C 
HETATM   10  C10 UNL     1      -0.895  -7.012 -16.709  1.00  0.00     0.137 C 
HETATM   11  N1  UNL     1      -0.317  -5.981 -17.543  1.00  0.00    -0.314 N 
HETATM   12  C11 UNL     1       0.191  -4.754 -17.037  1.00  0.00     0.250 C 
HETATM   13  O4  UNL     1       0.709  -3.896 -17.862  1.00  0.00    -0.271 OA
HETATM   14  C19 UNL     1      -0.406  -6.400 -18.866  1.00  0.00     0.090 C 
HETATM   15  C20 UNL     1       0.532  -5.897 -19.907  1.00  0.00     0.291 C 
HETATM   16  O5  UNL     1       0.347  -4.749 -20.377  1.00  0.00    -0.264 OA
HETATM   17  N3  UNL     1       1.654  -6.552 -20.487  1.00  0.00    -0.202 N 
HETATM   18  C21 UNL     1       1.628  -6.435 -21.933  1.00  0.00     0.146 C 
HETATM   19  N4  UNL     1       2.518  -7.318 -19.737  1.00  0.00    -0.235 N 
ENDROOT
BRANCH  12  20
HETATM   20  C12 UNL     1       0.225  -4.270 -15.651  1.00  0.00     0.336 C 
BRANCH  20  21
HETATM   21  N2  UNL     1       0.950  -5.085 -14.749  1.00  0.00    -0.058 N 
ATOM     22  H22 UNL     1       0.422  -5.921 -14.499  1.00  0.00     0.278 HD
ATOM     23  H21 UNL     1       1.746  -5.527 -15.208  1.00  0.00     0.278 HD
BRANCH  21  24
HETATM   24  C13 UNL     1       1.371  -4.346 -13.554  1.00  0.00     0.122 C 
HETATM   25  C14 UNL     1       0.221  -3.568 -12.965  1.00  0.00     0.046 C 
HETATM   26  C15 UNL     1       2.456  -3.377 -13.951  1.00  0.00     0.046 C 
BRANCH  24  27
HETATM   27  C16 UNL     1       1.930  -5.301 -12.524  1.00  0.00     0.013 C 
HETATM   28  C17 UNL     1       1.239  -5.178 -11.196  1.00  0.00     0.012 C 
HETATM   29  C18 UNL     1       2.031  -6.704 -13.030  1.00  0.00     0.012 C 
ENDBRANCH  24  27
ENDBRANCH  21  24
ENDBRANCH  20  21
ENDBRANCH  12  20
BRANCH  18  30
HETATM   30  C22 UNL     1       2.757  -5.846 -22.580  1.00  0.00     0.229 C 
HETATM   31  O6  UNL     1       3.710  -6.505 -23.031  1.00  0.00    -0.643 OA
HETATM   32  O7  UNL     1       2.860  -4.472 -22.755  1.00  0.00    -0.643 OA
ENDBRANCH  18  30
BRANCH  19  33
HETATM   33  C23 UNL     1       3.790  -7.141 -19.415  1.00  0.00     0.117 C 
HETATM   34  C24 UNL     1       4.851  -7.929 -20.216  1.00  0.00     0.035 C 
BRANCH  33  35
HETATM   35  C25 UNL     1       4.106  -7.532 -17.958  1.00  0.00     0.003 C 
HETATM   36  C26 UNL     1       3.104  -6.937 -17.016  1.00  0.00     0.011 C 
HETATM   37  C27 UNL     1       5.487  -7.025 -17.587  1.00  0.00     0.011 C 
ENDBRANCH  33  35
ENDBRANCH  19  33
BRANCH   1  38
HETATM   38  O2  UNL     1       0.141  -8.719 -24.481  1.00  0.00    -0.291 OA
BRANCH  38  39
HETATM   39  C2  UNL     1       0.870  -9.337 -25.487  1.00  0.00     0.259 C 
HETATM   40  C1  UNL     1       1.821 -10.406 -25.037  1.00  0.00     0.126 C 
HETATM   41  O1  UNL     1       0.749  -9.034 -26.691  1.00  0.00    -0.265 OA
ENDBRANCH  38  39
ENDBRANCH   1  38
TORSDOF 9
ENDMDL
MODEL 5
REMARK VINA RESULT: -6.230424372      8.480     10.727
REMARK  9 active torsions:
REMARK  status: ('A' for Active; 'I' for Inactive)
REMARK    1  A    between atoms: C2_2  and  O2_4 
REMARK    2  A    between atoms: O2_4  and  C3_5 
REMARK       I    between atoms: N1_15  and  C11_16 
REMARK    3  A    between atoms: C11_16  and  C12_18 
REMARK    4  A    between atoms: C12_18  and  N2_19 
REMARK    5  A    between atoms: N2_19  and  C13_22 
REMARK    6  A    between atoms: C13_22  and  C16_25 
REMARK    7  A    between atoms: C21_32  and  C22_33 
REMARK    8  A    between atoms: N4_36  and  C23_37 
REMARK    9  A    between atoms: C23_37  and  C25_39 
ROOT
HETATM    1  C3  UNL     1       0.748  -7.565 -23.928  1.00  0.00     0.156 C 
HETATM    2  C4  UNL     1       1.100  -7.542 -22.657  1.00  0.00     0.013 C 
HETATM    3  C5  UNL     1       0.901  -8.807 -21.834  1.00  0.00     0.162 C 
HETATM    4  S1  UNL     1       2.156  -8.792 -20.382  1.00  0.00     0.046 S 
HETATM    5  O3  UNL     1       2.979 -10.254 -19.757  1.00  0.00    -0.248 OA
HETATM    6  C6  UNL     1       0.959  -8.751 -18.995  1.00  0.00     0.130 C 
HETATM    7  C7  UNL     1      -0.249  -7.889 -18.945  1.00  0.00     0.059 C 
HETATM    8  C8  UNL     1      -0.986  -8.142 -17.687  1.00  0.00     0.011 C 
HETATM    9  C9  UNL     1      -0.811  -9.438 -17.020  1.00  0.00     0.012 C 
HETATM   10  C10 UNL     1      -0.444  -7.065 -16.715  1.00  0.00     0.137 C 
HETATM   11  N1  UNL     1      -0.039  -5.985 -17.586  1.00  0.00    -0.314 N 
HETATM   12  C11 UNL     1       0.374  -4.709 -17.115  1.00  0.00     0.250 C 
HETATM   13  O4  UNL     1       0.739  -3.805 -17.972  1.00  0.00    -0.271 OA
HETATM   14  C19 UNL     1      -0.177  -6.417 -18.899  1.00  0.00     0.090 C 
HETATM   15  C20 UNL     1       0.626  -5.825 -20.004  1.00  0.00     0.291 C 
HETATM   16  O5  UNL     1       0.290  -4.704 -20.456  1.00  0.00    -0.264 OA
HETATM   17  N3  UNL     1       1.766  -6.361 -20.664  1.00  0.00    -0.202 N 
HETATM   18  C21 UNL     1       1.625  -6.256 -22.105  1.00  0.00     0.146 C 
HETATM   19  N4  UNL     1       2.757  -7.029 -19.980  1.00  0.00    -0.235 N 
ENDROOT
BRANCH  12  20
HETATM   20  C12 UNL     1       0.455  -4.216 -15.733  1.00  0.00     0.336 C 
BRANCH  20  21
HETATM   21  N2  UNL     1      -0.628  -3.401 -15.323  1.00  0.00    -0.058 N 
ATOM     22  H22 UNL     1      -0.855  -2.703 -16.032  1.00  0.00     0.278 HD
ATOM     23  H21 UNL     1      -1.505  -3.923 -15.324  1.00  0.00     0.278 HD
BRANCH  21  24
HETATM   24  C13 UNL     1      -0.385  -2.774 -14.020  1.00  0.00     0.122 C 
HETATM   25  C14 UNL     1       0.483  -1.549 -14.161  1.00  0.00     0.046 C 
HETATM   26  C15 UNL     1       0.326  -3.770 -13.139  1.00  0.00     0.046 C 
BRANCH  24  27
HETATM   27  C16 UNL     1      -1.698  -2.406 -13.369  1.00  0.00     0.013 C 
HETATM   28  C17 UNL     1      -1.625  -1.095 -12.638  1.00  0.00     0.012 C 
HETATM   29  C18 UNL     1      -2.860  -2.518 -14.303  1.00  0.00     0.012 C 
ENDBRANCH  24  27
ENDBRANCH  21  24
ENDBRANCH  20  21
ENDBRANCH  12  20
BRANCH  18  30
HETATM   30  C22 UNL     1       2.637  -5.554 -22.830  1.00  0.00     0.229 C 
HETATM   31  O6  UNL     1       3.567  -6.121 -23.430  1.00  0.00    -0.643 OA
HETATM   32  O7  UNL     1       2.643  -4.168 -22.915  1.00  0.00    -0.643 OA
ENDBRANCH  18  30
BRANCH  19  33
HETATM   33  C23 UNL     1       4.023  -6.719 -19.749  1.00  0.00     0.117 C 
HETATM   34  C24 UNL     1       5.101  -7.391 -20.630  1.00  0.00     0.035 C 
BRANCH  33  35
HETATM   35  C25 UNL     1       4.483  -7.072 -18.322  1.00  0.00     0.003 C 
HETATM   36  C26 UNL     1       3.485  -6.604 -17.307  1.00  0.00     0.011 C 
HETATM   37  C27 UNL     1       5.817  -6.405 -18.040  1.00  0.00     0.011 C 
ENDBRANCH  33  35
ENDBRANCH  19  33
BRANCH   1  38
HETATM   38  O2  UNL     1       0.208  -8.695 -24.545  1.00  0.00    -0.291 OA
BRANCH  38  39
HETATM   39  C2  UNL     1       0.956  -9.279 -25.557  1.00  0.00     0.259 C 
HETATM   40  C1  UNL     1       2.038 -10.215 -25.108  1.00  0.00     0.126 C 
HETATM   41  O1  UNL     1       0.751  -9.050 -26.766  1.00  0.00    -0.265 OA
ENDBRANCH  38  39
ENDBRANCH   1  38
TORSDOF 9
ENDMDL
