MODEL 1
REMARK VINA RESULT: -7.792861772      0.000      0.000
REMARK  10 active torsions:
REMARK  status: ('A' for Active; 'I' for Inactive)
REMARK    1  A    between atoms: O1_2  and  C2_3 
REMARK    2  A    between atoms: C2_3  and  C3_5 
REMARK    3  A    between atoms: N1_10  and  C8_11 
REMARK    4  A    between atoms: C8_11  and  C9_12 
REMARK    5  A    between atoms: C9_12  and  C10_13 
REMARK    6  A    between atoms: N2_16  and  C13_17 
REMARK    7  A    between atoms: C13_17  and  O3_19 
REMARK    8  A    between atoms: O3_19  and  C14_20 
REMARK    9  A    between atoms: C14_20  and  C15_21 
REMARK   10  A    between atoms: C15_21  and  N3_22 
REMARK       I    between atoms: N3_22  and  C16_24 
REMARK       I    between atoms: C16_24  and  N4_26 
ROOT
HETATM    1  C13 UNL     1      -5.352  -7.796 -15.462  1.00  0.00     0.216 C 
HETATM    2  S1  UNL     1      -6.269  -8.853 -16.395  1.00  0.00    -0.033 SA
ENDROOT
BRANCH   1   3
HETATM    3  N2  UNL     1      -6.097  -7.099 -14.496  1.00  0.00    -0.352 N 
HETATM    4  C12 UNL     1      -7.532  -7.015 -14.583  1.00  0.00     0.126 C 
HETATM    5  C11 UNL     1      -8.200  -6.493 -13.337  1.00  0.00     0.024 C 
HETATM    6  C10 UNL     1      -7.466  -5.461 -12.563  1.00  0.00    -0.010 C 
HETATM    7  C23 UNL     1      -6.176  -5.103 -13.219  1.00  0.00     0.024 C 
HETATM    8  C22 UNL     1      -5.414  -6.434 -13.377  1.00  0.00     0.126 C 
BRANCH   6   9
HETATM    9  C9  UNL     1      -8.360  -4.245 -12.291  1.00  0.00     0.035 C 
BRANCH   9  10
HETATM   10  C8  UNL     1      -7.680  -3.027 -12.823  1.00  0.00     0.274 C 
BRANCH  10  11
HETATM   11  N1  UNL     1      -7.345  -2.102 -11.749  1.00  0.00     0.107 N 
HETATM   12  C3  UNL     1      -6.089  -1.437 -12.048  1.00  0.00     0.242 C 
HETATM   13  C4  UNL     1      -5.813  -1.278 -13.500  1.00  0.00     0.061 C 
HETATM   14  C5  UNL     1      -5.022  -2.326 -11.426  1.00  0.00     0.054 C 
HETATM   15  C6  UNL     1      -5.696  -2.677 -10.115  1.00  0.00     0.033 C 
HETATM   16  C7  UNL     1      -7.129  -2.795 -10.493  1.00  0.00     0.274 C 
BRANCH  12  17
HETATM   17  C2  UNL     1      -5.988  -0.126 -11.362  1.00  0.00     0.297 C 
HETATM   18  O2  UNL     1      -4.995   0.605 -11.569  1.00  0.00    -0.262 OA
BRANCH  17  19
HETATM   19  O1  UNL     1      -6.968   0.314 -10.495  1.00  0.00    -0.324 OA
HETATM   20  C1  UNL     1      -6.814   1.557  -9.851  1.00  0.00     0.213 C 
ENDBRANCH  17  19
ENDBRANCH  12  17
ENDBRANCH  10  11
ENDBRANCH   9  10
ENDBRANCH   6   9
ENDBRANCH   1   3
BRANCH   1  21
HETATM   21  O3  UNL     1      -4.020  -7.698 -15.711  1.00  0.00    -0.295 OA
BRANCH  21  22
HETATM   22  C14 UNL     1      -3.188  -6.860 -16.342  1.00  0.00     0.162 C 
BRANCH  22  23
HETATM   23  C15 UNL     1      -3.279  -5.395 -16.337  1.00  0.00     0.117 C 
BRANCH  23  24
HETATM   24  N3  UNL     1      -2.199  -4.594 -15.969  1.00  0.00    -0.317 N 
HETATM   25  C16 UNL     1      -2.023  -3.572 -15.037  1.00  0.00     0.326 C 
HETATM   26  O4  UNL     1      -2.923  -3.162 -14.301  1.00  0.00    -0.247 OA
HETATM   27  N4  UNL     1      -0.767  -2.970 -14.928  1.00  0.00    -0.287 N 
HETATM   28  C17 UNL     1       0.100  -3.276 -14.039  1.00  0.00     0.170 A 
ATOM     29  H4  UNL     1      -0.527  -2.240 -15.599  1.00  0.00     0.172 HD
HETATM   30  N5  UNL     1       0.066  -4.169 -13.045  1.00  0.00    -0.276 N 
HETATM   31  S2  UNL     1       1.694  -2.614 -13.832  1.00  0.00    -0.026 SA
HETATM   32  N6  UNL     1       1.077  -4.307 -12.282  1.00  0.00    -0.277 N 
ATOM     33  H5  UNL     1      -0.767  -4.739 -12.898  1.00  0.00     0.189 HD
HETATM   34  C18 UNL     1       2.157  -3.543 -12.496  1.00  0.00     0.132 A 
HETATM   35  C21 UNL     1       1.274  -5.211 -11.115  1.00  0.00     0.151 C 
HETATM   36  S3  UNL     1       3.631  -3.711 -11.458  1.00  0.00    -0.103 SA
HETATM   37  C19 UNL     1       3.770  -5.509 -11.147  1.00  0.00     0.083 C 
HETATM   38  C20 UNL     1       2.405  -6.162 -11.327  1.00  0.00     0.032 C 
ATOM     39  H3  UNL     1      -1.352  -4.799 -16.499  1.00  0.00     0.170 HD
ENDBRANCH  23  24
ENDBRANCH  22  23
ENDBRANCH  21  22
ENDBRANCH   1  21
TORSDOF 10
ENDMDL
MODEL 2
REMARK VINA RESULT: -7.672133615      3.612      8.049
REMARK  10 active torsions:
REMARK  status: ('A' for Active; 'I' for Inactive)
REMARK    1  A    between atoms: O1_2  and  C2_3 
REMARK    2  A    between atoms: C2_3  and  C3_5 
REMARK    3  A    between atoms: N1_10  and  C8_11 
REMARK    4  A    between atoms: C8_11  and  C9_12 
REMARK    5  A    between atoms: C9_12  and  C10_13 
REMARK    6  A    between atoms: N2_16  and  C13_17 
REMARK    7  A    between atoms: C13_17  and  O3_19 
REMARK    8  A    between atoms: O3_19  and  C14_20 
REMARK    9  A    between atoms: C14_20  and  C15_21 
REMARK   10  A    between atoms: C15_21  and  N3_22 
REMARK       I    between atoms: N3_22  and  C16_24 
REMARK       I    between atoms: C16_24  and  N4_26 
ROOT
HETATM    1  C13 UNL     1      -7.700  -6.456 -14.136  1.00  0.00     0.216 C 
HETATM    2  S1  UNL     1      -9.181  -6.565 -14.924  1.00  0.00    -0.033 SA
ENDROOT
BRANCH   1   3
HETATM    3  N2  UNL     1      -6.670  -7.179 -14.760  1.00  0.00    -0.352 N 
HETATM    4  C12 UNL     1      -5.298  -6.751 -14.664  1.00  0.00     0.126 C 
HETATM    5  C11 UNL     1      -4.294  -7.774 -15.131  1.00  0.00     0.024 C 
HETATM    6  C10 UNL     1      -4.698  -8.642 -16.265  1.00  0.00    -0.010 C 
HETATM    7  C23 UNL     1      -6.059  -8.290 -16.763  1.00  0.00     0.024 C 
HETATM    8  C22 UNL     1      -6.983  -8.390 -15.533  1.00  0.00     0.126 C 
BRANCH   6   9
HETATM    9  C9  UNL     1      -3.633  -8.628 -17.369  1.00  0.00     0.035 C 
BRANCH   9  10
HETATM   10  C8  UNL     1      -2.290  -8.483 -16.732  1.00  0.00     0.274 C 
BRANCH  10  11
HETATM   11  N1  UNL     1      -1.393  -7.701 -17.571  1.00  0.00     0.107 N 
HETATM   12  C3  UNL     1      -0.051  -8.248 -17.498  1.00  0.00     0.242 C 
HETATM   13  C4  UNL     1      -0.000  -9.711 -17.236  1.00  0.00     0.061 C 
HETATM   14  C5  UNL     1       0.609  -7.507 -16.344  1.00  0.00     0.054 C 
HETATM   15  C6  UNL     1       0.099  -6.102 -16.602  1.00  0.00     0.033 C 
HETATM   16  C7  UNL     1      -1.281  -6.332 -17.105  1.00  0.00     0.274 C 
BRANCH  12  17
HETATM   17  C2  UNL     1       0.740  -7.919 -18.709  1.00  0.00     0.297 C 
HETATM   18  O2  UNL     1       1.985  -8.041 -18.686  1.00  0.00    -0.262 OA
BRANCH  17  19
HETATM   19  O1  UNL     1       0.136  -7.480 -19.870  1.00  0.00    -0.324 OA
HETATM   20  C1  UNL     1       0.587  -6.293 -20.478  1.00  0.00     0.213 C 
ENDBRANCH  17  19
ENDBRANCH  12  17
ENDBRANCH  10  11
ENDBRANCH   9  10
ENDBRANCH   6   9
ENDBRANCH   1   3
BRANCH   1  21
HETATM   21  O3  UNL     1      -7.621  -5.713 -13.001  1.00  0.00    -0.295 OA
BRANCH  21  22
HETATM   22  C14 UNL     1      -7.158  -4.513 -12.631  1.00  0.00     0.162 C 
BRANCH  22  23
HETATM   23  C15 UNL     1      -7.970  -3.309 -12.418  1.00  0.00     0.117 C 
BRANCH  23  24
HETATM   24  N3  UNL     1      -7.393  -2.046 -12.289  1.00  0.00    -0.317 N 
HETATM   25  C16 UNL     1      -6.605  -1.435 -11.313  1.00  0.00     0.326 C 
HETATM   26  O4  UNL     1      -6.261  -1.994 -10.270  1.00  0.00    -0.247 OA
HETATM   27  N4  UNL     1      -6.186  -0.118 -11.515  1.00  0.00    -0.287 N 
HETATM   28  C17 UNL     1      -5.033   0.206 -11.964  1.00  0.00     0.170 A 
ATOM     29  H4  UNL     1      -6.840   0.632 -11.291  1.00  0.00     0.172 HD
HETATM   30  N5  UNL     1      -3.988  -0.541 -12.330  1.00  0.00    -0.276 N 
HETATM   31  S2  UNL     1      -4.422   1.803 -12.279  1.00  0.00    -0.026 SA
HETATM   32  N6  UNL     1      -2.929   0.019 -12.767  1.00  0.00    -0.277 N 
ATOM     33  H5  UNL     1      -4.037  -1.558 -12.261  1.00  0.00     0.189 HD
HETATM   34  C18 UNL     1      -2.891   1.356 -12.845  1.00  0.00     0.132 A 
HETATM   35  C21 UNL     1      -1.647  -0.588 -13.218  1.00  0.00     0.151 C 
HETATM   36  S3  UNL     1      -1.424   2.206 -13.479  1.00  0.00    -0.103 SA
HETATM   37  C19 UNL     1      -0.837   1.144 -14.849  1.00  0.00     0.083 C 
HETATM   38  C20 UNL     1      -1.350  -0.276 -14.647  1.00  0.00     0.032 C 
ATOM     39  H3  UNL     1      -7.589  -1.436 -13.082  1.00  0.00     0.170 HD
ENDBRANCH  23  24
ENDBRANCH  22  23
ENDBRANCH  21  22
ENDBRANCH   1  21
TORSDOF 10
ENDMDL
MODEL 3
REMARK VINA RESULT: -7.618550063      2.922      7.071
REMARK  10 active torsions:
REMARK  status: ('A' for Active; 'I' for Inactive)
REMARK    1  A    between atoms: O1_2  and  C2_3 
REMARK    2  A    between atoms: C2_3  and  C3_5 
REMARK    3  A    between atoms: N1_10  and  C8_11 
REMARK    4  A    between atoms: C8_11  and  C9_12 
REMARK    5  A    between atoms: C9_12  and  C10_13 
REMARK    6  A    between atoms: N2_16  and  C13_17 
REMARK    7  A    between atoms: C13_17  and  O3_19 
REMARK    8  A    between atoms: O3_19  and  C14_20 
REMARK    9  A    between atoms: C14_20  and  C15_21 
REMARK   10  A    between atoms: C15_21  and  N3_22 
REMARK       I    between atoms: N3_22  and  C16_24 
REMARK       I    between atoms: C16_24  and  N4_26 
ROOT
HETATM    1  C13 UNL     1      -7.863  -5.212 -13.153  1.00  0.00     0.216 C 
HETATM    2  S1  UNL     1      -9.418  -5.127 -13.786  1.00  0.00    -0.033 SA
ENDROOT
BRANCH   1   3
HETATM    3  N2  UNL     1      -7.043  -6.161 -13.786  1.00  0.00    -0.352 N 
HETATM    4  C12 UNL     1      -5.611  -6.003 -13.818  1.00  0.00     0.126 C 
HETATM    5  C11 UNL     1      -4.861  -7.230 -14.270  1.00  0.00     0.024 C 
HETATM    6  C10 UNL     1      -5.514  -8.074 -15.301  1.00  0.00    -0.010 C 
HETATM    7  C23 UNL     1      -6.819  -7.498 -15.731  1.00  0.00     0.024 C 
HETATM    8  C22 UNL     1      -7.641  -7.336 -14.437  1.00  0.00     0.126 C 
BRANCH   6   9
HETATM    9  C9  UNL     1      -4.559  -8.340 -16.472  1.00  0.00     0.035 C 
BRANCH   9  10
HETATM   10  C8  UNL     1      -3.437  -7.357 -16.404  1.00  0.00     0.274 C 
BRANCH  10  11
HETATM   11  N1  UNL     1      -2.147  -8.032 -16.417  1.00  0.00     0.107 N 
HETATM   12  C3  UNL     1      -1.164  -7.198 -17.085  1.00  0.00     0.242 C 
HETATM   13  C4  UNL     1      -1.422  -5.739 -16.970  1.00  0.00     0.061 C 
HETATM   14  C5  UNL     1      -1.237  -7.608 -18.549  1.00  0.00     0.054 C 
HETATM   15  C6  UNL     1      -1.357  -9.112 -18.400  1.00  0.00     0.033 C 
HETATM   16  C7  UNL     1      -2.195  -9.264 -17.181  1.00  0.00     0.274 C 
BRANCH  12  17
HETATM   17  C2  UNL     1       0.214  -7.510 -16.634  1.00  0.00     0.297 C 
HETATM   18  O2  UNL     1       1.190  -7.085 -17.291  1.00  0.00    -0.262 OA
BRANCH  17  19
HETATM   19  O1  UNL     1       0.451  -8.263 -15.502  1.00  0.00    -0.324 OA
HETATM   20  C1  UNL     1       1.331  -9.359 -15.572  1.00  0.00     0.213 C 
ENDBRANCH  17  19
ENDBRANCH  12  17
ENDBRANCH  10  11
ENDBRANCH   9  10
ENDBRANCH   6   9
ENDBRANCH   1   3
BRANCH   1  21
HETATM   21  O3  UNL     1      -7.537  -4.395 -12.117  1.00  0.00    -0.295 OA
BRANCH  21  22
HETATM   22  C14 UNL     1      -7.188  -3.116 -11.935  1.00  0.00     0.162 C 
BRANCH  22  23
HETATM   23  C15 UNL     1      -7.363  -2.032 -12.909  1.00  0.00     0.117 C 
BRANCH  23  24
HETATM   24  N3  UNL     1      -6.297  -1.229 -13.313  1.00  0.00    -0.317 N 
HETATM   25  C16 UNL     1      -5.506  -0.273 -12.675  1.00  0.00     0.326 C 
HETATM   26  O4  UNL     1      -5.657   0.055 -11.496  1.00  0.00    -0.247 OA
HETATM   27  N4  UNL     1      -4.492   0.355 -13.402  1.00  0.00    -0.287 N 
HETATM   28  C17 UNL     1      -3.261   0.009 -13.362  1.00  0.00     0.170 A 
ATOM     29  H4  UNL     1      -4.749   1.139 -14.002  1.00  0.00     0.172 HD
HETATM   30  N5  UNL     1      -2.639  -0.955 -12.678  1.00  0.00    -0.276 N 
HETATM   31  S2  UNL     1      -1.931   0.699 -14.242  1.00  0.00    -0.026 SA
HETATM   32  N6  UNL     1      -1.382  -1.120 -12.814  1.00  0.00    -0.277 N 
ATOM     33  H5  UNL     1      -3.168  -1.558 -12.047  1.00  0.00     0.189 HD
HETATM   34  C18 UNL     1      -0.712  -0.312 -13.646  1.00  0.00     0.132 A 
HETATM   35  C21 UNL     1      -0.473  -2.101 -12.160  1.00  0.00     0.151 C 
HETATM   36  S3  UNL     1       1.070  -0.513 -13.898  1.00  0.00    -0.103 SA
HETATM   37  C19 UNL     1       1.330  -2.324 -13.897  1.00  0.00     0.083 C 
HETATM   38  C20 UNL     1       0.187  -3.001 -13.152  1.00  0.00     0.032 C 
ATOM     39  H3  UNL     1      -6.039  -1.371 -14.289  1.00  0.00     0.170 HD
ENDBRANCH  23  24
ENDBRANCH  22  23
ENDBRANCH  21  22
ENDBRANCH   1  21
TORSDOF 10
ENDMDL
MODEL 4
REMARK VINA RESULT: -7.577463318      4.104      8.489
REMARK  10 active torsions:
REMARK  status: ('A' for Active; 'I' for Inactive)
REMARK    1  A    between atoms: O1_2  and  C2_3 
REMARK    2  A    between atoms: C2_3  and  C3_5 
REMARK    3  A    between atoms: N1_10  and  C8_11 
REMARK    4  A    between atoms: C8_11  and  C9_12 
REMARK    5  A    between atoms: C9_12  and  C10_13 
REMARK    6  A    between atoms: N2_16  and  C13_17 
REMARK    7  A    between atoms: C13_17  and  O3_19 
REMARK    8  A    between atoms: O3_19  and  C14_20 
REMARK    9  A    between atoms: C14_20  and  C15_21 
REMARK   10  A    between atoms: C15_21  and  N3_22 
REMARK       I    between atoms: N3_22  and  C16_24 
REMARK       I    between atoms: C16_24  and  N4_26 
ROOT
HETATM    1  C13 UNL     1      -7.610  -5.212 -12.777  1.00  0.00     0.216 C 
HETATM    2  S1  UNL     1      -9.080  -5.816 -12.227  1.00  0.00    -0.033 SA
ENDROOT
BRANCH   1   3
HETATM    3  N2  UNL     1      -6.865  -6.133 -13.532  1.00  0.00    -0.352 N 
HETATM    4  C12 UNL     1      -5.438  -5.992 -13.677  1.00  0.00     0.126 C 
HETATM    5  C11 UNL     1      -4.752  -7.200 -14.262  1.00  0.00     0.024 C 
HETATM    6  C10 UNL     1      -5.505  -7.973 -15.280  1.00  0.00    -0.010 C 
HETATM    7  C23 UNL     1      -6.831  -7.354 -15.564  1.00  0.00     0.024 C 
HETATM    8  C22 UNL     1      -7.538  -7.258 -14.197  1.00  0.00     0.126 C 
BRANCH   6   9
HETATM    9  C9  UNL     1      -4.658  -8.182 -16.542  1.00  0.00     0.035 C 
BRANCH   9  10
HETATM   10  C8  UNL     1      -3.473  -7.275 -16.475  1.00  0.00     0.274 C 
BRANCH  10  11
HETATM   11  N1  UNL     1      -2.230  -8.032 -16.520  1.00  0.00     0.107 N 
HETATM   12  C3  UNL     1      -1.185  -7.225 -17.123  1.00  0.00     0.242 C 
HETATM   13  C4  UNL     1      -1.348  -5.762 -16.917  1.00  0.00     0.061 C 
HETATM   14  C5  UNL     1      -1.264  -7.536 -18.611  1.00  0.00     0.054 C 
HETATM   15  C6  UNL     1      -1.485  -9.035 -18.560  1.00  0.00     0.033 C 
HETATM   16  C7  UNL     1      -2.349  -9.207 -17.362  1.00  0.00     0.274 C 
BRANCH  12  17
HETATM   17  C2  UNL     1       0.163  -7.656 -16.680  1.00  0.00     0.297 C 
HETATM   18  O2  UNL     1       1.171  -7.291 -17.323  1.00  0.00    -0.262 OA
BRANCH  17  19
HETATM   19  O1  UNL     1       0.338  -8.455 -15.567  1.00  0.00    -0.324 OA
HETATM   20  C1  UNL     1       1.501  -8.310 -14.788  1.00  0.00     0.213 C 
ENDBRANCH  17  19
ENDBRANCH  12  17
ENDBRANCH  10  11
ENDBRANCH   9  10
ENDBRANCH   6   9
ENDBRANCH   1   3
BRANCH   1  21
HETATM   21  O3  UNL     1      -7.271  -3.937 -12.455  1.00  0.00    -0.295 OA
BRANCH  21  22
HETATM   22  C14 UNL     1      -7.730  -2.700 -12.684  1.00  0.00     0.162 C 
BRANCH  22  23
HETATM   23  C15 UNL     1      -6.911  -1.528 -13.014  1.00  0.00     0.117 C 
BRANCH  23  24
HETATM   24  N3  UNL     1      -6.909  -0.385 -12.215  1.00  0.00    -0.317 N 
HETATM   25  C16 UNL     1      -6.617  -0.139 -10.873  1.00  0.00     0.326 C 
HETATM   26  O4  UNL     1      -6.278  -1.020 -10.080  1.00  0.00    -0.247 OA
HETATM   27  N4  UNL     1      -6.720   1.168 -10.391  1.00  0.00    -0.287 N 
HETATM   28  C17 UNL     1      -5.725   1.961 -10.254  1.00  0.00     0.170 A 
ATOM     29  H4  UNL     1      -7.644   1.511 -10.132  1.00  0.00     0.172 HD
HETATM   30  N5  UNL     1      -4.423   1.792 -10.500  1.00  0.00    -0.276 N 
HETATM   31  S2  UNL     1      -5.745   3.606  -9.694  1.00  0.00    -0.026 SA
HETATM   32  N6  UNL     1      -3.609   2.751 -10.294  1.00  0.00    -0.277 N 
ATOM     33  H5  UNL     1      -4.081   0.898 -10.852  1.00  0.00     0.189 HD
HETATM   34  C18 UNL     1      -4.086   3.914  -9.828  1.00  0.00     0.132 A 
HETATM   35  C21 UNL     1      -2.132   2.804 -10.476  1.00  0.00     0.151 C 
HETATM   36  S3  UNL     1      -2.981   5.318  -9.538  1.00  0.00    -0.103 SA
HETATM   37  C19 UNL     1      -1.785   5.253 -10.921  1.00  0.00     0.083 C 
HETATM   38  C20 UNL     1      -1.727   3.835 -11.476  1.00  0.00     0.032 C 
ATOM     39  H3  UNL     1      -7.181   0.456 -12.723  1.00  0.00     0.170 HD
ENDBRANCH  23  24
ENDBRANCH  22  23
ENDBRANCH  21  22
ENDBRANCH   1  21
TORSDOF 10
ENDMDL
MODEL 5
REMARK VINA RESULT: -7.553783447      3.824      8.581
REMARK  10 active torsions:
REMARK  status: ('A' for Active; 'I' for Inactive)
REMARK    1  A    between atoms: O1_2  and  C2_3 
REMARK    2  A    between atoms: C2_3  and  C3_5 
REMARK    3  A    between atoms: N1_10  and  C8_11 
REMARK    4  A    between atoms: C8_11  and  C9_12 
REMARK    5  A    between atoms: C9_12  and  C10_13 
REMARK    6  A    between atoms: N2_16  and  C13_17 
REMARK    7  A    between atoms: C13_17  and  O3_19 
REMARK    8  A    between atoms: O3_19  and  C14_20 
REMARK    9  A    between atoms: C14_20  and  C15_21 
REMARK   10  A    between atoms: C15_21  and  N3_22 
REMARK       I    between atoms: N3_22  and  C16_24 
REMARK       I    between atoms: C16_24  and  N4_26 
ROOT
HETATM    1  C13 UNL     1      -7.587  -6.558 -14.238  1.00  0.00     0.216 C 
HETATM    2  S1  UNL     1      -9.020  -6.615 -15.116  1.00  0.00    -0.033 SA
ENDROOT
BRANCH   1   3
HETATM    3  N2  UNL     1      -6.525  -7.255 -14.839  1.00  0.00    -0.352 N 
HETATM    4  C12 UNL     1      -5.181  -6.737 -14.802  1.00  0.00     0.126 C 
HETATM    5  C11 UNL     1      -4.124  -7.725 -15.227  1.00  0.00     0.024 C 
HETATM    6  C10 UNL     1      -4.494  -8.688 -16.294  1.00  0.00    -0.010 C 
HETATM    7  C23 UNL     1      -5.883  -8.453 -16.781  1.00  0.00     0.024 C 
HETATM    8  C22 UNL     1      -6.775  -8.531 -15.527  1.00  0.00     0.126 C 
BRANCH   6   9
HETATM    9  C9  UNL     1      -3.453  -8.680 -17.420  1.00  0.00     0.035 C 
BRANCH   9  10
HETATM   10  C8  UNL     1      -2.091  -8.688 -16.809  1.00  0.00     0.274 C 
BRANCH  10  11
HETATM   11  N1  UNL     1      -1.099  -9.198 -17.745  1.00  0.00     0.107 N 
HETATM   12  C3  UNL     1       0.223  -8.741 -17.357  1.00  0.00     0.242 C 
HETATM   13  C4  UNL     1       0.388  -8.516 -15.896  1.00  0.00     0.061 C 
HETATM   14  C5  UNL     1       0.411  -7.423 -18.094  1.00  0.00     0.054 C 
HETATM   15  C6  UNL     1      -0.182  -7.783 -19.442  1.00  0.00     0.033 C 
HETATM   16  C7  UNL     1      -1.311  -8.682 -19.084  1.00  0.00     0.274 C 
BRANCH  12  17
HETATM   17  C2  UNL     1       1.284  -9.651 -17.855  1.00  0.00     0.297 C 
HETATM   18  O2  UNL     1       2.474  -9.265 -17.867  1.00  0.00    -0.262 OA
BRANCH  17  19
HETATM   19  O1  UNL     1       0.993 -10.921 -18.310  1.00  0.00    -0.324 OA
HETATM   20  C1  UNL     1       1.375 -11.293 -19.613  1.00  0.00     0.213 C 
ENDBRANCH  17  19
ENDBRANCH  12  17
ENDBRANCH  10  11
ENDBRANCH   9  10
ENDBRANCH   6   9
ENDBRANCH   1   3
BRANCH   1  21
HETATM   21  O3  UNL     1      -7.570  -5.876 -13.063  1.00  0.00    -0.295 OA
BRANCH  21  22
HETATM   22  C14 UNL     1      -7.172  -4.679 -12.617  1.00  0.00     0.162 C 
BRANCH  22  23
HETATM   23  C15 UNL     1      -7.994  -3.463 -12.573  1.00  0.00     0.117 C 
BRANCH  23  24
HETATM   24  N3  UNL     1      -7.425  -2.197 -12.444  1.00  0.00    -0.317 N 
HETATM   25  C16 UNL     1      -6.683  -1.564 -11.447  1.00  0.00     0.326 C 
HETATM   26  O4  UNL     1      -6.384  -2.101 -10.379  1.00  0.00    -0.247 OA
HETATM   27  N4  UNL     1      -6.258  -0.249 -11.657  1.00  0.00    -0.287 N 
HETATM   28  C17 UNL     1      -5.086   0.069 -12.060  1.00  0.00     0.170 A 
ATOM     29  H4  UNL     1      -6.922   0.503 -11.476  1.00  0.00     0.172 HD
HETATM   30  N5  UNL     1      -4.024  -0.682 -12.365  1.00  0.00    -0.276 N 
HETATM   31  S2  UNL     1      -4.466   1.661 -12.379  1.00  0.00    -0.026 SA
HETATM   32  N6  UNL     1      -2.949  -0.128 -12.766  1.00  0.00    -0.277 N 
ATOM     33  H5  UNL     1      -4.074  -1.698 -12.278  1.00  0.00     0.189 HD
HETATM   34  C18 UNL     1      -2.910   1.208 -12.869  1.00  0.00     0.132 A 
HETATM   35  C21 UNL     1      -1.646  -0.740 -13.147  1.00  0.00     0.151 C 
HETATM   36  S3  UNL     1      -1.418   2.049 -13.454  1.00  0.00    -0.103 SA
HETATM   37  C19 UNL     1      -0.769   0.963 -14.775  1.00  0.00     0.083 C 
HETATM   38  C20 UNL     1      -1.288  -0.454 -14.568  1.00  0.00     0.032 C 
ATOM     39  H3  UNL     1      -7.587  -1.602 -13.257  1.00  0.00     0.170 HD
ENDBRANCH  23  24
ENDBRANCH  22  23
ENDBRANCH  21  22
ENDBRANCH   1  21
TORSDOF 10
ENDMDL
