MODEL 1
REMARK VINA RESULT: -5.054964219      0.000      0.000
REMARK  4 active torsions:
REMARK  status: ('A' for Active; 'I' for Inactive)
REMARK    1  A    between atoms: N1_2  and  C2_5 
REMARK    2  A    between atoms: C2_5  and  C3_6 
REMARK    3  A    between atoms: C3_6  and  N2_7 
REMARK    4  A    between atoms: N2_7  and  C4_9 
ROOT
HETATM    1  C4  UNL     1     -10.368 -31.816   8.517  1.00  0.00     0.136 C 
HETATM    2  N3  UNL     1     -10.661 -32.617   7.553  1.00  0.00    -0.367 N 
ATOM      3  H3  UNL     1     -10.542 -32.223   6.620  1.00  0.00     0.162 HD
HETATM    4  C5  UNL     1     -11.132 -33.989   7.576  1.00  0.00     0.079 C 
HETATM    5  C6  UNL     1     -12.382 -34.100   6.774  1.00  0.00     0.032 C 
HETATM    6  C7  UNL     1     -11.230 -34.553   8.976  1.00  0.00     0.025 C 
HETATM    7  C8  UNL     1     -12.436 -34.053   9.723  1.00  0.00     0.013 C 
HETATM    8  C9  UNL     1     -12.127 -32.856  10.584  1.00  0.00     0.082 C 
HETATM    9  S1  UNL     1     -10.462 -32.196  10.251  1.00  0.00    -0.095 SA
ENDROOT
BRANCH   1  10
HETATM   10  N2  UNL     1      -9.929 -30.525   8.185  1.00  0.00    -0.369 N 
ATOM     11  H2  UNL     1     -10.488 -29.718   8.460  1.00  0.00     0.161 HD
BRANCH  10  12
HETATM   12  C3  UNL     1      -8.704 -30.327   7.464  1.00  0.00     0.149 C 
BRANCH  12  13
HETATM   13  C2  UNL     1      -9.026 -29.370   6.316  1.00  0.00     0.251 C 
BRANCH  13  14
HETATM   14  N1  UNL     1      -7.962 -29.416   5.371  1.00  0.00    -0.077 N 
HETATM   15  C1  UNL     1      -6.811 -30.151   5.913  1.00  0.00     0.267 C 
ATOM     16  H12 UNL     1      -7.699 -28.483   5.054  1.00  0.00     0.276 HD
ATOM     17  H11 UNL     1      -8.269 -29.802   4.478  1.00  0.00     0.276 HD
ENDBRANCH  13  14
ENDBRANCH  12  13
ENDBRANCH  10  12
ENDBRANCH   1  10
TORSDOF 4
ENDMDL
MODEL 2
REMARK VINA RESULT: -5.036236170      3.109      4.652
REMARK  4 active torsions:
REMARK  status: ('A' for Active; 'I' for Inactive)
REMARK    1  A    between atoms: N1_2  and  C2_5 
REMARK    2  A    between atoms: C2_5  and  C3_6 
REMARK    3  A    between atoms: C3_6  and  N2_7 
REMARK    4  A    between atoms: N2_7  and  C4_9 
ROOT
HETATM    1  C4  UNL     1      -7.758 -29.969   6.548  1.00  0.00     0.136 C 
HETATM    2  N3  UNL     1      -7.899 -30.458   7.729  1.00  0.00    -0.367 N 
ATOM      3  H3  UNL     1      -7.120 -31.034   8.048  1.00  0.00     0.162 HD
HETATM    4  C5  UNL     1      -8.984 -30.324   8.683  1.00  0.00     0.079 C 
HETATM    5  C6  UNL     1      -9.444 -31.676   9.107  1.00  0.00     0.032 C 
HETATM    6  C7  UNL     1     -10.085 -29.410   8.195  1.00  0.00     0.025 C 
HETATM    7  C8  UNL     1     -10.973 -30.060   7.170  1.00  0.00     0.013 C 
HETATM    8  C9  UNL     1     -10.547 -29.753   5.758  1.00  0.00     0.082 C 
HETATM    9  S1  UNL     1      -8.925 -28.925   5.707  1.00  0.00    -0.095 SA
ENDROOT
BRANCH   1  10
HETATM   10  N2  UNL     1      -6.580 -30.274   5.849  1.00  0.00    -0.369 N 
ATOM     11  H2  UNL     1      -6.123 -31.173   6.002  1.00  0.00     0.161 HD
BRANCH  10  12
HETATM   12  C3  UNL     1      -6.009 -29.337   4.923  1.00  0.00     0.149 C 
BRANCH  12  13
HETATM   13  C2  UNL     1      -4.553 -29.141   5.346  1.00  0.00     0.251 C 
BRANCH  13  14
HETATM   14  N1  UNL     1      -3.963 -28.152   4.509  1.00  0.00    -0.077 N 
HETATM   15  C1  UNL     1      -2.780 -28.686   3.820  1.00  0.00     0.267 C 
ATOM     16  H12 UNL     1      -3.746 -27.301   5.027  1.00  0.00     0.276 HD
ATOM     17  H11 UNL     1      -4.640 -27.764   3.851  1.00  0.00     0.276 HD
ENDBRANCH  13  14
ENDBRANCH  12  13
ENDBRANCH  10  12
ENDBRANCH   1  10
TORSDOF 4
ENDMDL
MODEL 3
REMARK VINA RESULT: -5.028059405      1.723      1.796
REMARK  4 active torsions:
REMARK  status: ('A' for Active; 'I' for Inactive)
REMARK    1  A    between atoms: N1_2  and  C2_5 
REMARK    2  A    between atoms: C2_5  and  C3_6 
REMARK    3  A    between atoms: C3_6  and  N2_7 
REMARK    4  A    between atoms: N2_7  and  C4_9 
ROOT
HETATM    1  C4  UNL     1     -10.624 -31.887   9.305  1.00  0.00     0.136 C 
HETATM    2  N3  UNL     1     -10.565 -32.421   8.136  1.00  0.00    -0.367 N 
ATOM      3  H3  UNL     1     -10.241 -31.797   7.398  1.00  0.00     0.162 HD
HETATM    4  C5  UNL     1     -10.881 -33.767   7.697  1.00  0.00     0.079 C 
HETATM    5  C6  UNL     1     -11.853 -33.707   6.569  1.00  0.00     0.032 C 
HETATM    6  C7  UNL     1     -11.293 -34.675   8.835  1.00  0.00     0.025 C 
HETATM    7  C8  UNL     1     -12.699 -34.421   9.303  1.00  0.00     0.013 C 
HETATM    8  C9  UNL     1     -12.757 -33.477  10.476  1.00  0.00     0.082 C 
HETATM    9  S1  UNL     1     -11.140 -32.702  10.798  1.00  0.00    -0.095 SA
ENDROOT
BRANCH   1  10
HETATM   10  N2  UNL     1     -10.247 -30.541   9.429  1.00  0.00    -0.369 N 
ATOM     11  H2  UNL     1     -10.362 -30.066  10.325  1.00  0.00     0.161 HD
BRANCH  10  12
HETATM   12  C3  UNL     1      -9.702 -29.823   8.312  1.00  0.00     0.149 C 
BRANCH  12  13
HETATM   13  C2  UNL     1     -10.701 -28.715   7.978  1.00  0.00     0.251 C 
BRANCH  13  14
HETATM   14  N1  UNL     1     -11.432 -29.095   6.818  1.00  0.00    -0.077 N 
HETATM   15  C1  UNL     1     -10.543 -29.682   5.806  1.00  0.00     0.267 C 
ATOM     16  H12 UNL     1     -11.971 -28.315   6.440  1.00  0.00     0.276 HD
ATOM     17  H11 UNL     1     -12.206 -29.719   7.048  1.00  0.00     0.276 HD
ENDBRANCH  13  14
ENDBRANCH  12  13
ENDBRANCH  10  12
ENDBRANCH   1  10
TORSDOF 4
ENDMDL
MODEL 4
REMARK VINA RESULT: -4.879624279      4.077      6.221
REMARK  4 active torsions:
REMARK  status: ('A' for Active; 'I' for Inactive)
REMARK    1  A    between atoms: N1_2  and  C2_5 
REMARK    2  A    between atoms: C2_5  and  C3_6 
REMARK    3  A    between atoms: C3_6  and  N2_7 
REMARK    4  A    between atoms: N2_7  and  C4_9 
ROOT
HETATM    1  C4  UNL     1     -11.042 -35.142  11.665  1.00  0.00     0.136 C 
HETATM    2  N3  UNL     1     -12.070 -34.974  10.910  1.00  0.00    -0.367 N 
ATOM      3  H3  UNL     1     -12.737 -35.745  10.920  1.00  0.00     0.162 HD
HETATM    4  C5  UNL     1     -12.437 -33.867  10.047  1.00  0.00     0.079 C 
HETATM    5  C6  UNL     1     -12.704 -34.375   8.673  1.00  0.00     0.032 C 
HETATM    6  C7  UNL     1     -11.454 -32.720  10.114  1.00  0.00     0.025 C 
HETATM    7  C8  UNL     1     -10.189 -32.990   9.347  1.00  0.00     0.013 C 
HETATM    8  C9  UNL     1      -9.092 -33.544  10.219  1.00  0.00     0.082 C 
HETATM    9  S1  UNL     1      -9.705 -33.989  11.875  1.00  0.00    -0.095 SA
ENDROOT
BRANCH   1  10
HETATM   10  N2  UNL     1     -10.956 -36.335  12.399  1.00  0.00    -0.369 N 
ATOM     11  H2  UNL     1     -10.752 -36.298  13.397  1.00  0.00     0.161 HD
BRANCH  10  12
HETATM   12  C3  UNL     1     -11.153 -37.607  11.762  1.00  0.00     0.149 C 
BRANCH  12  13
HETATM   13  C2  UNL     1      -9.761 -38.147  11.434  1.00  0.00     0.251 C 
BRANCH  13  14
HETATM   14  N1  UNL     1      -9.571 -38.091  10.024  1.00  0.00    -0.077 N 
HETATM   15  C1  UNL     1     -10.861 -38.063   9.321  1.00  0.00     0.267 C 
ATOM     16  H12 UNL     1      -8.977 -38.852   9.694  1.00  0.00     0.276 HD
ATOM     17  H11 UNL     1      -8.978 -37.306   9.755  1.00  0.00     0.276 HD
ENDBRANCH  13  14
ENDBRANCH  12  13
ENDBRANCH  10  12
ENDBRANCH   1  10
TORSDOF 4
ENDMDL
MODEL 5
REMARK VINA RESULT: -4.851326509      4.043      7.401
REMARK  4 active torsions:
REMARK  status: ('A' for Active; 'I' for Inactive)
REMARK    1  A    between atoms: N1_2  and  C2_5 
REMARK    2  A    between atoms: C2_5  and  C3_6 
REMARK    3  A    between atoms: C3_6  and  N2_7 
REMARK    4  A    between atoms: N2_7  and  C4_9 
ROOT
HETATM    1  C4  UNL     1      -5.872 -29.619   5.573  1.00  0.00     0.136 C 
HETATM    2  N3  UNL     1      -5.201 -28.869   4.772  1.00  0.00    -0.367 N 
ATOM      3  H3  UNL     1      -5.703 -28.586   3.930  1.00  0.00     0.162 HD
HETATM    4  C5  UNL     1      -3.847 -28.358   4.870  1.00  0.00     0.079 C 
HETATM    5  C6  UNL     1      -3.090 -28.714   3.637  1.00  0.00     0.032 C 
HETATM    6  C7  UNL     1      -3.164 -28.746   6.162  1.00  0.00     0.025 C 
HETATM    7  C8  UNL     1      -2.700 -30.176   6.169  1.00  0.00     0.013 C 
HETATM    8  C9  UNL     1      -3.700 -31.106   6.806  1.00  0.00     0.082 C 
HETATM    9  S1  UNL     1      -5.290 -30.274   7.119  1.00  0.00    -0.095 SA
ENDROOT
BRANCH   1  10
HETATM   10  N2  UNL     1      -7.185 -29.955   5.209  1.00  0.00    -0.369 N 
ATOM     11  H2  UNL     1      -7.358 -30.811   4.683  1.00  0.00     0.161 HD
BRANCH  10  12
HETATM   12  C3  UNL     1      -8.289 -29.110   5.568  1.00  0.00     0.149 C 
BRANCH  12  13
HETATM   13  C2  UNL     1      -8.974 -29.775   6.762  1.00  0.00     0.251 C 
BRANCH  13  14
HETATM   14  N1  UNL     1     -10.349 -29.406   6.763  1.00  0.00    -0.077 N 
HETATM   15  C1  UNL     1     -10.720 -28.767   8.033  1.00  0.00     0.267 C 
ATOM     16  H12 UNL     1     -10.952 -30.201   6.551  1.00  0.00     0.276 HD
ATOM     17  H11 UNL     1     -10.581 -28.818   5.963  1.00  0.00     0.276 HD
ENDBRANCH  13  14
ENDBRANCH  12  13
ENDBRANCH  10  12
ENDBRANCH   1  10
TORSDOF 4
ENDMDL
