MODEL 1
REMARK VINA RESULT: -7.011422123      0.000      0.000
REMARK  6 active torsions:
REMARK  status: ('A' for Active; 'I' for Inactive)
REMARK    1  A    between atoms: O1_2  and  C2_3 
REMARK    2  A    between atoms: C2_3  and  N1_4 
REMARK    3  A    between atoms: N1_4  and  C3_7 
REMARK    4  A    between atoms: C3_7  and  C4_8 
REMARK    5  A    between atoms: C9_13  and  N2_14 
REMARK       I    between atoms: N2_14  and  C10_16 
REMARK    6  A    between atoms: N4_18  and  N5_20 
ROOT
HETATM    1  C4  UNL     1     -29.427  17.210  35.436  1.00  0.00    -0.006 A 
HETATM    2  C5  UNL     1     -29.265  15.992  34.867  1.00  0.00     0.011 A 
HETATM    3  C6  UNL     1     -28.192  15.210  35.135  1.00  0.00     0.001 A 
HETATM    4  C7  UNL     1     -27.220  15.656  36.044  1.00  0.00     0.002 A 
HETATM    5  C8  UNL     1     -27.381  16.890  36.635  1.00  0.00     0.030 A 
HETATM    6  C9  UNL     1     -28.481  17.663  36.324  1.00  0.00     0.042 A 
ENDROOT
BRANCH   6   7
HETATM    7  N2  UNL     1     -28.627  18.981  36.863  1.00  0.00    -0.329 N 
HETATM    8  C10 UNL     1     -27.593  19.855  37.154  1.00  0.00     0.207 C 
HETATM    9  N3  UNL     1     -27.127  19.797  38.540  1.00  0.00    -0.062 NA
HETATM   10  N4  UNL     1     -27.034  20.744  36.448  1.00  0.00    -0.280 N 
ATOM     11  H4  UNL     1     -26.295  21.238  36.948  1.00  0.00     0.189 HD
ATOM     12  H2  UNL     1     -29.576  19.305  37.050  1.00  0.00     0.168 HD
BRANCH  10  13
HETATM   13  N5  UNL     1     -27.193  21.185  35.189  1.00  0.00    -0.343 N 
ATOM     14  H52 UNL     1     -28.159  21.457  35.010  1.00  0.00     0.176 HD
ATOM     15  H51 UNL     1     -26.572  21.307  34.389  1.00  0.00     0.176 HD
ENDBRANCH  10  13
ENDBRANCH   6   7
BRANCH   1  16
HETATM   16  C3  UNL     1     -30.520  18.135  35.062  1.00  0.00     0.275 C 
BRANCH  16  17
HETATM   17  N1  UNL     1     -29.986  18.637  33.753  1.00  0.00    -0.050 N 
ATOM     18  H12 UNL     1     -30.368  18.110  32.967  1.00  0.00     0.280 HD
ATOM     19  H11 UNL     1     -29.000  18.401  33.637  1.00  0.00     0.280 HD
BRANCH  17  20
HETATM   20  C2  UNL     1     -30.207  20.027  33.602  1.00  0.00     0.399 C 
BRANCH  20  21
HETATM   21  O1  UNL     1     -30.280  20.660  34.812  1.00  0.00    -0.369 OA
HETATM   22  C1  UNL     1     -31.319  21.594  34.757  1.00  0.00     0.203 C 
ENDBRANCH  20  21
ENDBRANCH  17  20
ENDBRANCH  16  17
ENDBRANCH   1  16
TORSDOF 6
ENDMDL
MODEL 2
REMARK VINA RESULT: -6.876835102      2.710      4.375
REMARK  6 active torsions:
REMARK  status: ('A' for Active; 'I' for Inactive)
REMARK    1  A    between atoms: O1_2  and  C2_3 
REMARK    2  A    between atoms: C2_3  and  N1_4 
REMARK    3  A    between atoms: N1_4  and  C3_7 
REMARK    4  A    between atoms: C3_7  and  C4_8 
REMARK    5  A    between atoms: C9_13  and  N2_14 
REMARK       I    between atoms: N2_14  and  C10_16 
REMARK    6  A    between atoms: N4_18  and  N5_20 
ROOT
HETATM    1  C4  UNL     1     -28.780  18.349  35.588  1.00  0.00    -0.006 A 
HETATM    2  C5  UNL     1     -28.128  17.898  36.686  1.00  0.00     0.011 A 
HETATM    3  C6  UNL     1     -27.303  18.693  37.409  1.00  0.00     0.001 A 
HETATM    4  C7  UNL     1     -27.124  20.032  37.031  1.00  0.00     0.002 A 
HETATM    5  C8  UNL     1     -27.791  20.503  35.921  1.00  0.00     0.030 A 
HETATM    6  C9  UNL     1     -28.611  19.657  35.202  1.00  0.00     0.042 A 
ENDROOT
BRANCH   6   7
HETATM    7  N2  UNL     1     -29.249  20.101  34.000  1.00  0.00    -0.329 N 
HETATM    8  C10 UNL     1     -30.174  21.127  33.906  1.00  0.00     0.207 C 
HETATM    9  N3  UNL     1     -31.568  20.690  33.982  1.00  0.00    -0.062 NA
HETATM   10  N4  UNL     1     -30.021  22.365  33.691  1.00  0.00    -0.280 N 
ATOM     11  H4  UNL     1     -30.906  22.874  33.672  1.00  0.00     0.189 HD
ATOM     12  H2  UNL     1     -28.999  19.619  33.136  1.00  0.00     0.168 HD
BRANCH  10  13
HETATM   13  N5  UNL     1     -28.960  23.162  33.484  1.00  0.00    -0.343 N 
ATOM     14  H52 UNL     1     -28.243  22.690  32.934  1.00  0.00     0.176 HD
ATOM     15  H51 UNL     1     -28.718  24.116  33.750  1.00  0.00     0.176 HD
ENDBRANCH  10  13
ENDBRANCH   6   7
BRANCH   1  16
HETATM   16  C3  UNL     1     -29.583  17.468  34.710  1.00  0.00     0.275 C 
BRANCH  16  17
HETATM   17  N1  UNL     1     -28.706  16.251  34.709  1.00  0.00    -0.050 N 
ATOM     18  H12 UNL     1     -29.235  15.410  34.943  1.00  0.00     0.280 HD
ATOM     19  H11 UNL     1     -28.060  16.255  35.499  1.00  0.00     0.280 HD
BRANCH  17  20
HETATM   20  C2  UNL     1     -28.020  16.106  33.480  1.00  0.00     0.399 C 
BRANCH  20  21
HETATM   21  O1  UNL     1     -27.915  14.792  33.113  1.00  0.00    -0.369 OA
HETATM   22  C1  UNL     1     -28.279  14.000  34.206  1.00  0.00     0.203 C 
ENDBRANCH  20  21
ENDBRANCH  17  20
ENDBRANCH  16  17
ENDBRANCH   1  16
TORSDOF 6
ENDMDL
MODEL 3
REMARK VINA RESULT: -6.845237105      2.735      4.279
REMARK  6 active torsions:
REMARK  status: ('A' for Active; 'I' for Inactive)
REMARK    1  A    between atoms: O1_2  and  C2_3 
REMARK    2  A    between atoms: C2_3  and  N1_4 
REMARK    3  A    between atoms: N1_4  and  C3_7 
REMARK    4  A    between atoms: C3_7  and  C4_8 
REMARK    5  A    between atoms: C9_13  and  N2_14 
REMARK       I    between atoms: N2_14  and  C10_16 
REMARK    6  A    between atoms: N4_18  and  N5_20 
ROOT
HETATM    1  C4  UNL     1     -28.678  18.258  35.400  1.00  0.00    -0.006 A 
HETATM    2  C5  UNL     1     -28.016  17.781  36.480  1.00  0.00     0.011 A 
HETATM    3  C6  UNL     1     -27.277  18.583  37.284  1.00  0.00     0.001 A 
HETATM    4  C7  UNL     1     -27.202  19.958  37.010  1.00  0.00     0.002 A 
HETATM    5  C8  UNL     1     -27.881  20.455  35.919  1.00  0.00     0.030 A 
HETATM    6  C9  UNL     1     -28.611  19.602  35.117  1.00  0.00     0.042 A 
ENDROOT
BRANCH   6   7
HETATM    7  N2  UNL     1     -29.256  20.082  33.932  1.00  0.00    -0.329 N 
HETATM    8  C10 UNL     1     -30.178  21.113  33.875  1.00  0.00     0.207 C 
HETATM    9  N3  UNL     1     -31.573  20.680  33.950  1.00  0.00    -0.062 NA
HETATM   10  N4  UNL     1     -30.022  22.357  33.695  1.00  0.00    -0.280 N 
ATOM     11  H4  UNL     1     -30.905  22.869  33.696  1.00  0.00     0.189 HD
ATOM     12  H2  UNL     1     -29.015  19.623  33.053  1.00  0.00     0.168 HD
BRANCH  10  13
HETATM   13  N5  UNL     1     -28.960  23.155  33.501  1.00  0.00    -0.343 N 
ATOM     14  H52 UNL     1     -28.789  23.749  34.312  1.00  0.00     0.176 HD
ATOM     15  H51 UNL     1     -28.298  23.295  32.737  1.00  0.00     0.176 HD
ENDBRANCH  10  13
ENDBRANCH   6   7
BRANCH   1  16
HETATM   16  C3  UNL     1     -29.384  17.384  34.436  1.00  0.00     0.275 C 
BRANCH  16  17
HETATM   17  N1  UNL     1     -28.239  16.518  34.001  1.00  0.00    -0.050 N 
ATOM     18  H12 UNL     1     -28.458  15.528  34.112  1.00  0.00     0.280 HD
ATOM     19  H11 UNL     1     -27.455  16.580  34.651  1.00  0.00     0.280 HD
BRANCH  17  20
HETATM   20  C2  UNL     1     -27.838  16.816  32.677  1.00  0.00     0.399 C 
BRANCH  20  21
HETATM   21  O1  UNL     1     -27.786  15.690  31.901  1.00  0.00    -0.369 OA
HETATM   22  C1  UNL     1     -27.399  16.063  30.610  1.00  0.00     0.203 C 
ENDBRANCH  20  21
ENDBRANCH  17  20
ENDBRANCH  16  17
ENDBRANCH   1  16
TORSDOF 6
ENDMDL
MODEL 4
REMARK VINA RESULT: -6.825955437      2.817      4.786
REMARK  6 active torsions:
REMARK  status: ('A' for Active; 'I' for Inactive)
REMARK    1  A    between atoms: O1_2  and  C2_3 
REMARK    2  A    between atoms: C2_3  and  N1_4 
REMARK    3  A    between atoms: N1_4  and  C3_7 
REMARK    4  A    between atoms: C3_7  and  C4_8 
REMARK    5  A    between atoms: C9_13  and  N2_14 
REMARK       I    between atoms: N2_14  and  C10_16 
REMARK    6  A    between atoms: N4_18  and  N5_20 
ROOT
HETATM    1  C4  UNL     1     -27.836  18.639  36.778  1.00  0.00    -0.006 A 
HETATM    2  C5  UNL     1     -27.118  17.496  36.885  1.00  0.00     0.011 A 
HETATM    3  C6  UNL     1     -27.522  16.336  36.314  1.00  0.00     0.001 A 
HETATM    4  C7  UNL     1     -28.711  16.308  35.569  1.00  0.00     0.002 A 
HETATM    5  C8  UNL     1     -29.443  17.468  35.446  1.00  0.00     0.030 A 
HETATM    6  C9  UNL     1     -29.005  18.626  36.055  1.00  0.00     0.042 A 
ENDROOT
BRANCH   6   7
HETATM    7  N2  UNL     1     -29.791  19.821  36.010  1.00  0.00    -0.329 N 
HETATM    8  C10 UNL     1     -31.092  19.917  35.546  1.00  0.00     0.207 C 
HETATM    9  N3  UNL     1     -31.204  20.293  34.137  1.00  0.00    -0.062 NA
HETATM   10  N4  UNL     1     -32.199  19.806  36.151  1.00  0.00    -0.280 N 
ATOM     11  H4  UNL     1     -33.001  19.936  35.533  1.00  0.00     0.189 HD
ATOM     12  H2  UNL     1     -29.354  20.679  36.348  1.00  0.00     0.168 HD
BRANCH  10  13
HETATM   13  N5  UNL     1     -32.558  19.557  37.421  1.00  0.00    -0.343 N 
ATOM     14  H52 UNL     1     -33.571  19.485  37.513  1.00  0.00     0.176 HD
ATOM     15  H51 UNL     1     -32.051  19.427  38.296  1.00  0.00     0.176 HD
ENDBRANCH  10  13
ENDBRANCH   6   7
BRANCH   1  16
HETATM   16  C3  UNL     1     -27.483  19.883  37.498  1.00  0.00     0.275 C 
BRANCH  16  17
HETATM   17  N1  UNL     1     -27.078  19.299  38.819  1.00  0.00    -0.050 N 
ATOM     18  H12 UNL     1     -26.072  19.129  38.859  1.00  0.00     0.280 HD
ATOM     19  H11 UNL     1     -27.404  18.338  38.919  1.00  0.00     0.280 HD
BRANCH  17  20
HETATM   20  C2  UNL     1     -27.509  20.108  39.898  1.00  0.00     0.399 C 
BRANCH  20  21
HETATM   21  O1  UNL     1     -27.052  19.635  41.097  1.00  0.00    -0.369 OA
HETATM   22  C1  UNL     1     -28.007  19.926  42.077  1.00  0.00     0.203 C 
ENDBRANCH  20  21
ENDBRANCH  17  20
ENDBRANCH  16  17
ENDBRANCH   1  16
TORSDOF 6
ENDMDL
MODEL 5
REMARK VINA RESULT: -6.809180653      2.829      4.603
REMARK  6 active torsions:
REMARK  status: ('A' for Active; 'I' for Inactive)
REMARK    1  A    between atoms: O1_2  and  C2_3 
REMARK    2  A    between atoms: C2_3  and  N1_4 
REMARK    3  A    between atoms: N1_4  and  C3_7 
REMARK    4  A    between atoms: C3_7  and  C4_8 
REMARK    5  A    between atoms: C9_13  and  N2_14 
REMARK       I    between atoms: N2_14  and  C10_16 
REMARK    6  A    between atoms: N4_18  and  N5_20 
ROOT
HETATM    1  C4  UNL     1     -29.055  18.039  35.777  1.00  0.00    -0.006 A 
HETATM    2  C5  UNL     1     -28.096  17.754  36.689  1.00  0.00     0.011 A 
HETATM    3  C6  UNL     1     -27.213  18.688  37.120  1.00  0.00     0.001 A 
HETATM    4  C7  UNL     1     -27.296  19.999  36.627  1.00  0.00     0.002 A 
HETATM    5  C8  UNL     1     -28.276  20.301  35.706  1.00  0.00     0.030 A 
HETATM    6  C9  UNL     1     -29.146  19.318  35.282  1.00  0.00     0.042 A 
ENDROOT
BRANCH   6   7
HETATM    7  N2  UNL     1     -30.118  19.587  34.266  1.00  0.00    -0.329 N 
HETATM    8  C10 UNL     1     -30.952  20.691  34.217  1.00  0.00     0.207 C 
HETATM    9  N3  UNL     1     -32.266  20.480  34.824  1.00  0.00    -0.062 NA
HETATM   10  N4  UNL     1     -30.799  21.824  33.673  1.00  0.00    -0.280 N 
ATOM     11  H4  UNL     1     -31.605  22.437  33.805  1.00  0.00     0.189 HD
ATOM     12  H2  UNL     1     -30.203  18.906  33.511  1.00  0.00     0.168 HD
BRANCH  10  13
HETATM   13  N5  UNL     1     -29.818  22.403  32.961  1.00  0.00    -0.343 N 
ATOM     14  H52 UNL     1     -29.054  22.708  33.562  1.00  0.00     0.176 HD
ATOM     15  H51 UNL     1     -29.673  22.601  31.971  1.00  0.00     0.176 HD
ENDBRANCH  10  13
ENDBRANCH   6   7
BRANCH   1  16
HETATM   16  C3  UNL     1     -29.945  17.009  35.196  1.00  0.00     0.275 C 
BRANCH  16  17
HETATM   17  N1  UNL     1     -28.918  15.995  34.784  1.00  0.00    -0.050 N 
ATOM     18  H12 UNL     1     -28.006  16.202  35.191  1.00  0.00     0.280 HD
ATOM     19  H11 UNL     1     -28.676  16.089  33.798  1.00  0.00     0.280 HD
BRANCH  17  20
HETATM   20  C2  UNL     1     -29.336  14.679  35.093  1.00  0.00     0.399 C 
BRANCH  20  21
HETATM   21  O1  UNL     1     -29.380  13.889  33.976  1.00  0.00    -0.369 OA
HETATM   22  C1  UNL     1     -28.119  13.310  33.799  1.00  0.00     0.203 C 
ENDBRANCH  20  21
ENDBRANCH  17  20
ENDBRANCH  16  17
ENDBRANCH   1  16
TORSDOF 6
ENDMDL
