MODEL 1
REMARK VINA RESULT: -7.528819767      0.000      0.000
REMARK  7 active torsions:
REMARK  status: ('A' for Active; 'I' for Inactive)
REMARK    1  A    between atoms: N1_1  and  N2_4 
REMARK    2  A    between atoms: N2_4  and  C1_6 
REMARK    3  A    between atoms: C1_6  and  C2_7 
REMARK    4  A    between atoms: C4_9  and  C5_10 
REMARK    5  A    between atoms: C5_10  and  O1_11 
REMARK    6  A    between atoms: C6_16  and  C7_17 
REMARK    7  A    between atoms: C8_18  and  C9_19 
ROOT
HETATM    1  C2  UNL     1     -27.432  16.966  36.474  1.00  0.00     0.041 C 
HETATM    2  C3  UNL     1     -26.974  16.013  35.391  1.00  0.00     0.044 C 
HETATM    3  C4  UNL     1     -28.162  15.072  35.336  1.00  0.00     0.210 C 
HETATM    4  N3  UNL     1     -29.261  15.997  35.313  1.00  0.00    -0.061 N 
ATOM      5  H31 UNL     1     -30.139  15.582  35.622  1.00  0.00     0.278 HD
ATOM      6  H32 UNL     1     -29.557  16.242  34.369  1.00  0.00     0.278 HD
HETATM    7  C6  UNL     1     -28.866  17.148  36.102  1.00  0.00     0.215 C 
ENDROOT
BRANCH   7   8
HETATM    8  C7  UNL     1     -29.135  18.342  35.278  1.00  0.00     0.008 C 
HETATM    9  C8  UNL     1     -30.065  19.190  35.688  1.00  0.00     0.029 C 
BRANCH   9  10
HETATM   10  C9  UNL     1     -30.364  20.398  34.892  1.00  0.00     0.048 A 
HETATM   11  C10 UNL     1     -31.531  21.117  34.864  1.00  0.00     0.118 A 
HETATM   12  N4  UNL     1     -31.403  22.148  34.011  1.00  0.00    -0.360 N 
HETATM   13  C11 UNL     1     -30.163  22.078  33.507  1.00  0.00     0.180 A 
ATOM     14  H4  UNL     1     -32.112  22.848  33.792  1.00  0.00     0.166 HD
HETATM   15  N5  UNL     1     -29.525  21.015  34.039  1.00  0.00    -0.351 N 
ATOM     16  H5  UNL     1     -28.568  20.728  33.830  1.00  0.00     0.166 HD
ENDBRANCH   9  10
ENDBRANCH   7   8
BRANCH   1  17
HETATM   17  C1  UNL     1     -26.633  18.214  36.557  1.00  0.00     0.145 C 
BRANCH  17  18
HETATM   18  N2  UNL     1     -25.673  18.239  35.496  1.00  0.00    -0.342 N 
ATOM     19  H2  UNL     1     -25.017  17.475  35.336  1.00  0.00     0.179 HD
BRANCH  18  20
HETATM   20  N1  UNL     1     -25.696  19.365  34.708  1.00  0.00    -0.349 N 
ATOM     21  H12 UNL     1     -25.564  20.295  35.106  1.00  0.00     0.176 HD
ATOM     22  H11 UNL     1     -25.851  19.201  33.714  1.00  0.00     0.176 HD
ENDBRANCH  18  20
ENDBRANCH  17  18
ENDBRANCH   1  17
BRANCH   3  23
HETATM   23  C5  UNL     1     -28.117  14.199  34.101  1.00  0.00     0.197 C 
BRANCH  23  24
HETATM   24  O1  UNL     1     -27.868  14.949  32.954  1.00  0.00    -0.399 OA
ATOM     25  H1  UNL     1     -28.613  14.941  32.364  1.00  0.00     0.209 HD
ENDBRANCH  23  24
ENDBRANCH   3  23
TORSDOF 7
ENDMDL
MODEL 2
REMARK VINA RESULT: -7.445394343      2.452      3.940
REMARK  7 active torsions:
REMARK  status: ('A' for Active; 'I' for Inactive)
REMARK    1  A    between atoms: N1_1  and  N2_4 
REMARK    2  A    between atoms: N2_4  and  C1_6 
REMARK    3  A    between atoms: C1_6  and  C2_7 
REMARK    4  A    between atoms: C4_9  and  C5_10 
REMARK    5  A    between atoms: C5_10  and  O1_11 
REMARK    6  A    between atoms: C6_16  and  C7_17 
REMARK    7  A    between atoms: C8_18  and  C9_19 
ROOT
HETATM    1  C2  UNL     1     -28.806  16.956  34.429  1.00  0.00     0.041 C 
HETATM    2  C3  UNL     1     -27.613  17.309  35.291  1.00  0.00     0.044 C 
HETATM    3  C4  UNL     1     -27.074  18.507  34.533  1.00  0.00     0.210 C 
HETATM    4  N3  UNL     1     -28.273  19.265  34.304  1.00  0.00    -0.061 N 
ATOM      5  H31 UNL     1     -28.190  19.918  33.525  1.00  0.00     0.278 HD
ATOM      6  H32 UNL     1     -28.456  19.953  35.033  1.00  0.00     0.278 HD
HETATM    7  C6  UNL     1     -29.354  18.313  34.136  1.00  0.00     0.215 C 
ENDROOT
BRANCH   7   8
HETATM    8  C7  UNL     1     -30.441  18.739  35.037  1.00  0.00     0.008 C 
HETATM    9  C8  UNL     1     -31.076  19.868  34.764  1.00  0.00     0.029 C 
BRANCH   9  10
HETATM   10  C9  UNL     1     -32.171  20.330  35.643  1.00  0.00     0.048 A 
HETATM   11  C10 UNL     1     -32.989  21.415  35.465  1.00  0.00     0.118 A 
HETATM   12  N4  UNL     1     -33.859  21.495  36.486  1.00  0.00    -0.360 N 
HETATM   13  C11 UNL     1     -33.589  20.465  37.301  1.00  0.00     0.180 A 
ATOM     14  H4  UNL     1     -34.583  22.201  36.615  1.00  0.00     0.166 HD
HETATM   15  N5  UNL     1     -32.563  19.751  36.794  1.00  0.00    -0.351 N 
ATOM     16  H5  UNL     1     -32.154  18.915  37.211  1.00  0.00     0.166 HD
ENDBRANCH   9  10
ENDBRANCH   7   8
BRANCH   1  17
HETATM   17  C1  UNL     1     -29.755  16.011  35.070  1.00  0.00     0.145 C 
BRANCH  17  18
HETATM   18  N2  UNL     1     -29.158  14.714  35.150  1.00  0.00    -0.342 N 
ATOM     19  H2  UNL     1     -28.197  14.574  35.461  1.00  0.00     0.179 HD
BRANCH  18  20
HETATM   20  N1  UNL     1     -29.969  13.668  34.777  1.00  0.00    -0.349 N 
ATOM     21  H12 UNL     1     -30.703  13.787  34.079  1.00  0.00     0.176 HD
ATOM     22  H11 UNL     1     -29.783  12.781  35.245  1.00  0.00     0.176 HD
ENDBRANCH  18  20
ENDBRANCH  17  18
ENDBRANCH   1  17
BRANCH   3  23
HETATM   23  C5  UNL     1     -26.059  19.268  35.356  1.00  0.00     0.197 C 
BRANCH  23  24
HETATM   24  O1  UNL     1     -25.570  18.495  36.406  1.00  0.00    -0.399 OA
ATOM     25  H1  UNL     1     -25.959  18.747  37.235  1.00  0.00     0.209 HD
ENDBRANCH  23  24
ENDBRANCH   3  23
TORSDOF 7
ENDMDL
MODEL 3
REMARK VINA RESULT: -7.381628248      1.048      1.098
REMARK  7 active torsions:
REMARK  status: ('A' for Active; 'I' for Inactive)
REMARK    1  A    between atoms: N1_1  and  N2_4 
REMARK    2  A    between atoms: N2_4  and  C1_6 
REMARK    3  A    between atoms: C1_6  and  C2_7 
REMARK    4  A    between atoms: C4_9  and  C5_10 
REMARK    5  A    between atoms: C5_10  and  O1_11 
REMARK    6  A    between atoms: C6_16  and  C7_17 
REMARK    7  A    between atoms: C8_18  and  C9_19 
ROOT
HETATM    1  C2  UNL     1     -27.528  16.854  36.405  1.00  0.00     0.041 C 
HETATM    2  C3  UNL     1     -27.062  15.900  35.326  1.00  0.00     0.044 C 
HETATM    3  C4  UNL     1     -28.252  14.962  35.258  1.00  0.00     0.210 C 
HETATM    4  N3  UNL     1     -29.348  15.890  35.226  1.00  0.00    -0.061 N 
ATOM      5  H31 UNL     1     -30.230  15.476  35.526  1.00  0.00     0.278 HD
ATOM      6  H32 UNL     1     -29.635  16.136  34.279  1.00  0.00     0.278 HD
HETATM    7  C6  UNL     1     -28.959  17.039  36.019  1.00  0.00     0.215 C 
ENDROOT
BRANCH   7   8
HETATM    8  C7  UNL     1     -29.217  18.234  35.194  1.00  0.00     0.008 C 
HETATM    9  C8  UNL     1     -30.105  19.115  35.627  1.00  0.00     0.029 C 
BRANCH   9  10
HETATM   10  C9  UNL     1     -30.392  20.326  34.829  1.00  0.00     0.048 A 
HETATM   11  C10 UNL     1     -31.517  21.107  34.867  1.00  0.00     0.118 A 
HETATM   12  N4  UNL     1     -31.392  22.117  33.988  1.00  0.00    -0.360 N 
HETATM   13  C11 UNL     1     -30.196  21.970  33.402  1.00  0.00     0.180 A 
ATOM     14  H4  UNL     1     -32.075  22.851  33.803  1.00  0.00     0.166 HD
HETATM   15  N5  UNL     1     -29.581  20.881  33.910  1.00  0.00    -0.351 N 
ATOM     16  H5  UNL     1     -28.658  20.539  33.642  1.00  0.00     0.166 HD
ENDBRANCH   9  10
ENDBRANCH   7   8
BRANCH   1  17
HETATM   17  C1  UNL     1     -26.727  18.100  36.497  1.00  0.00     0.145 C 
BRANCH  17  18
HETATM   18  N2  UNL     1     -26.807  18.624  37.825  1.00  0.00    -0.342 N 
ATOM     19  H2  UNL     1     -26.493  18.096  38.639  1.00  0.00     0.179 HD
BRANCH  18  20
HETATM   20  N1  UNL     1     -27.337  19.888  37.928  1.00  0.00    -0.349 N 
ATOM     21  H12 UNL     1     -27.199  20.584  37.195  1.00  0.00     0.176 HD
ATOM     22  H11 UNL     1     -27.868  20.072  38.779  1.00  0.00     0.176 HD
ENDBRANCH  18  20
ENDBRANCH  17  18
ENDBRANCH   1  17
BRANCH   3  23
HETATM   23  C5  UNL     1     -28.196  14.090  34.024  1.00  0.00     0.197 C 
BRANCH  23  24
HETATM   24  O1  UNL     1     -27.886  14.833  32.887  1.00  0.00    -0.399 OA
ATOM     25  H1  UNL     1     -26.963  15.054  32.857  1.00  0.00     0.209 HD
ENDBRANCH  23  24
ENDBRANCH   3  23
TORSDOF 7
ENDMDL
MODEL 4
REMARK VINA RESULT: -7.296043455      3.389      5.002
REMARK  7 active torsions:
REMARK  status: ('A' for Active; 'I' for Inactive)
REMARK    1  A    between atoms: N1_1  and  N2_4 
REMARK    2  A    between atoms: N2_4  and  C1_6 
REMARK    3  A    between atoms: C1_6  and  C2_7 
REMARK    4  A    between atoms: C4_9  and  C5_10 
REMARK    5  A    between atoms: C5_10  and  O1_11 
REMARK    6  A    between atoms: C6_16  and  C7_17 
REMARK    7  A    between atoms: C8_18  and  C9_19 
ROOT
HETATM    1  C2  UNL     1     -30.212  20.484  34.554  1.00  0.00     0.041 C 
HETATM    2  C3  UNL     1     -30.301  19.180  33.790  1.00  0.00     0.044 C 
HETATM    3  C4  UNL     1     -29.741  18.220  34.821  1.00  0.00     0.210 C 
HETATM    4  N3  UNL     1     -30.453  18.619  36.003  1.00  0.00    -0.061 N 
ATOM      5  H31 UNL     1     -29.984  18.343  36.865  1.00  0.00     0.278 HD
ATOM      6  H32 UNL     1     -31.314  18.092  36.148  1.00  0.00     0.278 HD
HETATM    7  C6  UNL     1     -30.672  20.049  35.907  1.00  0.00     0.215 C 
ENDROOT
BRANCH   7   8
HETATM    8  C7  UNL     1     -32.106  20.279  36.165  1.00  0.00     0.008 C 
HETATM    9  C8  UNL     1     -32.630  19.785  37.276  1.00  0.00     0.029 C 
BRANCH   9  10
HETATM   10  C9  UNL     1     -34.063  19.993  37.571  1.00  0.00     0.048 A 
HETATM   11  C10 UNL     1     -34.707  21.180  37.806  1.00  0.00     0.118 A 
HETATM   12  N4  UNL     1     -36.010  20.947  38.036  1.00  0.00    -0.360 N 
HETATM   13  C11 UNL     1     -36.185  19.621  37.946  1.00  0.00     0.180 A 
ATOM     14  H4  UNL     1     -36.727  21.643  38.238  1.00  0.00     0.166 HD
HETATM   15  N5  UNL     1     -35.003  19.034  37.663  1.00  0.00    -0.351 N 
ATOM     16  H5  UNL     1     -34.849  18.033  37.539  1.00  0.00     0.166 HD
ENDBRANCH   9  10
ENDBRANCH   7   8
BRANCH   1  17
HETATM   17  C1  UNL     1     -30.985  21.595  33.946  1.00  0.00     0.145 C 
BRANCH  17  18
HETATM   18  N2  UNL     1     -30.229  22.177  32.880  1.00  0.00    -0.342 N 
ATOM     19  H2  UNL     1     -30.440  21.995  31.899  1.00  0.00     0.179 HD
BRANCH  18  20
HETATM   20  N1  UNL     1     -29.197  22.998  33.269  1.00  0.00    -0.349 N 
ATOM     21  H12 UNL     1     -28.836  22.982  34.223  1.00  0.00     0.176 HD
ATOM     22  H11 UNL     1     -28.829  23.612  32.543  1.00  0.00     0.176 HD
ENDBRANCH  18  20
ENDBRANCH  17  18
ENDBRANCH   1  17
BRANCH   3  23
HETATM   23  C5  UNL     1     -30.014  16.782  34.440  1.00  0.00     0.197 C 
BRANCH  23  24
HETATM   24  O1  UNL     1     -31.344  16.595  34.072  1.00  0.00    -0.399 OA
ATOM     25  H1  UNL     1     -31.674  15.756  34.373  1.00  0.00     0.209 HD
ENDBRANCH  23  24
ENDBRANCH   3  23
TORSDOF 7
ENDMDL
MODEL 5
REMARK VINA RESULT: -7.211048749      1.989      2.266
REMARK  7 active torsions:
REMARK  status: ('A' for Active; 'I' for Inactive)
REMARK    1  A    between atoms: N1_1  and  N2_4 
REMARK    2  A    between atoms: N2_4  and  C1_6 
REMARK    3  A    between atoms: C1_6  and  C2_7 
REMARK    4  A    between atoms: C4_9  and  C5_10 
REMARK    5  A    between atoms: C5_10  and  O1_11 
REMARK    6  A    between atoms: C6_16  and  C7_17 
REMARK    7  A    between atoms: C8_18  and  C9_19 
ROOT
HETATM    1  C2  UNL     1     -27.243  17.715  36.072  1.00  0.00     0.041 C 
HETATM    2  C3  UNL     1     -26.855  17.725  34.609  1.00  0.00     0.044 C 
HETATM    3  C4  UNL     1     -27.681  16.560  34.099  1.00  0.00     0.210 C 
HETATM    4  N3  UNL     1     -28.961  16.834  34.692  1.00  0.00    -0.061 N 
ATOM      5  H31 UNL     1     -29.554  16.008  34.762  1.00  0.00     0.278 HD
ATOM      6  H32 UNL     1     -29.572  17.383  34.087  1.00  0.00     0.278 HD
HETATM    7  C6  UNL     1     -28.712  17.467  35.973  1.00  0.00     0.215 C 
ENDROOT
BRANCH   7   8
HETATM    8  C7  UNL     1     -29.541  18.686  36.014  1.00  0.00     0.008 C 
HETATM    9  C8  UNL     1     -30.545  18.791  35.158  1.00  0.00     0.029 C 
BRANCH   9  10
HETATM   10  C9  UNL     1     -31.399  19.998  35.167  1.00  0.00     0.048 A 
HETATM   11  C10 UNL     1     -31.139  21.214  34.591  1.00  0.00     0.118 A 
HETATM   12  N4  UNL     1     -32.165  22.050  34.824  1.00  0.00    -0.360 N 
HETATM   13  C11 UNL     1     -33.064  21.363  35.543  1.00  0.00     0.180 A 
ATOM     14  H4  UNL     1     -32.244  23.018  34.514  1.00  0.00     0.166 HD
HETATM   15  N5  UNL     1     -32.604  20.112  35.755  1.00  0.00    -0.351 N 
ATOM     16  H5  UNL     1     -33.088  19.379  36.273  1.00  0.00     0.166 HD
ENDBRANCH   9  10
ENDBRANCH   7   8
BRANCH   1  17
HETATM   17  C1  UNL     1     -26.854  18.944  36.808  1.00  0.00     0.145 C 
BRANCH  17  18
HETATM   18  N2  UNL     1     -27.110  18.767  38.204  1.00  0.00    -0.342 N 
ATOM     19  H2  UNL     1     -27.296  17.851  38.612  1.00  0.00     0.179 HD
BRANCH  18  20
HETATM   20  N1  UNL     1     -27.088  19.916  38.958  1.00  0.00    -0.349 N 
ATOM     21  H12 UNL     1     -27.824  20.618  38.878  1.00  0.00     0.176 HD
ATOM     22  H11 UNL     1     -26.293  20.010  39.590  1.00  0.00     0.176 HD
ENDBRANCH  18  20
ENDBRANCH  17  18
ENDBRANCH   1  17
BRANCH   3  23
HETATM   23  C5  UNL     1     -27.736  16.543  32.588  1.00  0.00     0.197 C 
BRANCH  23  24
HETATM   24  O1  UNL     1     -26.987  17.580  32.038  1.00  0.00    -0.399 OA
ATOM     25  H1  UNL     1     -27.267  18.426  32.368  1.00  0.00     0.209 HD
ENDBRANCH  23  24
ENDBRANCH   3  23
TORSDOF 7
ENDMDL
