MODEL 1
REMARK VINA RESULT: -7.007920609      0.000      0.000
REMARK  5 active torsions:
REMARK  status: ('A' for Active; 'I' for Inactive)
REMARK       I    between atoms: C2_4  and  N2_5 
REMARK       I    between atoms: C2_4  and  N4_9 
REMARK    1  A    between atoms: N4_9  and  C4_11 
REMARK    2  A    between atoms: C4_11  and  C6_13 
REMARK    3  A    between atoms: C6_13  and  N5_14 
REMARK    4  A    between atoms: N5_14  and  C7_16 
REMARK    5  A    between atoms: C7_16  and  C8_17 
ROOT
HETATM    1  C1  UNL     1     -32.017 -19.620  10.189  1.00  0.00     0.165 C 
HETATM    2  N1  UNL     1     -31.529 -20.156   8.938  1.00  0.00    -0.230 N 
ATOM      3  H1  UNL     1     -32.093 -20.854   8.454  1.00  0.00     0.177 HD
HETATM    4  C2  UNL     1     -30.413 -19.792   8.407  1.00  0.00     0.682 C 
HETATM    5  N2  UNL     1     -30.040 -20.387   7.180  1.00  0.00    -0.126 N 
ATOM      6  H2  UNL     1     -30.295 -19.912   6.315  1.00  0.00     0.197 HD
HETATM    7  C3  UNL     1     -29.336 -21.598   7.091  1.00  0.00     0.196 C 
HETATM    8  N3  UNL     1     -28.755 -22.595   7.031  1.00  0.00    -0.171 NA
HETATM    9  N4  UNL     1     -29.637 -18.825   9.082  1.00  0.00    -0.220 N 
ATOM     10  H4  UNL     1     -29.591 -18.879  10.099  1.00  0.00     0.178 HD
ENDROOT
BRANCH   9  11
HETATM   11  C4  UNL     1     -28.907 -17.772   8.438  1.00  0.00     0.112 C 
HETATM   12  C5  UNL     1     -29.041 -16.510   9.299  1.00  0.00     0.034 C 
BRANCH  11  13
HETATM   13  C6  UNL     1     -27.428 -18.058   8.360  1.00  0.00     0.139 C 
BRANCH  13  14
HETATM   14  N5  UNL     1     -26.708 -17.799   9.554  1.00  0.00    -0.415 N 
ATOM     15  H5  UNL     1     -26.424 -16.857   9.822  1.00  0.00     0.153 HD
BRANCH  14  16
HETATM   16  C7  UNL     1     -26.408 -18.940  10.352  1.00  0.00     0.152 C 
BRANCH  16  17
HETATM   17  C8  UNL     1     -25.748 -18.575  11.605  1.00  0.00    -0.041 A 
HETATM   18  C9  UNL     1     -25.913 -17.344  12.234  1.00  0.00     0.009 A 
HETATM   19  C10 UNL     1     -25.260 -17.061  13.420  1.00  0.00     0.001 A 
HETATM   20  C11 UNL     1     -24.430 -17.979  14.017  1.00  0.00     0.000 A 
HETATM   21  C12 UNL     1     -24.260 -19.201  13.403  1.00  0.00     0.001 A 
HETATM   22  C13 UNL     1     -24.912 -19.474  12.227  1.00  0.00     0.009 A 
ENDBRANCH  16  17
ENDBRANCH  14  16
ENDBRANCH  13  14
ENDBRANCH  11  13
ENDBRANCH   9  11
TORSDOF 5
ENDMDL
MODEL 2
REMARK VINA RESULT: -6.980000592      1.558      2.763
REMARK  5 active torsions:
REMARK  status: ('A' for Active; 'I' for Inactive)
REMARK       I    between atoms: C2_4  and  N2_5 
REMARK       I    between atoms: C2_4  and  N4_9 
REMARK    1  A    between atoms: N4_9  and  C4_11 
REMARK    2  A    between atoms: C4_11  and  C6_13 
REMARK    3  A    between atoms: C6_13  and  N5_14 
REMARK    4  A    between atoms: N5_14  and  C7_16 
REMARK    5  A    between atoms: C7_16  and  C8_17 
ROOT
HETATM    1  C1  UNL     1     -28.993 -16.418   8.148  1.00  0.00     0.165 C 
HETATM    2  N1  UNL     1     -29.394 -17.634   7.476  1.00  0.00    -0.230 N 
ATOM      3  H1  UNL     1     -29.318 -17.676   6.460  1.00  0.00     0.177 HD
HETATM    4  C2  UNL     1     -29.844 -18.665   8.104  1.00  0.00     0.682 C 
HETATM    5  N2  UNL     1     -30.205 -19.798   7.339  1.00  0.00    -0.126 N 
ATOM      6  H2  UNL     1     -29.507 -20.526   7.194  1.00  0.00     0.197 HD
HETATM    7  C3  UNL     1     -31.475 -19.971   6.767  1.00  0.00     0.196 C 
HETATM    8  N3  UNL     1     -32.525 -20.103   6.303  1.00  0.00    -0.171 NA
HETATM    9  N4  UNL     1     -29.947 -18.599   9.511  1.00  0.00    -0.220 N 
ATOM     10  H4  UNL     1     -30.257 -17.720   9.922  1.00  0.00     0.178 HD
ENDROOT
BRANCH   9  11
HETATM   11  C4  UNL     1     -29.645 -19.682  10.401  1.00  0.00     0.112 C 
HETATM   12  C5  UNL     1     -30.874 -20.597  10.464  1.00  0.00     0.034 C 
BRANCH  11  13
HETATM   13  C6  UNL     1     -28.517 -20.547   9.895  1.00  0.00     0.139 C 
BRANCH  13  14
HETATM   14  N5  UNL     1     -27.279 -20.358  10.558  1.00  0.00    -0.415 N 
ATOM     15  H5  UNL     1     -26.872 -21.071  11.163  1.00  0.00     0.153 HD
BRANCH  14  16
HETATM   16  C7  UNL     1     -26.640 -19.106  10.324  1.00  0.00     0.152 C 
BRANCH  16  17
HETATM   17  C8  UNL     1     -25.941 -18.616  11.512  1.00  0.00    -0.041 A 
HETATM   18  C9  UNL     1     -25.020 -19.372  12.231  1.00  0.00     0.009 A 
HETATM   19  C10 UNL     1     -24.391 -18.851  13.347  1.00  0.00     0.001 A 
HETATM   20  C11 UNL     1     -24.651 -17.573  13.784  1.00  0.00     0.000 A 
HETATM   21  C12 UNL     1     -25.560 -16.816  13.078  1.00  0.00     0.001 A 
HETATM   22  C13 UNL     1     -26.180 -17.342  11.972  1.00  0.00     0.009 A 
ENDBRANCH  16  17
ENDBRANCH  14  16
ENDBRANCH  13  14
ENDBRANCH  11  13
ENDBRANCH   9  11
TORSDOF 5
ENDMDL
MODEL 3
REMARK VINA RESULT: -6.929675648      1.589      2.772
REMARK  5 active torsions:
REMARK  status: ('A' for Active; 'I' for Inactive)
REMARK       I    between atoms: C2_4  and  N2_5 
REMARK       I    between atoms: C2_4  and  N4_9 
REMARK    1  A    between atoms: N4_9  and  C4_11 
REMARK    2  A    between atoms: C4_11  and  C6_13 
REMARK    3  A    between atoms: C6_13  and  N5_14 
REMARK    4  A    between atoms: N5_14  and  C7_16 
REMARK    5  A    between atoms: C7_16  and  C8_17 
ROOT
HETATM    1  C1  UNL     1     -28.881 -16.677   8.115  1.00  0.00     0.165 C 
HETATM    2  N1  UNL     1     -29.782 -17.567   7.417  1.00  0.00    -0.230 N 
ATOM      3  H1  UNL     1     -30.077 -17.320   6.473  1.00  0.00     0.177 HD
HETATM    4  C2  UNL     1     -30.228 -18.659   7.935  1.00  0.00     0.682 C 
HETATM    5  N2  UNL     1     -31.105 -19.449   7.157  1.00  0.00    -0.126 N 
ATOM      6  H2  UNL     1     -30.707 -20.199   6.591  1.00  0.00     0.197 HD
HETATM    7  C3  UNL     1     -32.494 -19.256   7.121  1.00  0.00     0.196 C 
HETATM    8  N3  UNL     1     -33.637 -19.088   7.102  1.00  0.00    -0.171 NA
HETATM    9  N4  UNL     1     -29.815 -18.996   9.243  1.00  0.00    -0.220 N 
ATOM     10  H4  UNL     1     -29.733 -18.241   9.923  1.00  0.00     0.178 HD
ENDROOT
BRANCH   9  11
HETATM   11  C4  UNL     1     -29.505 -20.325   9.681  1.00  0.00     0.112 C 
HETATM   12  C5  UNL     1     -28.899 -21.084   8.494  1.00  0.00     0.034 C 
BRANCH  11  13
HETATM   13  C6  UNL     1     -28.450 -20.345  10.760  1.00  0.00     0.139 C 
BRANCH  13  14
HETATM   14  N5  UNL     1     -27.138 -20.042  10.315  1.00  0.00    -0.415 N 
ATOM     15  H5  UNL     1     -26.516 -20.755   9.934  1.00  0.00     0.153 HD
BRANCH  14  16
HETATM   16  C7  UNL     1     -26.747 -18.678  10.436  1.00  0.00     0.152 C 
BRANCH  16  17
HETATM   17  C8  UNL     1     -25.945 -18.441  11.637  1.00  0.00    -0.041 A 
HETATM   18  C9  UNL     1     -25.976 -17.255  12.363  1.00  0.00     0.009 A 
HETATM   19  C10 UNL     1     -25.194 -17.094  13.492  1.00  0.00     0.001 A 
HETATM   20  C11 UNL     1     -24.361 -18.095  13.935  1.00  0.00     0.000 A 
HETATM   21  C12 UNL     1     -24.324 -19.274  13.223  1.00  0.00     0.001 A 
HETATM   22  C13 UNL     1     -25.104 -19.425  12.104  1.00  0.00     0.009 A 
ENDBRANCH  16  17
ENDBRANCH  14  16
ENDBRANCH  13  14
ENDBRANCH  11  13
ENDBRANCH   9  11
TORSDOF 5
ENDMDL
MODEL 4
REMARK VINA RESULT: -6.892335776      1.624      3.025
REMARK  5 active torsions:
REMARK  status: ('A' for Active; 'I' for Inactive)
REMARK       I    between atoms: C2_4  and  N2_5 
REMARK       I    between atoms: C2_4  and  N4_9 
REMARK    1  A    between atoms: N4_9  and  C4_11 
REMARK    2  A    between atoms: C4_11  and  C6_13 
REMARK    3  A    between atoms: C6_13  and  N5_14 
REMARK    4  A    between atoms: N5_14  and  C7_16 
REMARK    5  A    between atoms: C7_16  and  C8_17 
ROOT
HETATM    1  C1  UNL     1     -30.972 -19.985   6.868  1.00  0.00     0.165 C 
HETATM    2  N1  UNL     1     -30.721 -18.709   7.498  1.00  0.00    -0.230 N 
ATOM      3  H1  UNL     1     -31.160 -17.876   7.105  1.00  0.00     0.177 HD
HETATM    4  C2  UNL     1     -29.966 -18.576   8.534  1.00  0.00     0.682 C 
HETATM    5  N2  UNL     1     -29.794 -17.276   9.063  1.00  0.00    -0.126 N 
ATOM      6  H2  UNL     1     -30.415 -16.973   9.812  1.00  0.00     0.197 HD
HETATM    7  C3  UNL     1     -28.812 -16.381   8.611  1.00  0.00     0.196 C 
HETATM    8  N3  UNL     1     -27.999 -15.654   8.231  1.00  0.00    -0.171 NA
HETATM    9  N4  UNL     1     -29.361 -19.732   9.073  1.00  0.00    -0.220 N 
ATOM     10  H4  UNL     1     -29.015 -20.434   8.419  1.00  0.00     0.178 HD
ENDROOT
BRANCH   9  11
HETATM   11  C4  UNL     1     -29.199 -19.989  10.474  1.00  0.00     0.112 C 
HETATM   12  C5  UNL     1     -30.198 -21.082  10.872  1.00  0.00     0.034 C 
BRANCH  11  13
HETATM   13  C6  UNL     1     -27.835 -20.541  10.806  1.00  0.00     0.139 C 
BRANCH  13  14
HETATM   14  N5  UNL     1     -26.751 -19.845  10.216  1.00  0.00    -0.415 N 
ATOM     15  H5  UNL     1     -26.118 -20.288   9.549  1.00  0.00     0.153 HD
BRANCH  14  16
HETATM   16  C7  UNL     1     -26.603 -18.485  10.615  1.00  0.00     0.152 C 
BRANCH  16  17
HETATM   17  C8  UNL     1     -25.777 -18.353  11.816  1.00  0.00    -0.041 A 
HETATM   18  C9  UNL     1     -25.763 -17.217  12.621  1.00  0.00     0.009 A 
HETATM   19  C10 UNL     1     -24.960 -17.155  13.745  1.00  0.00     0.001 A 
HETATM   20  C11 UNL     1     -24.151 -18.207  14.106  1.00  0.00     0.000 A 
HETATM   21  C12 UNL     1     -24.159 -19.336  13.317  1.00  0.00     0.001 A 
HETATM   22  C13 UNL     1     -24.959 -19.390  12.203  1.00  0.00     0.009 A 
ENDBRANCH  16  17
ENDBRANCH  14  16
ENDBRANCH  13  14
ENDBRANCH  11  13
ENDBRANCH   9  11
TORSDOF 5
ENDMDL
MODEL 5
REMARK VINA RESULT: -6.848729585      1.514      1.775
REMARK  5 active torsions:
REMARK  status: ('A' for Active; 'I' for Inactive)
REMARK       I    between atoms: C2_4  and  N2_5 
REMARK       I    between atoms: C2_4  and  N4_9 
REMARK    1  A    between atoms: N4_9  and  C4_11 
REMARK    2  A    between atoms: C4_11  and  C6_13 
REMARK    3  A    between atoms: C6_13  and  N5_14 
REMARK    4  A    between atoms: N5_14  and  C7_16 
REMARK    5  A    between atoms: C7_16  and  C8_17 
ROOT
HETATM    1  C1  UNL     1     -29.191 -20.852  10.612  1.00  0.00     0.165 C 
HETATM    2  N1  UNL     1     -30.174 -20.197   9.777  1.00  0.00    -0.230 N 
ATOM      3  H1  UNL     1     -31.148 -20.199  10.077  1.00  0.00     0.177 HD
HETATM    4  C2  UNL     1     -29.873 -19.611   8.669  1.00  0.00     0.682 C 
HETATM    5  N2  UNL     1     -30.919 -19.005   7.937  1.00  0.00    -0.126 N 
ATOM      6  H2  UNL     1     -31.110 -18.016   8.095  1.00  0.00     0.197 HD
HETATM    7  C3  UNL     1     -31.710 -19.694   7.005  1.00  0.00     0.196 C 
HETATM    8  N3  UNL     1     -32.353 -20.271   6.238  1.00  0.00    -0.171 NA
HETATM    9  N4  UNL     1     -28.522 -19.611   8.259  1.00  0.00    -0.220 N 
ATOM     10  H4  UNL     1     -27.979 -20.460   8.417  1.00  0.00     0.178 HD
ENDROOT
BRANCH   9  11
HETATM   11  C4  UNL     1     -27.860 -18.503   7.635  1.00  0.00     0.112 C 
HETATM   12  C5  UNL     1     -28.740 -17.261   7.825  1.00  0.00     0.034 C 
BRANCH  11  13
HETATM   13  C6  UNL     1     -26.542 -18.174   8.290  1.00  0.00     0.139 C 
BRANCH  13  14
HETATM   14  N5  UNL     1     -26.353 -18.751   9.571  1.00  0.00    -0.415 N 
ATOM     15  H5  UNL     1     -25.953 -19.681   9.694  1.00  0.00     0.153 HD
BRANCH  14  16
HETATM   16  C7  UNL     1     -26.760 -17.946  10.674  1.00  0.00     0.152 C 
BRANCH  16  17
HETATM   17  C8  UNL     1     -25.871 -18.104  11.825  1.00  0.00    -0.041 A 
HETATM   18  C9  UNL     1     -25.626 -17.097  12.754  1.00  0.00     0.009 A 
HETATM   19  C10 UNL     1     -24.775 -17.311  13.823  1.00  0.00     0.001 A 
HETATM   20  C11 UNL     1     -24.144 -18.519  14.006  1.00  0.00     0.000 A 
HETATM   21  C12 UNL     1     -24.381 -19.523  13.092  1.00  0.00     0.001 A 
HETATM   22  C13 UNL     1     -25.227 -19.302  12.035  1.00  0.00     0.009 A 
ENDBRANCH  16  17
ENDBRANCH  14  16
ENDBRANCH  13  14
ENDBRANCH  11  13
ENDBRANCH   9  11
TORSDOF 5
ENDMDL
