MODEL 1
REMARK VINA RESULT: -6.790421330      0.000      0.000
REMARK  8 active torsions:
REMARK  status: ('A' for Active; 'I' for Inactive)
REMARK    1  A    between atoms: C2_2  and  C3_3 
REMARK    2  A    between atoms: C3_3  and  C4_4 
REMARK    3  A    between atoms: C4_4  and  C5_5 
REMARK    4  A    between atoms: C5_5  and  N1_6 
REMARK    5  A    between atoms: C5_5  and  C6_10 
REMARK    6  A    between atoms: C6_10  and  N3_14 
REMARK    7  A    between atoms: N3_14  and  C7_16 
REMARK    8  A    between atoms: C7_16  and  C8_17 
ROOT
HETATM    1  C6  UNL     1      17.983  27.205  -8.786  1.00  0.00     0.102 C 
HETATM    2  N2  UNL     1      16.691  27.348  -8.922  1.00  0.00    -0.387 N 
ATOM      3  H21 UNL     1      16.191  26.745  -9.575  1.00  0.00     0.157 HD
ATOM      4  H22 UNL     1      16.191  28.053  -8.379  1.00  0.00     0.157 HD
ENDROOT
BRANCH   1   5
HETATM    5  C5  UNL     1      18.705  28.078  -7.843  1.00  0.00     0.250 C 
BRANCH   5   6
HETATM    6  C4  UNL     1      19.198  29.363  -8.407  1.00  0.00     0.044 C 
BRANCH   6   7
HETATM    7  C3  UNL     1      20.673  29.465  -8.613  1.00  0.00     0.028 C 
BRANCH   7   8
HETATM    8  C2  UNL     1      21.320  29.571  -7.282  1.00  0.00    -0.037 C 
HETATM    9  C1  UNL     1      22.335  28.778  -6.975  1.00  0.00     0.007 C 
ENDBRANCH   7   8
ENDBRANCH   6   7
ENDBRANCH   5   6
BRANCH   5  10
HETATM   10  N1  UNL     1      17.780  28.307  -6.724  1.00  0.00    -0.068 N 
ATOM     11  H13 UNL     1      17.326  27.442  -6.430  1.00  0.00     0.275 HD
ATOM     12  H12 UNL     1      18.280  28.522  -5.862  1.00  0.00     0.275 HD
ATOM     13  H11 UNL     1      17.097  29.030  -6.952  1.00  0.00     0.275 HD
ENDBRANCH   5  10
ENDBRANCH   1   5
BRANCH   1  14
HETATM   14  N3  UNL     1      18.674  26.230  -9.537  1.00  0.00    -0.374 N 
ATOM     15  H3  UNL     1      18.673  25.258  -9.229  1.00  0.00     0.161 HD
BRANCH  14  16
HETATM   16  C7  UNL     1      19.396  26.608 -10.759  1.00  0.00     0.159 C 
BRANCH  16  17
HETATM   17  C8  UNL     1      18.771  25.851 -11.871  1.00  0.00    -0.041 A 
HETATM   18  C9  UNL     1      19.517  24.944 -12.598  1.00  0.00     0.009 A 
HETATM   19  C10 UNL     1      18.954  24.230 -13.637  1.00  0.00     0.001 A 
HETATM   20  C11 UNL     1      17.627  24.443 -13.937  1.00  0.00     0.000 A 
HETATM   21  C12 UNL     1      16.837  25.338 -13.245  1.00  0.00     0.001 A 
HETATM   22  C13 UNL     1      17.433  26.036 -12.209  1.00  0.00     0.009 A 
ENDBRANCH  16  17
ENDBRANCH  14  16
ENDBRANCH   1  14
TORSDOF 8
ENDMDL
MODEL 2
REMARK VINA RESULT: -6.773172802      0.054      1.202
REMARK  8 active torsions:
REMARK  status: ('A' for Active; 'I' for Inactive)
REMARK    1  A    between atoms: C2_2  and  C3_3 
REMARK    2  A    between atoms: C3_3  and  C4_4 
REMARK    3  A    between atoms: C4_4  and  C5_5 
REMARK    4  A    between atoms: C5_5  and  N1_6 
REMARK    5  A    between atoms: C5_5  and  C6_10 
REMARK    6  A    between atoms: C6_10  and  N3_14 
REMARK    7  A    between atoms: N3_14  and  C7_16 
REMARK    8  A    between atoms: C7_16  and  C8_17 
ROOT
HETATM    1  C6  UNL     1      18.007  27.223  -8.772  1.00  0.00     0.102 C 
HETATM    2  N2  UNL     1      16.709  27.346  -8.876  1.00  0.00    -0.387 N 
ATOM      3  H21 UNL     1      16.202  26.727  -9.510  1.00  0.00     0.157 HD
ATOM      4  H22 UNL     1      16.212  28.049  -8.329  1.00  0.00     0.157 HD
ENDROOT
BRANCH   1   5
HETATM    5  C5  UNL     1      18.739  28.118  -7.857  1.00  0.00     0.250 C 
BRANCH   5   6
HETATM    6  C4  UNL     1      19.227  29.389  -8.457  1.00  0.00     0.044 C 
BRANCH   6   7
HETATM    7  C3  UNL     1      20.705  29.503  -8.637  1.00  0.00     0.028 C 
BRANCH   7   8
HETATM    8  C2  UNL     1      21.327  29.615  -7.294  1.00  0.00    -0.037 C 
HETATM    9  C1  UNL     1      22.382  28.874  -6.991  1.00  0.00     0.007 C 
ENDBRANCH   7   8
ENDBRANCH   6   7
ENDBRANCH   5   6
BRANCH   5  10
HETATM   10  N1  UNL     1      17.825  28.375  -6.735  1.00  0.00    -0.068 N 
ATOM     11  H13 UNL     1      17.469  29.331  -6.754  1.00  0.00     0.275 HD
ATOM     12  H12 UNL     1      16.942  27.877  -6.849  1.00  0.00     0.275 HD
ATOM     13  H11 UNL     1      18.265  28.157  -5.841  1.00  0.00     0.275 HD
ENDBRANCH   5  10
ENDBRANCH   1   5
BRANCH   1  14
HETATM   14  N3  UNL     1      18.694  26.251  -9.529  1.00  0.00    -0.374 N 
ATOM     15  H3  UNL     1      18.698  25.278  -9.221  1.00  0.00     0.161 HD
BRANCH  14  16
HETATM   16  C7  UNL     1      19.404  26.631 -10.757  1.00  0.00     0.159 C 
BRANCH  16  17
HETATM   17  C8  UNL     1      18.773  25.871 -11.864  1.00  0.00    -0.041 A 
HETATM   18  C9  UNL     1      17.445  26.081 -12.179  1.00  0.00     0.009 A 
HETATM   19  C10 UNL     1      16.839  25.383 -13.206  1.00  0.00     0.001 A 
HETATM   20  C11 UNL     1      17.589  24.469 -13.910  1.00  0.00     0.000 A 
HETATM   21  C12 UNL     1      18.919  24.220 -13.637  1.00  0.00     0.001 A 
HETATM   22  C13 UNL     1      19.494  24.937 -12.601  1.00  0.00     0.009 A 
ENDBRANCH  16  17
ENDBRANCH  14  16
ENDBRANCH   1  14
TORSDOF 8
ENDMDL
MODEL 3
REMARK VINA RESULT: -6.705894758      1.658      3.200
REMARK  8 active torsions:
REMARK  status: ('A' for Active; 'I' for Inactive)
REMARK    1  A    between atoms: C2_2  and  C3_3 
REMARK    2  A    between atoms: C3_3  and  C4_4 
REMARK    3  A    between atoms: C4_4  and  C5_5 
REMARK    4  A    between atoms: C5_5  and  N1_6 
REMARK    5  A    between atoms: C5_5  and  C6_10 
REMARK    6  A    between atoms: C6_10  and  N3_14 
REMARK    7  A    between atoms: N3_14  and  C7_16 
REMARK    8  A    between atoms: C7_16  and  C8_17 
ROOT
HETATM    1  C6  UNL     1      19.770  27.587  -9.538  1.00  0.00     0.102 C 
HETATM    2  N2  UNL     1      20.871  27.886 -10.174  1.00  0.00    -0.387 N 
ATOM      3  H21 UNL     1      21.135  27.338 -10.993  1.00  0.00     0.157 HD
ATOM      4  H22 UNL     1      21.456  28.660  -9.857  1.00  0.00     0.157 HD
ENDROOT
BRANCH   1   5
HETATM    5  C5  UNL     1      19.389  28.380  -8.354  1.00  0.00     0.250 C 
BRANCH   5   6
HETATM    6  C4  UNL     1      18.322  27.787  -7.502  1.00  0.00     0.044 C 
BRANCH   6   7
HETATM    7  C3  UNL     1      17.097  28.620  -7.313  1.00  0.00     0.028 C 
BRANCH   7   8
HETATM    8  C2  UNL     1      16.021  28.060  -8.167  1.00  0.00    -0.037 C 
HETATM    9  C1  UNL     1      15.242  28.872  -8.866  1.00  0.00     0.007 C 
ENDBRANCH   7   8
ENDBRANCH   6   7
ENDBRANCH   5   6
BRANCH   5  10
HETATM   10  N1  UNL     1      20.630  28.579  -7.592  1.00  0.00    -0.068 N 
ATOM     11  H13 UNL     1      21.297  27.827  -7.760  1.00  0.00     0.275 HD
ATOM     12  H12 UNL     1      21.175  29.358  -7.961  1.00  0.00     0.275 HD
ATOM     13  H11 UNL     1      20.438  28.694  -6.596  1.00  0.00     0.275 HD
ENDBRANCH   5  10
ENDBRANCH   1   5
BRANCH   1  14
HETATM   14  N3  UNL     1      18.961  26.518  -9.977  1.00  0.00    -0.374 N 
ATOM     15  H3  UNL     1      19.121  25.578  -9.613  1.00  0.00     0.161 HD
BRANCH  14  16
HETATM   16  C7  UNL     1      17.889  26.749 -10.954  1.00  0.00     0.159 C 
BRANCH  16  17
HETATM   17  C8  UNL     1      18.123  25.802 -12.071  1.00  0.00    -0.041 A 
HETATM   18  C9  UNL     1      17.084  25.454 -12.913  1.00  0.00     0.009 A 
HETATM   19  C10 UNL     1      17.280  24.574 -13.959  1.00  0.00     0.001 A 
HETATM   20  C11 UNL     1      18.538  24.047 -14.145  1.00  0.00     0.000 A 
HETATM   21  C12 UNL     1      19.610  24.359 -13.334  1.00  0.00     0.001 A 
HETATM   22  C13 UNL     1      19.378  25.245 -12.296  1.00  0.00     0.009 A 
ENDBRANCH  16  17
ENDBRANCH  14  16
ENDBRANCH   1  14
TORSDOF 8
ENDMDL
MODEL 4
REMARK VINA RESULT: -6.671046352      1.640      2.826
REMARK  8 active torsions:
REMARK  status: ('A' for Active; 'I' for Inactive)
REMARK    1  A    between atoms: C2_2  and  C3_3 
REMARK    2  A    between atoms: C3_3  and  C4_4 
REMARK    3  A    between atoms: C4_4  and  C5_5 
REMARK    4  A    between atoms: C5_5  and  N1_6 
REMARK    5  A    between atoms: C5_5  and  C6_10 
REMARK    6  A    between atoms: C6_10  and  N3_14 
REMARK    7  A    between atoms: N3_14  and  C7_16 
REMARK    8  A    between atoms: C7_16  and  C8_17 
ROOT
HETATM    1  C6  UNL     1      18.945  27.303  -8.706  1.00  0.00     0.102 C 
HETATM    2  N2  UNL     1      18.934  26.958  -7.445  1.00  0.00    -0.387 N 
ATOM      3  H21 UNL     1      18.929  25.967  -7.202  1.00  0.00     0.157 HD
ATOM      4  H22 UNL     1      18.933  27.672  -6.716  1.00  0.00     0.157 HD
ENDROOT
BRANCH   1   5
HETATM    5  C5  UNL     1      18.952  28.735  -9.057  1.00  0.00     0.250 C 
BRANCH   5   6
HETATM    6  C4  UNL     1      17.626  29.318  -9.396  1.00  0.00     0.044 C 
BRANCH   6   7
HETATM    7  C3  UNL     1      16.640  29.397  -8.277  1.00  0.00     0.028 C 
BRANCH   7   8
HETATM    8  C2  UNL     1      15.398  28.708  -8.705  1.00  0.00    -0.037 C 
HETATM    9  C1  UNL     1      15.422  27.412  -8.978  1.00  0.00     0.007 C 
ENDBRANCH   7   8
ENDBRANCH   6   7
ENDBRANCH   5   6
BRANCH   5  10
HETATM   10  N1  UNL     1      19.558  29.424  -7.908  1.00  0.00    -0.068 N 
ATOM     11  H13 UNL     1      19.453  30.435  -7.980  1.00  0.00     0.275 HD
ATOM     12  H12 UNL     1      19.022  29.271  -7.055  1.00  0.00     0.275 HD
ATOM     13  H11 UNL     1      20.535  29.155  -7.790  1.00  0.00     0.275 HD
ENDBRANCH   5  10
ENDBRANCH   1   5
BRANCH   1  14
HETATM   14  N3  UNL     1      18.947  26.316  -9.715  1.00  0.00    -0.374 N 
ATOM     15  H3  UNL     1      18.471  25.428  -9.556  1.00  0.00     0.161 HD
BRANCH  14  16
HETATM   16  C7  UNL     1      19.631  26.560 -10.991  1.00  0.00     0.159 C 
BRANCH  16  17
HETATM   17  C8  UNL     1      18.872  25.818 -12.027  1.00  0.00    -0.041 A 
HETATM   18  C9  UNL     1      19.518  24.906 -12.839  1.00  0.00     0.009 A 
HETATM   19  C10 UNL     1      18.830  24.204 -13.809  1.00  0.00     0.001 A 
HETATM   20  C11 UNL     1      17.481  24.436 -13.954  1.00  0.00     0.000 A 
HETATM   21  C12 UNL     1      16.787  25.337 -13.172  1.00  0.00     0.001 A 
HETATM   22  C13 UNL     1      17.508  26.022 -12.208  1.00  0.00     0.009 A 
ENDBRANCH  16  17
ENDBRANCH  14  16
ENDBRANCH   1  14
TORSDOF 8
ENDMDL
MODEL 5
REMARK VINA RESULT: -6.657608506      1.221      1.966
REMARK  8 active torsions:
REMARK  status: ('A' for Active; 'I' for Inactive)
REMARK    1  A    between atoms: C2_2  and  C3_3 
REMARK    2  A    between atoms: C3_3  and  C4_4 
REMARK    3  A    between atoms: C4_4  and  C5_5 
REMARK    4  A    between atoms: C5_5  and  N1_6 
REMARK    5  A    between atoms: C5_5  and  C6_10 
REMARK    6  A    between atoms: C6_10  and  N3_14 
REMARK    7  A    between atoms: N3_14  and  C7_16 
REMARK    8  A    between atoms: C7_16  and  C8_17 
ROOT
HETATM    1  C6  UNL     1      17.380  27.221  -9.038  1.00  0.00     0.102 C 
HETATM    2  N2  UNL     1      16.290  27.570  -9.670  1.00  0.00    -0.387 N 
ATOM      3  H21 UNL     1      16.122  27.204 -10.608  1.00  0.00     0.157 HD
ATOM      4  H22 UNL     1      15.618  28.199  -9.230  1.00  0.00     0.157 HD
ENDROOT
BRANCH   1   5
HETATM    5  C5  UNL     1      17.623  27.751  -7.683  1.00  0.00     0.250 C 
BRANCH   5   6
HETATM    6  C4  UNL     1      18.970  28.341  -7.458  1.00  0.00     0.044 C 
BRANCH   6   7
HETATM    7  C3  UNL     1      19.052  29.830  -7.524  1.00  0.00     0.028 C 
BRANCH   7   8
HETATM    8  C2  UNL     1      19.716  30.201  -8.798  1.00  0.00    -0.037 C 
HETATM    9  C1  UNL     1      18.986  30.464  -9.871  1.00  0.00     0.007 C 
ENDBRANCH   7   8
ENDBRANCH   6   7
ENDBRANCH   5   6
BRANCH   5  10
HETATM   10  N1  UNL     1      16.562  28.741  -7.447  1.00  0.00    -0.068 N 
ATOM     11  H13 UNL     1      16.000  28.894  -8.284  1.00  0.00     0.275 HD
ATOM     12  H12 UNL     1      15.835  28.372  -6.835  1.00  0.00     0.275 HD
ATOM     13  H11 UNL     1      16.946  29.615  -7.088  1.00  0.00     0.275 HD
ENDBRANCH   5  10
ENDBRANCH   1   5
BRANCH   1  14
HETATM   14  N3  UNL     1      18.310  26.352  -9.646  1.00  0.00    -0.374 N 
ATOM     15  H3  UNL     1      18.451  25.415  -9.268  1.00  0.00     0.161 HD
BRANCH  14  16
HETATM   16  C7  UNL     1      19.075  26.788 -10.821  1.00  0.00     0.159 C 
BRANCH  16  17
HETATM   17  C8  UNL     1      18.663  25.913 -11.945  1.00  0.00    -0.041 A 
HETATM   18  C9  UNL     1      17.380  25.993 -12.451  1.00  0.00     0.009 A 
HETATM   19  C10 UNL     1      16.976  25.187 -13.497  1.00  0.00     0.001 A 
HETATM   20  C11 UNL     1      17.881  24.296 -14.027  1.00  0.00     0.000 A 
HETATM   21  C12 UNL     1      19.174  24.174 -13.559  1.00  0.00     0.001 A 
HETATM   22  C13 UNL     1      19.546  24.998 -12.510  1.00  0.00     0.009 A 
ENDBRANCH  16  17
ENDBRANCH  14  16
ENDBRANCH   1  14
TORSDOF 8
ENDMDL
