MODEL 1
REMARK VINA RESULT: -6.351882407      0.000      0.000
REMARK  7 active torsions:
REMARK  status: ('A' for Active; 'I' for Inactive)
REMARK    1  A    between atoms: N1_1  and  C1_5 
REMARK    2  A    between atoms: C1_5  and  C2_6 
REMARK    3  A    between atoms: C1_5  and  C7_13 
REMARK    4  A    between atoms: C2_6  and  N2_7 
REMARK    5  A    between atoms: N2_7  and  C3_9 
REMARK    6  A    between atoms: C3_9  and  C4_10 
REMARK    7  A    between atoms: C7_13  and  C8_14 
ROOT
HETATM    1  C1  UNL     1      19.346  27.539 -10.893  1.00  0.00     0.225 C 
ENDROOT
BRANCH   1   2
HETATM    2  N1  UNL     1      18.971  28.397 -11.985  1.00  0.00    -0.070 N 
ATOM      3  H13 UNL     1      18.096  28.080 -12.404  1.00  0.00     0.275 HD
ATOM      4  H12 UNL     1      18.676  29.310 -11.636  1.00  0.00     0.275 HD
ATOM      5  H11 UNL     1      19.690  28.504 -12.700  1.00  0.00     0.275 HD
ENDBRANCH   1   2
BRANCH   1   6
HETATM    6  C2  UNL     1      19.740  28.259  -9.659  1.00  0.00     0.088 C 
BRANCH   6   7
HETATM    7  N2  UNL     1      18.873  28.266  -8.557  1.00  0.00    -0.400 N 
ATOM      8  H2  UNL     1      19.036  27.623  -7.782  1.00  0.00     0.158 HD
BRANCH   7   9
HETATM    9  C3  UNL     1      17.778  29.155  -8.510  1.00  0.00     0.123 C 
BRANCH   9  10
HETATM   10  C4  UNL     1      16.506  28.514  -7.992  1.00  0.00     0.003 A 
HETATM   11  C5  UNL     1      15.782  27.551  -8.906  1.00  0.00     0.007 A 
HETATM   12  C6  UNL     1      15.194  28.909  -8.687  1.00  0.00     0.007 A 
ENDBRANCH   9  10
ENDBRANCH   7   9
ENDBRANCH   6   7
ENDBRANCH   1   6
BRANCH   1  13
HETATM   13  C7  UNL     1      18.434  26.375 -10.758  1.00  0.00     0.076 C 
BRANCH  13  14
HETATM   14  C8  UNL     1      18.487  25.576 -12.039  1.00  0.00    -0.056 A 
HETATM   15  C9  UNL     1      17.338  25.394 -12.774  1.00  0.00     0.007 A 
HETATM   16  C10 UNL     1      17.380  24.667 -13.944  1.00  0.00     0.001 A 
HETATM   17  C11 UNL     1      18.577  24.129 -14.366  1.00  0.00     0.000 A 
HETATM   18  C12 UNL     1      19.753  24.284 -13.665  1.00  0.00     0.001 A 
HETATM   19  C13 UNL     1      19.660  25.020 -12.498  1.00  0.00     0.007 A 
ENDBRANCH  13  14
ENDBRANCH   1  13
TORSDOF 7
ENDMDL
MODEL 2
REMARK VINA RESULT: -6.330089139      0.287      1.268
REMARK  7 active torsions:
REMARK  status: ('A' for Active; 'I' for Inactive)
REMARK    1  A    between atoms: N1_1  and  C1_5 
REMARK    2  A    between atoms: C1_5  and  C2_6 
REMARK    3  A    between atoms: C1_5  and  C7_13 
REMARK    4  A    between atoms: C2_6  and  N2_7 
REMARK    5  A    between atoms: N2_7  and  C3_9 
REMARK    6  A    between atoms: C3_9  and  C4_10 
REMARK    7  A    between atoms: C7_13  and  C8_14 
ROOT
HETATM    1  C1  UNL     1      19.513  27.488 -10.951  1.00  0.00     0.225 C 
ENDROOT
BRANCH   1   2
HETATM    2  N1  UNL     1      18.976  28.354 -11.967  1.00  0.00    -0.070 N 
ATOM      3  H13 UNL     1      18.857  29.299 -11.603  1.00  0.00     0.275 HD
ATOM      4  H12 UNL     1      19.674  28.532 -12.689  1.00  0.00     0.275 HD
ATOM      5  H11 UNL     1      18.107  28.021 -12.386  1.00  0.00     0.275 HD
ENDBRANCH   1   2
BRANCH   1   6
HETATM    6  C2  UNL     1      20.004  28.195  -9.745  1.00  0.00     0.088 C 
BRANCH   6   7
HETATM    7  N2  UNL     1      19.260  28.133  -8.558  1.00  0.00    -0.400 N 
ATOM      8  H2  UNL     1      19.522  27.468  -7.831  1.00  0.00     0.158 HD
BRANCH   7   9
HETATM    9  C3  UNL     1      18.151  28.984  -8.361  1.00  0.00     0.123 C 
BRANCH   9  10
HETATM   10  C4  UNL     1      16.896  28.246  -7.938  1.00  0.00     0.003 A 
HETATM   11  C5  UNL     1      16.013  27.680  -9.028  1.00  0.00     0.007 A 
HETATM   12  C6  UNL     1      15.551  28.898  -8.295  1.00  0.00     0.007 A 
ENDBRANCH   9  10
ENDBRANCH   7   9
ENDBRANCH   6   7
ENDBRANCH   1   6
BRANCH   1  13
HETATM   13  C7  UNL     1      18.683  26.272 -10.757  1.00  0.00     0.076 C 
BRANCH  13  14
HETATM   14  C8  UNL     1      18.640  25.510 -12.061  1.00  0.00    -0.056 A 
HETATM   15  C9  UNL     1      19.802  24.983 -12.578  1.00  0.00     0.007 A 
HETATM   16  C10 UNL     1      19.769  24.287 -13.766  1.00  0.00     0.001 A 
HETATM   17  C11 UNL     1      18.569  24.124 -14.424  1.00  0.00     0.000 A 
HETATM   18  C12 UNL     1      17.381  24.632 -13.947  1.00  0.00     0.001 A 
HETATM   19  C13 UNL     1      17.465  25.323 -12.752  1.00  0.00     0.007 A 
ENDBRANCH  13  14
ENDBRANCH   1  13
TORSDOF 7
ENDMDL
MODEL 3
REMARK VINA RESULT: -6.314593675      1.702      3.143
REMARK  7 active torsions:
REMARK  status: ('A' for Active; 'I' for Inactive)
REMARK    1  A    between atoms: N1_1  and  C1_5 
REMARK    2  A    between atoms: C1_5  and  C2_6 
REMARK    3  A    between atoms: C1_5  and  C7_13 
REMARK    4  A    between atoms: C2_6  and  N2_7 
REMARK    5  A    between atoms: N2_7  and  C3_9 
REMARK    6  A    between atoms: C3_9  and  C4_10 
REMARK    7  A    between atoms: C7_13  and  C8_14 
ROOT
HETATM    1  C1  UNL     1      17.970  27.166  -9.716  1.00  0.00     0.225 C 
ENDROOT
BRANCH   1   2
HETATM    2  N1  UNL     1      17.854  26.413  -8.495  1.00  0.00    -0.070 N 
ATOM      3  H13 UNL     1      18.352  26.883  -7.739  1.00  0.00     0.275 HD
ATOM      4  H12 UNL     1      16.901  26.463  -8.135  1.00  0.00     0.275 HD
ATOM      5  H11 UNL     1      18.157  25.442  -8.571  1.00  0.00     0.275 HD
ENDBRANCH   1   2
BRANCH   1   6
HETATM    6  C2  UNL     1      17.745  28.622  -9.558  1.00  0.00     0.088 C 
BRANCH   6   7
HETATM    7  N2  UNL     1      17.834  29.199  -8.283  1.00  0.00    -0.400 N 
ATOM      8  H2  UNL     1      17.066  29.083  -7.621  1.00  0.00     0.158 HD
BRANCH   7   9
HETATM    9  C3  UNL     1      18.976  29.938  -7.908  1.00  0.00     0.123 C 
BRANCH   9  10
HETATM   10  C4  UNL     1      20.170  29.068  -7.568  1.00  0.00     0.003 A 
HETATM   11  C5  UNL     1      21.454  29.762  -7.171  1.00  0.00     0.007 A 
HETATM   12  C6  UNL     1      21.371  29.130  -8.523  1.00  0.00     0.007 A 
ENDBRANCH   9  10
ENDBRANCH   7   9
ENDBRANCH   6   7
ENDBRANCH   1   6
BRANCH   1  13
HETATM   13  C7  UNL     1      19.125  26.725 -10.538  1.00  0.00     0.076 C 
BRANCH  13  14
HETATM   14  C8  UNL     1      18.600  25.940 -11.718  1.00  0.00    -0.056 A 
HETATM   15  C9  UNL     1      19.433  25.062 -12.374  1.00  0.00     0.007 A 
HETATM   16  C10 UNL     1      18.959  24.343 -13.450  1.00  0.00     0.001 A 
HETATM   17  C11 UNL     1      17.654  24.511 -13.857  1.00  0.00     0.000 A 
HETATM   18  C12 UNL     1      16.783  25.376 -13.232  1.00  0.00     0.001 A 
HETATM   19  C13 UNL     1      17.304  26.076 -12.159  1.00  0.00     0.007 A 
ENDBRANCH  13  14
ENDBRANCH   1  13
TORSDOF 7
ENDMDL
MODEL 4
REMARK VINA RESULT: -6.261832799      1.680      3.004
REMARK  7 active torsions:
REMARK  status: ('A' for Active; 'I' for Inactive)
REMARK    1  A    between atoms: N1_1  and  C1_5 
REMARK    2  A    between atoms: C1_5  and  C2_6 
REMARK    3  A    between atoms: C1_5  and  C7_13 
REMARK    4  A    between atoms: C2_6  and  N2_7 
REMARK    5  A    between atoms: N2_7  and  C3_9 
REMARK    6  A    between atoms: C3_9  and  C4_10 
REMARK    7  A    between atoms: C7_13  and  C8_14 
ROOT
HETATM    1  C1  UNL     1      17.865  27.279  -9.421  1.00  0.00     0.225 C 
ENDROOT
BRANCH   1   2
HETATM    2  N1  UNL     1      17.868  26.381  -8.296  1.00  0.00    -0.070 N 
ATOM      3  H13 UNL     1      17.107  26.609  -7.656  1.00  0.00     0.275 HD
ATOM      4  H12 UNL     1      17.577  25.447  -8.586  1.00  0.00     0.275 HD
ATOM      5  H11 UNL     1      18.755  26.339  -7.795  1.00  0.00     0.275 HD
ENDBRANCH   1   2
BRANCH   1   6
HETATM    6  C2  UNL     1      17.548  28.686  -9.076  1.00  0.00     0.088 C 
BRANCH   6   7
HETATM    7  N2  UNL     1      17.807  29.154  -7.780  1.00  0.00    -0.400 N 
ATOM      8  H2  UNL     1      17.138  28.969  -7.033  1.00  0.00     0.158 HD
BRANCH   7   9
HETATM    9  C3  UNL     1      18.985  29.878  -7.501  1.00  0.00     0.123 C 
BRANCH   9  10
HETATM   10  C4  UNL     1      20.230  29.013  -7.471  1.00  0.00     0.003 A 
HETATM   11  C5  UNL     1      21.539  29.679  -7.112  1.00  0.00     0.007 A 
HETATM   12  C6  UNL     1      21.300  29.294  -8.536  1.00  0.00     0.007 A 
ENDBRANCH   9  10
ENDBRANCH   7   9
ENDBRANCH   6   7
ENDBRANCH   1   6
BRANCH   1  13
HETATM   13  C7  UNL     1      19.003  27.027 -10.341  1.00  0.00     0.076 C 
BRANCH  13  14
HETATM   14  C8  UNL     1      18.505  26.193 -11.498  1.00  0.00    -0.056 A 
HETATM   15  C9  UNL     1      17.194  26.303 -11.900  1.00  0.00     0.007 A 
HETATM   16  C10 UNL     1      16.734  25.546 -12.955  1.00  0.00     0.001 A 
HETATM   17  C11 UNL     1      17.596  24.684 -13.598  1.00  0.00     0.000 A 
HETATM   18  C12 UNL     1      18.916  24.538 -13.232  1.00  0.00     0.001 A 
HETATM   19  C13 UNL     1      19.330  25.318 -12.168  1.00  0.00     0.007 A 
ENDBRANCH  13  14
ENDBRANCH   1  13
TORSDOF 7
ENDMDL
MODEL 5
REMARK VINA RESULT: -6.256476805      1.803      3.258
REMARK  7 active torsions:
REMARK  status: ('A' for Active; 'I' for Inactive)
REMARK    1  A    between atoms: N1_1  and  C1_5 
REMARK    2  A    between atoms: C1_5  and  C2_6 
REMARK    3  A    between atoms: C1_5  and  C7_13 
REMARK    4  A    between atoms: C2_6  and  N2_7 
REMARK    5  A    between atoms: N2_7  and  C3_9 
REMARK    6  A    between atoms: C3_9  and  C4_10 
REMARK    7  A    between atoms: C7_13  and  C8_14 
ROOT
HETATM    1  C1  UNL     1      18.190  27.183  -9.756  1.00  0.00     0.225 C 
ENDROOT
BRANCH   1   2
HETATM    2  N1  UNL     1      18.017  26.486  -8.508  1.00  0.00    -0.070 N 
ATOM      3  H13 UNL     1      18.173  27.118  -7.723  1.00  0.00     0.275 HD
ATOM      4  H12 UNL     1      17.033  26.262  -8.359  1.00  0.00     0.275 HD
ATOM      5  H11 UNL     1      18.592  25.649  -8.412  1.00  0.00     0.275 HD
ENDBRANCH   1   2
BRANCH   1   6
HETATM    6  C2  UNL     1      18.108  28.658  -9.646  1.00  0.00     0.088 C 
BRANCH   6   7
HETATM    7  N2  UNL     1      19.287  29.417  -9.643  1.00  0.00    -0.400 N 
ATOM      8  H2  UNL     1      19.669  29.762 -10.524  1.00  0.00     0.158 HD
BRANCH   7   9
HETATM    9  C3  UNL     1      19.950  29.708  -8.432  1.00  0.00     0.123 C 
BRANCH   9  10
HETATM   10  C4  UNL     1      21.370  29.180  -8.382  1.00  0.00     0.003 A 
HETATM   11  C5  UNL     1      22.002  28.992  -7.021  1.00  0.00     0.007 A 
HETATM   12  C6  UNL     1      22.452  30.140  -7.865  1.00  0.00     0.007 A 
ENDBRANCH   9  10
ENDBRANCH   7   9
ENDBRANCH   6   7
ENDBRANCH   1   6
BRANCH   1  13
HETATM   13  C7  UNL     1      19.288  26.605 -10.571  1.00  0.00     0.076 C 
BRANCH  13  14
HETATM   14  C8  UNL     1      18.678  25.868 -11.741  1.00  0.00    -0.056 A 
HETATM   15  C9  UNL     1      17.364  26.101 -12.078  1.00  0.00     0.007 A 
HETATM   16  C10 UNL     1      16.802  25.432 -13.144  1.00  0.00     0.001 A 
HETATM   17  C11 UNL     1      17.564  24.536 -13.862  1.00  0.00     0.000 A 
HETATM   18  C12 UNL     1      18.882  24.270 -13.562  1.00  0.00     0.001 A 
HETATM   19  C13 UNL     1      19.401  24.964 -12.485  1.00  0.00     0.007 A 
ENDBRANCH  13  14
ENDBRANCH   1  13
TORSDOF 7
ENDMDL
