MODEL 1
REMARK VINA RESULT: -6.353417848      0.000      0.000
REMARK  7 active torsions:
REMARK  status: ('A' for Active; 'I' for Inactive)
REMARK    1  A    between atoms: C2_2  and  C3_3 
REMARK    2  A    between atoms: C3_3  and  N1_4 
REMARK    3  A    between atoms: C3_3  and  C10_14 
REMARK    4  A    between atoms: N1_4  and  C4_6 
REMARK    5  A    between atoms: C4_6  and  C5_7 
REMARK    6  A    between atoms: C5_7  and  C6_8 
REMARK    7  A    between atoms: C10_14  and  N3_17 
ROOT
HETATM    1  C3  UNL     1      17.479  28.688  -9.158  1.00  0.00     0.134 C 
ENDROOT
BRANCH   1   2
HETATM    2  C2  UNL     1      16.160  28.131  -8.728  1.00  0.00    -0.010 C 
HETATM    3  C1  UNL     1      15.089  28.917  -8.706  1.00  0.00     0.009 C 
ENDBRANCH   1   2
BRANCH   1   4
HETATM    4  N1  UNL     1      17.908  28.273 -10.448  1.00  0.00    -0.411 N 
ATOM      5  H1  UNL     1      18.594  28.813 -10.974  1.00  0.00     0.153 HD
BRANCH   4   6
HETATM    6  C4  UNL     1      17.347  27.081 -10.979  1.00  0.00     0.119 C 
BRANCH   6   7
HETATM    7  C5  UNL     1      18.527  26.117 -11.205  1.00  0.00     0.059 C 
BRANCH   7   8
HETATM    8  C6  UNL     1      18.347  25.326 -12.435  1.00  0.00    -0.040 A 
HETATM    9  C7  UNL     1      19.312  24.561 -13.053  1.00  0.00     0.025 A 
HETATM   10  C8  UNL     1      18.770  23.971 -14.177  1.00  0.00     0.088 A 
HETATM   11  N2  UNL     1      17.500  24.363 -14.248  1.00  0.00    -0.375 N 
HETATM   12  C9  UNL     1      17.213  25.187 -13.205  1.00  0.00     0.094 A 
ATOM     13  H2  UNL     1      16.841  24.088 -14.976  1.00  0.00     0.164 HD
ENDBRANCH   7   8
ENDBRANCH   6   7
ENDBRANCH   4   6
ENDBRANCH   1   4
BRANCH   1  14
HETATM   14  C10 UNL     1      18.515  28.661  -8.082  1.00  0.00     0.139 C 
HETATM   15  C11 UNL     1      19.923  28.853  -8.517  1.00  0.00     0.048 C 
HETATM   16  C12 UNL     1      18.364  27.350  -7.335  1.00  0.00     0.048 C 
BRANCH  14  17
HETATM   17  N3  UNL     1      18.188  29.789  -7.191  1.00  0.00    -0.069 N 
ATOM     18  H33 UNL     1      18.418  30.701  -7.584  1.00  0.00     0.275 HD
ATOM     19  H32 UNL     1      17.187  29.952  -7.087  1.00  0.00     0.275 HD
ATOM     20  H31 UNL     1      18.665  29.589  -6.311  1.00  0.00     0.275 HD
ENDBRANCH  14  17
ENDBRANCH   1  14
TORSDOF 7
ENDMDL
MODEL 2
REMARK VINA RESULT: -6.315938342      1.133      1.532
REMARK  7 active torsions:
REMARK  status: ('A' for Active; 'I' for Inactive)
REMARK    1  A    between atoms: C2_2  and  C3_3 
REMARK    2  A    between atoms: C3_3  and  N1_4 
REMARK    3  A    between atoms: C3_3  and  C10_14 
REMARK    4  A    between atoms: N1_4  and  C4_6 
REMARK    5  A    between atoms: C4_6  and  C5_7 
REMARK    6  A    between atoms: C5_7  and  C6_8 
REMARK    7  A    between atoms: C10_14  and  N3_17 
ROOT
HETATM    1  C3  UNL     1      18.049  28.082  -8.918  1.00  0.00     0.134 C 
ENDROOT
BRANCH   1   2
HETATM    2  C2  UNL     1      16.746  27.861  -8.220  1.00  0.00    -0.010 C 
HETATM    3  C1  UNL     1      15.675  27.505  -8.920  1.00  0.00     0.009 C 
ENDBRANCH   1   2
BRANCH   1   4
HETATM    4  N1  UNL     1      18.787  26.898  -9.189  1.00  0.00    -0.411 N 
ATOM      5  H1  UNL     1      18.962  26.207  -8.458  1.00  0.00     0.153 HD
BRANCH   4   6
HETATM    6  C4  UNL     1      19.272  26.708 -10.510  1.00  0.00     0.119 C 
BRANCH   6   7
HETATM    7  C5  UNL     1      18.048  26.335 -11.367  1.00  0.00     0.059 C 
BRANCH   7   8
HETATM    8  C6  UNL     1      18.405  25.379 -12.430  1.00  0.00    -0.040 A 
HETATM    9  C7  UNL     1      17.569  24.932 -13.429  1.00  0.00     0.025 A 
HETATM   10  C8  UNL     1      18.260  24.047 -14.233  1.00  0.00     0.088 A 
HETATM   11  N2  UNL     1      19.492  23.953 -13.738  1.00  0.00    -0.375 N 
HETATM   12  C9  UNL     1      19.612  24.749 -12.644  1.00  0.00     0.094 A 
ATOM     13  H2  UNL     1      20.235  23.370 -14.123  1.00  0.00     0.164 HD
ENDBRANCH   7   8
ENDBRANCH   6   7
ENDBRANCH   4   6
ENDBRANCH   1   4
BRANCH   1  14
HETATM   14  C10 UNL     1      18.831  29.231  -8.370  1.00  0.00     0.139 C 
HETATM   15  C11 UNL     1      19.224  30.284  -9.342  1.00  0.00     0.048 C 
HETATM   16  C12 UNL     1      20.055  28.663  -7.679  1.00  0.00     0.048 C 
BRANCH  14  17
HETATM   17  N3  UNL     1      17.946  29.874  -7.382  1.00  0.00    -0.069 N 
ATOM     18  H33 UNL     1      18.363  30.684  -6.925  1.00  0.00     0.275 HD
ATOM     19  H32 UNL     1      17.155  30.365  -7.798  1.00  0.00     0.275 HD
ATOM     20  H31 UNL     1      17.675  29.132  -6.735  1.00  0.00     0.275 HD
ENDBRANCH  14  17
ENDBRANCH   1  14
TORSDOF 7
ENDMDL
MODEL 3
REMARK VINA RESULT: -6.263724851      1.119      1.571
REMARK  7 active torsions:
REMARK  status: ('A' for Active; 'I' for Inactive)
REMARK    1  A    between atoms: C2_2  and  C3_3 
REMARK    2  A    between atoms: C3_3  and  N1_4 
REMARK    3  A    between atoms: C3_3  and  C10_14 
REMARK    4  A    between atoms: N1_4  and  C4_6 
REMARK    5  A    between atoms: C4_6  and  C5_7 
REMARK    6  A    between atoms: C5_7  and  C6_8 
REMARK    7  A    between atoms: C10_14  and  N3_17 
ROOT
HETATM    1  C3  UNL     1      17.629  28.412  -9.404  1.00  0.00     0.134 C 
ENDROOT
BRANCH   1   2
HETATM    2  C2  UNL     1      16.397  27.695  -8.956  1.00  0.00    -0.010 C 
HETATM    3  C1  UNL     1      15.271  28.374  -8.765  1.00  0.00     0.009 C 
ENDBRANCH   1   2
BRANCH   1   4
HETATM    4  N1  UNL     1      18.028  28.132 -10.738  1.00  0.00    -0.411 N 
ATOM      5  H1  UNL     1      18.615  28.783 -11.261  1.00  0.00     0.153 HD
BRANCH   4   6
HETATM    6  C4  UNL     1      17.582  26.916 -11.321  1.00  0.00     0.119 C 
BRANCH   6   7
HETATM    7  C5  UNL     1      18.767  25.937 -11.231  1.00  0.00     0.059 C 
BRANCH   7   8
HETATM    8  C6  UNL     1      18.886  25.121 -12.452  1.00  0.00    -0.040 A 
HETATM    9  C7  UNL     1      17.864  24.822 -13.326  1.00  0.00     0.025 A 
HETATM   10  C8  UNL     1      18.361  24.037 -14.348  1.00  0.00     0.088 A 
HETATM   11  N2  UNL     1      19.657  23.859 -14.106  1.00  0.00    -0.375 N 
HETATM   12  C9  UNL     1      20.006  24.504 -12.962  1.00  0.00     0.094 A 
ATOM     13  H2  UNL     1      20.294  23.318 -14.692  1.00  0.00     0.164 HD
ENDBRANCH   7   8
ENDBRANCH   6   7
ENDBRANCH   4   6
ENDBRANCH   1   4
BRANCH   1  14
HETATM   14  C10 UNL     1      18.718  28.419  -8.381  1.00  0.00     0.139 C 
HETATM   15  C11 UNL     1      18.547  29.355  -7.240  1.00  0.00     0.048 C 
HETATM   16  C12 UNL     1      20.022  28.696  -9.104  1.00  0.00     0.048 C 
BRANCH  14  17
HETATM   17  N3  UNL     1      18.735  27.058  -7.814  1.00  0.00    -0.069 N 
ATOM     18  H33 UNL     1      17.867  26.544  -7.958  1.00  0.00     0.275 HD
ATOM     19  H32 UNL     1      19.342  26.412  -8.318  1.00  0.00     0.275 HD
ATOM     20  H31 UNL     1      18.985  27.174  -6.832  1.00  0.00     0.275 HD
ENDBRANCH  14  17
ENDBRANCH   1  14
TORSDOF 7
ENDMDL
MODEL 4
REMARK VINA RESULT: -6.230005900      1.161      1.566
REMARK  7 active torsions:
REMARK  status: ('A' for Active; 'I' for Inactive)
REMARK    1  A    between atoms: C2_2  and  C3_3 
REMARK    2  A    between atoms: C3_3  and  N1_4 
REMARK    3  A    between atoms: C3_3  and  C10_14 
REMARK    4  A    between atoms: N1_4  and  C4_6 
REMARK    5  A    between atoms: C4_6  and  C5_7 
REMARK    6  A    between atoms: C5_7  and  C6_8 
REMARK    7  A    between atoms: C10_14  and  N3_17 
ROOT
HETATM    1  C3  UNL     1      18.207  27.983  -8.907  1.00  0.00     0.134 C 
ENDROOT
BRANCH   1   2
HETATM    2  C2  UNL     1      16.897  27.971  -8.186  1.00  0.00    -0.010 C 
HETATM    3  C1  UNL     1      15.765  27.906  -8.877  1.00  0.00     0.009 C 
ENDBRANCH   1   2
BRANCH   1   4
HETATM    4  N1  UNL     1      18.729  26.697  -9.213  1.00  0.00    -0.411 N 
ATOM      5  H1  UNL     1      18.804  25.975  -8.497  1.00  0.00     0.153 HD
BRANCH   4   6
HETATM    6  C4  UNL     1      19.142  26.452 -10.550  1.00  0.00     0.119 C 
BRANCH   6   7
HETATM    7  C5  UNL     1      17.854  26.401 -11.394  1.00  0.00     0.059 C 
BRANCH   7   8
HETATM    8  C6  UNL     1      17.987  25.463 -12.522  1.00  0.00    -0.040 A 
HETATM    9  C7  UNL     1      19.134  24.793 -12.886  1.00  0.00     0.025 A 
HETATM   10  C8  UNL     1      18.868  24.008 -13.989  1.00  0.00     0.088 A 
HETATM   11  N2  UNL     1      17.586  24.191 -14.296  1.00  0.00    -0.375 N 
HETATM   12  C9  UNL     1      17.024  25.069 -13.424  1.00  0.00     0.094 A 
ATOM     13  H2  UNL     1      17.098  23.740 -15.070  1.00  0.00     0.164 HD
ENDBRANCH   7   8
ENDBRANCH   6   7
ENDBRANCH   4   6
ENDBRANCH   1   4
BRANCH   1  14
HETATM   14  C10 UNL     1      19.181  28.972  -8.354  1.00  0.00     0.139 C 
HETATM   15  C11 UNL     1      18.635  29.975  -7.404  1.00  0.00     0.048 C 
HETATM   16  C12 UNL     1      19.848  29.661  -9.529  1.00  0.00     0.048 C 
BRANCH  14  17
HETATM   17  N3  UNL     1      20.171  28.175  -7.608  1.00  0.00    -0.069 N 
ATOM     18  H33 UNL     1      19.756  27.539  -6.928  1.00  0.00     0.275 HD
ATOM     19  H32 UNL     1      20.634  27.462  -8.172  1.00  0.00     0.275 HD
ATOM     20  H31 UNL     1      20.813  28.853  -7.197  1.00  0.00     0.275 HD
ENDBRANCH  14  17
ENDBRANCH   1  14
TORSDOF 7
ENDMDL
MODEL 5
REMARK VINA RESULT: -6.036121982      1.263      2.626
REMARK  7 active torsions:
REMARK  status: ('A' for Active; 'I' for Inactive)
REMARK    1  A    between atoms: C2_2  and  C3_3 
REMARK    2  A    between atoms: C3_3  and  N1_4 
REMARK    3  A    between atoms: C3_3  and  C10_14 
REMARK    4  A    between atoms: N1_4  and  C4_6 
REMARK    5  A    between atoms: C4_6  and  C5_7 
REMARK    6  A    between atoms: C5_7  and  C6_8 
REMARK    7  A    between atoms: C10_14  and  N3_17 
ROOT
HETATM    1  C3  UNL     1      18.930  27.722  -8.617  1.00  0.00     0.134 C 
ENDROOT
BRANCH   1   2
HETATM    2  C2  UNL     1      19.918  28.766  -9.027  1.00  0.00    -0.010 C 
HETATM    3  C1  UNL     1      20.964  29.025  -8.251  1.00  0.00     0.009 C 
ENDBRANCH   1   2
BRANCH   1   4
HETATM    4  N1  UNL     1      18.957  26.537  -9.401  1.00  0.00    -0.411 N 
ATOM      5  H1  UNL     1      18.713  25.633  -8.997  1.00  0.00     0.153 HD
BRANCH   4   6
HETATM    6  C4  UNL     1      19.335  26.655 -10.764  1.00  0.00     0.119 C 
BRANCH   6   7
HETATM    7  C5  UNL     1      18.103  26.236 -11.589  1.00  0.00     0.059 C 
BRANCH   7   8
HETATM    8  C6  UNL     1      18.458  25.250 -12.624  1.00  0.00    -0.040 A 
HETATM    9  C7  UNL     1      17.618  24.771 -13.606  1.00  0.00     0.025 A 
HETATM   10  C8  UNL     1      18.307  23.863 -14.385  1.00  0.00     0.088 A 
HETATM   11  N2  UNL     1      19.542  23.787 -13.894  1.00  0.00    -0.375 N 
HETATM   12  C9  UNL     1      19.665  24.616 -12.825  1.00  0.00     0.094 A 
ATOM     13  H2  UNL     1      20.285  23.195 -14.265  1.00  0.00     0.164 HD
ENDBRANCH   7   8
ENDBRANCH   6   7
ENDBRANCH   4   6
ENDBRANCH   1   4
BRANCH   1  14
HETATM   14  C10 UNL     1      17.576  28.273  -8.307  1.00  0.00     0.139 C 
HETATM   15  C11 UNL     1      16.422  27.376  -8.572  1.00  0.00     0.048 C 
HETATM   16  C12 UNL     1      17.426  29.573  -9.075  1.00  0.00     0.048 C 
BRANCH  14  17
HETATM   17  N3  UNL     1      17.582  28.542  -6.858  1.00  0.00    -0.069 N 
ATOM     18  H33 UNL     1      16.756  28.193  -6.373  1.00  0.00     0.275 HD
ATOM     19  H32 UNL     1      18.267  27.991  -6.341  1.00  0.00     0.275 HD
ATOM     20  H31 UNL     1      17.715  29.550  -6.768  1.00  0.00     0.275 HD
ENDBRANCH  14  17
ENDBRANCH   1  14
TORSDOF 7
ENDMDL
