MODEL 1
REMARK VINA RESULT: -7.073519548      0.000      0.000
REMARK  6 active torsions:
REMARK  status: ('A' for Active; 'I' for Inactive)
REMARK    1  A    between atoms: C4_4  and  C5_5 
REMARK    2  A    between atoms: C5_5  and  C6_6 
REMARK    3  A    between atoms: C6_6  and  N1_7 
REMARK    4  A    between atoms: N1_7  and  C7_10 
REMARK    5  A    between atoms: C7_10  and  C8_11 
REMARK    6  A    between atoms: C8_11  and  C9_12 
ROOT
HETATM    1  N1  UNL     1      17.737  26.555  -8.650  1.00  0.00    -0.074 N 
ATOM      2  H11 UNL     1      17.698  25.550  -8.477  1.00  0.00     0.277 HD
ATOM      3  H12 UNL     1      16.734  26.734  -8.706  1.00  0.00     0.277 HD
ENDROOT
BRANCH   1   4
HETATM    4  C6  UNL     1      18.403  26.861  -9.870  1.00  0.00     0.237 C 
BRANCH   4   5
HETATM    5  C5  UNL     1      17.432  26.953 -11.019  1.00  0.00     0.066 C 
BRANCH   5   6
HETATM    6  C4  UNL     1      17.853  25.963 -12.027  1.00  0.00    -0.057 A 
HETATM    7  C3  UNL     1      16.953  25.515 -12.952  1.00  0.00     0.007 A 
HETATM    8  C2  UNL     1      17.355  24.585 -13.893  1.00  0.00     0.001 A 
HETATM    9  C1  UNL     1      18.642  24.087 -13.934  1.00  0.00     0.000 A 
HETATM   10  C13 UNL     1      19.512  24.570 -12.977  1.00  0.00     0.001 A 
HETATM   11  C12 UNL     1      19.136  25.495 -12.032  1.00  0.00     0.007 A 
ENDBRANCH   5   6
ENDBRANCH   4   5
ENDBRANCH   1   4
BRANCH   1  12
HETATM   12  C7  UNL     1      18.357  27.273  -7.556  1.00  0.00     0.238 C 
BRANCH  12  13
HETATM   13  C8  UNL     1      17.871  28.712  -7.694  1.00  0.00     0.086 C 
BRANCH  13  14
HETATM   14  C9  UNL     1      18.945  29.686  -7.415  1.00  0.00     0.027 A 
HETATM   15  C10 UNL     1      20.293  29.406  -7.550  1.00  0.00     0.114 A 
HETATM   16  N2  UNL     1      20.975  30.507  -7.217  1.00  0.00    -0.360 N 
HETATM   17  C11 UNL     1      20.126  31.486  -6.872  1.00  0.00     0.180 A 
ATOM     18  H2  UNL     1      21.991  30.590  -7.224  1.00  0.00     0.166 HD
HETATM   19  N3  UNL     1      18.877  30.951  -7.003  1.00  0.00    -0.355 N 
ATOM     20  H3  UNL     1      18.009  31.451  -6.812  1.00  0.00     0.166 HD
ENDBRANCH  13  14
ENDBRANCH  12  13
ENDBRANCH   1  12
TORSDOF 6
ENDMDL
MODEL 2
REMARK VINA RESULT: -7.066805123      0.019      1.178
REMARK  6 active torsions:
REMARK  status: ('A' for Active; 'I' for Inactive)
REMARK    1  A    between atoms: C4_4  and  C5_5 
REMARK    2  A    between atoms: C5_5  and  C6_6 
REMARK    3  A    between atoms: C6_6  and  N1_7 
REMARK    4  A    between atoms: N1_7  and  C7_10 
REMARK    5  A    between atoms: C7_10  and  C8_11 
REMARK    6  A    between atoms: C8_11  and  C9_12 
ROOT
HETATM    1  N1  UNL     1      17.741  26.548  -8.654  1.00  0.00    -0.074 N 
ATOM      2  H11 UNL     1      17.705  25.544  -8.481  1.00  0.00     0.277 HD
ATOM      3  H12 UNL     1      16.738  26.724  -8.711  1.00  0.00     0.277 HD
ENDROOT
BRANCH   1   4
HETATM    4  C6  UNL     1      18.407  26.857  -9.874  1.00  0.00     0.237 C 
BRANCH   4   5
HETATM    5  C5  UNL     1      17.437  26.947 -11.023  1.00  0.00     0.066 C 
BRANCH   5   6
HETATM    6  C4  UNL     1      17.858  25.955 -12.029  1.00  0.00    -0.057 A 
HETATM    7  C3  UNL     1      19.141  25.486 -12.019  1.00  0.00     0.007 A 
HETATM    8  C2  UNL     1      19.530  24.557 -12.966  1.00  0.00     0.001 A 
HETATM    9  C1  UNL     1      18.664  24.081 -13.931  1.00  0.00     0.000 A 
HETATM   10  C13 UNL     1      17.380  24.587 -13.899  1.00  0.00     0.001 A 
HETATM   11  C12 UNL     1      16.971  25.510 -12.965  1.00  0.00     0.007 A 
ENDBRANCH   5   6
ENDBRANCH   4   5
ENDBRANCH   1   4
BRANCH   1  12
HETATM   12  C7  UNL     1      18.358  27.268  -7.559  1.00  0.00     0.238 C 
BRANCH  12  13
HETATM   13  C8  UNL     1      17.882  28.710  -7.708  1.00  0.00     0.086 C 
BRANCH  13  14
HETATM   14  C9  UNL     1      18.960  29.678  -7.421  1.00  0.00     0.027 A 
HETATM   15  C10 UNL     1      20.307  29.389  -7.542  1.00  0.00     0.114 A 
HETATM   16  N2  UNL     1      20.993  30.487  -7.204  1.00  0.00    -0.360 N 
HETATM   17  C11 UNL     1      20.146  31.472  -6.870  1.00  0.00     0.180 A 
ATOM     18  H2  UNL     1      22.009  30.564  -7.201  1.00  0.00     0.166 HD
HETATM   19  N3  UNL     1      18.895  30.944  -7.012  1.00  0.00    -0.355 N 
ATOM     20  H3  UNL     1      18.028  31.450  -6.831  1.00  0.00     0.166 HD
ENDBRANCH  13  14
ENDBRANCH  12  13
ENDBRANCH   1  12
TORSDOF 6
ENDMDL
MODEL 3
REMARK VINA RESULT: -7.012179757      1.984      3.109
REMARK  6 active torsions:
REMARK  status: ('A' for Active; 'I' for Inactive)
REMARK    1  A    between atoms: C4_4  and  C5_5 
REMARK    2  A    between atoms: C5_5  and  C6_6 
REMARK    3  A    between atoms: C6_6  and  N1_7 
REMARK    4  A    between atoms: N1_7  and  C7_10 
REMARK    5  A    between atoms: C7_10  and  C8_11 
REMARK    6  A    between atoms: C8_11  and  C9_12 
ROOT
HETATM    1  N1  UNL     1      19.122  26.691  -9.127  1.00  0.00    -0.074 N 
ATOM      2  H11 UNL     1      19.821  26.017  -8.814  1.00  0.00     0.277 HD
ATOM      3  H12 UNL     1      18.290  26.117  -8.985  1.00  0.00     0.277 HD
ENDROOT
BRANCH   1   4
HETATM    4  C6  UNL     1      19.297  27.048 -10.493  1.00  0.00     0.237 C 
BRANCH   4   5
HETATM    5  C5  UNL     1      18.005  26.939 -11.260  1.00  0.00     0.066 C 
BRANCH   5   6
HETATM    6  C4  UNL     1      18.188  25.887 -12.277  1.00  0.00    -0.057 A 
HETATM    7  C3  UNL     1      19.425  25.340 -12.467  1.00  0.00     0.007 A 
HETATM    8  C2  UNL     1      19.589  24.355 -13.423  1.00  0.00     0.001 A 
HETATM    9  C1  UNL     1      18.543  23.900 -14.200  1.00  0.00     0.000 A 
HETATM   10  C13 UNL     1      17.315  24.486 -13.970  1.00  0.00     0.001 A 
HETATM   11  C12 UNL     1      17.126  25.466 -13.024  1.00  0.00     0.007 A 
ENDBRANCH   5   6
ENDBRANCH   4   5
ENDBRANCH   1   4
BRANCH   1  12
HETATM   12  C7  UNL     1      19.108  27.883  -8.304  1.00  0.00     0.238 C 
BRANCH  12  13
HETATM   13  C8  UNL     1      17.925  27.702  -7.357  1.00  0.00     0.086 C 
BRANCH  13  14
HETATM   14  C9  UNL     1      16.667  28.201  -7.946  1.00  0.00     0.027 A 
HETATM   15  C10 UNL     1      15.768  27.404  -8.631  1.00  0.00     0.114 A 
HETATM   16  N2  UNL     1      14.750  28.178  -9.023  1.00  0.00    -0.360 N 
HETATM   17  C11 UNL     1      14.953  29.441  -8.621  1.00  0.00     0.180 A 
ATOM     18  H2  UNL     1      13.939  27.856  -9.551  1.00  0.00     0.166 HD
HETATM   19  N3  UNL     1      16.146  29.427  -7.958  1.00  0.00    -0.355 N 
ATOM     20  H3  UNL     1      16.581  30.244  -7.529  1.00  0.00     0.166 HD
ENDBRANCH  13  14
ENDBRANCH  12  13
ENDBRANCH   1  12
TORSDOF 6
ENDMDL
MODEL 4
REMARK VINA RESULT: -6.944996375      0.963      1.565
REMARK  6 active torsions:
REMARK  status: ('A' for Active; 'I' for Inactive)
REMARK    1  A    between atoms: C4_4  and  C5_5 
REMARK    2  A    between atoms: C5_5  and  C6_6 
REMARK    3  A    between atoms: C6_6  and  N1_7 
REMARK    4  A    between atoms: N1_7  and  C7_10 
REMARK    5  A    between atoms: C7_10  and  C8_11 
REMARK    6  A    between atoms: C8_11  and  C9_12 
ROOT
HETATM    1  N1  UNL     1      16.419  27.474  -9.798  1.00  0.00    -0.074 N 
ATOM      2  H11 UNL     1      15.608  26.867  -9.916  1.00  0.00     0.277 HD
ATOM      3  H12 UNL     1      15.925  28.354  -9.654  1.00  0.00     0.277 HD
ENDROOT
BRANCH   1   4
HETATM    4  C6  UNL     1      17.238  27.505 -10.962  1.00  0.00     0.237 C 
BRANCH   4   5
HETATM    5  C5  UNL     1      18.405  26.560 -10.838  1.00  0.00     0.066 C 
BRANCH   5   6
HETATM    6  C4  UNL     1      18.387  25.687 -12.026  1.00  0.00    -0.057 A 
HETATM    7  C3  UNL     1      19.528  25.037 -12.404  1.00  0.00     0.007 A 
HETATM    8  C2  UNL     1      19.504  24.221 -13.520  1.00  0.00     0.001 A 
HETATM    9  C1  UNL     1      18.362  24.037 -14.274  1.00  0.00     0.000 A 
HETATM   10  C13 UNL     1      17.238  24.716 -13.851  1.00  0.00     0.001 A 
HETATM   11  C12 UNL     1      17.237  25.532 -12.744  1.00  0.00     0.007 A 
ENDBRANCH   5   6
ENDBRANCH   4   5
ENDBRANCH   1   4
BRANCH   1  12
HETATM   12  C7  UNL     1      17.215  27.102  -8.646  1.00  0.00     0.238 C 
BRANCH  12  13
HETATM   13  C8  UNL     1      17.041  28.246  -7.652  1.00  0.00     0.086 C 
BRANCH  13  14
HETATM   14  C9  UNL     1      18.275  29.044  -7.510  1.00  0.00     0.027 A 
HETATM   15  C10 UNL     1      19.541  28.559  -7.780  1.00  0.00     0.114 A 
HETATM   16  N2  UNL     1      20.416  29.544  -7.546  1.00  0.00    -0.360 N 
HETATM   17  C11 UNL     1      19.768  30.644  -7.136  1.00  0.00     0.180 A 
ATOM     18  H2  UNL     1      21.426  29.469  -7.662  1.00  0.00     0.166 HD
HETATM   19  N3  UNL     1      18.445  30.307  -7.122  1.00  0.00    -0.355 N 
ATOM     20  H3  UNL     1      17.689  30.936  -6.852  1.00  0.00     0.166 HD
ENDBRANCH  13  14
ENDBRANCH  12  13
ENDBRANCH   1  12
TORSDOF 6
ENDMDL
MODEL 5
REMARK VINA RESULT: -6.940837893      0.958      1.059
REMARK  6 active torsions:
REMARK  status: ('A' for Active; 'I' for Inactive)
REMARK    1  A    between atoms: C4_4  and  C5_5 
REMARK    2  A    between atoms: C5_5  and  C6_6 
REMARK    3  A    between atoms: C6_6  and  N1_7 
REMARK    4  A    between atoms: N1_7  and  C7_10 
REMARK    5  A    between atoms: C7_10  and  C8_11 
REMARK    6  A    between atoms: C8_11  and  C9_12 
ROOT
HETATM    1  N1  UNL     1      16.435  27.470  -9.803  1.00  0.00    -0.074 N 
ATOM      2  H11 UNL     1      15.624  26.861  -9.915  1.00  0.00     0.277 HD
ATOM      3  H12 UNL     1      15.940  28.350  -9.662  1.00  0.00     0.277 HD
ENDROOT
BRANCH   1   4
HETATM    4  C6  UNL     1      17.249  27.496 -10.970  1.00  0.00     0.237 C 
BRANCH   4   5
HETATM    5  C5  UNL     1      18.422  26.558 -10.843  1.00  0.00     0.066 C 
BRANCH   5   6
HETATM    6  C4  UNL     1      18.416  25.687 -12.032  1.00  0.00    -0.057 A 
HETATM    7  C3  UNL     1      17.260  25.520 -12.741  1.00  0.00     0.007 A 
HETATM    8  C2  UNL     1      17.261  24.700 -13.854  1.00  0.00     0.001 A 
HETATM    9  C1  UNL     1      18.394  24.038 -14.281  1.00  0.00     0.000 A 
HETATM   10  C13 UNL     1      19.535  24.239 -13.531  1.00  0.00     0.001 A 
HETATM   11  C12 UNL     1      19.559  25.050 -12.420  1.00  0.00     0.007 A 
ENDBRANCH   5   6
ENDBRANCH   4   5
ENDBRANCH   1   4
BRANCH   1  12
HETATM   12  C7  UNL     1      17.235  27.105  -8.652  1.00  0.00     0.238 C 
BRANCH  12  13
HETATM   13  C8  UNL     1      17.049  28.246  -7.656  1.00  0.00     0.086 C 
BRANCH  13  14
HETATM   14  C9  UNL     1      18.275  29.055  -7.510  1.00  0.00     0.027 A 
HETATM   15  C10 UNL     1      19.547  28.582  -7.778  1.00  0.00     0.114 A 
HETATM   16  N2  UNL     1      20.412  29.575  -7.540  1.00  0.00    -0.360 N 
HETATM   17  C11 UNL     1      19.753  30.668  -7.130  1.00  0.00     0.180 A 
ATOM     18  H2  UNL     1      21.423  29.509  -7.653  1.00  0.00     0.166 HD
HETATM   19  N3  UNL     1      18.433  30.319  -7.120  1.00  0.00    -0.355 N 
ATOM     20  H3  UNL     1      17.671  30.941  -6.851  1.00  0.00     0.166 HD
ENDBRANCH  13  14
ENDBRANCH  12  13
ENDBRANCH   1  12
TORSDOF 6
ENDMDL
