MODEL 1
REMARK VINA RESULT: -6.718864964      0.000      0.000
REMARK  6 active torsions:
REMARK  status: ('A' for Active; 'I' for Inactive)
REMARK    1  A    between atoms: N2_3  and  C2_5 
REMARK    2  A    between atoms: C2_5  and  C3_6 
REMARK    3  A    between atoms: C2_5  and  C8_13 
REMARK    4  A    between atoms: C3_6  and  N3_7 
REMARK    5  A    between atoms: N3_7  and  C4_9 
REMARK    6  A    between atoms: C4_9  and  C5_10 
ROOT
HETATM    1  C2  UNL     1      19.285  26.313 -10.821  1.00  0.00     0.132 C 
ENDROOT
BRANCH   1   2
HETATM    2  N2  UNL     1      19.540  27.670 -11.222  1.00  0.00    -0.378 N 
HETATM    3  C1  UNL     1      20.282  28.542 -10.697  1.00  0.00     0.185 C 
HETATM    4  N1  UNL     1      21.031  28.285  -9.533  1.00  0.00    -0.097 NA
ATOM      5  H2  UNL     1      19.044  27.973 -12.060  1.00  0.00     0.160 HD
ENDBRANCH   1   2
BRANCH   1   6
HETATM    6  C3  UNL     1      18.062  26.407  -9.898  1.00  0.00     0.148 C 
BRANCH   6   7
HETATM    7  N3  UNL     1      18.435  26.756  -8.594  1.00  0.00    -0.400 N 
ATOM      8  H3  UNL     1      19.210  26.270  -8.142  1.00  0.00     0.158 HD
BRANCH   7   9
HETATM    9  C4  UNL     1      17.751  27.770  -7.904  1.00  0.00     0.060 C 
BRANCH   9  10
HETATM   10  C5  UNL     1      16.697  28.357  -8.831  1.00  0.00     0.024 A 
HETATM   11  C6  UNL     1      15.613  29.159  -8.090  1.00  0.00     0.010 A 
HETATM   12  C7  UNL     1      15.312  27.877  -8.828  1.00  0.00     0.010 A 
ENDBRANCH   9  10
ENDBRANCH   7   9
ENDBRANCH   6   7
ENDBRANCH   1   6
BRANCH   1  13
HETATM   13  C8  UNL     1      18.919  25.541 -12.058  1.00  0.00    -0.034 A 
HETATM   14  C9  UNL     1      19.834  24.756 -12.746  1.00  0.00     0.009 A 
HETATM   15  C10 UNL     1      19.522  24.022 -13.868  1.00  0.00     0.001 A 
HETATM   16  C11 UNL     1      18.244  24.052 -14.355  1.00  0.00     0.000 A 
HETATM   17  C12 UNL     1      17.314  24.821 -13.696  1.00  0.00     0.001 A 
HETATM   18  C13 UNL     1      17.634  25.551 -12.575  1.00  0.00     0.009 A 
ENDBRANCH   1  13
TORSDOF 6
ENDMDL
MODEL 2
REMARK VINA RESULT: -6.698711199      2.022      3.852
REMARK  6 active torsions:
REMARK  status: ('A' for Active; 'I' for Inactive)
REMARK    1  A    between atoms: N2_3  and  C2_5 
REMARK    2  A    between atoms: C2_5  and  C3_6 
REMARK    3  A    between atoms: C2_5  and  C8_13 
REMARK    4  A    between atoms: C3_6  and  N3_7 
REMARK    5  A    between atoms: N3_7  and  C4_9 
REMARK    6  A    between atoms: C4_9  and  C5_10 
ROOT
HETATM    1  C2  UNL     1      17.142  27.693  -9.446  1.00  0.00     0.132 C 
ENDROOT
BRANCH   1   2
HETATM    2  N2  UNL     1      15.736  27.415  -9.338  1.00  0.00    -0.378 N 
HETATM    3  C1  UNL     1      14.810  28.114  -8.846  1.00  0.00     0.185 C 
HETATM    4  N1  UNL     1      15.047  29.380  -8.279  1.00  0.00    -0.097 NA
ATOM      5  H2  UNL     1      15.444  26.515  -9.716  1.00  0.00     0.160 HD
ENDBRANCH   1   2
BRANCH   1   6
HETATM    6  C3  UNL     1      17.732  27.228  -8.106  1.00  0.00     0.148 C 
BRANCH   6   7
HETATM    7  N3  UNL     1      17.820  28.288  -7.195  1.00  0.00    -0.400 N 
ATOM      8  H3  UNL     1      17.241  28.283  -6.355  1.00  0.00     0.158 HD
BRANCH   7   9
HETATM    9  C4  UNL     1      18.699  29.358  -7.428  1.00  0.00     0.060 C 
BRANCH   9  10
HETATM   10  C5  UNL     1      20.106  28.801  -7.583  1.00  0.00     0.024 A 
HETATM   11  C6  UNL     1      21.203  29.872  -7.453  1.00  0.00     0.010 A 
HETATM   12  C7  UNL     1      20.944  29.127  -8.740  1.00  0.00     0.010 A 
ENDBRANCH   9  10
ENDBRANCH   7   9
ENDBRANCH   6   7
ENDBRANCH   1   6
BRANCH   1  13
HETATM   13  C8  UNL     1      17.685  26.836 -10.554  1.00  0.00    -0.034 A 
HETATM   14  C9  UNL     1      16.930  26.484 -11.664  1.00  0.00     0.009 A 
HETATM   15  C10 UNL     1      17.406  25.717 -12.704  1.00  0.00     0.001 A 
HETATM   16  C11 UNL     1      18.696  25.263 -12.665  1.00  0.00     0.000 A 
HETATM   17  C12 UNL     1      19.470  25.594 -11.578  1.00  0.00     0.001 A 
HETATM   18  C13 UNL     1      18.986  26.361 -10.544  1.00  0.00     0.009 A 
ENDBRANCH   1  13
TORSDOF 6
ENDMDL
MODEL 3
REMARK VINA RESULT: -6.684610849      2.027      3.710
REMARK  6 active torsions:
REMARK  status: ('A' for Active; 'I' for Inactive)
REMARK    1  A    between atoms: N2_3  and  C2_5 
REMARK    2  A    between atoms: C2_5  and  C3_6 
REMARK    3  A    between atoms: C2_5  and  C8_13 
REMARK    4  A    between atoms: C3_6  and  N3_7 
REMARK    5  A    between atoms: N3_7  and  C4_9 
REMARK    6  A    between atoms: C4_9  and  C5_10 
ROOT
HETATM    1  C2  UNL     1      17.139  27.704  -9.442  1.00  0.00     0.132 C 
ENDROOT
BRANCH   1   2
HETATM    2  N2  UNL     1      15.736  27.412  -9.329  1.00  0.00    -0.378 N 
HETATM    3  C1  UNL     1      14.803  28.103  -8.839  1.00  0.00     0.185 C 
HETATM    4  N1  UNL     1      15.030  29.375  -8.279  1.00  0.00    -0.097 NA
ATOM      5  H2  UNL     1      15.451  26.506  -9.701  1.00  0.00     0.160 HD
ENDBRANCH   1   2
BRANCH   1   6
HETATM    6  C3  UNL     1      17.740  27.232  -8.110  1.00  0.00     0.148 C 
BRANCH   6   7
HETATM    7  N3  UNL     1      17.824  28.285  -7.190  1.00  0.00    -0.400 N 
ATOM      8  H3  UNL     1      17.247  28.270  -6.349  1.00  0.00     0.158 HD
BRANCH   7   9
HETATM    9  C4  UNL     1      18.697  29.361  -7.417  1.00  0.00     0.060 C 
BRANCH   9  10
HETATM   10  C5  UNL     1      20.108  28.813  -7.574  1.00  0.00     0.024 A 
HETATM   11  C6  UNL     1      21.197  29.892  -7.453  1.00  0.00     0.010 A 
HETATM   12  C7  UNL     1      20.939  29.138  -8.736  1.00  0.00     0.010 A 
ENDBRANCH   9  10
ENDBRANCH   7   9
ENDBRANCH   6   7
ENDBRANCH   1   6
BRANCH   1  13
HETATM   13  C8  UNL     1      17.683  26.861 -10.561  1.00  0.00    -0.034 A 
HETATM   14  C9  UNL     1      18.977  26.358 -10.557  1.00  0.00     0.009 A 
HETATM   15  C10 UNL     1      19.495  25.567 -11.557  1.00  0.00     0.001 A 
HETATM   16  C11 UNL     1      18.710  25.242 -12.630  1.00  0.00     0.000 A 
HETATM   17  C12 UNL     1      17.423  25.725 -12.664  1.00  0.00     0.001 A 
HETATM   18  C13 UNL     1      16.913  26.515 -11.660  1.00  0.00     0.009 A 
ENDBRANCH   1  13
TORSDOF 6
ENDMDL
MODEL 4
REMARK VINA RESULT: -6.642394059      1.730      3.158
REMARK  6 active torsions:
REMARK  status: ('A' for Active; 'I' for Inactive)
REMARK    1  A    between atoms: N2_3  and  C2_5 
REMARK    2  A    between atoms: C2_5  and  C3_6 
REMARK    3  A    between atoms: C2_5  and  C8_13 
REMARK    4  A    between atoms: C3_6  and  N3_7 
REMARK    5  A    between atoms: N3_7  and  C4_9 
REMARK    6  A    between atoms: C4_9  and  C5_10 
ROOT
HETATM    1  C2  UNL     1      18.868  27.314 -10.575  1.00  0.00     0.132 C 
ENDROOT
BRANCH   1   2
HETATM    2  N2  UNL     1      18.719  26.648  -9.310  1.00  0.00    -0.378 N 
HETATM    3  C1  UNL     1      17.781  26.708  -8.470  1.00  0.00     0.185 C 
HETATM    4  N1  UNL     1      16.646  27.516  -8.672  1.00  0.00    -0.097 NA
ATOM      5  H2  UNL     1      19.490  26.032  -9.052  1.00  0.00     0.160 HD
ENDBRANCH   1   2
BRANCH   1   6
HETATM    6  C3  UNL     1      20.366  27.642 -10.664  1.00  0.00     0.148 C 
BRANCH   6   7
HETATM    7  N3  UNL     1      20.846  28.157  -9.453  1.00  0.00    -0.400 N 
ATOM      8  H3  UNL     1      21.336  27.544  -8.801  1.00  0.00     0.158 HD
BRANCH   7   9
HETATM    9  C4  UNL     1      20.658  29.511  -9.131  1.00  0.00     0.060 C 
BRANCH   9  10
HETATM   10  C5  UNL     1      20.204  29.603  -7.681  1.00  0.00     0.024 A 
HETATM   11  C6  UNL     1      18.802  30.215  -7.520  1.00  0.00     0.010 A 
HETATM   12  C7  UNL     1      20.048  30.892  -7.001  1.00  0.00     0.010 A 
ENDBRANCH   9  10
ENDBRANCH   7   9
ENDBRANCH   6   7
ENDBRANCH   1   6
BRANCH   1  13
HETATM   13  C8  UNL     1      18.509  26.325 -11.648  1.00  0.00    -0.034 A 
HETATM   14  C9  UNL     1      17.230  26.230 -12.179  1.00  0.00     0.009 A 
HETATM   15  C10 UNL     1      16.878  25.348 -13.176  1.00  0.00     0.001 A 
HETATM   16  C11 UNL     1      17.825  24.505 -13.690  1.00  0.00     0.000 A 
HETATM   17  C12 UNL     1      19.101  24.574 -13.184  1.00  0.00     0.001 A 
HETATM   18  C13 UNL     1      19.445  25.458 -12.189  1.00  0.00     0.009 A 
ENDBRANCH   1  13
TORSDOF 6
ENDMDL
MODEL 5
REMARK VINA RESULT: -6.626619952      2.151      3.691
REMARK  6 active torsions:
REMARK  status: ('A' for Active; 'I' for Inactive)
REMARK    1  A    between atoms: N2_3  and  C2_5 
REMARK    2  A    between atoms: C2_5  and  C3_6 
REMARK    3  A    between atoms: C2_5  and  C8_13 
REMARK    4  A    between atoms: C3_6  and  N3_7 
REMARK    5  A    between atoms: N3_7  and  C4_9 
REMARK    6  A    between atoms: C4_9  and  C5_10 
ROOT
HETATM    1  C2  UNL     1      17.608  27.660 -10.477  1.00  0.00     0.132 C 
ENDROOT
BRANCH   1   2
HETATM    2  N2  UNL     1      16.807  27.095  -9.426  1.00  0.00    -0.378 N 
HETATM    3  C1  UNL     1      15.715  27.493  -8.938  1.00  0.00     0.185 C 
HETATM    4  N1  UNL     1      15.073  28.659  -9.395  1.00  0.00    -0.097 NA
ATOM      5  H2  UNL     1      17.178  26.240  -9.012  1.00  0.00     0.160 HD
ENDBRANCH   1   2
BRANCH   1   6
HETATM    6  C3  UNL     1      18.918  28.069  -9.786  1.00  0.00     0.148 C 
BRANCH   6   7
HETATM    7  N3  UNL     1      18.943  27.641  -8.453  1.00  0.00    -0.400 N 
ATOM      8  H3  UNL     1      18.573  26.722  -8.208  1.00  0.00     0.158 HD
BRANCH   7   9
HETATM    9  C4  UNL     1      19.475  28.468  -7.450  1.00  0.00     0.060 C 
BRANCH   9  10
HETATM   10  C5  UNL     1      20.727  29.140  -7.992  1.00  0.00     0.024 A 
HETATM   11  C6  UNL     1      21.948  28.991  -7.068  1.00  0.00     0.010 A 
HETATM   12  C7  UNL     1      21.305  30.327  -7.355  1.00  0.00     0.010 A 
ENDBRANCH   9  10
ENDBRANCH   7   9
ENDBRANCH   6   7
ENDBRANCH   1   6
BRANCH   1  13
HETATM   13  C8  UNL     1      17.886  26.565 -11.467  1.00  0.00    -0.034 A 
HETATM   14  C9  UNL     1      16.933  26.114 -12.370  1.00  0.00     0.009 A 
HETATM   15  C10 UNL     1      17.166  25.127 -13.301  1.00  0.00     0.001 A 
HETATM   16  C11 UNL     1      18.401  24.540 -13.361  1.00  0.00     0.000 A 
HETATM   17  C12 UNL     1      19.366  24.964 -12.480  1.00  0.00     0.001 A 
HETATM   18  C13 UNL     1      19.126  25.951 -11.553  1.00  0.00     0.009 A 
ENDBRANCH   1  13
TORSDOF 6
ENDMDL
