MODEL 1
REMARK VINA RESULT: -6.330159189      0.000      0.000
REMARK  6 active torsions:
REMARK  status: ('A' for Active; 'I' for Inactive)
REMARK    1  A    between atoms: C2_2  and  N1_3 
REMARK    2  A    between atoms: C3_6  and  C4_7 
REMARK    3  A    between atoms: C4_7  and  C5_8 
REMARK    4  A    between atoms: N5_19  and  N6_20 
REMARK    5  A    between atoms: C9_23  and  S1_24 
REMARK    6  A    between atoms: S1_24  and  N7_25 
ROOT
HETATM    1  N1  UNL     1       9.258   0.447  22.470  1.00  0.00    -0.267 N 
HETATM    2  N2  UNL     1       8.701   1.150  23.462  1.00  0.00    -0.280 N 
ATOM      3  H2  UNL     1       8.237   2.053  23.363  1.00  0.00     0.189 HD
HETATM    4  C3  UNL     1       8.855   0.471  24.610  1.00  0.00     0.144 A 
HETATM    5  N5  UNL     1       9.532  -0.683  24.283  1.00  0.00    -0.220 N 
HETATM    6  C9  UNL     1       9.770  -0.680  22.967  1.00  0.00     0.204 A 
ENDROOT
BRANCH   4   7
HETATM    7  C4  UNL     1       8.443   0.785  25.954  1.00  0.00     0.074 C 
BRANCH   7   8
HETATM    8  C5  UNL     1       9.057   1.517  26.854  1.00  0.00     0.104 A 
HETATM    9  C6  UNL     1      10.088   1.080  27.768  1.00  0.00     0.265 A 
HETATM   10  O1  UNL     1      10.509  -0.110  27.743  1.00  0.00    -0.267 OA
HETATM   11  N3  UNL     1      10.657   1.981  28.717  1.00  0.00    -0.275 N 
HETATM   12  C7  UNL     1      10.269   3.337  28.836  1.00  0.00     0.329 A 
ATOM     13  H3  UNL     1      11.381   1.629  29.342  1.00  0.00     0.173 HD
HETATM   14  O2  UNL     1      10.812   4.092  29.704  1.00  0.00    -0.246 OA
HETATM   15  N4  UNL     1       9.264   3.796  27.958  1.00  0.00    -0.275 N 
HETATM   16  C8  UNL     1       8.670   2.950  27.002  1.00  0.00     0.265 A 
ATOM     17  H4  UNL     1       8.959   4.768  28.017  1.00  0.00     0.173 HD
HETATM   18  O3  UNL     1       7.771   3.412  26.237  1.00  0.00    -0.267 OA
ENDBRANCH   7   8
ENDBRANCH   4   7
BRANCH   5  19
HETATM   19  N6  UNL     1       9.887  -1.659  25.199  1.00  0.00    -0.335 N 
ATOM     20  H62 UNL     1      10.480  -1.550  26.022  1.00  0.00     0.177 HD
ATOM     21  H61 UNL     1       9.581  -2.631  25.145  1.00  0.00     0.177 HD
ENDBRANCH   5  19
BRANCH   1  22
HETATM   22  C2  UNL     1       9.318   0.820  21.069  1.00  0.00     0.147 C 
HETATM   23  C1  UNL     1       8.045   1.540  20.697  1.00  0.00     0.028 C 
ENDBRANCH   1  22
BRANCH   6  24
HETATM   24  S1  UNL     1      10.548  -1.864  22.174  1.00  0.00     0.019 SA
BRANCH  24  25
HETATM   25  N7  UNL     1      12.282  -1.743  21.778  1.00  0.00    -0.367 N 
ATOM     26  H72 UNL     1      12.551  -1.720  20.794  1.00  0.00     0.164 HD
ATOM     27  H71 UNL     1      12.995  -1.697  22.506  1.00  0.00     0.164 HD
ENDBRANCH  24  25
ENDBRANCH   6  24
TORSDOF 6
ENDMDL
MODEL 2
REMARK VINA RESULT: -6.306111931      0.949      2.056
REMARK  6 active torsions:
REMARK  status: ('A' for Active; 'I' for Inactive)
REMARK    1  A    between atoms: C2_2  and  N1_3 
REMARK    2  A    between atoms: C3_6  and  C4_7 
REMARK    3  A    between atoms: C4_7  and  C5_8 
REMARK    4  A    between atoms: N5_19  and  N6_20 
REMARK    5  A    between atoms: C9_23  and  S1_24 
REMARK    6  A    between atoms: S1_24  and  N7_25 
ROOT
HETATM    1  N1  UNL     1       8.688   1.096  23.088  1.00  0.00    -0.267 N 
HETATM    2  N2  UNL     1       8.440   1.610  24.297  1.00  0.00    -0.280 N 
ATOM      3  H2  UNL     1       7.958   2.490  24.481  1.00  0.00     0.189 HD
HETATM    4  C3  UNL     1       8.930   0.777  25.228  1.00  0.00     0.144 A 
HETATM    5  N5  UNL     1       9.492  -0.276  24.540  1.00  0.00    -0.220 N 
HETATM    6  C9  UNL     1       9.333  -0.062  23.229  1.00  0.00     0.204 A 
ENDROOT
BRANCH   4   7
HETATM    7  C4  UNL     1       8.927   0.862  26.666  1.00  0.00     0.074 C 
BRANCH   7   8
HETATM    8  C5  UNL     1       9.193   1.895  27.430  1.00  0.00     0.104 A 
HETATM    9  C6  UNL     1       8.418   3.110  27.542  1.00  0.00     0.265 A 
HETATM   10  O1  UNL     1       7.350   3.256  26.885  1.00  0.00    -0.267 OA
HETATM   11  N3  UNL     1       8.837   4.171  28.399  1.00  0.00    -0.275 N 
HETATM   12  C7  UNL     1      10.013   4.121  29.186  1.00  0.00     0.329 A 
ATOM     13  H3  UNL     1       8.259   5.010  28.447  1.00  0.00     0.173 HD
HETATM   14  O2  UNL     1      10.335   5.101  29.931  1.00  0.00    -0.246 OA
HETATM   15  N4  UNL     1      10.793   2.949  29.099  1.00  0.00    -0.275 N 
HETATM   16  C8  UNL     1      10.425   1.871  28.271  1.00  0.00     0.265 A 
ATOM     17  H4  UNL     1      11.647   2.879  29.652  1.00  0.00     0.173 HD
HETATM   18  O3  UNL     1      11.161   0.840  28.229  1.00  0.00    -0.267 OA
ENDBRANCH   7   8
ENDBRANCH   4   7
BRANCH   5  19
HETATM   19  N6  UNL     1      10.109  -1.357  25.146  1.00  0.00    -0.335 N 
ATOM     20  H62 UNL     1      10.875  -1.336  25.820  1.00  0.00     0.177 HD
ATOM     21  H61 UNL     1       9.852  -2.330  24.977  1.00  0.00     0.177 HD
ENDBRANCH   5  19
BRANCH   1  22
HETATM   22  C2  UNL     1       8.330   1.678  21.807  1.00  0.00     0.147 C 
HETATM   23  C1  UNL     1       7.637   2.997  22.042  1.00  0.00     0.028 C 
ENDBRANCH   1  22
BRANCH   6  24
HETATM   24  S1  UNL     1       9.855  -1.070  22.067  1.00  0.00     0.019 SA
BRANCH  24  25
HETATM   25  N7  UNL     1      11.584  -1.461  21.876  1.00  0.00    -0.367 N 
ATOM     26  H72 UNL     1      11.931  -1.661  20.937  1.00  0.00     0.164 HD
ATOM     27  H71 UNL     1      12.218  -1.486  22.674  1.00  0.00     0.164 HD
ENDBRANCH  24  25
ENDBRANCH   6  24
TORSDOF 6
ENDMDL
MODEL 3
REMARK VINA RESULT: -6.305274345      0.128      1.849
REMARK  6 active torsions:
REMARK  status: ('A' for Active; 'I' for Inactive)
REMARK    1  A    between atoms: C2_2  and  N1_3 
REMARK    2  A    between atoms: C3_6  and  C4_7 
REMARK    3  A    between atoms: C4_7  and  C5_8 
REMARK    4  A    between atoms: N5_19  and  N6_20 
REMARK    5  A    between atoms: C9_23  and  S1_24 
REMARK    6  A    between atoms: S1_24  and  N7_25 
ROOT
HETATM    1  N1  UNL     1       9.228   0.437  22.405  1.00  0.00    -0.267 N 
HETATM    2  N2  UNL     1       8.673   1.092  23.430  1.00  0.00    -0.280 N 
ATOM      3  H2  UNL     1       8.186   1.986  23.370  1.00  0.00     0.189 HD
HETATM    4  C3  UNL     1       8.863   0.378  24.551  1.00  0.00     0.144 A 
HETATM    5  N5  UNL     1       9.561  -0.748  24.173  1.00  0.00    -0.220 N 
HETATM    6  C9  UNL     1       9.775  -0.694  22.854  1.00  0.00     0.204 A 
ENDROOT
BRANCH   4   7
HETATM    7  C4  UNL     1       8.469   0.636  25.912  1.00  0.00     0.074 C 
BRANCH   7   8
HETATM    8  C5  UNL     1       8.972   1.496  26.766  1.00  0.00     0.104 A 
HETATM    9  C6  UNL     1       8.652   2.902  26.869  1.00  0.00     0.265 A 
HETATM   10  O1  UNL     1       7.791   3.424  26.107  1.00  0.00    -0.267 OA
HETATM   11  N3  UNL     1       9.295   3.733  27.834  1.00  0.00    -0.275 N 
HETATM   12  C7  UNL     1      10.272   3.260  28.743  1.00  0.00     0.329 A 
ATOM     13  H3  UNL     1       9.038   4.719  27.870  1.00  0.00     0.173 HD
HETATM   14  O2  UNL     1      10.812   4.050  29.581  1.00  0.00    -0.246 OA
HETATM   15  N4  UNL     1      10.608   1.892  28.669  1.00  0.00    -0.275 N 
HETATM   16  C8  UNL     1      10.003   1.027  27.737  1.00  0.00     0.265 A 
ATOM     17  H4  UNL     1      11.309   1.518  29.309  1.00  0.00     0.173 HD
HETATM   18  O3  UNL     1      10.341  -0.194  27.712  1.00  0.00    -0.267 OA
ENDBRANCH   7   8
ENDBRANCH   4   7
BRANCH   5  19
HETATM   19  N6  UNL     1       9.955  -1.746  25.048  1.00  0.00    -0.335 N 
ATOM     20  H62 UNL     1      10.242  -1.638  26.022  1.00  0.00     0.177 HD
ATOM     21  H61 UNL     1      10.003  -2.735  24.802  1.00  0.00     0.177 HD
ENDBRANCH   5  19
BRANCH   1  22
HETATM   22  C2  UNL     1       9.253   0.858  21.016  1.00  0.00     0.147 C 
HETATM   23  C1  UNL     1       7.987   1.620  20.711  1.00  0.00     0.028 C 
ENDBRANCH   1  22
BRANCH   6  24
HETATM   24  S1  UNL     1      10.565  -1.832  22.007  1.00  0.00     0.019 SA
BRANCH  24  25
HETATM   25  N7  UNL     1      12.333  -1.770  21.779  1.00  0.00    -0.367 N 
ATOM     26  H72 UNL     1      12.702  -1.169  21.043  1.00  0.00     0.164 HD
ATOM     27  H71 UNL     1      12.966  -2.316  22.363  1.00  0.00     0.164 HD
ENDBRANCH  24  25
ENDBRANCH   6  24
TORSDOF 6
ENDMDL
MODEL 4
REMARK VINA RESULT: -6.293845571      3.266      6.543
REMARK  6 active torsions:
REMARK  status: ('A' for Active; 'I' for Inactive)
REMARK    1  A    between atoms: C2_2  and  N1_3 
REMARK    2  A    between atoms: C3_6  and  C4_7 
REMARK    3  A    between atoms: C4_7  and  C5_8 
REMARK    4  A    between atoms: N5_19  and  N6_20 
REMARK    5  A    between atoms: C9_23  and  S1_24 
REMARK    6  A    between atoms: S1_24  and  N7_25 
ROOT
HETATM    1  N1  UNL     1       9.350   1.878  28.075  1.00  0.00    -0.267 N 
HETATM    2  N2  UNL     1       9.082   0.887  27.217  1.00  0.00    -0.280 N 
ATOM      3  H2  UNL     1       9.287  -0.101  27.368  1.00  0.00     0.189 HD
HETATM    4  C3  UNL     1       8.499   1.408  26.125  1.00  0.00     0.144 A 
HETATM    5  N5  UNL     1       8.418   2.765  26.347  1.00  0.00    -0.220 N 
HETATM    6  C9  UNL     1       8.944   3.034  27.547  1.00  0.00     0.204 A 
ENDROOT
BRANCH   4   7
HETATM    7  C4  UNL     1       8.021   0.779  24.921  1.00  0.00     0.074 C 
BRANCH   7   8
HETATM    8  C5  UNL     1       8.698   0.116  24.013  1.00  0.00     0.104 A 
HETATM    9  C6  UNL     1       8.850  -1.318  23.924  1.00  0.00     0.265 A 
HETATM   10  O1  UNL     1       8.285  -2.079  24.758  1.00  0.00    -0.267 OA
HETATM   11  N3  UNL     1       9.639  -1.910  22.893  1.00  0.00    -0.275 N 
HETATM   12  C7  UNL     1      10.318  -1.160  21.902  1.00  0.00     0.329 A 
ATOM     13  H3  UNL     1       9.719  -2.926  22.869  1.00  0.00     0.173 HD
HETATM   14  O2  UNL     1      11.008  -1.745  21.007  1.00  0.00    -0.246 OA
HETATM   15  N4  UNL     1      10.189   0.244  21.960  1.00  0.00    -0.275 N 
HETATM   16  C8  UNL     1       9.422   0.879  22.956  1.00  0.00     0.265 A 
ATOM     17  H4  UNL     1      10.665   0.815  21.262  1.00  0.00     0.173 HD
HETATM   18  O3  UNL     1       9.339   2.144  22.963  1.00  0.00    -0.267 OA
ENDBRANCH   7   8
ENDBRANCH   4   7
BRANCH   5  19
HETATM   19  N6  UNL     1       7.874   3.666  25.447  1.00  0.00    -0.335 N 
ATOM     20  H62 UNL     1       7.716   4.664  25.588  1.00  0.00     0.177 HD
ATOM     21  H61 UNL     1       7.560   3.417  24.509  1.00  0.00     0.177 HD
ENDBRANCH   5  19
BRANCH   1  22
HETATM   22  C2  UNL     1       9.980   1.753  29.376  1.00  0.00     0.147 C 
HETATM   23  C1  UNL     1       9.457   0.514  30.059  1.00  0.00     0.028 C 
ENDBRANCH   1  22
BRANCH   6  24
HETATM   24  S1  UNL     1       9.044   4.521  28.191  1.00  0.00     0.019 SA
BRANCH  24  25
HETATM   25  N7  UNL     1       7.737   5.718  27.987  1.00  0.00    -0.367 N 
ATOM     26  H72 UNL     1       6.840   5.394  27.626  1.00  0.00     0.164 HD
ATOM     27  H71 UNL     1       7.872   6.701  28.222  1.00  0.00     0.164 HD
ENDBRANCH  24  25
ENDBRANCH   6  24
TORSDOF 6
ENDMDL
MODEL 5
REMARK VINA RESULT: -6.240432778      3.274      6.734
REMARK  6 active torsions:
REMARK  status: ('A' for Active; 'I' for Inactive)
REMARK    1  A    between atoms: C2_2  and  N1_3 
REMARK    2  A    between atoms: C3_6  and  C4_7 
REMARK    3  A    between atoms: C4_7  and  C5_8 
REMARK    4  A    between atoms: N5_19  and  N6_20 
REMARK    5  A    between atoms: C9_23  and  S1_24 
REMARK    6  A    between atoms: S1_24  and  N7_25 
ROOT
HETATM    1  N1  UNL     1       9.328   1.874  28.092  1.00  0.00    -0.267 N 
HETATM    2  N2  UNL     1       9.068   0.874  27.242  1.00  0.00    -0.280 N 
ATOM      3  H2  UNL     1       9.273  -0.112  27.404  1.00  0.00     0.189 HD
HETATM    4  C3  UNL     1       8.493   1.383  26.141  1.00  0.00     0.144 A 
HETATM    5  N5  UNL     1       8.409   2.743  26.348  1.00  0.00    -0.220 N 
HETATM    6  C9  UNL     1       8.926   3.024  27.550  1.00  0.00     0.204 A 
ENDROOT
BRANCH   4   7
HETATM    7  C4  UNL     1       8.025   0.743  24.939  1.00  0.00     0.074 C 
BRANCH   7   8
HETATM    8  C5  UNL     1       8.723   0.247  23.944  1.00  0.00     0.104 A 
HETATM    9  C6  UNL     1       9.404   0.993  22.910  1.00  0.00     0.265 A 
HETATM   10  O1  UNL     1       9.389   2.255  22.909  1.00  0.00    -0.267 OA
HETATM   11  N3  UNL     1      10.111   0.323  21.868  1.00  0.00    -0.275 N 
HETATM   12  C7  UNL     1      10.201  -1.087  21.766  1.00  0.00     0.329 A 
ATOM     13  H3  UNL     1      10.577   0.889  21.159  1.00  0.00     0.173 HD
HETATM   14  O2  UNL     1      10.846  -1.627  20.812  1.00  0.00    -0.246 OA
HETATM   15  N4  UNL     1       9.547  -1.844  22.761  1.00  0.00    -0.275 N 
HETATM   16  C8  UNL     1       8.836  -1.234  23.812  1.00  0.00     0.265 A 
ATOM     17  H4  UNL     1       9.590  -2.862  22.717  1.00  0.00     0.173 HD
HETATM   18  O3  UNL     1       8.266  -1.961  24.680  1.00  0.00    -0.267 OA
ENDBRANCH   7   8
ENDBRANCH   4   7
BRANCH   5  19
HETATM   19  N6  UNL     1       7.871   3.634  25.436  1.00  0.00    -0.335 N 
ATOM     20  H62 UNL     1       6.884   3.789  25.230  1.00  0.00     0.177 HD
ATOM     21  H61 UNL     1       8.427   4.256  24.849  1.00  0.00     0.177 HD
ENDBRANCH   5  19
BRANCH   1  22
HETATM   22  C2  UNL     1       9.949   1.763  29.399  1.00  0.00     0.147 C 
HETATM   23  C1  UNL     1       9.462   0.502  30.069  1.00  0.00     0.028 C 
ENDBRANCH   1  22
BRANCH   6  24
HETATM   24  S1  UNL     1       9.019   4.518  28.180  1.00  0.00     0.019 SA
BRANCH  24  25
HETATM   25  N7  UNL     1       7.706   5.706  27.967  1.00  0.00    -0.367 N 
ATOM     26  H72 UNL     1       7.914   6.568  27.462  1.00  0.00     0.164 HD
ATOM     27  H71 UNL     1       6.769   5.539  28.336  1.00  0.00     0.164 HD
ENDBRANCH  24  25
ENDBRANCH   6  24
TORSDOF 6
ENDMDL
