MODEL 1
REMARK VINA RESULT: -7.274028685      0.000      0.000
REMARK  4 active torsions:
REMARK  status: ('A' for Active; 'I' for Inactive)
REMARK    1  A    between atoms: C4_5  and  O2_7 
REMARK    2  A    between atoms: C8_12  and  N1_13 
REMARK    3  A    between atoms: N1_13  and  C9_15 
REMARK    4  A    between atoms: C10_18  and  O4_19 
ROOT
HETATM    1  N1  UNL     1      10.026  -2.022  23.783  1.00  0.00    -0.336 N 
ATOM      2  H1  UNL     1      10.769  -1.998  23.084  1.00  0.00     0.168 HD
ENDROOT
BRANCH   1   3
HETATM    3  C8  UNL     1       9.657  -0.801  24.373  1.00  0.00     0.051 C 
HETATM    4  C2  UNL     1       9.255   0.354  23.549  1.00  0.00     0.031 C 
HETATM    5  C1  UNL     1       9.248   0.219  22.229  1.00  0.00     0.030 C 
HETATM    6  C3  UNL     1       8.873   1.622  24.159  1.00  0.00     0.202 C 
HETATM    7  O1  UNL     1       8.977   2.678  23.484  1.00  0.00    -0.288 OA
HETATM    8  C4  UNL     1       8.379   1.574  25.555  1.00  0.00     0.183 C 
HETATM    9  C5  UNL     1       8.276   2.938  26.182  1.00  0.00     0.063 C 
HETATM   10  C6  UNL     1       9.266   0.656  26.309  1.00  0.00     0.193 C 
HETATM   11  O3  UNL     1       9.688   0.954  27.477  1.00  0.00    -0.289 OA
HETATM   12  C7  UNL     1       9.643  -0.600  25.681  1.00  0.00     0.084 C 
BRANCH   8  13
HETATM   13  O2  UNL     1       7.110   0.998  25.542  1.00  0.00    -0.374 OA
ATOM     14  H2  UNL     1       6.908   0.714  26.426  1.00  0.00     0.211 HD
ENDBRANCH   8  13
ENDBRANCH   1   3
BRANCH   1  15
HETATM   15  C9  UNL     1       9.510  -3.154  24.047  1.00  0.00     0.155 A 
HETATM   16  N2  UNL     1       8.326  -3.260  24.632  1.00  0.00    -0.302 N 
HETATM   17  C10 UNL     1       7.685  -4.381  24.958  1.00  0.00     0.225 A 
ATOM     18  H2  UNL     1       7.852  -2.385  24.858  1.00  0.00     0.171 HD
HETATM   19  N3  UNL     1       8.095  -5.623  24.767  1.00  0.00    -0.303 N 
HETATM   20  C11 UNL     1       9.255  -5.983  24.198  1.00  0.00     0.148 A 
ATOM     21  H3  UNL     1       7.476  -6.371  25.080  1.00  0.00     0.171 HD
HETATM   22  N4  UNL     1       9.574  -7.227  24.053  1.00  0.00    -0.379 N 
HETATM   23  S1  UNL     1      10.236  -4.681  23.704  1.00  0.00    -0.018 SA
ATOM     24  H42 UNL     1       8.987  -8.006  24.348  1.00  0.00     0.158 HD
ATOM     25  H41 UNL     1      10.456  -7.501  23.620  1.00  0.00     0.158 HD
BRANCH  17  26
HETATM   26  O4  UNL     1       6.429  -4.202  25.575  1.00  0.00    -0.332 OA
ATOM     27  H4  UNL     1       6.023  -4.993  25.911  1.00  0.00     0.221 HD
ENDBRANCH  17  26
ENDBRANCH   1  15
TORSDOF 4
ENDMDL
MODEL 2
REMARK VINA RESULT: -7.187358636      1.105      2.361
REMARK  4 active torsions:
REMARK  status: ('A' for Active; 'I' for Inactive)
REMARK    1  A    between atoms: C4_5  and  O2_7 
REMARK    2  A    between atoms: C8_12  and  N1_13 
REMARK    3  A    between atoms: N1_13  and  C9_15 
REMARK    4  A    between atoms: C10_18  and  O4_19 
ROOT
HETATM    1  N1  UNL     1       9.978  -1.815  24.909  1.00  0.00    -0.336 N 
ATOM      2  H1  UNL     1      10.976  -1.755  25.116  1.00  0.00     0.168 HD
ENDROOT
BRANCH   1   3
HETATM    3  C8  UNL     1       9.290  -0.606  24.707  1.00  0.00     0.051 C 
HETATM    4  C2  UNL     1       9.194   0.405  25.776  1.00  0.00     0.031 C 
HETATM    5  C1  UNL     1       9.773   0.151  26.943  1.00  0.00     0.030 C 
HETATM    6  C3  UNL     1       8.479   1.659  25.569  1.00  0.00     0.202 C 
HETATM    7  O1  UNL     1       8.027   2.274  26.568  1.00  0.00    -0.288 OA
HETATM    8  C4  UNL     1       8.337   2.128  24.170  1.00  0.00     0.183 C 
HETATM    9  C5  UNL     1       7.361   3.265  24.035  1.00  0.00     0.063 C 
HETATM   10  C6  UNL     1       7.974   0.953  23.343  1.00  0.00     0.193 C 
HETATM   11  O3  UNL     1       7.061   1.026  22.453  1.00  0.00    -0.289 OA
HETATM   12  C7  UNL     1       8.691  -0.291  23.570  1.00  0.00     0.084 C 
BRANCH   8  13
HETATM   13  O2  UNL     1       9.587   2.565  23.735  1.00  0.00    -0.374 OA
ATOM     14  H2  UNL     1       9.801   3.359  24.211  1.00  0.00     0.211 HD
ENDBRANCH   8  13
ENDBRANCH   1   3
BRANCH   1  15
HETATM   15  C9  UNL     1       9.462  -2.975  24.856  1.00  0.00     0.155 A 
HETATM   16  N2  UNL     1       8.185  -3.183  25.142  1.00  0.00    -0.302 N 
HETATM   17  C10 UNL     1       7.532  -4.343  25.122  1.00  0.00     0.225 A 
ATOM     18  H2  UNL     1       7.641  -2.361  25.406  1.00  0.00     0.171 HD
HETATM   19  N3  UNL     1       8.021  -5.532  24.815  1.00  0.00    -0.303 N 
HETATM   20  C11 UNL     1       9.289  -5.787  24.459  1.00  0.00     0.148 A 
ATOM     21  H3  UNL     1       7.378  -6.324  24.852  1.00  0.00     0.171 HD
HETATM   22  N4  UNL     1       9.679  -6.985  24.175  1.00  0.00    -0.379 N 
HETATM   23  S1  UNL     1      10.302  -4.418  24.422  1.00  0.00    -0.018 SA
ATOM     24  H42 UNL     1       9.073  -7.805  24.197  1.00  0.00     0.158 HD
ATOM     25  H41 UNL     1      10.643  -7.179  23.904  1.00  0.00     0.158 HD
BRANCH  17  26
HETATM   26  O4  UNL     1       6.167  -4.275  25.473  1.00  0.00    -0.332 OA
ATOM     27  H4  UNL     1       5.989  -4.043  26.377  1.00  0.00     0.221 HD
ENDBRANCH  17  26
ENDBRANCH   1  15
TORSDOF 4
ENDMDL
MODEL 3
REMARK VINA RESULT: -7.110896597      4.378      6.234
REMARK  4 active torsions:
REMARK  status: ('A' for Active; 'I' for Inactive)
REMARK    1  A    between atoms: C4_5  and  O2_7 
REMARK    2  A    between atoms: C8_12  and  N1_13 
REMARK    3  A    between atoms: N1_13  and  C9_15 
REMARK    4  A    between atoms: C10_18  and  O4_19 
ROOT
HETATM    1  N1  UNL     1       7.877   1.596  26.134  1.00  0.00    -0.336 N 
ATOM      2  H1  UNL     1       6.912   1.660  26.460  1.00  0.00     0.168 HD
ENDROOT
BRANCH   1   3
HETATM    3  C8  UNL     1       8.078   1.282  24.778  1.00  0.00     0.051 C 
HETATM    4  C2  UNL     1       8.074   2.334  23.744  1.00  0.00     0.031 C 
HETATM    5  C1  UNL     1       7.874   3.591  24.119  1.00  0.00     0.030 C 
HETATM    6  C3  UNL     1       8.283   2.012  22.337  1.00  0.00     0.202 C 
HETATM    7  O1  UNL     1       7.839   2.796  21.461  1.00  0.00    -0.288 OA
HETATM    8  C4  UNL     1       9.018   0.760  22.037  1.00  0.00     0.183 C 
HETATM    9  C5  UNL     1       8.941   0.376  20.584  1.00  0.00     0.063 C 
HETATM   10  C6  UNL     1       8.493  -0.291  22.941  1.00  0.00     0.193 C 
HETATM   11  O3  UNL     1       8.234  -1.466  22.512  1.00  0.00    -0.289 OA
HETATM   12  C7  UNL     1       8.283   0.051  24.339  1.00  0.00     0.084 C 
BRANCH   8  13
HETATM   13  O2  UNL     1      10.356   0.957  22.370  1.00  0.00    -0.374 OA
ATOM     14  H2  UNL     1      10.748   1.502  21.698  1.00  0.00     0.211 HD
ENDBRANCH   8  13
ENDBRANCH   1   3
BRANCH   1  15
HETATM   15  C9  UNL     1       8.796   1.804  26.986  1.00  0.00     0.155 A 
HETATM   16  N2  UNL     1       9.703   0.882  27.273  1.00  0.00    -0.302 N 
HETATM   17  C10 UNL     1      10.708   0.981  28.140  1.00  0.00     0.225 A 
ATOM     18  H2  UNL     1       9.622  -0.003  26.772  1.00  0.00     0.171 HD
HETATM   19  N3  UNL     1      11.012   2.020  28.900  1.00  0.00    -0.303 N 
HETATM   20  C11 UNL     1      10.348   3.185  28.931  1.00  0.00     0.148 A 
ATOM     21  H3  UNL     1      11.821   1.927  29.515  1.00  0.00     0.171 HD
HETATM   22  N4  UNL     1      10.719   4.149  29.707  1.00  0.00    -0.379 N 
HETATM   23  S1  UNL     1       9.009   3.265  27.879  1.00  0.00    -0.018 SA
ATOM     24  H42 UNL     1      11.519   4.101  30.336  1.00  0.00     0.158 HD
ATOM     25  H41 UNL     1      10.214   5.035  29.731  1.00  0.00     0.158 HD
BRANCH  17  26
HETATM   26  O4  UNL     1      11.529  -0.161  28.249  1.00  0.00    -0.332 OA
ATOM     27  H4  UNL     1      11.958  -0.277  29.089  1.00  0.00     0.221 HD
ENDBRANCH  17  26
ENDBRANCH   1  15
TORSDOF 4
ENDMDL
MODEL 4
REMARK VINA RESULT: -6.977255906      4.157      5.887
REMARK  4 active torsions:
REMARK  status: ('A' for Active; 'I' for Inactive)
REMARK    1  A    between atoms: C4_5  and  O2_7 
REMARK    2  A    between atoms: C8_12  and  N1_13 
REMARK    3  A    between atoms: N1_13  and  C9_15 
REMARK    4  A    between atoms: C10_18  and  O4_19 
ROOT
HETATM    1  N1  UNL     1       8.187   1.374  26.243  1.00  0.00    -0.336 N 
ATOM      2  H1  UNL     1       7.252   1.518  26.625  1.00  0.00     0.168 HD
ENDROOT
BRANCH   1   3
HETATM    3  C8  UNL     1       8.289   1.122  24.864  1.00  0.00     0.051 C 
HETATM    4  C2  UNL     1       8.240   2.221  23.883  1.00  0.00     0.031 C 
HETATM    5  C1  UNL     1       8.097   3.463  24.327  1.00  0.00     0.030 C 
HETATM    6  C3  UNL     1       8.345   1.962  22.452  1.00  0.00     0.202 C 
HETATM    7  O1  UNL     1       7.863   2.797  21.644  1.00  0.00    -0.288 OA
HETATM    8  C4  UNL     1       9.028   0.710  22.044  1.00  0.00     0.183 C 
HETATM    9  C5  UNL     1       8.843   0.398  20.584  1.00  0.00     0.063 C 
HETATM   10  C6  UNL     1       8.540  -0.371  22.933  1.00  0.00     0.193 C 
HETATM   11  O3  UNL     1       8.224  -1.518  22.468  1.00  0.00    -0.289 OA
HETATM   12  C7  UNL     1       8.433  -0.091  24.356  1.00  0.00     0.084 C 
BRANCH   8  13
HETATM   13  O2  UNL     1      10.390   0.863  22.294  1.00  0.00    -0.374 OA
ATOM     14  H2  UNL     1      10.653   1.715  21.967  1.00  0.00     0.211 HD
ENDBRANCH   8  13
ENDBRANCH   1   3
BRANCH   1  15
HETATM   15  C9  UNL     1       9.164   1.438  27.055  1.00  0.00     0.155 A 
HETATM   16  N2  UNL     1       9.514   2.576  27.635  1.00  0.00    -0.302 N 
HETATM   17  C10 UNL     1      10.510   2.769  28.498  1.00  0.00     0.225 A 
ATOM     18  H2  UNL     1       8.958   3.397  27.395  1.00  0.00     0.171 HD
HETATM   19  N3  UNL     1      11.360   1.866  28.955  1.00  0.00    -0.303 N 
HETATM   20  C11 UNL     1      11.370   0.565  28.625  1.00  0.00     0.148 A 
ATOM     21  H3  UNL     1      12.070   2.186  29.614  1.00  0.00     0.171 HD
HETATM   22  N4  UNL     1      12.241  -0.247  29.124  1.00  0.00    -0.379 N 
HETATM   23  S1  UNL     1      10.158   0.107  27.519  1.00  0.00    -0.018 SA
ATOM     24  H42 UNL     1      12.966   0.027  29.787  1.00  0.00     0.158 HD
ATOM     25  H41 UNL     1      12.249  -1.236  28.875  1.00  0.00     0.158 HD
BRANCH  17  26
HETATM   26  O4  UNL     1      10.660   4.093  28.963  1.00  0.00    -0.332 OA
ATOM     27  H4  UNL     1      10.319   4.260  29.834  1.00  0.00     0.221 HD
ENDBRANCH  17  26
ENDBRANCH   1  15
TORSDOF 4
ENDMDL
MODEL 5
REMARK VINA RESULT: -6.957806495      4.046      6.144
REMARK  4 active torsions:
REMARK  status: ('A' for Active; 'I' for Inactive)
REMARK    1  A    between atoms: C4_5  and  O2_7 
REMARK    2  A    between atoms: C8_12  and  N1_13 
REMARK    3  A    between atoms: N1_13  and  C9_15 
REMARK    4  A    between atoms: C10_18  and  O4_19 
ROOT
HETATM    1  N1  UNL     1       8.251   1.062  25.951  1.00  0.00    -0.336 N 
ATOM      2  H1  UNL     1       7.265   1.257  26.129  1.00  0.00     0.168 HD
ENDROOT
BRANCH   1   3
HETATM    3  C8  UNL     1       8.576   0.452  24.728  1.00  0.00     0.051 C 
HETATM    4  C2  UNL     1       8.889   1.258  23.533  1.00  0.00     0.031 C 
HETATM    5  C1  UNL     1       8.857   2.581  23.635  1.00  0.00     0.030 C 
HETATM    6  C3  UNL     1       9.227   0.627  22.263  1.00  0.00     0.202 C 
HETATM    7  O1  UNL     1       9.044   1.269  21.197  1.00  0.00    -0.288 OA
HETATM    8  C4  UNL     1       9.772  -0.750  22.320  1.00  0.00     0.183 C 
HETATM    9  C5  UNL     1       9.826  -1.410  20.969  1.00  0.00     0.063 C 
HETATM   10  C6  UNL     1       8.961  -1.508  23.302  1.00  0.00     0.193 C 
HETATM   11  O3  UNL     1       8.565  -2.698  23.056  1.00  0.00    -0.289 OA
HETATM   12  C7  UNL     1       8.626  -0.859  24.560  1.00  0.00     0.084 C 
BRANCH   8  13
HETATM   13  O2  UNL     1      11.067  -0.678  22.828  1.00  0.00    -0.374 OA
ATOM     14  H2  UNL     1      11.512  -1.488  22.611  1.00  0.00     0.211 HD
ENDBRANCH   8  13
ENDBRANCH   1   3
BRANCH   1  15
HETATM   15  C9  UNL     1       9.082   1.391  26.855  1.00  0.00     0.155 A 
HETATM   16  N2  UNL     1       9.994   0.542  27.306  1.00  0.00    -0.302 N 
HETATM   17  C10 UNL     1      10.913   0.768  28.242  1.00  0.00     0.225 A 
ATOM     18  H2  UNL     1       9.990  -0.389  26.889  1.00  0.00     0.171 HD
HETATM   19  N3  UNL     1      11.110   1.885  28.919  1.00  0.00    -0.303 N 
HETATM   20  C11 UNL     1      10.403   3.018  28.780  1.00  0.00     0.148 A 
ATOM     21  H3  UNL     1      11.864   1.887  29.607  1.00  0.00     0.171 HD
HETATM   22  N4  UNL     1      10.668   4.065  29.487  1.00  0.00    -0.379 N 
HETATM   23  S1  UNL     1       9.162   2.938  27.616  1.00  0.00    -0.018 SA
ATOM     24  H42 UNL     1      11.411   4.113  30.184  1.00  0.00     0.158 HD
ATOM     25  H41 UNL     1      10.131   4.926  29.382  1.00  0.00     0.158 HD
BRANCH  17  26
HETATM   26  O4  UNL     1      11.763  -0.321  28.531  1.00  0.00    -0.332 OA
ATOM     27  H4  UNL     1      12.671  -0.210  28.272  1.00  0.00     0.221 HD
ENDBRANCH  17  26
ENDBRANCH   1  15
TORSDOF 4
ENDMDL
