MODEL 1
REMARK VINA RESULT: -7.136371467      0.000      0.000
REMARK  4 active torsions:
REMARK  status: ('A' for Active; 'I' for Inactive)
REMARK    1  A    between atoms: C4_8  and  C5_9 
REMARK    2  A    between atoms: C5_9  and  N3_10 
REMARK    3  A    between atoms: N3_10  and  N4_12 
REMARK    4  A    between atoms: C7_17  and  N6_18 
ROOT
HETATM    1  N3  UNL     1       8.584   0.858  26.346  1.00  0.00    -0.295 N 
ATOM      2  H3  UNL     1       7.588   0.637  26.384  1.00  0.00     0.187 HD
ENDROOT
BRANCH   1   3
HETATM    3  C5  UNL     1       9.289   0.300  25.433  1.00  0.00     0.158 C 
BRANCH   3   4
HETATM    4  C4  UNL     1       9.221  -1.130  25.166  1.00  0.00     0.154 A 
HETATM    5  N2  UNL     1       9.950  -2.110  25.775  1.00  0.00    -0.171 N 
HETATM    6  C3  UNL     1       9.634  -3.319  25.285  1.00  0.00     0.722 A 
ATOM      7  H2  UNL     1      10.644  -1.945  26.504  1.00  0.00     0.186 HD
HETATM    8  N1  UNL     1       9.869  -4.643  25.342  1.00  0.00    -0.176 N 
HETATM    9  N9  UNL     1       8.690  -3.086  24.356  1.00  0.00    -0.017 N 
HETATM   10  C2  UNL     1       9.073  -5.256  24.447  1.00  0.00     0.110 A 
ATOM     11  H1  UNL     1      10.538  -5.104  25.958  1.00  0.00     0.185 HD
HETATM   12  C1  UNL     1       8.993  -6.731  24.162  1.00  0.00     0.091 C 
HETATM   13  N10 UNL     1       8.365  -4.279  23.861  1.00  0.00    -0.253 N 
ATOM     14  H10 UNL     1       7.669  -4.430  23.132  1.00  0.00     0.191 HD
HETATM   15  N8  UNL     1       8.445  -1.787  24.287  1.00  0.00    -0.247 N 
ATOM     16  H8  UNL     1       7.770  -1.350  23.659  1.00  0.00     0.191 HD
ENDBRANCH   3   4
ENDBRANCH   1   3
BRANCH   1  17
HETATM   17  N4  UNL     1       9.090   1.744  27.286  1.00  0.00    -0.177 N 
HETATM   18  C6  UNL     1       9.888   1.270  28.250  1.00  0.00     0.362 A 
HETATM   19  O1  UNL     1      10.153   0.026  28.267  1.00  0.00    -0.244 OA
HETATM   20  N5  UNL     1      10.389   2.112  29.170  1.00  0.00    -0.140 N 
HETATM   21  C7  UNL     1      10.124   3.431  29.174  1.00  0.00     0.682 A 
ATOM     22  H5  UNL     1      10.996   1.734  29.897  1.00  0.00     0.189 HD
HETATM   23  N7  UNL     1       9.324   3.895  28.204  1.00  0.00    -0.164 N 
HETATM   24  C8  UNL     1       8.820   3.053  27.281  1.00  0.00     0.216 A 
ATOM     25  H7  UNL     1       9.095   4.888  28.165  1.00  0.00     0.186 HD
HETATM   26  S1  UNL     1       7.848   3.652  26.114  1.00  0.00    -0.038 SA
BRANCH  21  27
HETATM   27  N6  UNL     1      10.588   4.251  30.037  1.00  0.00    -0.234 N 
ATOM     28  H62 UNL     1      10.220   5.202  30.064  1.00  0.00     0.174 HD
ATOM     29  H61 UNL     1      11.314   4.016  30.714  1.00  0.00     0.174 HD
ENDBRANCH  21  27
ENDBRANCH   1  17
TORSDOF 4
ENDMDL
MODEL 2
REMARK VINA RESULT: -7.118547087      0.426      1.052
REMARK  4 active torsions:
REMARK  status: ('A' for Active; 'I' for Inactive)
REMARK    1  A    between atoms: C4_8  and  C5_9 
REMARK    2  A    between atoms: C5_9  and  N3_10 
REMARK    3  A    between atoms: N3_10  and  N4_12 
REMARK    4  A    between atoms: C7_17  and  N6_18 
ROOT
HETATM    1  N3  UNL     1       8.556   0.929  26.403  1.00  0.00    -0.295 N 
ATOM      2  H3  UNL     1       7.564   0.701  26.459  1.00  0.00     0.187 HD
ENDROOT
BRANCH   1   3
HETATM    3  C5  UNL     1       9.247   0.384  25.471  1.00  0.00     0.158 C 
BRANCH   3   4
HETATM    4  C4  UNL     1       9.233  -1.053  25.236  1.00  0.00     0.154 A 
HETATM    5  N2  UNL     1       8.435  -1.729  24.359  1.00  0.00    -0.171 N 
HETATM    6  C3  UNL     1       8.687  -3.047  24.399  1.00  0.00     0.722 A 
ATOM      7  H2  UNL     1       7.741  -1.291  23.754  1.00  0.00     0.186 HD
HETATM    8  N1  UNL     1       8.371  -4.259  23.906  1.00  0.00    -0.176 N 
HETATM    9  N9  UNL     1       9.659  -3.193  25.316  1.00  0.00    -0.017 N 
HETATM   10  C2  UNL     1       9.144  -5.180  24.510  1.00  0.00     0.110 A 
ATOM     11  H1  UNL     1       7.665  -4.449  23.194  1.00  0.00     0.185 HD
HETATM   12  C1  UNL     1       9.139  -6.666  24.276  1.00  0.00     0.091 C 
HETATM   13  N10 UNL     1       9.920  -4.498  25.366  1.00  0.00    -0.253 N 
ATOM     14  H10 UNL     1      10.618  -4.923  25.975  1.00  0.00     0.191 HD
HETATM   15  N8  UNL     1       9.983  -2.009  25.812  1.00  0.00    -0.247 N 
ATOM     16  H8  UNL     1      10.694  -1.846  26.524  1.00  0.00     0.191 HD
ENDBRANCH   3   4
ENDBRANCH   1   3
BRANCH   1  17
HETATM   17  N4  UNL     1       9.075   1.811  27.340  1.00  0.00    -0.177 N 
HETATM   18  C6  UNL     1       9.882   1.331  28.294  1.00  0.00     0.362 A 
HETATM   19  O1  UNL     1      10.143   0.087  28.304  1.00  0.00    -0.244 OA
HETATM   20  N5  UNL     1      10.395   2.169  29.211  1.00  0.00    -0.140 N 
HETATM   21  C7  UNL     1      10.134   3.490  29.221  1.00  0.00     0.682 A 
ATOM     22  H5  UNL     1      11.009   1.788  29.930  1.00  0.00     0.189 HD
HETATM   23  N7  UNL     1       9.325   3.958  28.262  1.00  0.00    -0.164 N 
HETATM   24  C8  UNL     1       8.809   3.120  27.341  1.00  0.00     0.216 A 
ATOM     25  H7  UNL     1       9.099   4.952  28.228  1.00  0.00     0.186 HD
HETATM   26  S1  UNL     1       7.827   3.726  26.187  1.00  0.00    -0.038 SA
BRANCH  21  27
HETATM   27  N6  UNL     1      10.610   4.305  30.083  1.00  0.00    -0.234 N 
ATOM     28  H62 UNL     1      11.225   3.948  30.814  1.00  0.00     0.174 HD
ATOM     29  H61 UNL     1      10.413   5.306  30.090  1.00  0.00     0.174 HD
ENDBRANCH  21  27
ENDBRANCH   1  17
TORSDOF 4
ENDMDL
MODEL 3
REMARK VINA RESULT: -6.859447242      1.549      1.853
REMARK  4 active torsions:
REMARK  status: ('A' for Active; 'I' for Inactive)
REMARK    1  A    between atoms: C4_8  and  C5_9 
REMARK    2  A    between atoms: C5_9  and  N3_10 
REMARK    3  A    between atoms: N3_10  and  N4_12 
REMARK    4  A    between atoms: C7_17  and  N6_18 
ROOT
HETATM    1  N3  UNL     1       8.609   0.942  26.575  1.00  0.00    -0.295 N 
ATOM      2  H3  UNL     1       7.639   0.638  26.662  1.00  0.00     0.187 HD
ENDROOT
BRANCH   1   3
HETATM    3  C5  UNL     1       9.328   0.402  25.662  1.00  0.00     0.158 C 
BRANCH   3   4
HETATM    4  C4  UNL     1       9.235  -1.013  25.337  1.00  0.00     0.154 A 
HETATM    5  N2  UNL     1      10.003  -2.021  25.846  1.00  0.00    -0.171 N 
HETATM    6  C3  UNL     1       9.646  -3.206  25.327  1.00  0.00     0.722 A 
ATOM      7  H2  UNL     1      10.749  -1.890  26.529  1.00  0.00     0.186 HD
HETATM    8  N1  UNL     1       9.880  -4.532  25.307  1.00  0.00    -0.176 N 
HETATM    9  N9  UNL     1       8.638  -2.931  24.481  1.00  0.00    -0.017 N 
HETATM   10  C2  UNL     1       9.017  -5.103  24.446  1.00  0.00     0.110 A 
ATOM     11  H1  UNL     1      10.590  -5.021  25.852  1.00  0.00     0.185 HD
HETATM   12  C1  UNL     1       8.911  -6.564  24.102  1.00  0.00     0.091 C 
HETATM   13  N10 UNL     1       8.273  -4.100  23.959  1.00  0.00    -0.253 N 
ATOM     14  H10 UNL     1       7.524  -4.218  23.276  1.00  0.00     0.191 HD
HETATM   15  N8  UNL     1       8.394  -1.630  24.488  1.00  0.00    -0.247 N 
ATOM     16  H8  UNL     1       7.676  -1.165  23.932  1.00  0.00     0.191 HD
ENDBRANCH   3   4
ENDBRANCH   1   3
BRANCH   1  17
HETATM   17  N4  UNL     1       9.067   1.915  27.452  1.00  0.00    -0.177 N 
HETATM   18  C6  UNL     1       8.745   3.192  27.217  1.00  0.00     0.362 A 
HETATM   19  O1  UNL     1       8.031   3.466  26.201  1.00  0.00    -0.244 OA
HETATM   20  N5  UNL     1       9.179   4.150  28.055  1.00  0.00    -0.140 N 
HETATM   21  C7  UNL     1       9.935   3.886  29.136  1.00  0.00     0.682 A 
ATOM     22  H5  UNL     1       8.924   5.118  27.862  1.00  0.00     0.189 HD
HETATM   23  N7  UNL     1      10.251   2.604  29.361  1.00  0.00    -0.164 N 
HETATM   24  C8  UNL     1       9.818   1.642  28.523  1.00  0.00     0.216 A 
ATOM     25  H7  UNL     1      10.822   2.355  30.168  1.00  0.00     0.186 HD
HETATM   26  S1  UNL     1      10.222   0.090  28.827  1.00  0.00    -0.038 SA
BRANCH  21  27
HETATM   27  N6  UNL     1      10.359   4.779  29.946  1.00  0.00    -0.234 N 
ATOM     28  H62 UNL     1      10.183   5.762  29.736  1.00  0.00     0.174 HD
ATOM     29  H61 UNL     1      10.873   4.574  30.803  1.00  0.00     0.174 HD
ENDBRANCH  21  27
ENDBRANCH   1  17
TORSDOF 4
ENDMDL
MODEL 4
REMARK VINA RESULT: -6.714989778      1.660      2.078
REMARK  4 active torsions:
REMARK  status: ('A' for Active; 'I' for Inactive)
REMARK    1  A    between atoms: C4_8  and  C5_9 
REMARK    2  A    between atoms: C5_9  and  N3_10 
REMARK    3  A    between atoms: N3_10  and  N4_12 
REMARK    4  A    between atoms: C7_17  and  N6_18 
ROOT
HETATM    1  N3  UNL     1       9.255   0.601  26.782  1.00  0.00    -0.295 N 
ATOM      2  H3  UNL     1       9.389  -0.051  27.555  1.00  0.00     0.187 HD
ENDROOT
BRANCH   1   3
HETATM    3  C5  UNL     1       9.408   0.158  25.589  1.00  0.00     0.158 C 
BRANCH   3   4
HETATM    4  C4  UNL     1       9.284  -1.256  25.265  1.00  0.00     0.154 A 
HETATM    5  N2  UNL     1       9.993  -2.285  25.815  1.00  0.00    -0.171 N 
HETATM    6  C3  UNL     1       9.624  -3.461  25.283  1.00  0.00     0.722 A 
ATOM      7  H2  UNL     1      10.708  -2.175  26.534  1.00  0.00     0.186 HD
HETATM    8  N1  UNL     1       9.814  -4.794  25.280  1.00  0.00    -0.176 N 
HETATM    9  N9  UNL     1       8.667  -3.158  24.388  1.00  0.00    -0.017 N 
HETATM   10  C2  UNL     1       8.976  -5.341  24.380  1.00  0.00     0.110 A 
ATOM     11  H1  UNL     1      10.480  -5.303  25.861  1.00  0.00     0.185 HD
HETATM   12  C1  UNL     1       8.839  -6.799  24.037  1.00  0.00     0.091 C 
HETATM   13  N10 UNL     1       8.290  -4.317  23.852  1.00  0.00    -0.253 N 
ATOM     14  H10 UNL     1       7.572  -4.414  23.134  1.00  0.00     0.191 HD
HETATM   15  N8  UNL     1       8.466  -1.850  24.378  1.00  0.00    -0.247 N 
ATOM     16  H8  UNL     1       7.792  -1.364  23.786  1.00  0.00     0.191 HD
ENDBRANCH   3   4
ENDBRANCH   1   3
BRANCH   1  17
HETATM   17  N4  UNL     1       8.920   1.912  27.087  1.00  0.00    -0.177 N 
HETATM   18  C6  UNL     1       7.895   2.478  26.440  1.00  0.00     0.362 A 
HETATM   19  O1  UNL     1       7.267   1.794  25.572  1.00  0.00    -0.244 OA
HETATM   20  N5  UNL     1       7.554   3.748  26.721  1.00  0.00    -0.140 N 
HETATM   21  C7  UNL     1       8.202   4.493  27.635  1.00  0.00     0.682 A 
ATOM     22  H5  UNL     1       6.770   4.164  26.219  1.00  0.00     0.189 HD
HETATM   23  N7  UNL     1       9.226   3.915  28.276  1.00  0.00    -0.164 N 
HETATM   24  C8  UNL     1       9.570   2.643  27.997  1.00  0.00     0.216 A 
ATOM     25  H7  UNL     1       9.748   4.440  28.979  1.00  0.00     0.186 HD
HETATM   26  S1  UNL     1      10.824   1.971  28.797  1.00  0.00    -0.038 SA
BRANCH  21  27
HETATM   27  N6  UNL     1       7.897   5.701  27.919  1.00  0.00    -0.234 N 
ATOM     28  H62 UNL     1       8.097   6.435  27.239  1.00  0.00     0.174 HD
ATOM     29  H61 UNL     1       7.460   5.989  28.795  1.00  0.00     0.174 HD
ENDBRANCH  21  27
ENDBRANCH   1  17
TORSDOF 4
ENDMDL
MODEL 5
REMARK VINA RESULT: -6.687431655      2.980      3.764
REMARK  4 active torsions:
REMARK  status: ('A' for Active; 'I' for Inactive)
REMARK    1  A    between atoms: C4_8  and  C5_9 
REMARK    2  A    between atoms: C5_9  and  N3_10 
REMARK    3  A    between atoms: N3_10  and  N4_12 
REMARK    4  A    between atoms: C7_17  and  N6_18 
ROOT
HETATM    1  N3  UNL     1       8.178   0.459  25.133  1.00  0.00    -0.295 N 
ATOM      2  H3  UNL     1       7.374   0.181  25.696  1.00  0.00     0.187 HD
ENDROOT
BRANCH   1   3
HETATM    3  C5  UNL     1       9.227  -0.277  25.178  1.00  0.00     0.158 C 
BRANCH   3   4
HETATM    4  C4  UNL     1       9.184  -1.706  24.903  1.00  0.00     0.154 A 
HETATM    5  N2  UNL     1       9.882  -2.685  25.549  1.00  0.00    -0.171 N 
HETATM    6  C3  UNL     1       9.603  -3.893  25.037  1.00  0.00     0.722 A 
ATOM      7  H2  UNL     1      10.530  -2.519  26.319  1.00  0.00     0.186 HD
HETATM    8  N1  UNL     1       9.842  -5.216  25.103  1.00  0.00    -0.176 N 
HETATM    9  N9  UNL     1       8.713  -3.662  24.055  1.00  0.00    -0.017 N 
HETATM   10  C2  UNL     1       9.104  -5.830  24.160  1.00  0.00     0.110 A 
ATOM     11  H1  UNL     1      10.476  -5.676  25.756  1.00  0.00     0.185 HD
HETATM   12  C1  UNL     1       9.050  -7.305  23.866  1.00  0.00     0.091 C 
HETATM   13  N10 UNL     1       8.426  -4.855  23.537  1.00  0.00    -0.253 N 
ATOM     14  H10 UNL     1       7.774  -5.007  22.767  1.00  0.00     0.191 HD
HETATM   15  N8  UNL     1       8.465  -2.365  23.976  1.00  0.00    -0.247 N 
ATOM     16  H8  UNL     1       7.825  -1.929  23.312  1.00  0.00     0.191 HD
ENDBRANCH   3   4
ENDBRANCH   1   3
BRANCH   1  17
HETATM   17  N4  UNL     1       8.069   1.609  24.364  1.00  0.00    -0.177 N 
HETATM   18  C6  UNL     1       7.841   1.484  23.052  1.00  0.00     0.362 A 
HETATM   19  O1  UNL     1       7.732   0.317  22.559  1.00  0.00    -0.244 OA
HETATM   20  N5  UNL     1       7.732   2.586  22.290  1.00  0.00    -0.140 N 
HETATM   21  C7  UNL     1       7.844   3.832  22.788  1.00  0.00     0.682 A 
ATOM     22  H5  UNL     1       7.558   2.473  21.292  1.00  0.00     0.189 HD
HETATM   23  N7  UNL     1       8.072   3.944  24.103  1.00  0.00    -0.164 N 
HETATM   24  C8  UNL     1       8.182   2.841  24.868  1.00  0.00     0.216 A 
ATOM     25  H7  UNL     1       8.163   4.868  24.526  1.00  0.00     0.186 HD
HETATM   26  S1  UNL     1       8.461   3.016  26.467  1.00  0.00    -0.038 SA
BRANCH  21  27
HETATM   27  N6  UNL     1       7.745   4.894  22.084  1.00  0.00    -0.234 N 
ATOM     28  H62 UNL     1       6.860   5.096  21.617  1.00  0.00     0.174 HD
ATOM     29  H61 UNL     1       8.501   5.565  21.953  1.00  0.00     0.174 HD
ENDBRANCH  21  27
ENDBRANCH   1  17
TORSDOF 4
ENDMDL
