MODEL 1
REMARK VINA RESULT: -7.365664355      0.000      0.000
REMARK  6 active torsions:
REMARK  status: ('A' for Active; 'I' for Inactive)
REMARK    1  A    between atoms: C2_2  and  C3_3 
REMARK    2  A    between atoms: C3_3  and  C4_4 
REMARK    3  A    between atoms: C4_4  and  N1_5 
REMARK    4  A    between atoms: C6_8  and  C7_9 
REMARK    5  A    between atoms: N3_10  and  N4_12 
REMARK    6  A    between atoms: C8_14  and  C9_15 
ROOT
HETATM    1  N1  UNL     1     -47.734  45.582  11.131  1.00  0.00    -0.287 N 
HETATM    2  C5  UNL     1     -48.030  46.683  11.836  1.00  0.00     0.139 A 
HETATM    3  N2  UNL     1     -47.270  47.862  11.653  1.00  0.00    -0.081 NA
HETATM    4  C6  UNL     1     -49.066  46.725  12.752  1.00  0.00     0.090 A 
HETATM    5  C15 UNL     1     -49.821  45.594  12.949  1.00  0.00     0.264 A 
HETATM    6  O1  UNL     1     -50.780  45.567  13.772  1.00  0.00    -0.267 OA
HETATM    7  N5  UNL     1     -49.505  44.492  12.227  1.00  0.00    -0.274 N 
ATOM      8  H5  UNL     1     -50.051  43.641  12.356  1.00  0.00     0.173 HD
HETATM    9  C16 UNL     1     -48.489  44.488  11.344  1.00  0.00     0.330 A 
HETATM   10  O2  UNL     1     -48.206  43.445  10.674  1.00  0.00    -0.246 OA
ENDROOT
BRANCH   4  11
HETATM   11  C7  UNL     1     -49.372  47.925  13.506  1.00  0.00     0.127 C 
HETATM   12  N3  UNL     1     -49.594  49.058  12.908  1.00  0.00    -0.311 N 
ATOM     13  H3  UNL     1     -49.556  49.118  11.890  1.00  0.00     0.186 HD
BRANCH  12  14
HETATM   14  N4  UNL     1     -49.886  50.189  13.667  1.00  0.00    -0.316 N 
HETATM   15  C8  UNL     1     -49.173  51.242  13.509  1.00  0.00     0.087 C 
ATOM     16  H4  UNL     1     -50.655  50.178  14.338  1.00  0.00     0.185 HD
BRANCH  15  17
HETATM   17  C9  UNL     1     -48.058  51.260  12.536  1.00  0.00     0.059 C 
HETATM   18  C10 UNL     1     -48.022  52.595  11.812  1.00  0.00     0.013 C 
HETATM   19  C11 UNL     1     -46.648  53.145  11.640  1.00  0.00     0.001 C 
HETATM   20  C12 UNL     1     -45.599  52.126  11.320  1.00  0.00     0.003 C 
HETATM   21  C13 UNL     1     -45.673  50.917  12.229  1.00  0.00     0.038 C 
HETATM   22  C14 UNL     1     -46.755  51.129  13.294  1.00  0.00     0.179 C 
HETATM   23  F1  UNL     1     -46.738  50.083  14.168  1.00  0.00    -0.249 F 
ENDBRANCH  15  17
ENDBRANCH  12  14
ENDBRANCH   4  11
BRANCH   1  24
HETATM   24  C4  UNL     1     -46.636  45.636  10.199  1.00  0.00     0.135 C 
BRANCH  24  25
HETATM   25  C3  UNL     1     -47.022  46.321   8.896  1.00  0.00     0.020 C 
BRANCH  25  26
HETATM   26  C2  UNL     1     -47.066  45.242   7.834  1.00  0.00    -0.003 C 
HETATM   27  C1  UNL     1     -47.791  45.705   6.594  1.00  0.00     0.005 C 
ENDBRANCH  25  26
ENDBRANCH  24  25
ENDBRANCH   1  24
TORSDOF 6
ENDMDL
MODEL 2
REMARK VINA RESULT: -6.716376981      1.365      1.795
REMARK  6 active torsions:
REMARK  status: ('A' for Active; 'I' for Inactive)
REMARK    1  A    between atoms: C2_2  and  C3_3 
REMARK    2  A    between atoms: C3_3  and  C4_4 
REMARK    3  A    between atoms: C4_4  and  N1_5 
REMARK    4  A    between atoms: C6_8  and  C7_9 
REMARK    5  A    between atoms: N3_10  and  N4_12 
REMARK    6  A    between atoms: C8_14  and  C9_15 
ROOT
HETATM    1  N1  UNL     1     -49.110  46.007  12.583  1.00  0.00    -0.287 N 
HETATM    2  C5  UNL     1     -49.184  47.322  12.829  1.00  0.00     0.139 A 
HETATM    3  N2  UNL     1     -48.061  48.148  12.585  1.00  0.00    -0.081 NA
HETATM    4  C6  UNL     1     -50.328  47.926  13.319  1.00  0.00     0.090 A 
HETATM    5  C15 UNL     1     -51.433  47.147  13.564  1.00  0.00     0.264 A 
HETATM    6  O1  UNL     1     -52.508  47.637  14.013  1.00  0.00    -0.267 OA
HETATM    7  N5  UNL     1     -51.337  45.820  13.309  1.00  0.00    -0.274 N 
ATOM      8  H5  UNL     1     -52.145  45.223  13.484  1.00  0.00     0.173 HD
HETATM    9  C16 UNL     1     -50.207  45.267  12.832  1.00  0.00     0.330 A 
HETATM   10  O2  UNL     1     -50.135  44.020  12.598  1.00  0.00    -0.246 OA
ENDROOT
BRANCH   4  11
HETATM   11  C7  UNL     1     -50.388  49.351  13.580  1.00  0.00     0.127 C 
HETATM   12  N3  UNL     1     -50.159  50.218  12.639  1.00  0.00    -0.311 N 
ATOM     13  H3  UNL     1     -49.931  49.904  11.695  1.00  0.00     0.186 HD
BRANCH  12  14
HETATM   14  N4  UNL     1     -50.229  51.579  12.929  1.00  0.00    -0.316 N 
HETATM   15  C8  UNL     1     -49.209  52.316  12.685  1.00  0.00     0.087 C 
ATOM     16  H4  UNL     1     -51.077  51.981  13.328  1.00  0.00     0.185 HD
BRANCH  15  17
HETATM   17  C9  UNL     1     -47.977  51.736  12.105  1.00  0.00     0.059 C 
HETATM   18  C10 UNL     1     -47.363  52.707  11.111  1.00  0.00     0.013 C 
HETATM   19  C11 UNL     1     -45.880  52.807  11.212  1.00  0.00     0.001 C 
HETATM   20  C12 UNL     1     -45.179  51.512  11.478  1.00  0.00     0.003 C 
HETATM   21  C13 UNL     1     -45.824  50.726  12.599  1.00  0.00     0.038 C 
HETATM   22  C14 UNL     1     -46.969  51.537  13.216  1.00  0.00     0.179 C 
HETATM   23  F1  UNL     1     -47.470  50.867  14.291  1.00  0.00    -0.249 F 
ENDBRANCH  15  17
ENDBRANCH  12  14
ENDBRANCH   4  11
BRANCH   1  24
HETATM   24  C4  UNL     1     -47.874  45.469  12.072  1.00  0.00     0.135 C 
BRANCH  24  25
HETATM   25  C3  UNL     1     -47.937  45.208  10.574  1.00  0.00     0.020 C 
BRANCH  25  26
HETATM   26  C2  UNL     1     -46.860  46.062   9.938  1.00  0.00    -0.003 C 
HETATM   27  C1  UNL     1     -46.939  46.034   8.432  1.00  0.00     0.005 C 
ENDBRANCH  25  26
ENDBRANCH  24  25
ENDBRANCH   1  24
TORSDOF 6
ENDMDL
MODEL 3
REMARK VINA RESULT: -6.711898115      1.002      1.165
REMARK  6 active torsions:
REMARK  status: ('A' for Active; 'I' for Inactive)
REMARK    1  A    between atoms: C2_2  and  C3_3 
REMARK    2  A    between atoms: C3_3  and  C4_4 
REMARK    3  A    between atoms: C4_4  and  N1_5 
REMARK    4  A    between atoms: C6_8  and  C7_9 
REMARK    5  A    between atoms: N3_10  and  N4_12 
REMARK    6  A    between atoms: C8_14  and  C9_15 
ROOT
HETATM    1  N1  UNL     1     -48.190  45.697  11.339  1.00  0.00    -0.287 N 
HETATM    2  C5  UNL     1     -48.306  46.718  12.199  1.00  0.00     0.139 A 
HETATM    3  N2  UNL     1     -47.953  48.026  11.790  1.00  0.00    -0.081 NA
HETATM    4  C6  UNL     1     -48.764  46.555  13.494  1.00  0.00     0.090 A 
HETATM    5  C15 UNL     1     -49.114  45.296  13.917  1.00  0.00     0.264 A 
HETATM    6  O1  UNL     1     -49.539  45.079  15.087  1.00  0.00    -0.267 OA
HETATM    7  N5  UNL     1     -48.990  44.277  13.033  1.00  0.00    -0.274 N 
ATOM      8  H5  UNL     1     -49.244  43.333  13.325  1.00  0.00     0.173 HD
HETATM    9  C16 UNL     1     -48.540  44.473  11.780  1.00  0.00     0.330 A 
HETATM   10  O2  UNL     1     -48.429  43.506  10.963  1.00  0.00    -0.246 OA
ENDROOT
BRANCH   4  11
HETATM   11  C7  UNL     1     -48.883  47.673  14.410  1.00  0.00     0.127 C 
HETATM   12  N3  UNL     1     -49.655  48.683  14.143  1.00  0.00    -0.311 N 
ATOM     13  H3  UNL     1     -50.193  48.704  13.277  1.00  0.00     0.186 HD
BRANCH  12  14
HETATM   14  N4  UNL     1     -49.743  49.738  15.049  1.00  0.00    -0.316 N 
HETATM   15  C8  UNL     1     -49.332  50.898  14.691  1.00  0.00     0.087 C 
ATOM     16  H4  UNL     1     -50.127  49.588  15.983  1.00  0.00     0.185 HD
BRANCH  15  17
HETATM   17  C9  UNL     1     -48.775  51.118  13.338  1.00  0.00     0.059 C 
HETATM   18  C10 UNL     1     -49.347  52.393  12.741  1.00  0.00     0.013 C 
HETATM   19  C11 UNL     1     -48.336  53.225  12.030  1.00  0.00     0.001 C 
HETATM   20  C12 UNL     1     -47.329  52.450  11.238  1.00  0.00     0.003 C 
HETATM   21  C13 UNL     1     -46.740  51.298  12.024  1.00  0.00     0.038 C 
HETATM   22  C14 UNL     1     -47.279  51.314  13.458  1.00  0.00     0.179 C 
HETATM   23  F1  UNL     1     -46.661  50.340  14.184  1.00  0.00    -0.249 F 
ENDBRANCH  15  17
ENDBRANCH  12  14
ENDBRANCH   4  11
BRANCH   1  24
HETATM   24  C4  UNL     1     -47.703  45.966  10.010  1.00  0.00     0.135 C 
BRANCH  24  25
HETATM   25  C3  UNL     1     -46.203  45.733   9.890  1.00  0.00     0.020 C 
BRANCH  25  26
HETATM   26  C2  UNL     1     -45.910  45.541   8.417  1.00  0.00    -0.003 C 
HETATM   27  C1  UNL     1     -47.124  45.818   7.564  1.00  0.00     0.005 C 
ENDBRANCH  25  26
ENDBRANCH  24  25
ENDBRANCH   1  24
TORSDOF 6
ENDMDL
MODEL 4
REMARK VINA RESULT: -6.568210579      3.315      4.680
REMARK  6 active torsions:
REMARK  status: ('A' for Active; 'I' for Inactive)
REMARK    1  A    between atoms: C2_2  and  C3_3 
REMARK    2  A    between atoms: C3_3  and  C4_4 
REMARK    3  A    between atoms: C4_4  and  N1_5 
REMARK    4  A    between atoms: C6_8  and  C7_9 
REMARK    5  A    between atoms: N3_10  and  N4_12 
REMARK    6  A    between atoms: C8_14  and  C9_15 
ROOT
HETATM    1  N1  UNL     1     -47.827  45.694  11.217  1.00  0.00    -0.287 N 
HETATM    2  C5  UNL     1     -48.198  46.721  11.992  1.00  0.00     0.139 A 
HETATM    3  N2  UNL     1     -47.493  47.946  11.922  1.00  0.00    -0.081 NA
HETATM    4  C6  UNL     1     -49.259  46.644  12.876  1.00  0.00     0.090 A 
HETATM    5  C15 UNL     1     -49.961  45.466  12.964  1.00  0.00     0.264 A 
HETATM    6  O1  UNL     1     -50.940  45.330  13.752  1.00  0.00    -0.267 OA
HETATM    7  N5  UNL     1     -49.570  44.439  12.172  1.00  0.00    -0.274 N 
ATOM      8  H5  UNL     1     -50.076  43.555  12.220  1.00  0.00     0.173 HD
HETATM    9  C16 UNL     1     -48.532  44.551  11.323  1.00  0.00     0.330 A 
HETATM   10  O2  UNL     1     -48.179  43.578  10.587  1.00  0.00    -0.246 OA
ENDROOT
BRANCH   4  11
HETATM   11  C7  UNL     1     -49.645  47.767  13.708  1.00  0.00     0.127 C 
HETATM   12  N3  UNL     1     -49.433  47.760  14.990  1.00  0.00    -0.311 N 
ATOM     13  H3  UNL     1     -48.989  46.956  15.433  1.00  0.00     0.186 HD
BRANCH  12  14
HETATM   14  N4  UNL     1     -49.818  48.859  15.755  1.00  0.00    -0.316 N 
HETATM   15  C8  UNL     1     -49.536  48.872  17.005  1.00  0.00     0.087 C 
ATOM     16  H4  UNL     1     -50.316  49.640  15.327  1.00  0.00     0.185 HD
BRANCH  15  17
HETATM   17  C9  UNL     1     -48.812  47.742  17.629  1.00  0.00     0.059 C 
HETATM   18  C10 UNL     1     -47.691  48.264  18.511  1.00  0.00     0.013 C 
HETATM   19  C11 UNL     1     -47.570  47.548  19.811  1.00  0.00     0.001 C 
HETATM   20  C12 UNL     1     -47.796  46.070  19.738  1.00  0.00     0.003 C 
HETATM   21  C13 UNL     1     -49.038  45.715  18.949  1.00  0.00     0.038 C 
HETATM   22  C14 UNL     1     -49.773  46.992  18.527  1.00  0.00     0.179 C 
HETATM   23  F1  UNL     1     -50.942  46.658  17.912  1.00  0.00    -0.249 F 
ENDBRANCH  15  17
ENDBRANCH  12  14
ENDBRANCH   4  11
BRANCH   1  24
HETATM   24  C4  UNL     1     -46.708  45.871  10.326  1.00  0.00     0.135 C 
BRANCH  24  25
HETATM   25  C3  UNL     1     -47.112  46.551   9.025  1.00  0.00     0.020 C 
BRANCH  25  26
HETATM   26  C2  UNL     1     -46.927  45.527   7.924  1.00  0.00    -0.003 C 
HETATM   27  C1  UNL     1     -47.653  45.925   6.663  1.00  0.00     0.005 C 
ENDBRANCH  25  26
ENDBRANCH  24  25
ENDBRANCH   1  24
TORSDOF 6
ENDMDL
MODEL 5
REMARK VINA RESULT: -6.504293606      3.349      5.357
REMARK  6 active torsions:
REMARK  status: ('A' for Active; 'I' for Inactive)
REMARK    1  A    between atoms: C2_2  and  C3_3 
REMARK    2  A    between atoms: C3_3  and  C4_4 
REMARK    3  A    between atoms: C4_4  and  N1_5 
REMARK    4  A    between atoms: C6_8  and  C7_9 
REMARK    5  A    between atoms: N3_10  and  N4_12 
REMARK    6  A    between atoms: C8_14  and  C9_15 
ROOT
HETATM    1  N1  UNL     1     -47.705  45.743  10.759  1.00  0.00    -0.287 N 
HETATM    2  C5  UNL     1     -48.139  46.680  11.612  1.00  0.00     0.139 A 
HETATM    3  N2  UNL     1     -47.616  47.992  11.544  1.00  0.00    -0.081 NA
HETATM    4  C6  UNL     1     -49.097  46.423  12.577  1.00  0.00     0.090 A 
HETATM    5  C15 UNL     1     -49.623  45.156  12.665  1.00  0.00     0.264 A 
HETATM    6  O1  UNL     1     -50.499  44.856  13.525  1.00  0.00    -0.267 OA
HETATM    7  N5  UNL     1     -49.169  44.224  11.793  1.00  0.00    -0.274 N 
ATOM      8  H5  UNL     1     -49.545  43.277  11.840  1.00  0.00     0.173 HD
HETATM    9  C16 UNL     1     -48.236  44.511  10.867  1.00  0.00     0.330 A 
HETATM   10  O2  UNL     1     -47.822  43.624  10.056  1.00  0.00    -0.246 OA
ENDROOT
BRANCH   4  11
HETATM   11  C7  UNL     1     -49.555  47.449  13.493  1.00  0.00     0.127 C 
HETATM   12  N3  UNL     1     -50.781  47.880  13.462  1.00  0.00    -0.311 N 
ATOM     13  H3  UNL     1     -51.443  47.499  12.787  1.00  0.00     0.186 HD
BRANCH  12  14
HETATM   14  N4  UNL     1     -51.183  48.867  14.359  1.00  0.00    -0.316 N 
HETATM   15  C8  UNL     1     -52.080  48.583  15.231  1.00  0.00     0.087 C 
ATOM     16  H4  UNL     1     -50.771  49.800  14.323  1.00  0.00     0.185 HD
BRANCH  15  17
HETATM   17  C9  UNL     1     -52.678  47.231  15.287  1.00  0.00     0.059 C 
HETATM   18  C10 UNL     1     -52.178  46.491  16.515  1.00  0.00     0.013 C 
HETATM   19  C11 UNL     1     -53.240  45.727  17.227  1.00  0.00     0.001 C 
HETATM   20  C12 UNL     1     -54.231  45.048  16.334  1.00  0.00     0.003 C 
HETATM   21  C13 UNL     1     -54.751  45.965  15.247  1.00  0.00     0.038 C 
HETATM   22  C14 UNL     1     -54.178  47.374  15.433  1.00  0.00     0.179 C 
HETATM   23  F1  UNL     1     -54.735  48.213  14.514  1.00  0.00    -0.249 F 
ENDBRANCH  15  17
ENDBRANCH  12  14
ENDBRANCH   4  11
BRANCH   1  24
HETATM   24  C4  UNL     1     -46.704  46.107   9.787  1.00  0.00     0.135 C 
BRANCH  24  25
HETATM   25  C3  UNL     1     -47.320  46.570   8.474  1.00  0.00     0.020 C 
BRANCH  25  26
HETATM   26  C2  UNL     1     -46.766  45.667   7.392  1.00  0.00    -0.003 C 
HETATM   27  C1  UNL     1     -47.865  45.016   6.590  1.00  0.00     0.005 C 
ENDBRANCH  25  26
ENDBRANCH  24  25
ENDBRANCH   1  24
TORSDOF 6
ENDMDL
