MODEL 1
REMARK VINA RESULT: -5.500607145      0.000      0.000
REMARK  7 active torsions:
REMARK  status: ('A' for Active; 'I' for Inactive)
REMARK    1  A    between atoms: C2_2  and  C3_3 
REMARK    2  A    between atoms: C6_6  and  N1_7 
REMARK    3  A    between atoms: C7_8  and  S1_9 
REMARK    4  A    between atoms: S1_9  and  C8_10 
REMARK    5  A    between atoms: C8_10  and  C9_11 
REMARK    6  A    between atoms: C9_11  and  N2_12 
REMARK    7  A    between atoms: C10_20  and  N5_21 
REMARK       I    between atoms: N5_21  and  C11_23 
REMARK       I    between atoms: C11_23  and  N6_25 
ROOT
HETATM    1  N1  UNL     1     -48.448  47.418  12.632  1.00  0.00    -0.154 N 
HETATM    2  C7  UNL     1     -47.708  48.509  12.288  1.00  0.00     0.177 A 
HETATM    3  N3  UNL     1     -47.012  48.228  11.172  1.00  0.00    -0.265 N 
ATOM      4  H3  UNL     1     -46.375  48.864  10.694  1.00  0.00     0.189 HD
HETATM    5  N4  UNL     1     -47.288  47.001  10.802  1.00  0.00    -0.130 N 
ATOM      6  H4  UNL     1     -46.907  46.516   9.989  1.00  0.00     0.205 HD
HETATM    7  C10 UNL     1     -48.164  46.500  11.689  1.00  0.00     0.705 A 
ENDROOT
BRANCH   1   8
HETATM    8  C6  UNL     1     -49.301  47.379  13.768  1.00  0.00     0.110 C 
HETATM    9  C5  UNL     1     -48.929  46.278  14.709  1.00  0.00     0.027 C 
HETATM   10  C4  UNL     1     -49.742  46.373  15.996  1.00  0.00     0.006 C 
HETATM   11  C3  UNL     1     -51.206  46.353  15.661  1.00  0.00    -0.015 C 
HETATM   12  C13 UNL     1     -51.507  47.539  14.777  1.00  0.00     0.006 C 
HETATM   13  C12 UNL     1     -50.765  47.295  13.455  1.00  0.00     0.027 C 
BRANCH  11  14
HETATM   14  C2  UNL     1     -52.033  46.402  16.919  1.00  0.00     0.000 C 
HETATM   15  C1  UNL     1     -53.337  45.702  16.722  1.00  0.00     0.005 C 
ENDBRANCH  11  14
ENDBRANCH   1   8
BRANCH   2  16
HETATM   16  S1  UNL     1     -47.623  50.083  13.127  1.00  0.00    -0.090 SA
BRANCH  16  17
HETATM   17  C8  UNL     1     -46.725  51.228  12.046  1.00  0.00     0.109 C 
BRANCH  17  18
HETATM   18  C9  UNL     1     -45.232  51.029  12.139  1.00  0.00     0.240 C 
BRANCH  18  19
HETATM   19  N2  UNL     1     -44.604  52.066  11.342  1.00  0.00    -0.079 N 
ATOM     20  H23 UNL     1     -45.157  52.923  11.296  1.00  0.00     0.274 HD
ATOM     21  H22 UNL     1     -43.778  52.466  11.787  1.00  0.00     0.274 HD
ATOM     22  H21 UNL     1     -44.409  51.669  10.423  1.00  0.00     0.274 HD
ENDBRANCH  18  19
ENDBRANCH  17  18
ENDBRANCH  16  17
ENDBRANCH   2  16
BRANCH   7  23
HETATM   23  N5  UNL     1     -48.681  45.327  11.681  1.00  0.00    -0.138 N 
HETATM   24  C11 UNL     1     -47.891  44.187  11.462  1.00  0.00     0.362 C 
HETATM   25  O1  UNL     1     -48.191  43.472  10.451  1.00  0.00    -0.244 OA
HETATM   26  N6  UNL     1     -46.805  43.794  12.276  1.00  0.00    -0.173 N 
HETATM   27  F1  UNL     1     -46.095  42.686  11.998  1.00  0.00    -0.097 F 
ATOM     28  H6  UNL     1     -46.556  44.359  13.088  1.00  0.00     0.204 HD
ATOM     29  H5  UNL     1     -49.683  45.219  11.835  1.00  0.00     0.189 HD
ENDBRANCH   7  23
TORSDOF 7
ENDMDL
MODEL 2
REMARK VINA RESULT: -5.440341799      3.002      5.252
REMARK  7 active torsions:
REMARK  status: ('A' for Active; 'I' for Inactive)
REMARK    1  A    between atoms: C2_2  and  C3_3 
REMARK    2  A    between atoms: C6_6  and  N1_7 
REMARK    3  A    between atoms: C7_8  and  S1_9 
REMARK    4  A    between atoms: S1_9  and  C8_10 
REMARK    5  A    between atoms: C8_10  and  C9_11 
REMARK    6  A    between atoms: C9_11  and  N2_12 
REMARK    7  A    between atoms: C10_20  and  N5_21 
REMARK       I    between atoms: N5_21  and  C11_23 
REMARK       I    between atoms: C11_23  and  N6_25 
ROOT
HETATM    1  N1  UNL     1     -48.544  48.029  13.381  1.00  0.00    -0.154 N 
HETATM    2  C7  UNL     1     -48.315  49.370  13.459  1.00  0.00     0.177 A 
HETATM    3  N3  UNL     1     -48.761  49.818  14.646  1.00  0.00    -0.265 N 
ATOM      4  H3  UNL     1     -48.718  50.784  14.970  1.00  0.00     0.189 HD
HETATM    5  N4  UNL     1     -49.262  48.808  15.316  1.00  0.00    -0.130 N 
ATOM      6  H4  UNL     1     -49.674  48.848  16.248  1.00  0.00     0.205 HD
HETATM    7  C10 UNL     1     -49.132  47.713  14.549  1.00  0.00     0.705 A 
ENDROOT
BRANCH   1   8
HETATM    8  C6  UNL     1     -48.191  47.241  12.252  1.00  0.00     0.110 C 
HETATM    9  C5  UNL     1     -47.768  45.861  12.643  1.00  0.00     0.027 C 
HETATM   10  C4  UNL     1     -47.569  44.989  11.408  1.00  0.00     0.006 C 
HETATM   11  C3  UNL     1     -46.573  45.643  10.494  1.00  0.00    -0.015 C 
HETATM   12  C13 UNL     1     -47.114  46.991  10.087  1.00  0.00     0.006 C 
HETATM   13  C12 UNL     1     -47.149  47.848  11.360  1.00  0.00     0.027 C 
BRANCH  11  14
HETATM   14  C2  UNL     1     -46.325  44.779   9.284  1.00  0.00     0.000 C 
HETATM   15  C1  UNL     1     -46.701  45.504   8.033  1.00  0.00     0.005 C 
ENDBRANCH  11  14
ENDBRANCH   1   8
BRANCH   2  16
HETATM   16  S1  UNL     1     -47.554  50.424  12.235  1.00  0.00    -0.090 SA
BRANCH  16  17
HETATM   17  C8  UNL     1     -45.906  50.867  12.846  1.00  0.00     0.109 C 
BRANCH  17  18
HETATM   18  C9  UNL     1     -45.033  51.421  11.747  1.00  0.00     0.240 C 
BRANCH  18  19
HETATM   19  N2  UNL     1     -43.652  51.236  12.154  1.00  0.00    -0.079 N 
ATOM     20  H23 UNL     1     -43.463  51.587  13.093  1.00  0.00     0.274 HD
ATOM     21  H22 UNL     1     -43.416  50.258  12.329  1.00  0.00     0.274 HD
ATOM     22  H21 UNL     1     -43.063  51.666  11.441  1.00  0.00     0.274 HD
ENDBRANCH  18  19
ENDBRANCH  17  18
ENDBRANCH  16  17
ENDBRANCH   2  16
BRANCH   7  23
HETATM   23  N5  UNL     1     -49.501  46.520  14.844  1.00  0.00    -0.138 N 
HETATM   24  C11 UNL     1     -50.858  46.200  15.006  1.00  0.00     0.362 C 
HETATM   25  O1  UNL     1     -51.203  45.746  16.145  1.00  0.00    -0.244 OA
HETATM   26  N6  UNL     1     -51.843  46.346  14.003  1.00  0.00    -0.173 N 
HETATM   27  F1  UNL     1     -53.126  46.016  14.237  1.00  0.00    -0.097 F 
ATOM     28  H6  UNL     1     -51.577  46.707  13.087  1.00  0.00     0.204 HD
ATOM     29  H5  UNL     1     -48.796  45.792  14.963  1.00  0.00     0.189 HD
ENDBRANCH   7  23
TORSDOF 7
ENDMDL
MODEL 3
REMARK VINA RESULT: -5.347064360      2.654      5.819
REMARK  7 active torsions:
REMARK  status: ('A' for Active; 'I' for Inactive)
REMARK    1  A    between atoms: C2_2  and  C3_3 
REMARK    2  A    between atoms: C6_6  and  N1_7 
REMARK    3  A    between atoms: C7_8  and  S1_9 
REMARK    4  A    between atoms: S1_9  and  C8_10 
REMARK    5  A    between atoms: C8_10  and  C9_11 
REMARK    6  A    between atoms: C9_11  and  N2_12 
REMARK    7  A    between atoms: C10_20  and  N5_21 
REMARK       I    between atoms: N5_21  and  C11_23 
REMARK       I    between atoms: C11_23  and  N6_25 
ROOT
HETATM    1  N1  UNL     1     -49.593  46.976  12.872  1.00  0.00    -0.154 N 
HETATM    2  C7  UNL     1     -50.913  46.886  13.197  1.00  0.00     0.177 A 
HETATM    3  N3  UNL     1     -51.265  45.589  13.229  1.00  0.00    -0.265 N 
ATOM      4  H3  UNL     1     -52.195  45.231  13.445  1.00  0.00     0.189 HD
HETATM    5  N4  UNL     1     -50.215  44.860  12.936  1.00  0.00    -0.130 N 
ATOM      6  H4  UNL     1     -50.182  43.842  12.884  1.00  0.00     0.205 HD
HETATM    7  C10 UNL     1     -49.190  45.702  12.717  1.00  0.00     0.705 A 
ENDROOT
BRANCH   1   8
HETATM    8  C6  UNL     1     -48.901  48.212  12.752  1.00  0.00     0.110 C 
HETATM    9  C5  UNL     1     -47.726  48.109  11.832  1.00  0.00     0.027 C 
HETATM   10  C4  UNL     1     -47.115  49.483  11.584  1.00  0.00     0.006 C 
HETATM   11  C3  UNL     1     -46.743  50.106  12.899  1.00  0.00    -0.015 C 
HETATM   12  C13 UNL     1     -47.995  50.245  13.729  1.00  0.00     0.006 C 
HETATM   13  C12 UNL     1     -48.465  48.819  14.051  1.00  0.00     0.027 C 
BRANCH  11  14
HETATM   14  C2  UNL     1     -46.095  51.448  12.679  1.00  0.00     0.000 C 
HETATM   15  C1  UNL     1     -44.829  51.302  11.900  1.00  0.00     0.005 C 
ENDBRANCH  11  14
ENDBRANCH   1   8
BRANCH   2  16
HETATM   16  S1  UNL     1     -52.050  48.220  13.538  1.00  0.00    -0.090 SA
BRANCH  16  17
HETATM   17  C8  UNL     1     -52.828  47.876  15.139  1.00  0.00     0.109 C 
BRANCH  17  18
HETATM   18  C9  UNL     1     -54.233  47.348  14.976  1.00  0.00     0.240 C 
BRANCH  18  19
HETATM   19  N2  UNL     1     -54.184  45.912  15.181  1.00  0.00    -0.079 N 
ATOM     20  H23 UNL     1     -53.343  45.483  14.794  1.00  0.00     0.274 HD
ATOM     21  H22 UNL     1     -54.028  45.654  16.155  1.00  0.00     0.274 HD
ATOM     22  H21 UNL     1     -55.044  45.520  14.798  1.00  0.00     0.274 HD
ENDBRANCH  18  19
ENDBRANCH  17  18
ENDBRANCH  16  17
ENDBRANCH   2  16
BRANCH   7  23
HETATM   23  N5  UNL     1     -47.988  45.384  12.403  1.00  0.00    -0.138 N 
HETATM   24  C11 UNL     1     -47.724  44.514  11.333  1.00  0.00     0.362 C 
HETATM   25  O1  UNL     1     -47.100  43.440  11.614  1.00  0.00    -0.244 OA
HETATM   26  N6  UNL     1     -48.099  44.753   9.992  1.00  0.00    -0.173 N 
HETATM   27  F1  UNL     1     -47.809  43.868   9.021  1.00  0.00    -0.097 F 
ATOM     28  H6  UNL     1     -48.599  45.611   9.755  1.00  0.00     0.204 HD
ATOM     29  H5  UNL     1     -47.211  45.769  12.939  1.00  0.00     0.189 HD
ENDBRANCH   7  23
TORSDOF 7
ENDMDL
MODEL 4
REMARK VINA RESULT: -5.308832949      4.233      7.301
REMARK  7 active torsions:
REMARK  status: ('A' for Active; 'I' for Inactive)
REMARK    1  A    between atoms: C2_2  and  C3_3 
REMARK    2  A    between atoms: C6_6  and  N1_7 
REMARK    3  A    between atoms: C7_8  and  S1_9 
REMARK    4  A    between atoms: S1_9  and  C8_10 
REMARK    5  A    between atoms: C8_10  and  C9_11 
REMARK    6  A    between atoms: C9_11  and  N2_12 
REMARK    7  A    between atoms: C10_20  and  N5_21 
REMARK       I    between atoms: N5_21  and  C11_23 
REMARK       I    between atoms: C11_23  and  N6_25 
ROOT
HETATM    1  N1  UNL     1     -48.125  49.272  12.955  1.00  0.00    -0.154 N 
HETATM    2  C7  UNL     1     -48.133  47.951  12.625  1.00  0.00     0.177 A 
HETATM    3  N3  UNL     1     -48.892  47.286  13.513  1.00  0.00    -0.265 N 
ATOM      4  H3  UNL     1     -49.072  46.282  13.507  1.00  0.00     0.189 HD
HETATM    5  N4  UNL     1     -49.362  48.141  14.390  1.00  0.00    -0.130 N 
ATOM      6  H4  UNL     1     -49.969  47.924  15.180  1.00  0.00     0.205 HD
HETATM    7  C10 UNL     1     -48.897  49.356  14.054  1.00  0.00     0.705 A 
ENDROOT
BRANCH   1   8
HETATM    8  C6  UNL     1     -47.414  50.257  12.217  1.00  0.00     0.110 C 
HETATM    9  C5  UNL     1     -46.052  50.506  12.784  1.00  0.00     0.027 C 
HETATM   10  C4  UNL     1     -45.251  51.429  11.872  1.00  0.00     0.006 C 
HETATM   11  C3  UNL     1     -46.013  52.706  11.664  1.00  0.00    -0.015 C 
HETATM   12  C13 UNL     1     -47.335  52.370  11.018  1.00  0.00     0.006 C 
HETATM   13  C12 UNL     1     -48.132  51.563  12.052  1.00  0.00     0.027 C 
BRANCH  11  14
HETATM   14  C2  UNL     1     -45.222  53.655  10.801  1.00  0.00     0.000 C 
HETATM   15  C1  UNL     1     -43.918  53.992  11.446  1.00  0.00     0.005 C 
ENDBRANCH  11  14
ENDBRANCH   1   8
BRANCH   2  16
HETATM   16  S1  UNL     1     -47.300  47.158  11.258  1.00  0.00    -0.090 SA
BRANCH  16  17
HETATM   17  C8  UNL     1     -47.225  45.384  11.622  1.00  0.00     0.109 C 
BRANCH  17  18
HETATM   18  C9  UNL     1     -48.385  44.638  11.009  1.00  0.00     0.240 C 
BRANCH  18  19
HETATM   19  N2  UNL     1     -48.089  44.460   9.599  1.00  0.00    -0.079 N 
ATOM     20  H23 UNL     1     -48.915  44.538   9.005  1.00  0.00     0.274 HD
ATOM     21  H22 UNL     1     -47.565  45.239   9.200  1.00  0.00     0.274 HD
ATOM     22  H21 UNL     1     -47.610  43.565   9.498  1.00  0.00     0.274 HD
ENDBRANCH  18  19
ENDBRANCH  17  18
ENDBRANCH  16  17
ENDBRANCH   2  16
BRANCH   7  23
HETATM   23  N5  UNL     1     -49.127  50.463  14.661  1.00  0.00    -0.138 N 
HETATM   24  C11 UNL     1     -48.703  50.665  15.984  1.00  0.00     0.362 C 
HETATM   25  O1  UNL     1     -49.612  50.912  16.841  1.00  0.00    -0.244 OA
HETATM   26  N6  UNL     1     -47.357  50.613  16.413  1.00  0.00    -0.173 N 
HETATM   27  F1  UNL     1     -47.031  50.819  17.702  1.00  0.00    -0.097 F 
ATOM     28  H6  UNL     1     -46.621  50.417  15.735  1.00  0.00     0.204 HD
ATOM     29  H5  UNL     1     -49.627  51.207  14.176  1.00  0.00     0.189 HD
ENDBRANCH   7  23
TORSDOF 7
ENDMDL
MODEL 5
REMARK VINA RESULT: -5.308120266      4.047      5.562
REMARK  7 active torsions:
REMARK  status: ('A' for Active; 'I' for Inactive)
REMARK    1  A    between atoms: C2_2  and  C3_3 
REMARK    2  A    between atoms: C6_6  and  N1_7 
REMARK    3  A    between atoms: C7_8  and  S1_9 
REMARK    4  A    between atoms: S1_9  and  C8_10 
REMARK    5  A    between atoms: C8_10  and  C9_11 
REMARK    6  A    between atoms: C9_11  and  N2_12 
REMARK    7  A    between atoms: C10_20  and  N5_21 
REMARK       I    between atoms: N5_21  and  C11_23 
REMARK       I    between atoms: C11_23  and  N6_25 
ROOT
HETATM    1  N1  UNL     1     -48.964  49.318  14.621  1.00  0.00    -0.154 N 
HETATM    2  C7  UNL     1     -48.989  49.756  15.911  1.00  0.00     0.177 A 
HETATM    3  N3  UNL     1     -48.730  51.075  15.926  1.00  0.00    -0.265 N 
ATOM      4  H3  UNL     1     -48.686  51.662  16.759  1.00  0.00     0.189 HD
HETATM    5  N4  UNL     1     -48.544  51.482  14.693  1.00  0.00    -0.130 N 
ATOM      6  H4  UNL     1     -48.332  52.435  14.398  1.00  0.00     0.205 HD
HETATM    7  C10 UNL     1     -48.685  50.413  13.891  1.00  0.00     0.705 A 
ENDROOT
BRANCH   1   8
HETATM    8  C6  UNL     1     -49.197  47.966  14.251  1.00  0.00     0.110 C 
HETATM    9  C5  UNL     1     -48.136  47.444  13.335  1.00  0.00     0.027 C 
HETATM   10  C4  UNL     1     -48.315  45.948  13.101  1.00  0.00     0.006 C 
HETATM   11  C3  UNL     1     -49.694  45.691  12.564  1.00  0.00    -0.015 C 
HETATM   12  C13 UNL     1     -50.697  46.173  13.583  1.00  0.00     0.006 C 
HETATM   13  C12 UNL     1     -50.547  47.699  13.653  1.00  0.00     0.027 C 
BRANCH  11  14
HETATM   14  C2  UNL     1     -49.881  44.223  12.282  1.00  0.00     0.000 C 
HETATM   15  C1  UNL     1     -48.796  43.420  12.921  1.00  0.00     0.005 C 
ENDBRANCH  11  14
ENDBRANCH   1   8
BRANCH   2  16
HETATM   16  S1  UNL     1     -49.304  48.800  17.386  1.00  0.00    -0.090 SA
BRANCH  16  17
HETATM   17  C8  UNL     1     -48.205  49.426  18.685  1.00  0.00     0.109 C 
BRANCH  17  18
HETATM   18  C9  UNL     1     -47.129  48.427  19.035  1.00  0.00     0.240 C 
BRANCH  18  19
HETATM   19  N2  UNL     1     -45.868  49.144  19.077  1.00  0.00    -0.079 N 
ATOM     20  H23 UNL     1     -45.618  49.455  20.016  1.00  0.00     0.274 HD
ATOM     21  H22 UNL     1     -45.061  48.540  18.918  1.00  0.00     0.274 HD
ATOM     22  H21 UNL     1     -45.931  49.911  18.408  1.00  0.00     0.274 HD
ENDBRANCH  18  19
ENDBRANCH  17  18
ENDBRANCH  16  17
ENDBRANCH   2  16
BRANCH   7  23
HETATM   23  N5  UNL     1     -48.579  50.392  12.613  1.00  0.00    -0.138 N 
HETATM   24  C11 UNL     1     -47.464  50.951  11.969  1.00  0.00     0.362 C 
HETATM   25  O1  UNL     1     -47.696  51.897  11.148  1.00  0.00    -0.244 OA
HETATM   26  N6  UNL     1     -46.128  50.536  12.171  1.00  0.00    -0.173 N 
HETATM   27  F1  UNL     1     -45.112  51.124  11.513  1.00  0.00    -0.097 F 
ATOM     28  H6  UNL     1     -45.931  49.779  12.825  1.00  0.00     0.204 HD
ATOM     29  H5  UNL     1     -49.317  49.962  12.056  1.00  0.00     0.189 HD
ENDBRANCH   7  23
TORSDOF 7
ENDMDL
