MODEL 1
REMARK VINA RESULT: -6.225314340      0.000      0.000
REMARK  8 active torsions:
REMARK  status: ('A' for Active; 'I' for Inactive)
REMARK    1  A    between atoms: C2_2  and  C3_3 
REMARK    2  A    between atoms: C3_3  and  C4_4 
REMARK    3  A    between atoms: C4_4  and  C5_5 
REMARK    4  A    between atoms: C6_8  and  N2_9 
REMARK    5  A    between atoms: C13_17  and  N3_18 
REMARK    6  A    between atoms: N3_18  and  C14_20 
REMARK    7  A    between atoms: C16_22  and  N4_23 
REMARK    8  A    between atoms: C17_29  and  O1_30 
ROOT
HETATM    1  C5  UNL     1     -48.327  45.093  11.331  1.00  0.00     0.062 A 
HETATM    2  N1  UNL     1     -48.683  46.279  11.860  1.00  0.00    -0.339 N 
ATOM      3  H1  UNL     1     -48.677  47.099  11.254  1.00  0.00     0.167 HD
HETATM    4  C6  UNL     1     -49.047  46.440  13.143  1.00  0.00     0.149 A 
HETATM    5  C13 UNL     1     -49.064  45.347  13.977  1.00  0.00     0.148 A 
HETATM    6  N5  UNL     1     -48.699  44.134  13.436  1.00  0.00    -0.319 N 
ATOM      7  H5  UNL     1     -48.703  43.309  14.036  1.00  0.00     0.169 HD
HETATM    8  C17 UNL     1     -48.340  43.996  12.163  1.00  0.00     0.164 A 
ENDROOT
BRANCH   5   9
HETATM    9  N3  UNL     1     -49.402  45.341  15.154  1.00  0.00    -0.366 N 
ATOM     10  H3  UNL     1     -50.122  44.622  15.223  1.00  0.00     0.161 HD
BRANCH   9  11
HETATM   11  C14 UNL     1     -49.272  45.842  16.418  1.00  0.00     0.115 A 
HETATM   12  C15 UNL     1     -49.819  45.147  17.670  1.00  0.00     0.062 A 
HETATM   13  C16 UNL     1     -50.394  46.431  17.204  1.00  0.00     0.208 A 
BRANCH  13  14
HETATM   14  N4  UNL     1     -51.764  46.319  16.730  1.00  0.00    -0.073 N 
ATOM     15  H43 UNL     1     -52.281  47.139  17.048  1.00  0.00     0.274 HD
ATOM     16  H42 UNL     1     -51.765  46.454  15.720  1.00  0.00     0.274 HD
ATOM     17  H41 UNL     1     -52.318  45.490  16.943  1.00  0.00     0.274 HD
ENDBRANCH  13  14
ENDBRANCH   9  11
ENDBRANCH   5   9
BRANCH   4  18
HETATM   18  N2  UNL     1     -49.374  47.759  13.617  1.00  0.00    -0.360 N 
HETATM   19  C7  UNL     1     -48.259  48.644  13.906  1.00  0.00     0.128 C 
HETATM   20  C8  UNL     1     -48.401  49.758  12.859  1.00  0.00     0.057 C 
HETATM   21  C9  UNL     1     -49.654  50.486  13.180  1.00  0.00     0.173 C 
HETATM   22  F1  UNL     1     -49.839  51.476  12.218  1.00  0.00    -0.249 F 
HETATM   23  C10 UNL     1     -50.895  49.668  13.313  1.00  0.00     0.062 C 
HETATM   24  C11 UNL     1     -50.682  48.273  13.815  1.00  0.00     0.084 C 
HETATM   25  C12 UNL     1     -51.752  47.376  13.240  1.00  0.00     0.032 C 
ENDBRANCH   4  18
BRANCH   8  26
HETATM   26  O1  UNL     1     -47.965  42.752  11.634  1.00  0.00    -0.345 OA
ATOM     27  H1  UNL     1     -47.397  42.193  12.151  1.00  0.00     0.219 HD
ENDBRANCH   8  26
BRANCH   1  28
HETATM   28  C4  UNL     1     -47.971  44.974   9.901  1.00  0.00     0.062 C 
BRANCH  28  29
HETATM   29  C3  UNL     1     -47.055  45.986   9.350  1.00  0.00     0.006 C 
BRANCH  29  30
HETATM   30  C2  UNL     1     -46.635  45.855   7.925  1.00  0.00    -0.004 C 
HETATM   31  C1  UNL     1     -47.780  46.326   7.012  1.00  0.00     0.005 C 
ENDBRANCH  29  30
ENDBRANCH  28  29
ENDBRANCH   1  28
TORSDOF 8
ENDMDL
MODEL 2
REMARK VINA RESULT: -5.822141924      1.212      1.333
REMARK  8 active torsions:
REMARK  status: ('A' for Active; 'I' for Inactive)
REMARK    1  A    between atoms: C2_2  and  C3_3 
REMARK    2  A    between atoms: C3_3  and  C4_4 
REMARK    3  A    between atoms: C4_4  and  C5_5 
REMARK    4  A    between atoms: C6_8  and  N2_9 
REMARK    5  A    between atoms: C13_17  and  N3_18 
REMARK    6  A    between atoms: N3_18  and  C14_20 
REMARK    7  A    between atoms: C16_22  and  N4_23 
REMARK    8  A    between atoms: C17_29  and  O1_30 
ROOT
HETATM    1  C5  UNL     1     -48.273  45.707  11.924  1.00  0.00     0.062 A 
HETATM    2  N1  UNL     1     -48.406  47.010  12.237  1.00  0.00    -0.339 N 
ATOM      3  H1  UNL     1     -48.183  47.702  11.522  1.00  0.00     0.167 HD
HETATM    4  C6  UNL     1     -48.818  47.448  13.438  1.00  0.00     0.149 A 
HETATM    5  C13 UNL     1     -49.127  46.530  14.415  1.00  0.00     0.148 A 
HETATM    6  N5  UNL     1     -48.990  45.197  14.096  1.00  0.00    -0.319 N 
ATOM      7  H5  UNL     1     -49.212  44.499  14.806  1.00  0.00     0.169 HD
HETATM    8  C17 UNL     1     -48.578  44.785  12.900  1.00  0.00     0.164 A 
ENDROOT
BRANCH   5   9
HETATM    9  N3  UNL     1     -49.541  46.785  15.539  1.00  0.00    -0.366 N 
ATOM     10  H3  UNL     1     -50.557  46.798  15.454  1.00  0.00     0.161 HD
BRANCH   9  11
HETATM   11  C14 UNL     1     -49.287  47.059  16.853  1.00  0.00     0.115 A 
HETATM   12  C15 UNL     1     -48.189  46.368  17.669  1.00  0.00     0.062 A 
HETATM   13  C16 UNL     1     -49.620  46.139  17.978  1.00  0.00     0.208 A 
BRANCH  13  14
HETATM   14  N4  UNL     1     -50.063  44.780  17.713  1.00  0.00    -0.073 N 
ATOM     15  H43 UNL     1     -51.065  44.728  17.897  1.00  0.00     0.274 HD
ATOM     16  H42 UNL     1     -50.030  44.624  16.706  1.00  0.00     0.274 HD
ATOM     17  H41 UNL     1     -49.612  43.990  18.174  1.00  0.00     0.274 HD
ENDBRANCH  13  14
ENDBRANCH   9  11
ENDBRANCH   5   9
BRANCH   4  18
HETATM   18  N2  UNL     1     -48.889  48.865  13.679  1.00  0.00    -0.360 N 
HETATM   19  C7  UNL     1     -47.636  49.543  13.958  1.00  0.00     0.128 C 
HETATM   20  C8  UNL     1     -47.455  50.477  12.753  1.00  0.00     0.057 C 
HETATM   21  C9  UNL     1     -48.544  51.484  12.828  1.00  0.00     0.173 C 
HETATM   22  F1  UNL     1     -48.438  52.321  11.719  1.00  0.00    -0.249 F 
HETATM   23  C10 UNL     1     -49.938  50.963  12.941  1.00  0.00     0.062 C 
HETATM   24  C11 UNL     1     -50.068  49.655  13.657  1.00  0.00     0.084 C 
HETATM   25  C12 UNL     1     -51.259  48.908  13.105  1.00  0.00     0.032 C 
ENDBRANCH   4  18
BRANCH   8  26
HETATM   26  O1  UNL     1     -48.440  43.421  12.599  1.00  0.00    -0.345 OA
ATOM     27  H1  UNL     1     -47.945  43.177  11.826  1.00  0.00     0.219 HD
ENDBRANCH   8  26
BRANCH   1  28
HETATM   28  C4  UNL     1     -47.850  45.288  10.572  1.00  0.00     0.062 C 
BRANCH  28  29
HETATM   29  C3  UNL     1     -46.989  46.215   9.820  1.00  0.00     0.006 C 
BRANCH  29  30
HETATM   30  C2  UNL     1     -46.555  45.819   8.449  1.00  0.00    -0.004 C 
HETATM   31  C1  UNL     1     -47.588  46.322   7.424  1.00  0.00     0.005 C 
ENDBRANCH  29  30
ENDBRANCH  28  29
ENDBRANCH   1  28
TORSDOF 8
ENDMDL
MODEL 3
REMARK VINA RESULT: -5.819497771      1.638      2.408
REMARK  8 active torsions:
REMARK  status: ('A' for Active; 'I' for Inactive)
REMARK    1  A    between atoms: C2_2  and  C3_3 
REMARK    2  A    between atoms: C3_3  and  C4_4 
REMARK    3  A    between atoms: C4_4  and  C5_5 
REMARK    4  A    between atoms: C6_8  and  N2_9 
REMARK    5  A    between atoms: C13_17  and  N3_18 
REMARK    6  A    between atoms: N3_18  and  C14_20 
REMARK    7  A    between atoms: C16_22  and  N4_23 
REMARK    8  A    between atoms: C17_29  and  O1_30 
ROOT
HETATM    1  C5  UNL     1     -47.883  45.807  11.484  1.00  0.00     0.062 A 
HETATM    2  N1  UNL     1     -48.071  46.889  12.263  1.00  0.00    -0.339 N 
ATOM      3  H1  UNL     1     -47.371  47.630  12.237  1.00  0.00     0.167 HD
HETATM    4  C6  UNL     1     -49.131  47.046  13.073  1.00  0.00     0.149 A 
HETATM    5  C13 UNL     1     -50.088  46.060  13.122  1.00  0.00     0.148 A 
HETATM    6  N5  UNL     1     -49.896  44.952  12.326  1.00  0.00    -0.319 N 
ATOM      7  H5  UNL     1     -50.592  44.207  12.347  1.00  0.00     0.169 HD
HETATM    8  C17 UNL     1     -48.837  44.816  11.532  1.00  0.00     0.164 A 
ENDROOT
BRANCH   5   9
HETATM    9  N3  UNL     1     -51.115  46.083  13.789  1.00  0.00    -0.366 N 
ATOM     10  H3  UNL     1     -50.815  45.926  14.750  1.00  0.00     0.161 HD
BRANCH   9  11
HETATM   11  C14 UNL     1     -52.473  46.219  13.854  1.00  0.00     0.115 A 
HETATM   12  C15 UNL     1     -53.177  47.444  14.450  1.00  0.00     0.062 A 
HETATM   13  C16 UNL     1     -53.262  46.122  15.116  1.00  0.00     0.208 A 
BRANCH  13  14
HETATM   14  N4  UNL     1     -52.591  46.075  16.404  1.00  0.00    -0.073 N 
ATOM     15  H43 UNL     1     -52.623  45.114  16.747  1.00  0.00     0.274 HD
ATOM     16  H42 UNL     1     -51.592  46.204  16.249  1.00  0.00     0.274 HD
ATOM     17  H41 UNL     1     -52.880  46.694  17.161  1.00  0.00     0.274 HD
ENDBRANCH  13  14
ENDBRANCH   9  11
ENDBRANCH   5   9
BRANCH   4  18
HETATM   18  N2  UNL     1     -49.216  48.225  13.894  1.00  0.00    -0.360 N 
HETATM   19  C7  UNL     1     -49.524  49.472  13.216  1.00  0.00     0.128 C 
HETATM   20  C8  UNL     1     -50.905  49.852  13.769  1.00  0.00     0.057 C 
HETATM   21  C9  UNL     1     -50.717  50.153  15.211  1.00  0.00     0.173 C 
HETATM   22  F1  UNL     1     -51.962  50.456  15.756  1.00  0.00    -0.249 F 
HETATM   23  C10 UNL     1     -50.041  49.109  16.035  1.00  0.00     0.062 C 
HETATM   24  C11 UNL     1     -49.037  48.275  15.301  1.00  0.00     0.084 C 
HETATM   25  C12 UNL     1     -48.985  46.903  15.930  1.00  0.00     0.032 C 
ENDBRANCH   4  18
BRANCH   8  26
HETATM   26  O1  UNL     1     -48.658  43.676  10.734  1.00  0.00    -0.345 OA
ATOM     27  H1  UNL     1     -49.059  43.659   9.873  1.00  0.00     0.219 HD
ENDBRANCH   8  26
BRANCH   1  28
HETATM   28  C4  UNL     1     -46.713  45.710  10.586  1.00  0.00     0.062 C 
BRANCH  28  29
HETATM   29  C3  UNL     1     -46.818  46.366   9.273  1.00  0.00     0.006 C 
BRANCH  29  30
HETATM   30  C2  UNL     1     -47.118  45.518   8.083  1.00  0.00    -0.004 C 
HETATM   31  C1  UNL     1     -47.800  46.379   7.005  1.00  0.00     0.005 C 
ENDBRANCH  29  30
ENDBRANCH  28  29
ENDBRANCH   1  28
TORSDOF 8
ENDMDL
MODEL 4
REMARK VINA RESULT: -5.713152749      2.284      2.971
REMARK  8 active torsions:
REMARK  status: ('A' for Active; 'I' for Inactive)
REMARK    1  A    between atoms: C2_2  and  C3_3 
REMARK    2  A    between atoms: C3_3  and  C4_4 
REMARK    3  A    between atoms: C4_4  and  C5_5 
REMARK    4  A    between atoms: C6_8  and  N2_9 
REMARK    5  A    between atoms: C13_17  and  N3_18 
REMARK    6  A    between atoms: N3_18  and  C14_20 
REMARK    7  A    between atoms: C16_22  and  N4_23 
REMARK    8  A    between atoms: C17_29  and  O1_30 
ROOT
HETATM    1  C5  UNL     1     -48.086  45.629  12.364  1.00  0.00     0.062 A 
HETATM    2  N1  UNL     1     -48.148  46.536  13.358  1.00  0.00    -0.339 N 
ATOM      3  H1  UNL     1     -47.290  47.023  13.620  1.00  0.00     0.167 HD
HETATM    4  C6  UNL     1     -49.276  46.835  14.022  1.00  0.00     0.149 A 
HETATM    5  C13 UNL     1     -50.443  46.191  13.683  1.00  0.00     0.148 A 
HETATM    6  N5  UNL     1     -50.381  45.263  12.667  1.00  0.00    -0.319 N 
ATOM      7  H5  UNL     1     -51.234  44.772  12.399  1.00  0.00     0.169 HD
HETATM    8  C17 UNL     1     -49.252  44.981  12.023  1.00  0.00     0.164 A 
ENDROOT
BRANCH   5   9
HETATM    9  N3  UNL     1     -51.545  46.385  14.181  1.00  0.00    -0.366 N 
ATOM     10  H3  UNL     1     -52.094  46.837  13.450  1.00  0.00     0.161 HD
BRANCH   9  11
HETATM   11  C14 UNL     1     -52.388  46.282  15.251  1.00  0.00     0.115 A 
HETATM   12  C15 UNL     1     -53.849  45.832  15.144  1.00  0.00     0.062 A 
HETATM   13  C16 UNL     1     -53.511  47.224  15.523  1.00  0.00     0.208 A 
BRANCH  13  14
HETATM   14  N4  UNL     1     -53.903  48.211  14.531  1.00  0.00    -0.073 N 
ATOM     15  H43 UNL     1     -53.259  49.000  14.592  1.00  0.00     0.274 HD
ATOM     16  H42 UNL     1     -53.685  47.839  13.607  1.00  0.00     0.274 HD
ATOM     17  H41 UNL     1     -54.855  48.576  14.512  1.00  0.00     0.274 HD
ENDBRANCH  13  14
ENDBRANCH   9  11
ENDBRANCH   5   9
BRANCH   4  18
HETATM   18  N2  UNL     1     -49.223  47.793  15.095  1.00  0.00    -0.360 N 
HETATM   19  C7  UNL     1     -49.397  49.188  14.733  1.00  0.00     0.128 C 
HETATM   20  C8  UNL     1     -50.723  49.573  15.404  1.00  0.00     0.057 C 
HETATM   21  C9  UNL     1     -50.492  49.509  16.870  1.00  0.00     0.173 C 
HETATM   22  F1  UNL     1     -51.692  49.807  17.511  1.00  0.00    -0.249 F 
HETATM   23  C10 UNL     1     -49.929  48.237  17.408  1.00  0.00     0.062 C 
HETATM   24  C11 UNL     1     -49.030  47.495  16.469  1.00  0.00     0.084 C 
HETATM   25  C12 UNL     1     -49.124  46.017  16.763  1.00  0.00     0.032 C 
ENDBRANCH   4  18
BRANCH   8  26
HETATM   26  O1  UNL     1     -49.210  44.026  10.995  1.00  0.00    -0.345 OA
ATOM     27  H1  UNL     1     -50.000  43.866  10.494  1.00  0.00     0.219 HD
ENDBRANCH   8  26
BRANCH   1  28
HETATM   28  C4  UNL     1     -46.820  45.371  11.646  1.00  0.00     0.062 C 
BRANCH  28  29
HETATM   29  C3  UNL     1     -46.508  46.242  10.502  1.00  0.00     0.006 C 
BRANCH  29  30
HETATM   30  C2  UNL     1     -46.218  45.602   9.186  1.00  0.00    -0.004 C 
HETATM   31  C1  UNL     1     -47.235  46.102   8.144  1.00  0.00     0.005 C 
ENDBRANCH  29  30
ENDBRANCH  28  29
ENDBRANCH   1  28
TORSDOF 8
ENDMDL
MODEL 5
REMARK VINA RESULT: -5.694284128      1.687      2.089
REMARK  8 active torsions:
REMARK  status: ('A' for Active; 'I' for Inactive)
REMARK    1  A    between atoms: C2_2  and  C3_3 
REMARK    2  A    between atoms: C3_3  and  C4_4 
REMARK    3  A    between atoms: C4_4  and  C5_5 
REMARK    4  A    between atoms: C6_8  and  N2_9 
REMARK    5  A    between atoms: C13_17  and  N3_18 
REMARK    6  A    between atoms: N3_18  and  C14_20 
REMARK    7  A    between atoms: C16_22  and  N4_23 
REMARK    8  A    between atoms: C17_29  and  O1_30 
ROOT
HETATM    1  C5  UNL     1     -48.129  46.026  11.938  1.00  0.00     0.062 A 
HETATM    2  N1  UNL     1     -48.153  47.356  12.147  1.00  0.00    -0.339 N 
ATOM      3  H1  UNL     1     -47.866  47.969  11.384  1.00  0.00     0.167 HD
HETATM    4  C6  UNL     1     -48.535  47.920  13.304  1.00  0.00     0.149 A 
HETATM    5  C13 UNL     1     -48.928  47.112  14.345  1.00  0.00     0.148 A 
HETATM    6  N5  UNL     1     -48.903  45.751  14.133  1.00  0.00    -0.319 N 
ATOM      7  H5  UNL     1     -49.190  45.131  14.891  1.00  0.00     0.169 HD
HETATM    8  C17 UNL     1     -48.520  45.213  12.978  1.00  0.00     0.164 A 
ENDROOT
BRANCH   5   9
HETATM    9  N3  UNL     1     -49.327  47.487  15.441  1.00  0.00    -0.366 N 
ATOM     10  H3  UNL     1     -50.135  48.076  15.244  1.00  0.00     0.161 HD
BRANCH   9  11
HETATM   11  C14 UNL     1     -49.202  47.491  16.801  1.00  0.00     0.115 A 
HETATM   12  C15 UNL     1     -50.127  48.276  17.738  1.00  0.00     0.062 A 
HETATM   13  C16 UNL     1     -48.701  48.653  17.590  1.00  0.00     0.208 A 
BRANCH  13  14
HETATM   14  N4  UNL     1     -48.502  49.945  16.956  1.00  0.00    -0.073 N 
ATOM     15  H43 UNL     1     -47.675  49.886  16.361  1.00  0.00     0.274 HD
ATOM     16  H42 UNL     1     -49.241  50.080  16.266  1.00  0.00     0.274 HD
ATOM     17  H41 UNL     1     -48.431  50.792  17.518  1.00  0.00     0.274 HD
ENDBRANCH  13  14
ENDBRANCH   9  11
ENDBRANCH   5   9
BRANCH   4  18
HETATM   18  N2  UNL     1     -48.486  49.352  13.434  1.00  0.00    -0.360 N 
HETATM   19  C7  UNL     1     -47.171  49.952  13.573  1.00  0.00     0.128 C 
HETATM   20  C8  UNL     1     -47.011  50.774  12.287  1.00  0.00     0.057 C 
HETATM   21  C9  UNL     1     -48.016  51.865  12.352  1.00  0.00     0.173 C 
HETATM   22  F1  UNL     1     -47.931  52.604  11.175  1.00  0.00    -0.249 F 
HETATM   23  C10 UNL     1     -49.432  51.463  12.599  1.00  0.00     0.062 C 
HETATM   24  C11 UNL     1     -49.604  50.227  13.427  1.00  0.00     0.084 C 
HETATM   25  C12 UNL     1     -50.882  49.535  13.016  1.00  0.00     0.032 C 
ENDBRANCH   4  18
BRANCH   8  26
HETATM   26  O1  UNL     1     -48.496  43.823  12.786  1.00  0.00    -0.345 OA
ATOM     27  H1  UNL     1     -47.763  43.330  13.135  1.00  0.00     0.219 HD
ENDBRANCH   8  26
BRANCH   1  28
HETATM   28  C4  UNL     1     -47.734  45.468  10.628  1.00  0.00     0.062 C 
BRANCH  28  29
HETATM   29  C3  UNL     1     -46.989  46.352   9.719  1.00  0.00     0.006 C 
BRANCH  29  30
HETATM   30  C2  UNL     1     -46.577  45.813   8.390  1.00  0.00    -0.004 C 
HETATM   31  C1  UNL     1     -47.579  46.280   7.320  1.00  0.00     0.005 C 
ENDBRANCH  29  30
ENDBRANCH  28  29
ENDBRANCH   1  28
TORSDOF 8
ENDMDL
