MODEL 1
REMARK VINA RESULT: -7.201060946      0.000      0.000
REMARK  7 active torsions:
REMARK  status: ('A' for Active; 'I' for Inactive)
REMARK    1  A    between atoms: N1_1  and  C1_4 
REMARK    2  A    between atoms: C4_10  and  N3_11 
REMARK    3  A    between atoms: N3_11  and  C5_13 
REMARK    4  A    between atoms: C5_13  and  C6_14 
REMARK    5  A    between atoms: C6_14  and  C7_15 
REMARK    6  A    between atoms: C7_15  and  N4_16 
REMARK    7  A    between atoms: C9_18  and  C10_19 
ROOT
HETATM    1  C5  UNL     1     -48.618  44.870  11.835  1.00  0.00     0.123 C 
ENDROOT
BRANCH   1   2
HETATM    2  N3  UNL     1     -47.443  44.642  11.040  1.00  0.00    -0.373 N 
ATOM      3  H3  UNL     1     -46.604  44.284  11.497  1.00  0.00     0.161 HD
BRANCH   2   4
HETATM    4  C4  UNL     1     -47.407  44.874   9.759  1.00  0.00     0.157 A 
HETATM    5  C3  UNL     1     -47.075  46.132   9.304  1.00  0.00     0.176 A 
HETATM    6  C2  UNL     1     -47.036  46.383   7.948  1.00  0.00     0.152 A 
HETATM    7  F1  UNL     1     -46.785  47.140  10.184  1.00  0.00    -0.201 F 
HETATM    8  N2  UNL     1     -47.322  45.400   7.049  1.00  0.00    -0.199 N 
HETATM    9  C1  UNL     1     -47.642  44.180   7.514  1.00  0.00     0.677 A 
ATOM     10  H2  UNL     1     -47.293  45.585   6.046  1.00  0.00     0.183 HD
HETATM   11  N6  UNL     1     -47.682  43.927   8.841  1.00  0.00    -0.174 N 
ATOM     12  H6  UNL     1     -47.929  42.989   9.159  1.00  0.00     0.186 HD
BRANCH   9  13
HETATM   13  N1  UNL     1     -47.909  43.265   6.631  1.00  0.00    -0.234 N 
ATOM     14  H12 UNL     1     -47.354  43.156   5.781  1.00  0.00     0.174 HD
ATOM     15  H11 UNL     1     -48.703  42.655   6.823  1.00  0.00     0.174 HD
ENDBRANCH   9  13
ENDBRANCH   2   4
ENDBRANCH   1   2
BRANCH   1  16
HETATM   16  C6  UNL     1     -48.242  45.912  12.885  1.00  0.00     0.041 C 
BRANCH  16  17
HETATM   17  C7  UNL     1     -49.500  46.644  13.370  1.00  0.00     0.150 C 
BRANCH  17  18
HETATM   18  N4  UNL     1     -49.273  48.060  13.144  1.00  0.00    -0.303 N 
HETATM   19  C8  UNL     1     -48.174  48.609  12.595  1.00  0.00     0.119 A 
HETATM   20  C9  UNL     1     -48.312  49.998  12.538  1.00  0.00    -0.020 A 
HETATM   21  C16 UNL     1     -49.552  50.232  13.084  1.00  0.00     0.116 A 
HETATM   22  N5  UNL     1     -50.092  49.068  13.431  1.00  0.00    -0.310 N 
ATOM     23  H5  UNL     1     -51.011  48.962  13.859  1.00  0.00     0.186 HD
BRANCH  20  24
HETATM   24  C10 UNL     1     -47.312  50.936  12.002  1.00  0.00     0.021 C 
HETATM   25  C11 UNL     1     -45.895  50.390  12.211  1.00  0.00     0.009 C 
HETATM   26  C12 UNL     1     -44.939  51.490  11.894  1.00  0.00     0.001 C 
HETATM   27  C13 UNL     1     -45.565  52.544  11.038  1.00  0.00     0.000 C 
HETATM   28  C14 UNL     1     -46.689  53.268  11.698  1.00  0.00     0.001 C 
HETATM   29  C15 UNL     1     -47.425  52.308  12.610  1.00  0.00     0.009 C 
ENDBRANCH  20  24
ENDBRANCH  17  18
ENDBRANCH  16  17
ENDBRANCH   1  16
TORSDOF 7
ENDMDL
MODEL 2
REMARK VINA RESULT: -7.163990778      1.305      1.928
REMARK  7 active torsions:
REMARK  status: ('A' for Active; 'I' for Inactive)
REMARK    1  A    between atoms: N1_1  and  C1_4 
REMARK    2  A    between atoms: C4_10  and  N3_11 
REMARK    3  A    between atoms: N3_11  and  C5_13 
REMARK    4  A    between atoms: C5_13  and  C6_14 
REMARK    5  A    between atoms: C6_14  and  C7_15 
REMARK    6  A    between atoms: C7_15  and  N4_16 
REMARK    7  A    between atoms: C9_18  and  C10_19 
ROOT
HETATM    1  C5  UNL     1     -47.829  43.510  11.678  1.00  0.00     0.123 C 
ENDROOT
BRANCH   1   2
HETATM    2  N3  UNL     1     -47.024  44.500  11.017  1.00  0.00    -0.373 N 
ATOM      3  H3  UNL     1     -46.304  44.985  11.554  1.00  0.00     0.161 HD
BRANCH   2   4
HETATM    4  C4  UNL     1     -47.177  44.804   9.760  1.00  0.00     0.157 A 
HETATM    5  C3  UNL     1     -47.037  46.114   9.354  1.00  0.00     0.176 A 
HETATM    6  C2  UNL     1     -47.198  46.440   8.023  1.00  0.00     0.152 A 
HETATM    7  F1  UNL     1     -46.740  47.098  10.258  1.00  0.00    -0.201 F 
HETATM    8  N2  UNL     1     -47.495  45.482   7.102  1.00  0.00    -0.199 N 
HETATM    9  C1  UNL     1     -47.627  44.211   7.519  1.00  0.00     0.677 A 
ATOM     10  H2  UNL     1     -47.615  45.723   6.117  1.00  0.00     0.183 HD
HETATM   11  N6  UNL     1     -47.470  43.883   8.821  1.00  0.00    -0.174 N 
ATOM     12  H6  UNL     1     -47.578  42.909   9.102  1.00  0.00     0.186 HD
BRANCH   9  13
HETATM   13  N1  UNL     1     -47.911  43.322   6.615  1.00  0.00    -0.234 N 
ATOM     14  H12 UNL     1     -48.194  43.583   5.671  1.00  0.00     0.174 HD
ATOM     15  H11 UNL     1     -47.837  42.342   6.892  1.00  0.00     0.174 HD
ENDBRANCH   9  13
ENDBRANCH   2   4
ENDBRANCH   1   2
BRANCH   1  16
HETATM   16  C6  UNL     1     -48.498  44.206  12.861  1.00  0.00     0.041 C 
BRANCH  16  17
HETATM   17  C7  UNL     1     -49.926  44.621  12.485  1.00  0.00     0.150 C 
BRANCH  17  18
HETATM   18  N4  UNL     1     -50.053  46.028  12.816  1.00  0.00    -0.303 N 
HETATM   19  C8  UNL     1     -49.087  46.958  12.712  1.00  0.00     0.119 A 
HETATM   20  C9  UNL     1     -49.574  48.202  13.121  1.00  0.00    -0.020 A 
HETATM   21  C16 UNL     1     -50.879  47.949  13.470  1.00  0.00     0.116 A 
HETATM   22  N5  UNL     1     -51.130  46.658  13.279  1.00  0.00    -0.310 N 
ATOM     23  H5  UNL     1     -52.027  46.210  13.461  1.00  0.00     0.186 HD
BRANCH  20  24
HETATM   24  C10 UNL     1     -48.804  49.456  13.145  1.00  0.00     0.021 C 
HETATM   25  C11 UNL     1     -47.540  49.329  12.288  1.00  0.00     0.009 C 
HETATM   26  C12 UNL     1     -46.687  50.520  12.567  1.00  0.00     0.001 C 
HETATM   27  C13 UNL     1     -47.475  51.648  13.151  1.00  0.00     0.000 C 
HETATM   28  C14 UNL     1     -48.062  51.345  14.488  1.00  0.00     0.001 C 
HETATM   29  C15 UNL     1     -48.433  49.877  14.542  1.00  0.00     0.009 C 
ENDBRANCH  20  24
ENDBRANCH  17  18
ENDBRANCH  16  17
ENDBRANCH   1  16
TORSDOF 7
ENDMDL
MODEL 3
REMARK VINA RESULT: -7.135469485      1.404      2.229
REMARK  7 active torsions:
REMARK  status: ('A' for Active; 'I' for Inactive)
REMARK    1  A    between atoms: N1_1  and  C1_4 
REMARK    2  A    between atoms: C4_10  and  N3_11 
REMARK    3  A    between atoms: N3_11  and  C5_13 
REMARK    4  A    between atoms: C5_13  and  C6_14 
REMARK    5  A    between atoms: C6_14  and  C7_15 
REMARK    6  A    between atoms: C7_15  and  N4_16 
REMARK    7  A    between atoms: C9_18  and  C10_19 
ROOT
HETATM    1  C5  UNL     1     -47.761  43.355  11.668  1.00  0.00     0.123 C 
ENDROOT
BRANCH   1   2
HETATM    2  N3  UNL     1     -46.979  44.387  11.045  1.00  0.00    -0.373 N 
ATOM      3  H3  UNL     1     -46.269  44.866  11.599  1.00  0.00     0.161 HD
BRANCH   2   4
HETATM    4  C4  UNL     1     -47.143  44.736   9.801  1.00  0.00     0.157 A 
HETATM    5  C3  UNL     1     -47.000  46.059   9.440  1.00  0.00     0.176 A 
HETATM    6  C2  UNL     1     -47.172  46.433   8.123  1.00  0.00     0.152 A 
HETATM    7  F1  UNL     1     -46.689  47.009  10.376  1.00  0.00    -0.201 F 
HETATM    8  N2  UNL     1     -47.483  45.509   7.171  1.00  0.00    -0.199 N 
HETATM    9  C1  UNL     1     -47.617  44.225   7.545  1.00  0.00     0.677 A 
ATOM     10  H2  UNL     1     -47.611  45.786   6.197  1.00  0.00     0.183 HD
HETATM   11  N6  UNL     1     -47.450  43.851   8.833  1.00  0.00    -0.174 N 
ATOM     12  H6  UNL     1     -47.560  42.867   9.080  1.00  0.00     0.186 HD
BRANCH   9  13
HETATM   13  N1  UNL     1     -47.914  43.370   6.613  1.00  0.00    -0.234 N 
ATOM     14  H12 UNL     1     -48.721  43.496   6.001  1.00  0.00     0.174 HD
ATOM     15  H11 UNL     1     -47.301  42.560   6.517  1.00  0.00     0.174 HD
ENDBRANCH   9  13
ENDBRANCH   2   4
ENDBRANCH   1   2
BRANCH   1  16
HETATM   16  C6  UNL     1     -48.500  44.007  12.835  1.00  0.00     0.041 C 
BRANCH  16  17
HETATM   17  C7  UNL     1     -49.899  44.447  12.387  1.00  0.00     0.150 C 
BRANCH  17  18
HETATM   18  N4  UNL     1     -50.044  45.838  12.776  1.00  0.00    -0.303 N 
HETATM   19  C8  UNL     1     -49.079  46.775  12.743  1.00  0.00     0.119 A 
HETATM   20  C9  UNL     1     -49.585  47.998  13.189  1.00  0.00    -0.020 A 
HETATM   21  C16 UNL     1     -50.899  47.726  13.485  1.00  0.00     0.116 A 
HETATM   22  N5  UNL     1     -51.137  46.444  13.229  1.00  0.00    -0.310 N 
ATOM     23  H5  UNL     1     -52.038  45.986  13.363  1.00  0.00     0.186 HD
BRANCH  20  24
HETATM   24  C10 UNL     1     -48.822  49.253  13.293  1.00  0.00     0.021 C 
HETATM   25  C11 UNL     1     -49.746  50.461  13.107  1.00  0.00     0.009 C 
HETATM   26  C12 UNL     1     -48.882  51.668  12.960  1.00  0.00     0.001 C 
HETATM   27  C13 UNL     1     -47.510  51.444  13.509  1.00  0.00     0.000 C 
HETATM   28  C14 UNL     1     -46.734  50.395  12.786  1.00  0.00     0.001 C 
HETATM   29  C15 UNL     1     -47.688  49.321  12.305  1.00  0.00     0.009 C 
ENDBRANCH  20  24
ENDBRANCH  17  18
ENDBRANCH  16  17
ENDBRANCH   1  16
TORSDOF 7
ENDMDL
MODEL 4
REMARK VINA RESULT: -7.123081393      0.658      1.197
REMARK  7 active torsions:
REMARK  status: ('A' for Active; 'I' for Inactive)
REMARK    1  A    between atoms: N1_1  and  C1_4 
REMARK    2  A    between atoms: C4_10  and  N3_11 
REMARK    3  A    between atoms: N3_11  and  C5_13 
REMARK    4  A    between atoms: C5_13  and  C6_14 
REMARK    5  A    between atoms: C6_14  and  C7_15 
REMARK    6  A    between atoms: C7_15  and  N4_16 
REMARK    7  A    between atoms: C9_18  and  C10_19 
ROOT
HETATM    1  C5  UNL     1     -48.836  44.882  11.814  1.00  0.00     0.123 C 
ENDROOT
BRANCH   1   2
HETATM    2  N3  UNL     1     -47.618  44.620  11.097  1.00  0.00    -0.373 N 
ATOM      3  H3  UNL     1     -46.822  44.237  11.607  1.00  0.00     0.161 HD
BRANCH   2   4
HETATM    4  C4  UNL     1     -47.490  44.854   9.822  1.00  0.00     0.157 A 
HETATM    5  C3  UNL     1     -47.063  46.094   9.397  1.00  0.00     0.176 A 
HETATM    6  C2  UNL     1     -46.927  46.346   8.047  1.00  0.00     0.152 A 
HETATM    7  F1  UNL     1     -46.773  47.081  10.299  1.00  0.00    -0.201 F 
HETATM    8  N2  UNL     1     -47.210  45.382   7.126  1.00  0.00    -0.199 N 
HETATM    9  C1  UNL     1     -47.624  44.180   7.563  1.00  0.00     0.677 A 
ATOM     10  H2  UNL     1     -47.110  45.568   6.128  1.00  0.00     0.183 HD
HETATM   11  N6  UNL     1     -47.760  43.926   8.884  1.00  0.00    -0.174 N 
ATOM     12  H6  UNL     1     -48.077  43.003   9.179  1.00  0.00     0.186 HD
BRANCH   9  13
HETATM   13  N1  UNL     1     -47.886  43.284   6.659  1.00  0.00    -0.234 N 
ATOM     14  H12 UNL     1     -47.966  42.293   6.888  1.00  0.00     0.174 HD
ATOM     15  H11 UNL     1     -48.009  43.616   5.702  1.00  0.00     0.174 HD
ENDBRANCH   9  13
ENDBRANCH   2   4
ENDBRANCH   1   2
BRANCH   1  16
HETATM   16  C6  UNL     1     -48.466  45.772  12.998  1.00  0.00     0.041 C 
BRANCH  16  17
HETATM   17  C7  UNL     1     -49.632  46.711  13.331  1.00  0.00     0.150 C 
BRANCH  17  18
HETATM   18  N4  UNL     1     -49.059  48.025  13.560  1.00  0.00    -0.303 N 
HETATM   19  C8  UNL     1     -48.212  48.674  12.741  1.00  0.00     0.119 A 
HETATM   20  C9  UNL     1     -47.873  49.913  13.290  1.00  0.00    -0.020 A 
HETATM   21  C16 UNL     1     -48.568  49.953  14.475  1.00  0.00     0.116 A 
HETATM   22  N5  UNL     1     -49.258  48.825  14.603  1.00  0.00    -0.310 N 
ATOM     23  H5  UNL     1     -49.859  48.602  15.396  1.00  0.00     0.186 HD
BRANCH  20  24
HETATM   24  C10 UNL     1     -46.968  50.900  12.679  1.00  0.00     0.021 C 
HETATM   25  C11 UNL     1     -47.719  51.759  11.656  1.00  0.00     0.009 C 
HETATM   26  C12 UNL     1     -46.703  52.543  10.895  1.00  0.00     0.001 C 
HETATM   27  C13 UNL     1     -45.409  52.647  11.636  1.00  0.00     0.000 C 
HETATM   28  C14 UNL     1     -44.725  51.338  11.842  1.00  0.00     0.001 C 
HETATM   29  C15 UNL     1     -45.773  50.259  12.026  1.00  0.00     0.009 C 
ENDBRANCH  20  24
ENDBRANCH  17  18
ENDBRANCH  16  17
ENDBRANCH   1  16
TORSDOF 7
ENDMDL
MODEL 5
REMARK VINA RESULT: -6.681448202      2.396      6.789
REMARK  7 active torsions:
REMARK  status: ('A' for Active; 'I' for Inactive)
REMARK    1  A    between atoms: N1_1  and  C1_4 
REMARK    2  A    between atoms: C4_10  and  N3_11 
REMARK    3  A    between atoms: N3_11  and  C5_13 
REMARK    4  A    between atoms: C5_13  and  C6_14 
REMARK    5  A    between atoms: C6_14  and  C7_15 
REMARK    6  A    between atoms: C7_15  and  N4_16 
REMARK    7  A    between atoms: C9_18  and  C10_19 
ROOT
HETATM    1  C5  UNL     1     -50.145  46.894  13.924  1.00  0.00     0.123 C 
ENDROOT
BRANCH   1   2
HETATM    2  N3  UNL     1     -49.715  47.898  12.990  1.00  0.00    -0.373 N 
ATOM      3  H3  UNL     1     -50.073  47.864  12.035  1.00  0.00     0.161 HD
BRANCH   2   4
HETATM    4  C4  UNL     1     -48.887  48.850  13.315  1.00  0.00     0.157 A 
HETATM    5  C3  UNL     1     -47.793  49.102  12.515  1.00  0.00     0.176 A 
HETATM    6  C2  UNL     1     -46.914  50.110  12.856  1.00  0.00     0.152 A 
HETATM    7  F1  UNL     1     -47.568  48.364  11.385  1.00  0.00    -0.201 F 
HETATM    8  N2  UNL     1     -47.113  50.860  13.975  1.00  0.00    -0.199 N 
HETATM    9  C1  UNL     1     -48.186  50.597  14.741  1.00  0.00     0.677 A 
ATOM     10  H2  UNL     1     -46.462  51.604  14.228  1.00  0.00     0.183 HD
HETATM   11  N6  UNL     1     -49.052  49.611  14.414  1.00  0.00    -0.174 N 
ATOM     12  H6  UNL     1     -49.856  49.439  15.018  1.00  0.00     0.186 HD
BRANCH   9  13
HETATM   13  N1  UNL     1     -48.346  51.330  15.801  1.00  0.00    -0.234 N 
ATOM     14  H12 UNL     1     -48.040  51.020  16.723  1.00  0.00     0.174 HD
ATOM     15  H11 UNL     1     -48.794  52.237  15.672  1.00  0.00     0.174 HD
ENDBRANCH   9  13
ENDBRANCH   2   4
ENDBRANCH   1   2
BRANCH   1  16
HETATM   16  C6  UNL     1     -48.899  46.110  14.331  1.00  0.00     0.041 C 
BRANCH  16  17
HETATM   17  C7  UNL     1     -48.881  44.750  13.622  1.00  0.00     0.150 C 
BRANCH  17  18
HETATM   18  N4  UNL     1     -48.147  44.933  12.384  1.00  0.00    -0.303 N 
HETATM   19  C8  UNL     1     -48.652  44.836  11.141  1.00  0.00     0.119 A 
HETATM   20  C9  UNL     1     -47.649  45.075  10.198  1.00  0.00    -0.020 A 
HETATM   21  C16 UNL     1     -46.530  45.318  10.957  1.00  0.00     0.116 A 
HETATM   22  N5  UNL     1     -46.858  45.226  12.242  1.00  0.00    -0.310 N 
ATOM     23  H5  UNL     1     -46.208  45.363  13.015  1.00  0.00     0.186 HD
BRANCH  20  24
HETATM   24  C10 UNL     1     -47.827  45.054   8.737  1.00  0.00     0.021 C 
HETATM   25  C11 UNL     1     -47.440  43.685   8.167  1.00  0.00     0.009 C 
HETATM   26  C12 UNL     1     -47.388  43.815   6.682  1.00  0.00     0.001 C 
HETATM   27  C13 UNL     1     -48.167  44.995   6.197  1.00  0.00     0.000 C 
HETATM   28  C14 UNL     1     -47.627  46.306   6.659  1.00  0.00     0.001 C 
HETATM   29  C15 UNL     1     -47.039  46.135   8.045  1.00  0.00     0.009 C 
ENDBRANCH  20  24
ENDBRANCH  17  18
ENDBRANCH  16  17
ENDBRANCH   1  16
TORSDOF 7
ENDMDL
