MODEL 1
REMARK VINA RESULT: -6.671437607      0.000      0.000
REMARK  6 active torsions:
REMARK  status: ('A' for Active; 'I' for Inactive)
REMARK    1  A    between atoms: N1_1  and  C1_4 
REMARK    2  A    between atoms: C2_7  and  O1_8 
REMARK    3  A    between atoms: O1_8  and  C3_9 
REMARK    4  A    between atoms: C3_9  and  C4_10 
REMARK    5  A    between atoms: C7_15  and  N4_16 
REMARK    6  A    between atoms: N4_16  and  C8_18 
ROOT
HETATM    1  C1  UNL     1     -49.104  45.310  12.215  1.00  0.00     0.123 A 
HETATM    2  N2  UNL     1     -48.204  44.862  11.341  1.00  0.00    -0.307 N 
ATOM      3  H2  UNL     1     -48.265  43.897  11.017  1.00  0.00     0.171 HD
HETATM    4  C2  UNL     1     -47.219  45.643  10.877  1.00  0.00     0.226 A 
HETATM    5  N3  UNL     1     -47.152  46.930  11.320  1.00  0.00    -0.307 N 
ATOM      6  H3  UNL     1     -46.405  47.528  10.967  1.00  0.00     0.171 HD
HETATM    7  C7  UNL     1     -48.018  47.444  12.191  1.00  0.00     0.127 A 
HETATM    8  C12 UNL     1     -49.038  46.610  12.664  1.00  0.00     0.098 A 
HETATM    9 BR1  UNL     1     -50.329  47.248  13.915  1.00  0.00    -0.043 Br
ENDROOT
BRANCH   7  10
HETATM   10  N4  UNL     1     -47.987  48.771  12.656  1.00  0.00    -0.349 N 
ATOM     11  H4  UNL     1     -48.352  48.954  13.590  1.00  0.00     0.163 HD
BRANCH  10  12
HETATM   12  C8  UNL     1     -47.482  49.880  11.915  1.00  0.00     0.221 C 
HETATM   13  C9  UNL     1     -46.227  50.503  12.470  1.00  0.00     0.056 C 
HETATM   14  C10 UNL     1     -46.329  51.913  11.864  1.00  0.00     0.031 C 
HETATM   15  C11 UNL     1     -47.802  52.110  11.826  1.00  0.00     0.170 C 
HETATM   16  O2  UNL     1     -48.417  50.896  11.765  1.00  0.00    -0.367 OA
ENDBRANCH  10  12
ENDBRANCH   7  10
BRANCH   4  17
HETATM   17  O1  UNL     1     -46.296  45.174   9.977  1.00  0.00    -0.321 OA
BRANCH  17  18
HETATM   18  C3  UNL     1     -46.206  45.525   8.628  1.00  0.00     0.183 C 
BRANCH  18  19
HETATM   19  C4  UNL     1     -47.583  45.521   8.014  1.00  0.00     0.010 A 
HETATM   20  C5  UNL     1     -47.681  46.286   6.700  1.00  0.00     0.007 A 
HETATM   21  C6  UNL     1     -47.766  44.810   6.660  1.00  0.00     0.007 A 
ENDBRANCH  18  19
ENDBRANCH  17  18
ENDBRANCH   4  17
BRANCH   1  22
HETATM   22  N1  UNL     1     -50.055  44.538  12.658  1.00  0.00    -0.384 N 
ATOM     23  H12 UNL     1     -50.904  44.429  12.102  1.00  0.00     0.157 HD
ATOM     24  H11 UNL     1     -49.963  44.045  13.547  1.00  0.00     0.157 HD
ENDBRANCH   1  22
TORSDOF 6
ENDMDL
MODEL 2
REMARK VINA RESULT: -6.580664733      1.065      1.116
REMARK  6 active torsions:
REMARK  status: ('A' for Active; 'I' for Inactive)
REMARK    1  A    between atoms: N1_1  and  C1_4 
REMARK    2  A    between atoms: C2_7  and  O1_8 
REMARK    3  A    between atoms: O1_8  and  C3_9 
REMARK    4  A    between atoms: C3_9  and  C4_10 
REMARK    5  A    between atoms: C7_15  and  N4_16 
REMARK    6  A    between atoms: N4_16  and  C8_18 
ROOT
HETATM    1  C1  UNL     1     -48.310  44.336  12.461  1.00  0.00     0.123 A 
HETATM    2  N2  UNL     1     -47.463  44.202  11.440  1.00  0.00    -0.307 N 
ATOM      3  H2  UNL     1     -47.214  43.265  11.122  1.00  0.00     0.171 HD
HETATM    4  C2  UNL     1     -46.930  45.263  10.820  1.00  0.00     0.226 A 
HETATM    5  N3  UNL     1     -47.274  46.507  11.257  1.00  0.00    -0.307 N 
ATOM      6  H3  UNL     1     -46.871  47.317  10.786  1.00  0.00     0.171 HD
HETATM    7  C7  UNL     1     -48.114  46.714  12.270  1.00  0.00     0.127 A 
HETATM    8  C12 UNL     1     -48.659  45.591  12.904  1.00  0.00     0.098 A 
HETATM    9 BR1  UNL     1     -49.871  45.779  14.364  1.00  0.00    -0.043 Br
ENDROOT
BRANCH   7  10
HETATM   10  N4  UNL     1     -48.502  47.983  12.734  1.00  0.00    -0.349 N 
ATOM     11  H4  UNL     1     -49.448  48.082  13.105  1.00  0.00     0.163 HD
BRANCH  10  12
HETATM   12  C8  UNL     1     -47.672  49.142  12.725  1.00  0.00     0.221 C 
HETATM   13  C9  UNL     1     -47.958  50.145  13.812  1.00  0.00     0.056 C 
HETATM   14  C10 UNL     1     -47.382  51.419  13.171  1.00  0.00     0.031 C 
HETATM   15  C11 UNL     1     -47.642  51.165  11.729  1.00  0.00     0.170 C 
HETATM   16  O2  UNL     1     -47.711  49.822  11.514  1.00  0.00    -0.367 OA
ENDBRANCH  10  12
ENDBRANCH   7  10
BRANCH   4  17
HETATM   17  O1  UNL     1     -46.060  45.117   9.770  1.00  0.00    -0.321 OA
BRANCH  17  18
HETATM   18  C3  UNL     1     -46.164  45.730   8.520  1.00  0.00     0.183 C 
BRANCH  18  19
HETATM   19  C4  UNL     1     -47.574  45.586   8.005  1.00  0.00     0.010 A 
HETATM   20  C5  UNL     1     -47.876  46.430   6.772  1.00  0.00     0.007 A 
HETATM   21  C6  UNL     1     -47.773  44.963   6.611  1.00  0.00     0.007 A 
ENDBRANCH  18  19
ENDBRANCH  17  18
ENDBRANCH   4  17
BRANCH   1  22
HETATM   22  N1  UNL     1     -48.820  43.294  13.054  1.00  0.00    -0.384 N 
ATOM     23  H12 UNL     1     -49.752  43.365  13.464  1.00  0.00     0.157 HD
ATOM     24  H11 UNL     1     -48.303  42.416  13.113  1.00  0.00     0.157 HD
ENDBRANCH   1  22
TORSDOF 6
ENDMDL
MODEL 3
REMARK VINA RESULT: -6.447854293      1.492      1.841
REMARK  6 active torsions:
REMARK  status: ('A' for Active; 'I' for Inactive)
REMARK    1  A    between atoms: N1_1  and  C1_4 
REMARK    2  A    between atoms: C2_7  and  O1_8 
REMARK    3  A    between atoms: O1_8  and  C3_9 
REMARK    4  A    between atoms: C3_9  and  C4_10 
REMARK    5  A    between atoms: C7_15  and  N4_16 
REMARK    6  A    between atoms: N4_16  and  C8_18 
ROOT
HETATM    1  C1  UNL     1     -48.462  46.746  13.421  1.00  0.00     0.123 A 
HETATM    2  N2  UNL     1     -47.884  46.182  12.360  1.00  0.00    -0.307 N 
ATOM      3  H2  UNL     1     -47.845  45.165  12.300  1.00  0.00     0.171 HD
HETATM    4  C2  UNL     1     -47.355  46.914  11.371  1.00  0.00     0.226 A 
HETATM    5  N3  UNL     1     -47.418  48.272  11.467  1.00  0.00    -0.307 N 
ATOM      6  H3  UNL     1     -47.016  48.832  10.716  1.00  0.00     0.171 HD
HETATM    7  C7  UNL     1     -47.980  48.901  12.498  1.00  0.00     0.127 A 
HETATM    8  C12 UNL     1     -48.527  48.117  13.520  1.00  0.00     0.098 A 
HETATM    9 BR1  UNL     1     -49.354  48.921  15.039  1.00  0.00    -0.043 Br
ENDROOT
BRANCH   7  10
HETATM   10  N4  UNL     1     -48.076  50.299  12.620  1.00  0.00    -0.349 N 
ATOM     11  H4  UNL     1     -49.007  50.701  12.734  1.00  0.00     0.163 HD
BRANCH  10  12
HETATM   12  C8  UNL     1     -46.968  51.196  12.594  1.00  0.00     0.221 C 
HETATM   13  C9  UNL     1     -46.889  52.083  11.378  1.00  0.00     0.056 C 
HETATM   14  C10 UNL     1     -45.387  52.413  11.375  1.00  0.00     0.031 C 
HETATM   15  C11 UNL     1     -44.811  51.164  11.939  1.00  0.00     0.170 C 
HETATM   16  O2  UNL     1     -45.747  50.545  12.711  1.00  0.00    -0.367 OA
ENDBRANCH  10  12
ENDBRANCH   7  10
BRANCH   4  17
HETATM   17  O1  UNL     1     -46.762  46.327  10.283  1.00  0.00    -0.321 OA
BRANCH  17  18
HETATM   18  C3  UNL     1     -47.385  45.490   9.355  1.00  0.00     0.183 C 
BRANCH  18  19
HETATM   19  C4  UNL     1     -46.889  45.818   7.969  1.00  0.00     0.010 A 
HETATM   20  C5  UNL     1     -47.592  45.048   6.858  1.00  0.00     0.007 A 
HETATM   21  C6  UNL     1     -47.870  46.494   6.994  1.00  0.00     0.007 A 
ENDBRANCH  18  19
ENDBRANCH  17  18
ENDBRANCH   4  17
BRANCH   1  22
HETATM   22  N1  UNL     1     -48.972  46.020  14.375  1.00  0.00    -0.384 N 
ATOM     23  H12 UNL     1     -49.067  45.014  14.234  1.00  0.00     0.157 HD
ATOM     24  H11 UNL     1     -49.275  46.441  15.254  1.00  0.00     0.157 HD
ENDBRANCH   1  22
TORSDOF 6
ENDMDL
MODEL 4
REMARK VINA RESULT: -6.403906777      1.726      5.665
REMARK  6 active torsions:
REMARK  status: ('A' for Active; 'I' for Inactive)
REMARK    1  A    between atoms: N1_1  and  C1_4 
REMARK    2  A    between atoms: C2_7  and  O1_8 
REMARK    3  A    between atoms: O1_8  and  C3_9 
REMARK    4  A    between atoms: C3_9  and  C4_10 
REMARK    5  A    between atoms: C7_15  and  N4_16 
REMARK    6  A    between atoms: N4_16  and  C8_18 
ROOT
HETATM    1  C1  UNL     1     -48.377  46.095  12.777  1.00  0.00     0.123 A 
HETATM    2  N2  UNL     1     -48.405  47.427  12.826  1.00  0.00    -0.307 N 
ATOM      3  H2  UNL     1     -48.960  47.885  13.550  1.00  0.00     0.171 HD
HETATM    4  C2  UNL     1     -47.726  48.181  11.952  1.00  0.00     0.226 A 
HETATM    5  N3  UNL     1     -46.989  47.553  10.992  1.00  0.00    -0.307 N 
ATOM      6  H3  UNL     1     -46.470  48.124  10.326  1.00  0.00     0.171 HD
HETATM    7  C7  UNL     1     -46.917  46.228  10.885  1.00  0.00     0.127 A 
HETATM    8  C12 UNL     1     -47.635  45.459  11.809  1.00  0.00     0.098 A 
HETATM    9 BR1  UNL     1     -47.597  43.553  11.741  1.00  0.00    -0.043 Br
ENDROOT
BRANCH   7  10
HETATM   10  N4  UNL     1     -46.154  45.549   9.918  1.00  0.00    -0.349 N 
ATOM     11  H4  UNL     1     -45.370  44.984  10.245  1.00  0.00     0.163 HD
BRANCH  10  12
HETATM   12  C8  UNL     1     -46.396  45.593   8.513  1.00  0.00     0.221 C 
HETATM   13  C9  UNL     1     -47.525  46.494   8.086  1.00  0.00     0.056 C 
HETATM   14  C10 UNL     1     -47.886  45.860   6.731  1.00  0.00     0.031 C 
HETATM   15  C11 UNL     1     -47.577  44.428   6.987  1.00  0.00     0.170 C 
HETATM   16  O2  UNL     1     -46.639  44.338   7.970  1.00  0.00    -0.367 OA
ENDBRANCH  10  12
ENDBRANCH   7  10
BRANCH   4  17
HETATM   17  O1  UNL     1     -47.759  49.551  12.009  1.00  0.00    -0.321 OA
BRANCH  17  18
HETATM   18  C3  UNL     1     -46.822  50.375  12.636  1.00  0.00     0.183 C 
BRANCH  18  19
HETATM   19  C4  UNL     1     -45.681  50.650  11.688  1.00  0.00     0.010 A 
HETATM   20  C5  UNL     1     -45.317  52.124  11.564  1.00  0.00     0.007 A 
HETATM   21  C6  UNL     1     -44.380  51.227  12.275  1.00  0.00     0.007 A 
ENDBRANCH  18  19
ENDBRANCH  17  18
ENDBRANCH   4  17
BRANCH   1  22
HETATM   22  N1  UNL     1     -49.044  45.376  13.634  1.00  0.00    -0.384 N 
ATOM     23  H12 UNL     1     -49.614  45.847  14.338  1.00  0.00     0.157 HD
ATOM     24  H11 UNL     1     -49.004  44.356  13.612  1.00  0.00     0.157 HD
ENDBRANCH   1  22
TORSDOF 6
ENDMDL
MODEL 5
REMARK VINA RESULT: -6.398016726      1.724      5.637
REMARK  6 active torsions:
REMARK  status: ('A' for Active; 'I' for Inactive)
REMARK    1  A    between atoms: N1_1  and  C1_4 
REMARK    2  A    between atoms: C2_7  and  O1_8 
REMARK    3  A    between atoms: O1_8  and  C3_9 
REMARK    4  A    between atoms: C3_9  and  C4_10 
REMARK    5  A    between atoms: C7_15  and  N4_16 
REMARK    6  A    between atoms: N4_16  and  C8_18 
ROOT
HETATM    1  C1  UNL     1     -48.398  46.376  13.324  1.00  0.00     0.123 A 
HETATM    2  N2  UNL     1     -48.275  47.703  13.307  1.00  0.00    -0.307 N 
ATOM      3  H2  UNL     1     -48.581  48.240  14.119  1.00  0.00     0.171 HD
HETATM    4  C2  UNL     1     -47.762  48.352  12.253  1.00  0.00     0.226 A 
HETATM    5  N3  UNL     1     -47.358  47.619  11.177  1.00  0.00    -0.307 N 
ATOM      6  H3  UNL     1     -46.966  48.110  10.374  1.00  0.00     0.171 HD
HETATM    7  C7  UNL     1     -47.451  46.291  11.128  1.00  0.00     0.127 A 
HETATM    8  C12 UNL     1     -47.990  45.634  12.239  1.00  0.00     0.098 A 
HETATM    9 BR1  UNL     1     -48.167  43.735  12.268  1.00  0.00    -0.043 Br
ENDROOT
BRANCH   7  10
HETATM   10  N4  UNL     1     -47.028  45.505  10.041  1.00  0.00    -0.349 N 
ATOM     11  H4  UNL     1     -46.158  44.982  10.145  1.00  0.00     0.163 HD
BRANCH  10  12
HETATM   12  C8  UNL     1     -47.726  45.385   8.803  1.00  0.00     0.221 C 
HETATM   13  C9  UNL     1     -47.282  44.244   7.925  1.00  0.00     0.056 C 
HETATM   14  C10 UNL     1     -47.743  44.759   6.551  1.00  0.00     0.031 C 
HETATM   15  C11 UNL     1     -47.578  46.227   6.717  1.00  0.00     0.170 C 
HETATM   16  O2  UNL     1     -47.667  46.543   8.038  1.00  0.00    -0.367 OA
ENDBRANCH  10  12
ENDBRANCH   7  10
BRANCH   4  17
HETATM   17  O1  UNL     1     -47.639  49.718  12.242  1.00  0.00    -0.321 OA
BRANCH  17  18
HETATM   18  C3  UNL     1     -46.598  50.458  12.806  1.00  0.00     0.183 C 
BRANCH  18  19
HETATM   19  C4  UNL     1     -45.502  50.642  11.787  1.00  0.00     0.010 A 
HETATM   20  C5  UNL     1     -45.143  52.097  11.515  1.00  0.00     0.007 A 
HETATM   21  C6  UNL     1     -44.174  51.262  12.260  1.00  0.00     0.007 A 
ENDBRANCH  18  19
ENDBRANCH  17  18
ENDBRANCH   4  17
BRANCH   1  22
HETATM   22  N1  UNL     1     -48.900  45.760  14.357  1.00  0.00    -0.384 N 
ATOM     23  H12 UNL     1     -49.554  46.259  14.960  1.00  0.00     0.157 HD
ATOM     24  H11 UNL     1     -48.649  44.794  14.568  1.00  0.00     0.157 HD
ENDBRANCH   1  22
TORSDOF 6
ENDMDL
