MODEL 1
REMARK VINA RESULT: -5.586396217      0.000      0.000
REMARK  6 active torsions:
REMARK  status: ('A' for Active; 'I' for Inactive)
REMARK    1  A    between atoms: C2_2  and  C3_3 
REMARK    2  A    between atoms: C2_2  and  C4_6 
REMARK    3  A    between atoms: C3_3  and  O1_4 
REMARK    4  A    between atoms: C4_6  and  O2_7 
REMARK    5  A    between atoms: C4_6  and  C5_9 
REMARK    6  A    between atoms: C6_10  and  C7_11 
ROOT
HETATM    1  C4  UNL     1      23.220 -17.210  28.099  1.00  0.00     0.146 C 
ENDROOT
BRANCH   1   2
HETATM    2  C2  UNL     1      23.173 -18.386  27.154  1.00  0.00     0.038 C 
HETATM    3  C1  UNL     1      24.548 -18.882  26.804  1.00  0.00     0.015 C 
BRANCH   2   4
HETATM    4  C3  UNL     1      22.425 -17.986  25.882  1.00  0.00     0.171 C 
BRANCH   4   5
HETATM    5  O1  UNL     1      21.061 -18.067  26.028  1.00  0.00    -0.400 OA
ATOM      6  H1  UNL     1      20.663 -18.656  25.398  1.00  0.00     0.209 HD
ENDBRANCH   4   5
ENDBRANCH   2   4
ENDBRANCH   1   2
BRANCH   1   7
HETATM    7  O2  UNL     1      24.439 -16.578  28.125  1.00  0.00    -0.391 OA
ATOM      8  H2  UNL     1      24.557 -16.017  28.882  1.00  0.00     0.210 HD
ENDBRANCH   1   7
BRANCH   1   9
HETATM    9  C5  UNL     1      22.780 -17.688  29.433  1.00  0.00     0.001 C 
HETATM   10  C6  UNL     1      23.621 -18.023  30.400  1.00  0.00    -0.023 C 
BRANCH  10  11
HETATM   11  C7  UNL     1      23.081 -18.490  31.697  1.00  0.00     0.017 C 
HETATM   12  C8  UNL     1      23.423 -19.921  31.994  1.00  0.00     0.010 C 
HETATM   13  C9  UNL     1      22.349 -20.895  31.597  1.00  0.00     0.011 C 
HETATM   14  C10 UNL     1      21.285 -20.944  32.693  1.00  0.00     0.074 C 
HETATM   15  S1  UNL     1      20.854 -19.206  33.043  1.00  0.00    -0.168 SA
HETATM   16  C11 UNL     1      21.598 -18.223  31.689  1.00  0.00     0.082 C 
ENDBRANCH  10  11
ENDBRANCH   1   9
TORSDOF 6
ENDMDL
MODEL 2
REMARK VINA RESULT: -5.393634135      3.272      5.505
REMARK  6 active torsions:
REMARK  status: ('A' for Active; 'I' for Inactive)
REMARK    1  A    between atoms: C2_2  and  C3_3 
REMARK    2  A    between atoms: C2_2  and  C4_6 
REMARK    3  A    between atoms: C3_3  and  O1_4 
REMARK    4  A    between atoms: C4_6  and  O2_7 
REMARK    5  A    between atoms: C4_6  and  C5_9 
REMARK    6  A    between atoms: C6_10  and  C7_11 
ROOT
HETATM    1  C4  UNL     1      22.788 -18.688  31.687  1.00  0.00     0.146 C 
ENDROOT
BRANCH   1   2
HETATM    2  C2  UNL     1      23.225 -20.012  32.269  1.00  0.00     0.038 C 
HETATM    3  C1  UNL     1      24.625 -20.372  31.859  1.00  0.00     0.015 C 
BRANCH   2   4
HETATM    4  C3  UNL     1      22.254 -21.106  31.824  1.00  0.00     0.171 C 
BRANCH   4   5
HETATM    5  O1  UNL     1      21.338 -21.422  32.799  1.00  0.00    -0.400 OA
ATOM      6  H1  UNL     1      20.531 -21.768  32.439  1.00  0.00     0.209 HD
ENDBRANCH   4   5
ENDBRANCH   2   4
ENDBRANCH   1   2
BRANCH   1   7
HETATM    7  O2  UNL     1      21.440 -18.459  31.804  1.00  0.00    -0.391 OA
ATOM      8  H2  UNL     1      21.134 -17.729  31.278  1.00  0.00     0.210 HD
ENDBRANCH   1   7
BRANCH   1   9
HETATM    9  C5  UNL     1      23.271 -18.634  30.285  1.00  0.00     0.001 C 
HETATM   10  C6  UNL     1      23.724 -17.528  29.713  1.00  0.00    -0.023 C 
BRANCH  10  11
HETATM   11  C7  UNL     1      24.183 -17.579  28.306  1.00  0.00     0.017 C 
HETATM   12  C8  UNL     1      23.242 -16.898  27.357  1.00  0.00     0.010 C 
HETATM   13  C9  UNL     1      22.263 -17.832  26.701  1.00  0.00     0.011 C 
HETATM   14  C10 UNL     1      22.940 -18.513  25.510  1.00  0.00     0.074 C 
HETATM   15  S1  UNL     1      24.527 -19.152  26.141  1.00  0.00    -0.168 SA
HETATM   16  C11 UNL     1      24.429 -19.026  27.965  1.00  0.00     0.082 C 
ENDBRANCH  10  11
ENDBRANCH   1   9
TORSDOF 6
ENDMDL
MODEL 3
REMARK VINA RESULT: -5.291143379      1.883      2.757
REMARK  6 active torsions:
REMARK  status: ('A' for Active; 'I' for Inactive)
REMARK    1  A    between atoms: C2_2  and  C3_3 
REMARK    2  A    between atoms: C2_2  and  C4_6 
REMARK    3  A    between atoms: C3_3  and  O1_4 
REMARK    4  A    between atoms: C4_6  and  O2_7 
REMARK    5  A    between atoms: C4_6  and  C5_9 
REMARK    6  A    between atoms: C6_10  and  C7_11 
ROOT
HETATM    1  C4  UNL     1      24.073 -18.859  29.906  1.00  0.00     0.146 C 
ENDROOT
BRANCH   1   2
HETATM    2  C2  UNL     1      23.896 -17.640  29.033  1.00  0.00     0.038 C 
HETATM    3  C1  UNL     1      22.578 -16.959  29.278  1.00  0.00     0.015 C 
BRANCH   2   4
HETATM    4  C3  UNL     1      24.006 -18.047  27.563  1.00  0.00     0.171 C 
BRANCH   4   5
HETATM    5  O1  UNL     1      22.790 -18.394  27.024  1.00  0.00    -0.400 OA
ATOM      6  H1  UNL     1      22.821 -19.228  26.570  1.00  0.00     0.209 HD
ENDBRANCH   4   5
ENDBRANCH   2   4
ENDBRANCH   1   2
BRANCH   1   7
HETATM    7  O2  UNL     1      24.204 -20.025  29.193  1.00  0.00    -0.391 OA
ATOM      8  H2  UNL     1      23.455 -20.605  29.277  1.00  0.00     0.210 HD
ENDBRANCH   1   7
BRANCH   1   9
HETATM    9  C5  UNL     1      22.948 -18.886  30.872  1.00  0.00     0.001 C 
HETATM   10  C6  UNL     1      22.476 -20.001  31.410  1.00  0.00    -0.023 C 
BRANCH  10  11
HETATM   11  C7  UNL     1      21.347 -19.921  32.365  1.00  0.00     0.017 C 
HETATM   12  C8  UNL     1      21.633 -19.030  33.538  1.00  0.00     0.010 C 
HETATM   13  C9  UNL     1      22.143 -19.765  34.747  1.00  0.00     0.011 C 
HETATM   14  C10 UNL     1      20.958 -20.356  35.511  1.00  0.00     0.074 C 
HETATM   15  S1  UNL     1      19.954 -21.235  34.266  1.00  0.00    -0.168 SA
HETATM   16  C11 UNL     1      20.993 -21.331  32.762  1.00  0.00     0.082 C 
ENDBRANCH  10  11
ENDBRANCH   1   9
TORSDOF 6
ENDMDL
MODEL 4
REMARK VINA RESULT: -5.267170123      1.738      2.553
REMARK  6 active torsions:
REMARK  status: ('A' for Active; 'I' for Inactive)
REMARK    1  A    between atoms: C2_2  and  C3_3 
REMARK    2  A    between atoms: C2_2  and  C4_6 
REMARK    3  A    between atoms: C3_3  and  O1_4 
REMARK    4  A    between atoms: C4_6  and  O2_7 
REMARK    5  A    between atoms: C4_6  and  C5_9 
REMARK    6  A    between atoms: C6_10  and  C7_11 
ROOT
HETATM    1  C4  UNL     1      24.136 -18.773  29.787  1.00  0.00     0.146 C 
ENDROOT
BRANCH   1   2
HETATM    2  C2  UNL     1      23.676 -17.760  28.766  1.00  0.00     0.038 C 
HETATM    3  C1  UNL     1      22.582 -16.879  29.301  1.00  0.00     0.015 C 
BRANCH   2   4
HETATM    4  C3  UNL     1      23.193 -18.487  27.511  1.00  0.00     0.171 C 
BRANCH   4   5
HETATM    5  O1  UNL     1      24.229 -19.016  26.780  1.00  0.00    -0.400 OA
ATOM      6  H1  UNL     1      23.931 -19.451  25.991  1.00  0.00     0.209 HD
ENDBRANCH   4   5
ENDBRANCH   2   4
ENDBRANCH   1   2
BRANCH   1   7
HETATM    7  O2  UNL     1      24.231 -20.048  29.286  1.00  0.00    -0.391 OA
ATOM      8  H2  UNL     1      24.236 -20.081  28.336  1.00  0.00     0.210 HD
ENDBRANCH   1   7
BRANCH   1   9
HETATM    9  C5  UNL     1      23.232 -18.671  30.959  1.00  0.00     0.001 C 
HETATM   10  C6  UNL     1      22.673 -19.721  31.542  1.00  0.00    -0.023 C 
BRANCH  10  11
HETATM   11  C7  UNL     1      21.784 -19.511  32.707  1.00  0.00     0.017 C 
HETATM   12  C8  UNL     1      21.097 -20.768  33.155  1.00  0.00     0.010 C 
HETATM   13  C9  UNL     1      19.718 -20.942  32.581  1.00  0.00     0.011 C 
HETATM   14  C10 UNL     1      18.723 -20.127  33.409  1.00  0.00     0.074 C 
HETATM   15  S1  UNL     1      19.447 -18.459  33.553  1.00  0.00    -0.168 SA
HETATM   16  C11 UNL     1      20.825 -18.405  32.349  1.00  0.00     0.082 C 
ENDBRANCH  10  11
ENDBRANCH   1   9
TORSDOF 6
ENDMDL
MODEL 5
REMARK VINA RESULT: -5.229599078      1.464      2.361
REMARK  6 active torsions:
REMARK  status: ('A' for Active; 'I' for Inactive)
REMARK    1  A    between atoms: C2_2  and  C3_3 
REMARK    2  A    between atoms: C2_2  and  C4_6 
REMARK    3  A    between atoms: C3_3  and  O1_4 
REMARK    4  A    between atoms: C4_6  and  O2_7 
REMARK    5  A    between atoms: C4_6  and  C5_9 
REMARK    6  A    between atoms: C6_10  and  C7_11 
ROOT
HETATM    1  C4  UNL     1      24.065 -18.603  29.499  1.00  0.00     0.146 C 
ENDROOT
BRANCH   1   2
HETATM    2  C2  UNL     1      23.457 -17.321  28.981  1.00  0.00     0.038 C 
HETATM    3  C1  UNL     1      22.141 -17.016  29.640  1.00  0.00     0.015 C 
BRANCH   2   4
HETATM    4  C3  UNL     1      23.270 -17.423  27.467  1.00  0.00     0.171 C 
BRANCH   4   5
HETATM    5  O1  UNL     1      22.005 -17.833  27.122  1.00  0.00    -0.400 OA
ATOM      6  H1  UNL     1      22.014 -18.572  26.526  1.00  0.00     0.209 HD
ENDBRANCH   4   5
ENDBRANCH   2   4
ENDBRANCH   1   2
BRANCH   1   7
HETATM    7  O2  UNL     1      24.002 -19.639  28.599  1.00  0.00    -0.391 OA
ATOM      8  H2  UNL     1      24.315 -20.464  28.951  1.00  0.00     0.210 HD
ENDBRANCH   1   7
BRANCH   1   9
HETATM    9  C5  UNL     1      23.417 -18.915  30.796  1.00  0.00     0.001 C 
HETATM   10  C6  UNL     1      23.063 -20.138  31.158  1.00  0.00    -0.023 C 
BRANCH  10  11
HETATM   11  C7  UNL     1      22.421 -20.344  32.477  1.00  0.00     0.017 C 
HETATM   12  C8  UNL     1      21.256 -21.288  32.421  1.00  0.00     0.010 C 
HETATM   13  C9  UNL     1      19.926 -20.601  32.276  1.00  0.00     0.011 C 
HETATM   14  C10 UNL     1      19.452 -20.129  33.650  1.00  0.00     0.074 C 
HETATM   15  S1  UNL     1      20.864 -19.235  34.382  1.00  0.00    -0.168 SA
HETATM   16  C11 UNL     1      22.059 -18.985  33.018  1.00  0.00     0.082 C 
ENDBRANCH  10  11
ENDBRANCH   1   9
TORSDOF 6
ENDMDL
