MODEL 1
REMARK VINA RESULT: -6.326846415      0.000      0.000
REMARK  5 active torsions:
REMARK  status: ('A' for Active; 'I' for Inactive)
REMARK    1  A    between atoms: C4_4  and  O1_5 
REMARK    2  A    between atoms: C7_9  and  C8_10 
REMARK    3  A    between atoms: C8_10  and  C9_11 
REMARK    4  A    between atoms: C10_12  and  C11_13 
REMARK    5  A    between atoms: C11_13  and  C12_14 
ROOT
HETATM    1  C12 UNL     1      22.865 -18.037  26.385  1.00  0.00     0.127 C 
HETATM    2  C13 UNL     1      23.920 -18.903  25.859  1.00  0.00     0.059 C 
HETATM    3  N1  UNL     1      24.766 -19.586  25.453  1.00  0.00    -0.197 NA
ENDROOT
BRANCH   1   4
HETATM    4  C11 UNL     1      23.522 -17.065  27.353  1.00  0.00     0.041 C 
BRANCH   4   5
HETATM    5  C10 UNL     1      23.831 -17.854  28.589  1.00  0.00    -0.030 C 
HETATM    6  C9  UNL     1      23.455 -17.475  29.788  1.00  0.00    -0.030 C 
BRANCH   6   7
HETATM    7  C8  UNL     1      23.786 -18.288  30.970  1.00  0.00     0.036 C 
BRANCH   7   8
HETATM    8  C7  UNL     1      22.689 -18.586  31.904  1.00  0.00     0.017 C 
HETATM    9  C2  UNL     1      22.397 -19.987  32.225  1.00  0.00    -0.082 C 
HETATM   10  C1  UNL     1      22.703 -21.077  31.584  1.00  0.00     0.015 C 
HETATM   11  C3  UNL     1      21.571 -20.094  33.514  1.00  0.00     0.065 C 
HETATM   12  C4  UNL     1      20.272 -19.372  33.289  1.00  0.00     0.122 C 
HETATM   13  C5  UNL     1      20.316 -18.117  32.513  1.00  0.00     0.032 C 
HETATM   14  C6  UNL     1      21.359 -18.009  31.429  1.00  0.00     0.012 C 
BRANCH  12  15
HETATM   15  O1  UNL     1      19.339 -20.291  32.761  1.00  0.00    -0.395 OA
ATOM     16  H1  UNL     1      19.569 -20.464  31.856  1.00  0.00     0.210 HD
ENDBRANCH  12  15
ENDBRANCH   7   8
ENDBRANCH   6   7
ENDBRANCH   4   5
ENDBRANCH   1   4
TORSDOF 5
ENDMDL
MODEL 2
REMARK VINA RESULT: -6.123610358      1.834      2.976
REMARK  5 active torsions:
REMARK  status: ('A' for Active; 'I' for Inactive)
REMARK    1  A    between atoms: C4_4  and  O1_5 
REMARK    2  A    between atoms: C7_9  and  C8_10 
REMARK    3  A    between atoms: C8_10  and  C9_11 
REMARK    4  A    between atoms: C10_12  and  C11_13 
REMARK    5  A    between atoms: C11_13  and  C12_14 
ROOT
HETATM    1  C12 UNL     1      22.837 -17.891  25.232  1.00  0.00     0.127 C 
HETATM    2  C13 UNL     1      23.906 -18.879  25.373  1.00  0.00     0.059 C 
HETATM    3  N1  UNL     1      24.745 -19.672  25.494  1.00  0.00    -0.197 NA
ENDROOT
BRANCH   1   4
HETATM    4  C11 UNL     1      21.855 -18.124  26.369  1.00  0.00     0.041 C 
BRANCH   4   5
HETATM    5  C10 UNL     1      22.666 -18.112  27.629  1.00  0.00    -0.030 C 
HETATM    6  C9  UNL     1      22.764 -17.057  28.404  1.00  0.00    -0.030 C 
BRANCH   6   7
HETATM    7  C8  UNL     1      23.576 -17.100  29.631  1.00  0.00     0.036 C 
BRANCH   7   8
HETATM    8  C7  UNL     1      23.867 -18.428  30.193  1.00  0.00     0.017 C 
HETATM    9  C2  UNL     1      22.907 -19.024  31.127  1.00  0.00    -0.082 C 
HETATM   10  C1  UNL     1      21.975 -18.466  31.844  1.00  0.00     0.015 C 
HETATM   11  C3  UNL     1      23.125 -20.539  31.247  1.00  0.00     0.065 C 
HETATM   12  C4  UNL     1      24.513 -20.763  31.777  1.00  0.00     0.122 C 
HETATM   13  C5  UNL     1      25.583 -19.876  31.281  1.00  0.00     0.032 C 
HETATM   14  C6  UNL     1      25.202 -18.459  30.932  1.00  0.00     0.012 C 
BRANCH  12  15
HETATM   15  O1  UNL     1      24.453 -20.786  33.187  1.00  0.00    -0.395 OA
ATOM     16  H1  UNL     1      25.196 -21.281  33.511  1.00  0.00     0.210 HD
ENDBRANCH  12  15
ENDBRANCH   7   8
ENDBRANCH   6   7
ENDBRANCH   4   5
ENDBRANCH   1   4
TORSDOF 5
ENDMDL
MODEL 3
REMARK VINA RESULT: -6.105136026      1.101      1.965
REMARK  5 active torsions:
REMARK  status: ('A' for Active; 'I' for Inactive)
REMARK    1  A    between atoms: C4_4  and  O1_5 
REMARK    2  A    between atoms: C7_9  and  C8_10 
REMARK    3  A    between atoms: C8_10  and  C9_11 
REMARK    4  A    between atoms: C10_12  and  C11_13 
REMARK    5  A    between atoms: C11_13  and  C12_14 
ROOT
HETATM    1  C12 UNL     1      22.868 -17.985  26.645  1.00  0.00     0.127 C 
HETATM    2  C13 UNL     1      23.908 -18.813  26.034  1.00  0.00     0.059 C 
HETATM    3  N1  UNL     1      24.742 -19.467  25.561  1.00  0.00    -0.197 NA
ENDROOT
BRANCH   1   4
HETATM    4  C11 UNL     1      23.531 -17.167  27.743  1.00  0.00     0.041 C 
BRANCH   4   5
HETATM    5  C10 UNL     1      23.658 -18.080  28.924  1.00  0.00    -0.030 C 
HETATM    6  C9  UNL     1      23.417 -17.690  30.154  1.00  0.00    -0.030 C 
BRANCH   6   7
HETATM    7  C8  UNL     1      23.558 -18.630  31.280  1.00  0.00     0.036 C 
BRANCH   7   8
HETATM    8  C7  UNL     1      22.446 -19.563  31.513  1.00  0.00     0.017 C 
HETATM    9  C2  UNL     1      21.631 -19.402  32.722  1.00  0.00    -0.082 C 
HETATM   10  C1  UNL     1      21.896 -18.786  33.837  1.00  0.00     0.015 C 
HETATM   11  C3  UNL     1      20.288 -20.131  32.580  1.00  0.00     0.065 C 
HETATM   12  C4  UNL     1      20.576 -21.593  32.387  1.00  0.00     0.122 C 
HETATM   13  C5  UNL     1      21.732 -21.954  31.542  1.00  0.00     0.032 C 
HETATM   14  C6  UNL     1      22.913 -21.016  31.548  1.00  0.00     0.012 C 
BRANCH  12  15
HETATM   15  O1  UNL     1      20.635 -22.207  33.658  1.00  0.00    -0.395 OA
ATOM     16  H1  UNL     1      20.113 -23.000  33.631  1.00  0.00     0.210 HD
ENDBRANCH  12  15
ENDBRANCH   7   8
ENDBRANCH   6   7
ENDBRANCH   4   5
ENDBRANCH   1   4
TORSDOF 5
ENDMDL
MODEL 4
REMARK VINA RESULT: -5.979658469      1.732      2.570
REMARK  5 active torsions:
REMARK  status: ('A' for Active; 'I' for Inactive)
REMARK    1  A    between atoms: C4_4  and  O1_5 
REMARK    2  A    between atoms: C7_9  and  C8_10 
REMARK    3  A    between atoms: C8_10  and  C9_11 
REMARK    4  A    between atoms: C10_12  and  C11_13 
REMARK    5  A    between atoms: C11_13  and  C12_14 
ROOT
HETATM    1  C12 UNL     1      23.682 -17.289  27.726  1.00  0.00     0.127 C 
HETATM    2  C13 UNL     1      22.561 -17.706  26.883  1.00  0.00     0.059 C 
HETATM    3  N1  UNL     1      21.668 -18.047  26.224  1.00  0.00    -0.197 NA
ENDROOT
BRANCH   1   4
HETATM    4  C11 UNL     1      23.937 -18.410  28.722  1.00  0.00     0.041 C 
BRANCH   4   5
HETATM    5  C10 UNL     1      23.122 -18.082  29.935  1.00  0.00    -0.030 C 
HETATM    6  C9  UNL     1      23.169 -18.793  31.038  1.00  0.00    -0.030 C 
BRANCH   6   7
HETATM    7  C8  UNL     1      22.345 -18.427  32.202  1.00  0.00     0.036 C 
BRANCH   7   8
HETATM    8  C7  UNL     1      21.405 -19.443  32.701  1.00  0.00     0.017 C 
HETATM    9  C2  UNL     1      21.309 -19.665  34.147  1.00  0.00    -0.082 C 
HETATM   10  C1  UNL     1      22.146 -19.372  35.100  1.00  0.00     0.015 C 
HETATM   11  C3  UNL     1      20.006 -20.392  34.505  1.00  0.00     0.065 C 
HETATM   12  C4  UNL     1      20.018 -21.726  33.814  1.00  0.00     0.122 C 
HETATM   13  C5  UNL     1      20.569 -21.779  32.445  1.00  0.00     0.032 C 
HETATM   14  C6  UNL     1      21.685 -20.822  32.111  1.00  0.00     0.012 C 
BRANCH  12  15
HETATM   15  O1  UNL     1      20.632 -22.666  34.671  1.00  0.00    -0.395 OA
ATOM     16  H1  UNL     1      20.450 -22.415  35.569  1.00  0.00     0.210 HD
ENDBRANCH  12  15
ENDBRANCH   7   8
ENDBRANCH   6   7
ENDBRANCH   4   5
ENDBRANCH   1   4
TORSDOF 5
ENDMDL
MODEL 5
REMARK VINA RESULT: -5.787907967      1.117      1.192
REMARK  5 active torsions:
REMARK  status: ('A' for Active; 'I' for Inactive)
REMARK    1  A    between atoms: C4_4  and  O1_5 
REMARK    2  A    between atoms: C7_9  and  C8_10 
REMARK    3  A    between atoms: C8_10  and  C9_11 
REMARK    4  A    between atoms: C10_12  and  C11_13 
REMARK    5  A    between atoms: C11_13  and  C12_14 
ROOT
HETATM    1  C12 UNL     1      23.846 -18.041  26.738  1.00  0.00     0.127 C 
HETATM    2  C13 UNL     1      22.435 -18.030  26.352  1.00  0.00     0.059 C 
HETATM    3  N1  UNL     1      21.313 -18.008  26.053  1.00  0.00    -0.197 NA
ENDROOT
BRANCH   1   4
HETATM    4  C11 UNL     1      24.029 -16.973  27.805  1.00  0.00     0.041 C 
BRANCH   4   5
HETATM    5  C10 UNL     1      24.246 -17.705  29.094  1.00  0.00    -0.030 C 
HETATM    6  C9  UNL     1      23.382 -17.678  30.082  1.00  0.00    -0.030 C 
BRANCH   6   7
HETATM    7  C8  UNL     1      23.645 -18.416  31.329  1.00  0.00     0.036 C 
BRANCH   7   8
HETATM    8  C7  UNL     1      22.481 -18.753  32.163  1.00  0.00     0.017 C 
HETATM    9  C2  UNL     1      22.108 -20.162  32.318  1.00  0.00    -0.082 C 
HETATM   10  C1  UNL     1      22.403 -21.195  31.584  1.00  0.00     0.015 C 
HETATM   11  C3  UNL     1      21.200 -20.359  33.540  1.00  0.00     0.065 C 
HETATM   12  C4  UNL     1      19.951 -19.553  33.320  1.00  0.00     0.122 C 
HETATM   13  C5  UNL     1      20.098 -18.229  32.685  1.00  0.00     0.032 C 
HETATM   14  C6  UNL     1      21.209 -18.063  31.678  1.00  0.00     0.012 C 
BRANCH  12  15
HETATM   15  O1  UNL     1      19.011 -20.364  32.646  1.00  0.00    -0.395 OA
ATOM     16  H1  UNL     1      18.151 -19.977  32.753  1.00  0.00     0.210 HD
ENDBRANCH  12  15
ENDBRANCH   7   8
ENDBRANCH   6   7
ENDBRANCH   4   5
ENDBRANCH   1   4
TORSDOF 5
ENDMDL
