MODEL 1
REMARK VINA RESULT: -5.394752391      0.000      0.000
REMARK  5 active torsions:
REMARK  status: ('A' for Active; 'I' for Inactive)
REMARK    1  A    between atoms: O1_1  and  N1_3 
REMARK    2  A    between atoms: C1_5  and  C2_6 
REMARK    3  A    between atoms: C2_6  and  C3_7 
REMARK    4  A    between atoms: C3_7  and  N2_8 
REMARK    5  A    between atoms: N2_8  and  C4_10 
ROOT
HETATM    1  C4  UNL     1      22.915 -18.452  30.421  1.00  0.00     0.030 C 
HETATM    2  C5  UNL     1      21.630 -18.381  31.279  1.00  0.00     0.035 C 
HETATM    3  C6  UNL     1      21.599 -19.349  32.392  1.00  0.00    -0.012 C 
HETATM    4  C7  UNL     1      22.744 -19.125  33.328  1.00  0.00     0.009 C 
HETATM    5  C8  UNL     1      24.025 -19.193  32.511  1.00  0.00    -0.012 C 
HETATM    6  C9  UNL     1      24.142 -20.614  32.012  1.00  0.00     0.009 C 
HETATM    7  C10 UNL     1      22.978 -20.837  31.067  1.00  0.00    -0.012 C 
HETATM    8  C11 UNL     1      21.672 -20.740  31.782  1.00  0.00     0.009 C 
HETATM    9  C12 UNL     1      23.094 -19.837  29.933  1.00  0.00     0.035 C 
HETATM   10  C13 UNL     1      24.041 -18.182  31.421  1.00  0.00     0.035 C 
ENDROOT
BRANCH   1  11
HETATM   11  N2  UNL     1      22.759 -17.405  29.509  1.00  0.00    -0.393 N 
ATOM     12  H2  UNL     1      22.105 -16.667  29.770  1.00  0.00     0.159 HD
BRANCH  11  13
HETATM   13  C3  UNL     1      23.392 -17.264  28.298  1.00  0.00     0.061 C 
BRANCH  13  14
HETATM   14  C2  UNL     1      22.566 -17.625  27.106  1.00  0.00     0.090 C 
BRANCH  14  15
HETATM   15  C1  UNL     1      23.350 -18.446  26.126  1.00  0.00     0.091 C 
HETATM   16  N1  UNL     1      24.340 -19.166  26.520  1.00  0.00    -0.284 N 
ATOM     17  H1  UNL     1      24.605 -19.187  27.505  1.00  0.00     0.192 HD
BRANCH  16  18
HETATM   18  O1  UNL     1      25.034 -19.904  25.598  1.00  0.00    -0.291 OA
ATOM     19  H1  UNL     1      24.640 -20.696  25.252  1.00  0.00     0.244 HD
ENDBRANCH  16  18
ENDBRANCH  14  15
ENDBRANCH  13  14
ENDBRANCH  11  13
ENDBRANCH   1  11
TORSDOF 5
ENDMDL
MODEL 2
REMARK VINA RESULT: -5.357577862      2.982      3.894
REMARK  5 active torsions:
REMARK  status: ('A' for Active; 'I' for Inactive)
REMARK    1  A    between atoms: O1_1  and  N1_3 
REMARK    2  A    between atoms: C1_5  and  C2_6 
REMARK    3  A    between atoms: C2_6  and  C3_7 
REMARK    4  A    between atoms: C3_7  and  N2_8 
REMARK    5  A    between atoms: N2_8  and  C4_10 
ROOT
HETATM    1  C4  UNL     1      21.588 -19.066  32.408  1.00  0.00     0.030 C 
HETATM    2  C5  UNL     1      20.279 -18.245  32.441  1.00  0.00     0.035 C 
HETATM    3  C6  UNL     1      19.218 -18.841  33.276  1.00  0.00    -0.012 C 
HETATM    4  C7  UNL     1      19.669 -18.977  34.696  1.00  0.00     0.009 C 
HETATM    5  C8  UNL     1      20.957 -19.785  34.694  1.00  0.00    -0.012 C 
HETATM    6  C9  UNL     1      20.593 -21.172  34.219  1.00  0.00     0.009 C 
HETATM    7  C10 UNL     1      20.135 -21.030  32.781  1.00  0.00    -0.012 C 
HETATM    8  C11 UNL     1      18.894 -20.204  32.686  1.00  0.00     0.009 C 
HETATM    9  C12 UNL     1      21.281 -20.447  31.977  1.00  0.00     0.035 C 
HETATM   10  C13 UNL     1      22.015 -19.139  33.875  1.00  0.00     0.035 C 
ENDROOT
BRANCH   1  11
HETATM   11  N2  UNL     1      22.453 -18.274  31.647  1.00  0.00    -0.393 N 
ATOM     12  H2  UNL     1      22.482 -17.280  31.877  1.00  0.00     0.159 HD
BRANCH  11  13
HETATM   13  C3  UNL     1      23.268 -18.691  30.623  1.00  0.00     0.061 C 
BRANCH  13  14
HETATM   14  C2  UNL     1      24.731 -18.489  30.855  1.00  0.00     0.090 C 
BRANCH  14  15
HETATM   15  C1  UNL     1      25.404 -19.770  31.248  1.00  0.00     0.091 C 
HETATM   16  N1  UNL     1      24.764 -20.668  31.909  1.00  0.00    -0.284 N 
ATOM     17  H1  UNL     1      23.790 -20.520  32.175  1.00  0.00     0.192 HD
BRANCH  16  18
HETATM   18  O1  UNL     1      25.409 -21.827  32.251  1.00  0.00    -0.291 OA
ATOM     19  H1  UNL     1      25.172 -22.264  33.061  1.00  0.00     0.244 HD
ENDBRANCH  16  18
ENDBRANCH  14  15
ENDBRANCH  13  14
ENDBRANCH  11  13
ENDBRANCH   1  11
TORSDOF 5
ENDMDL
MODEL 3
REMARK VINA RESULT: -5.279774814      1.722      2.638
REMARK  5 active torsions:
REMARK  status: ('A' for Active; 'I' for Inactive)
REMARK    1  A    between atoms: O1_1  and  N1_3 
REMARK    2  A    between atoms: C1_5  and  C2_6 
REMARK    3  A    between atoms: C2_6  and  C3_7 
REMARK    4  A    between atoms: C3_7  and  N2_8 
REMARK    5  A    between atoms: N2_8  and  C4_10 
ROOT
HETATM    1  C4  UNL     1      22.022 -19.543  32.318  1.00  0.00     0.030 C 
HETATM    2  C5  UNL     1      20.875 -18.511  32.213  1.00  0.00     0.035 C 
HETATM    3  C6  UNL     1      19.706 -18.828  33.056  1.00  0.00    -0.012 C 
HETATM    4  C7  UNL     1      20.089 -18.888  34.501  1.00  0.00     0.009 C 
HETATM    5  C8  UNL     1      21.217 -19.900  34.635  1.00  0.00    -0.012 C 
HETATM    6  C9  UNL     1      20.629 -21.247  34.283  1.00  0.00     0.009 C 
HETATM    7  C10 UNL     1      20.239 -21.180  32.820  1.00  0.00    -0.012 C 
HETATM    8  C11 UNL     1      19.165 -20.169  32.591  1.00  0.00     0.009 C 
HETATM    9  C12 UNL     1      21.490 -20.889  32.013  1.00  0.00     0.035 C 
HETATM   10  C13 UNL     1      22.391 -19.534  33.802  1.00  0.00     0.035 C 
ENDROOT
BRANCH   1  11
HETATM   11  N2  UNL     1      23.031 -18.994  31.521  1.00  0.00    -0.393 N 
ATOM     12  H2  UNL     1      23.678 -18.355  31.983  1.00  0.00     0.159 HD
BRANCH  11  13
HETATM   13  C3  UNL     1      23.243 -19.224  30.184  1.00  0.00     0.061 C 
BRANCH  13  14
HETATM   14  C2  UNL     1      23.128 -18.018  29.308  1.00  0.00     0.090 C 
BRANCH  14  15
HETATM   15  C1  UNL     1      23.469 -18.342  27.884  1.00  0.00     0.091 C 
HETATM   16  N1  UNL     1      24.326 -19.261  27.610  1.00  0.00    -0.284 N 
ATOM     17  H1  UNL     1      24.785 -19.780  28.358  1.00  0.00     0.192 HD
BRANCH  16  18
HETATM   18  O1  UNL     1      24.613 -19.531  26.298  1.00  0.00    -0.291 OA
ATOM     19  H1  UNL     1      24.327 -20.356  25.924  1.00  0.00     0.244 HD
ENDBRANCH  16  18
ENDBRANCH  14  15
ENDBRANCH  13  14
ENDBRANCH  11  13
ENDBRANCH   1  11
TORSDOF 5
ENDMDL
MODEL 4
REMARK VINA RESULT: -5.258297053      0.239      1.847
REMARK  5 active torsions:
REMARK  status: ('A' for Active; 'I' for Inactive)
REMARK    1  A    between atoms: O1_1  and  N1_3 
REMARK    2  A    between atoms: C1_5  and  C2_6 
REMARK    3  A    between atoms: C2_6  and  C3_7 
REMARK    4  A    between atoms: C3_7  and  N2_8 
REMARK    5  A    between atoms: N2_8  and  C4_10 
ROOT
HETATM    1  C4  UNL     1      22.827 -18.366  30.737  1.00  0.00     0.030 C 
HETATM    2  C5  UNL     1      22.945 -19.747  30.051  1.00  0.00     0.035 C 
HETATM    3  C6  UNL     1      22.962 -20.884  30.992  1.00  0.00    -0.012 C 
HETATM    4  C7  UNL     1      21.708 -20.922  31.805  1.00  0.00     0.009 C 
HETATM    5  C8  UNL     1      21.566 -19.575  32.496  1.00  0.00    -0.012 C 
HETATM    6  C9  UNL     1      22.715 -19.469  33.471  1.00  0.00     0.009 C 
HETATM    7  C10 UNL     1      23.983 -19.433  32.643  1.00  0.00    -0.012 C 
HETATM    8  C11 UNL     1      24.176 -20.708  31.890  1.00  0.00     0.009 C 
HETATM    9  C12 UNL     1      23.915 -18.225  31.729  1.00  0.00     0.035 C 
HETATM   10  C13 UNL     1      21.516 -18.455  31.520  1.00  0.00     0.035 C 
ENDROOT
BRANCH   1  11
HETATM   11  N2  UNL     1      22.740 -17.474  29.665  1.00  0.00    -0.393 N 
ATOM     12  H2  UNL     1      22.034 -16.741  29.739  1.00  0.00     0.159 HD
BRANCH  11  13
HETATM   13  C3  UNL     1      23.503 -17.479  28.523  1.00  0.00     0.061 C 
BRANCH  13  14
HETATM   14  C2  UNL     1      22.730 -17.549  27.245  1.00  0.00     0.090 C 
BRANCH  14  15
HETATM   15  C1  UNL     1      23.428 -18.405  26.230  1.00  0.00     0.091 C 
HETATM   16  N1  UNL     1      24.382 -19.191  26.584  1.00  0.00    -0.284 N 
ATOM     17  H1  UNL     1      24.678 -19.240  27.559  1.00  0.00     0.192 HD
BRANCH  16  18
HETATM   18  O1  UNL     1      24.997 -19.960  25.631  1.00  0.00    -0.291 OA
ATOM     19  H1  UNL     1      25.919 -20.168  25.732  1.00  0.00     0.244 HD
ENDBRANCH  16  18
ENDBRANCH  14  15
ENDBRANCH  13  14
ENDBRANCH  11  13
ENDBRANCH   1  11
TORSDOF 5
ENDMDL
MODEL 5
REMARK VINA RESULT: -5.256110715      1.891      3.337
REMARK  5 active torsions:
REMARK  status: ('A' for Active; 'I' for Inactive)
REMARK    1  A    between atoms: O1_1  and  N1_3 
REMARK    2  A    between atoms: C1_5  and  C2_6 
REMARK    3  A    between atoms: C2_6  and  C3_7 
REMARK    4  A    between atoms: C3_7  and  N2_8 
REMARK    5  A    between atoms: N2_8  and  C4_10 
ROOT
HETATM    1  C4  UNL     1      22.043 -19.558  32.686  1.00  0.00     0.030 C 
HETATM    2  C5  UNL     1      21.479 -20.912  32.197  1.00  0.00     0.035 C 
HETATM    3  C6  UNL     1      20.206 -21.297  32.836  1.00  0.00    -0.012 C 
HETATM    4  C7  UNL     1      19.145 -20.276  32.571  1.00  0.00     0.009 C 
HETATM    5  C8  UNL     1      19.672 -18.931  33.046  1.00  0.00    -0.012 C 
HETATM    6  C9  UNL     1      19.815 -19.031  34.547  1.00  0.00     0.009 C 
HETATM    7  C10 UNL     1      20.888 -20.068  34.811  1.00  0.00    -0.012 C 
HETATM    8  C11 UNL     1      20.469 -21.417  34.328  1.00  0.00     0.009 C 
HETATM    9  C12 UNL     1      22.172 -19.593  34.159  1.00  0.00     0.035 C 
HETATM   10  C13 UNL     1      20.935 -18.557  32.357  1.00  0.00     0.035 C 
ENDROOT
BRANCH   1  11
HETATM   11  N2  UNL     1      23.177 -19.369  31.891  1.00  0.00    -0.393 N 
ATOM     12  H2  UNL     1      24.071 -19.310  32.379  1.00  0.00     0.159 HD
BRANCH  11  13
HETATM   13  C3  UNL     1      23.215 -19.253  30.522  1.00  0.00     0.061 C 
BRANCH  13  14
HETATM   14  C2  UNL     1      23.652 -17.917  30.012  1.00  0.00     0.090 C 
BRANCH  14  15
HETATM   15  C1  UNL     1      24.031 -17.983  28.563  1.00  0.00     0.091 C 
HETATM   16  N1  UNL     1      23.937 -19.088  27.912  1.00  0.00    -0.284 N 
ATOM     17  H1  UNL     1      23.604 -19.934  28.374  1.00  0.00     0.192 HD
BRANCH  16  18
HETATM   18  O1  UNL     1      24.291 -19.112  26.589  1.00  0.00    -0.291 OA
ATOM     19  H1  UNL     1      24.626 -19.919  26.217  1.00  0.00     0.244 HD
ENDBRANCH  16  18
ENDBRANCH  14  15
ENDBRANCH  13  14
ENDBRANCH  11  13
ENDBRANCH   1  11
TORSDOF 5
ENDMDL
