MODEL 1
REMARK VINA RESULT: -5.402378880      0.000      0.000
REMARK  5 active torsions:
REMARK  status: ('A' for Active; 'I' for Inactive)
REMARK    1  A    between atoms: C2_2  and  S1_3 
REMARK    2  A    between atoms: S1_3  and  C3_4 
REMARK    3  A    between atoms: C3_4  and  C4_5 
REMARK    4  A    between atoms: C10_11  and  C11_12 
REMARK    5  A    between atoms: C11_12  and  O1_13 
ROOT
HETATM    1  C4  UNL     1      23.613 -18.524  30.024  1.00  0.00     0.086 C 
HETATM    2  C5  UNL     1      22.294 -17.890  30.384  1.00  0.00     0.025 C 
HETATM    3  C6  UNL     1      22.115 -17.698  31.869  1.00  0.00     0.002 C 
HETATM    4  C7  UNL     1      21.146 -18.739  32.344  1.00  0.00     0.000 C 
HETATM    5  C8  UNL     1      21.931 -19.970  32.758  1.00  0.00     0.002 C 
HETATM    6  C9  UNL     1      22.220 -20.900  31.635  1.00  0.00     0.027 C 
HETATM    7  C10 UNL     1      23.565 -20.751  30.990  1.00  0.00     0.100 C 
HETATM    8  N1  UNL     1      23.521 -19.943  29.806  1.00  0.00    -0.410 N 
ATOM      9  H1  UNL     1      23.430 -20.345  28.873  1.00  0.00     0.154 HD
ENDROOT
BRANCH   1  10
HETATM   10  C3  UNL     1      24.052 -17.960  28.675  1.00  0.00     0.098 C 
BRANCH  10  11
HETATM   11  S1  UNL     1      22.685 -17.691  27.548  1.00  0.00    -0.167 SA
BRANCH  11  12
HETATM   12  C2  UNL     1      23.108 -18.380  25.914  1.00  0.00     0.069 C 
HETATM   13  C1  UNL     1      24.482 -19.034  25.995  1.00  0.00     0.016 C 
ENDBRANCH  11  12
ENDBRANCH  10  11
ENDBRANCH   1  10
BRANCH   7  14
HETATM   14  C11 UNL     1      24.679 -20.433  31.932  1.00  0.00     0.188 C 
BRANCH  14  15
HETATM   15  O1  UNL     1      25.327 -21.609  32.284  1.00  0.00    -0.399 OA
ATOM     16  H1  UNL     1      25.859 -21.902  31.554  1.00  0.00     0.209 HD
ENDBRANCH  14  15
ENDBRANCH   7  14
TORSDOF 5
ENDMDL
MODEL 2
REMARK VINA RESULT: -4.792720278      2.590      4.531
REMARK  5 active torsions:
REMARK  status: ('A' for Active; 'I' for Inactive)
REMARK    1  A    between atoms: C2_2  and  S1_3 
REMARK    2  A    between atoms: S1_3  and  C3_4 
REMARK    3  A    between atoms: C3_4  and  C4_5 
REMARK    4  A    between atoms: C10_11  and  C11_12 
REMARK    5  A    between atoms: C11_12  and  O1_13 
ROOT
HETATM    1  C4  UNL     1      21.584 -17.970  31.056  1.00  0.00     0.086 C 
HETATM    2  C5  UNL     1      21.961 -16.891  30.074  1.00  0.00     0.025 C 
HETATM    3  C6  UNL     1      22.455 -17.435  28.757  1.00  0.00     0.002 C 
HETATM    4  C7  UNL     1      23.943 -17.255  28.724  1.00  0.00     0.000 C 
HETATM    5  C8  UNL     1      24.589 -18.502  29.300  1.00  0.00     0.002 C 
HETATM    6  C9  UNL     1      24.721 -18.477  30.780  1.00  0.00     0.027 C 
HETATM    7  C10 UNL     1      23.637 -19.169  31.548  1.00  0.00     0.100 C 
HETATM    8  N1  UNL     1      22.623 -18.264  32.006  1.00  0.00    -0.410 N 
ATOM      9  H1  UNL     1      22.637 -17.856  32.941  1.00  0.00     0.154 HD
ENDROOT
BRANCH   1  10
HETATM   10  C3  UNL     1      20.428 -17.447  31.905  1.00  0.00     0.098 C 
BRANCH  10  11
HETATM   11  S1  UNL     1      19.414 -16.244  31.048  1.00  0.00    -0.167 SA
BRANCH  11  12
HETATM   12  C2  UNL     1      19.369 -14.698  32.012  1.00  0.00     0.069 C 
HETATM   13  C1  UNL     1      19.716 -13.533  31.093  1.00  0.00     0.016 C 
ENDBRANCH  11  12
ENDBRANCH  10  11
ENDBRANCH   1  10
BRANCH   7  14
HETATM   14  C11 UNL     1      23.127 -20.424  30.919  1.00  0.00     0.188 C 
BRANCH  14  15
HETATM   15  O1  UNL     1      22.840 -21.348  31.914  1.00  0.00    -0.399 OA
ATOM     16  H1  UNL     1      22.661 -22.191  31.514  1.00  0.00     0.209 HD
ENDBRANCH  14  15
ENDBRANCH   7  14
TORSDOF 5
ENDMDL
MODEL 3
REMARK VINA RESULT: -4.362093087      2.573      4.602
REMARK  5 active torsions:
REMARK  status: ('A' for Active; 'I' for Inactive)
REMARK    1  A    between atoms: C2_2  and  S1_3 
REMARK    2  A    between atoms: S1_3  and  C3_4 
REMARK    3  A    between atoms: C3_4  and  C4_5 
REMARK    4  A    between atoms: C10_11  and  C11_12 
REMARK    5  A    between atoms: C11_12  and  O1_13 
ROOT
HETATM    1  C4  UNL     1      21.589 -18.023  31.131  1.00  0.00     0.086 C 
HETATM    2  C5  UNL     1      21.903 -16.913  30.162  1.00  0.00     0.025 C 
HETATM    3  C6  UNL     1      22.398 -17.413  28.829  1.00  0.00     0.002 C 
HETATM    4  C7  UNL     1      23.876 -17.168  28.775  1.00  0.00     0.000 C 
HETATM    5  C8  UNL     1      24.584 -18.396  29.319  1.00  0.00     0.002 C 
HETATM    6  C9  UNL     1      24.740 -18.389  30.797  1.00  0.00     0.027 C 
HETATM    7  C10 UNL     1      23.700 -19.141  31.570  1.00  0.00     0.100 C 
HETATM    8  N1  UNL     1      22.655 -18.287  32.059  1.00  0.00    -0.410 N 
ATOM      9  H1  UNL     1      22.667 -17.895  33.001  1.00  0.00     0.154 HD
ENDROOT
BRANCH   1  10
HETATM   10  C3  UNL     1      20.426 -17.565  32.007  1.00  0.00     0.098 C 
BRANCH  10  11
HETATM   11  S1  UNL     1      20.000 -18.748  33.285  1.00  0.00    -0.167 SA
BRANCH  11  12
HETATM   12  C2  UNL     1      18.897 -20.019  32.585  1.00  0.00     0.069 C 
HETATM   13  C1  UNL     1      19.623 -21.359  32.590  1.00  0.00     0.016 C 
ENDBRANCH  11  12
ENDBRANCH  10  11
ENDBRANCH   1  10
BRANCH   7  14
HETATM   14  C11 UNL     1      23.233 -20.405  30.927  1.00  0.00     0.188 C 
BRANCH  14  15
HETATM   15  O1  UNL     1      23.056 -21.374  31.905  1.00  0.00    -0.399 OA
ATOM     16  H1  UNL     1      23.260 -21.000  32.755  1.00  0.00     0.209 HD
ENDBRANCH  14  15
ENDBRANCH   7  14
TORSDOF 5
ENDMDL
MODEL 4
REMARK VINA RESULT: -4.343169237      2.746      4.492
REMARK  5 active torsions:
REMARK  status: ('A' for Active; 'I' for Inactive)
REMARK    1  A    between atoms: C2_2  and  S1_3 
REMARK    2  A    between atoms: S1_3  and  C3_4 
REMARK    3  A    between atoms: C3_4  and  C4_5 
REMARK    4  A    between atoms: C10_11  and  C11_12 
REMARK    5  A    between atoms: C11_12  and  O1_13 
ROOT
HETATM    1  C4  UNL     1      21.279 -18.308  31.711  1.00  0.00     0.086 C 
HETATM    2  C5  UNL     1      22.252 -17.506  30.887  1.00  0.00     0.025 C 
HETATM    3  C6  UNL     1      22.830 -18.282  29.731  1.00  0.00     0.002 C 
HETATM    4  C7  UNL     1      24.241 -18.642  30.089  1.00  0.00     0.000 C 
HETATM    5  C8  UNL     1      24.228 -19.993  30.783  1.00  0.00     0.002 C 
HETATM    6  C9  UNL     1      23.986 -19.909  32.247  1.00  0.00     0.027 C 
HETATM    7  C10 UNL     1      22.570 -20.117  32.690  1.00  0.00     0.100 C 
HETATM    8  N1  UNL     1      21.870 -18.881  32.891  1.00  0.00    -0.410 N 
ATOM      9  H1  UNL     1      21.795 -18.439  33.807  1.00  0.00     0.154 HD
ENDROOT
BRANCH   1  10
HETATM   10  C3  UNL     1      20.216 -17.352  32.244  1.00  0.00     0.098 C 
BRANCH  10  11
HETATM   11  S1  UNL     1      19.671 -16.157  31.026  1.00  0.00    -0.167 SA
BRANCH  11  12
HETATM   12  C2  UNL     1      19.253 -14.591  31.861  1.00  0.00     0.069 C 
HETATM   13  C1  UNL     1      19.810 -13.432  31.043  1.00  0.00     0.016 C 
ENDBRANCH  11  12
ENDBRANCH  10  11
ENDBRANCH   1  10
BRANCH   7  14
HETATM   14  C11 UNL     1      21.818 -21.152  31.921  1.00  0.00     0.188 C 
BRANCH  14  15
HETATM   15  O1  UNL     1      21.010 -21.870  32.792  1.00  0.00    -0.399 OA
ATOM     16  H1  UNL     1      20.239 -21.355  32.997  1.00  0.00     0.209 HD
ENDBRANCH  14  15
ENDBRANCH   7  14
TORSDOF 5
ENDMDL
MODEL 5
REMARK VINA RESULT: -4.335991314      2.101      2.649
REMARK  5 active torsions:
REMARK  status: ('A' for Active; 'I' for Inactive)
REMARK    1  A    between atoms: C2_2  and  S1_3 
REMARK    2  A    between atoms: S1_3  and  C3_4 
REMARK    3  A    between atoms: C3_4  and  C4_5 
REMARK    4  A    between atoms: C10_11  and  C11_12 
REMARK    5  A    between atoms: C11_12  and  O1_13 
ROOT
HETATM    1  C4  UNL     1      22.542 -18.454  31.895  1.00  0.00     0.086 C 
HETATM    2  C5  UNL     1      21.328 -17.916  31.183  1.00  0.00     0.025 C 
HETATM    3  C6  UNL     1      20.301 -17.336  32.122  1.00  0.00     0.002 C 
HETATM    4  C7  UNL     1      19.166 -18.313  32.209  1.00  0.00     0.000 C 
HETATM    5  C8  UNL     1      19.444 -19.266  33.357  1.00  0.00     0.002 C 
HETATM    6  C9  UNL     1      20.284 -20.431  32.975  1.00  0.00     0.027 C 
HETATM    7  C10 UNL     1      21.750 -20.303  33.255  1.00  0.00     0.100 C 
HETATM    8  N1  UNL     1      22.494 -19.876  32.105  1.00  0.00    -0.410 N 
ATOM      9  H1  UNL     1      22.958 -20.535  31.480  1.00  0.00     0.154 HD
ENDROOT
BRANCH   1  10
HETATM   10  C3  UNL     1      23.750 -18.245  30.985  1.00  0.00     0.098 C 
BRANCH  10  11
HETATM   11  S1  UNL     1      23.495 -18.867  29.324  1.00  0.00    -0.167 SA
BRANCH  11  12
HETATM   12  C2  UNL     1      23.494 -17.472  28.151  1.00  0.00     0.069 C 
HETATM   13  C1  UNL     1      22.577 -17.811  26.982  1.00  0.00     0.016 C 
ENDBRANCH  11  12
ENDBRANCH  10  11
ENDBRANCH   1  10
BRANCH   7  14
HETATM   14  C11 UNL     1      22.086 -19.592  34.525  1.00  0.00     0.188 C 
BRANCH  14  15
HETATM   15  O1  UNL     1      22.447 -20.526  35.486  1.00  0.00    -0.399 OA
ATOM     16  H1  UNL     1      21.730 -21.135  35.615  1.00  0.00     0.209 HD
ENDBRANCH  14  15
ENDBRANCH   7  14
TORSDOF 5
ENDMDL
