MODEL 1
REMARK VINA RESULT: -5.456629042      0.000      0.000
REMARK  4 active torsions:
REMARK  status: ('A' for Active; 'I' for Inactive)
REMARK    1  A    between atoms: C2_2  and  C3_3 
REMARK    2  A    between atoms: C2_2  and  C4_5 
REMARK    3  A    between atoms: C4_5  and  C7_8 
REMARK    4  A    between atoms: C7_8  and  C8_9 
ROOT
HETATM    1  C8  UNL     1      23.319 -18.647  30.167  1.00  0.00     0.022 C 
HETATM    2  N1  UNL     1      23.778 -19.438  29.289  1.00  0.00    -0.309 N 
ATOM      3  H1  UNL     1      24.196 -20.324  29.576  1.00  0.00     0.186 HD
HETATM    4  N2  UNL     1      23.718 -19.114  27.937  1.00  0.00    -0.336 N 
ATOM      5  H2  UNL     1      23.482 -19.837  27.257  1.00  0.00     0.180 HD
HETATM    6  C9  UNL     1      23.986 -17.763  27.480  1.00  0.00     0.139 C 
HETATM    7  C10 UNL     1      23.754 -16.792  28.613  1.00  0.00     0.027 C 
HETATM    8  C11 UNL     1      22.702 -17.408  29.528  1.00  0.00     0.060 C 
ENDROOT
BRANCH   1   9
HETATM    9  C7  UNL     1      23.265 -18.756  31.611  1.00  0.00     0.009 C 
BRANCH   9  10
HETATM   10  C4  UNL     1      22.159 -19.407  32.321  1.00  0.00    -0.024 C 
HETATM   11  C5  UNL     1      22.422 -19.570  33.818  1.00  0.00     0.019 C 
HETATM   12  C6  UNL     1      22.278 -20.915  31.866  1.00  0.00     0.019 C 
BRANCH  10  13
HETATM   13  C2  UNL     1      20.756 -19.077  32.021  1.00  0.00     0.003 C 
HETATM   14  C1  UNL     1      20.272 -17.684  32.291  1.00  0.00     0.012 C 
BRANCH  13  15
HETATM   15  C3  UNL     1      19.752 -20.002  32.694  1.00  0.00     0.091 C 
HETATM   16  S1  UNL     1      18.044 -19.383  32.386  1.00  0.00    -0.097 SA
ENDBRANCH  13  15
ENDBRANCH  10  13
ENDBRANCH   9  10
ENDBRANCH   1   9
TORSDOF 4
ENDMDL
MODEL 2
REMARK VINA RESULT: -5.435786396      1.598      2.725
REMARK  4 active torsions:
REMARK  status: ('A' for Active; 'I' for Inactive)
REMARK    1  A    between atoms: C2_2  and  C3_3 
REMARK    2  A    between atoms: C2_2  and  C4_5 
REMARK    3  A    between atoms: C4_5  and  C7_8 
REMARK    4  A    between atoms: C7_8  and  C8_9 
ROOT
HETATM    1  C8  UNL     1      23.038 -17.500  28.284  1.00  0.00     0.022 C 
HETATM    2  N1  UNL     1      22.031 -17.723  27.546  1.00  0.00    -0.309 N 
ATOM      3  H1  UNL     1      21.100 -17.763  27.962  1.00  0.00     0.186 HD
HETATM    4  N2  UNL     1      22.181 -17.913  26.176  1.00  0.00    -0.336 N 
ATOM      5  H2  UNL     1      21.504 -17.497  25.534  1.00  0.00     0.180 HD
HETATM    6  C9  UNL     1      23.283 -18.693  25.645  1.00  0.00     0.139 C 
HETATM    7  C10 UNL     1      24.410 -18.721  26.649  1.00  0.00     0.027 C 
HETATM    8  C11 UNL     1      24.322 -17.436  27.464  1.00  0.00     0.060 C 
ENDROOT
BRANCH   1   9
HETATM    9  C7  UNL     1      23.140 -17.273  29.711  1.00  0.00     0.009 C 
BRANCH   9  10
HETATM   10  C4  UNL     1      23.531 -18.321  30.659  1.00  0.00    -0.024 C 
HETATM   11  C5  UNL     1      25.047 -18.463  30.803  1.00  0.00     0.019 C 
HETATM   12  C6  UNL     1      23.215 -19.653  29.873  1.00  0.00     0.019 C 
BRANCH  10  13
HETATM   13  C2  UNL     1      22.818 -18.507  31.933  1.00  0.00     0.003 C 
HETATM   14  C1  UNL     1      22.869 -19.851  32.596  1.00  0.00     0.012 C 
BRANCH  13  15
HETATM   15  C3  UNL     1      21.343 -18.133  31.870  1.00  0.00     0.091 C 
HETATM   16  S1  UNL     1      20.341 -19.444  32.689  1.00  0.00    -0.097 SA
ENDBRANCH  13  15
ENDBRANCH  10  13
ENDBRANCH   9  10
ENDBRANCH   1   9
TORSDOF 4
ENDMDL
MODEL 3
REMARK VINA RESULT: -5.183809979      1.148      1.278
REMARK  4 active torsions:
REMARK  status: ('A' for Active; 'I' for Inactive)
REMARK    1  A    between atoms: C2_2  and  C3_3 
REMARK    2  A    between atoms: C2_2  and  C4_5 
REMARK    3  A    between atoms: C4_5  and  C7_8 
REMARK    4  A    between atoms: C7_8  and  C8_9 
ROOT
HETATM    1  C8  UNL     1      23.236 -18.493  30.197  1.00  0.00     0.022 C 
HETATM    2  N1  UNL     1      23.713 -19.369  29.414  1.00  0.00    -0.309 N 
ATOM      3  H1  UNL     1      24.102 -20.230  29.799  1.00  0.00     0.186 HD
HETATM    4  N2  UNL     1      23.712 -19.170  28.037  1.00  0.00    -0.336 N 
ATOM      5  H2  UNL     1      23.488 -19.950  27.417  1.00  0.00     0.180 HD
HETATM    6  C9  UNL     1      24.024 -17.872  27.469  1.00  0.00     0.139 C 
HETATM    7  C10 UNL     1      23.767 -16.797  28.497  1.00  0.00     0.027 C 
HETATM    8  C11 UNL     1      22.668 -17.308  29.421  1.00  0.00     0.060 C 
ENDROOT
BRANCH   1   9
HETATM    9  C7  UNL     1      23.123 -18.466  31.641  1.00  0.00     0.009 C 
BRANCH   9  10
HETATM   10  C4  UNL     1      22.465 -19.528  32.409  1.00  0.00    -0.024 C 
HETATM   11  C5  UNL     1      22.535 -19.305  33.920  1.00  0.00     0.019 C 
HETATM   12  C6  UNL     1      23.465 -20.742  32.274  1.00  0.00     0.019 C 
BRANCH  10  13
HETATM   13  C2  UNL     1      21.180 -20.102  31.976  1.00  0.00     0.003 C 
HETATM   14  C1  UNL     1      19.913 -19.547  32.553  1.00  0.00     0.012 C 
BRANCH  13  15
HETATM   15  C3  UNL     1      21.091 -21.611  32.160  1.00  0.00     0.091 C 
HETATM   16  S1  UNL     1      19.849 -22.000  33.464  1.00  0.00    -0.097 SA
ENDBRANCH  13  15
ENDBRANCH  10  13
ENDBRANCH   9  10
ENDBRANCH   1   9
TORSDOF 4
ENDMDL
MODEL 4
REMARK VINA RESULT: -5.173655471      1.166      1.741
REMARK  4 active torsions:
REMARK  status: ('A' for Active; 'I' for Inactive)
REMARK    1  A    between atoms: C2_2  and  C3_3 
REMARK    2  A    between atoms: C2_2  and  C4_5 
REMARK    3  A    between atoms: C4_5  and  C7_8 
REMARK    4  A    between atoms: C7_8  and  C8_9 
ROOT
HETATM    1  C8  UNL     1      23.891 -18.542  29.403  1.00  0.00     0.022 C 
HETATM    2  N1  UNL     1      24.002 -19.275  28.375  1.00  0.00    -0.309 N 
ATOM      3  H1  UNL     1      24.480 -20.174  28.446  1.00  0.00     0.186 HD
HETATM    4  N2  UNL     1      23.479 -18.870  27.151  1.00  0.00    -0.336 N 
ATOM      5  H2  UNL     1      23.010 -19.552  26.555  1.00  0.00     0.180 HD
HETATM    6  C9  UNL     1      23.592 -17.492  26.709  1.00  0.00     0.139 C 
HETATM    7  C10 UNL     1      23.785 -16.593  27.907  1.00  0.00     0.027 C 
HETATM    8  C11 UNL     1      23.108 -17.269  29.093  1.00  0.00     0.060 C 
ENDROOT
BRANCH   1   9
HETATM    9  C7  UNL     1      24.342 -18.738  30.766  1.00  0.00     0.009 C 
BRANCH   9  10
HETATM   10  C4  UNL     1      23.608 -19.554  31.739  1.00  0.00    -0.024 C 
HETATM   11  C5  UNL     1      24.466 -20.657  32.362  1.00  0.00     0.019 C 
HETATM   12  C6  UNL     1      22.664 -20.435  30.830  1.00  0.00     0.019 C 
BRANCH  10  13
HETATM   13  C2  UNL     1      22.675 -18.946  32.700  1.00  0.00     0.003 C 
HETATM   14  C1  UNL     1      22.310 -19.717  33.934  1.00  0.00     0.012 C 
BRANCH  13  15
HETATM   15  C3  UNL     1      21.354 -18.510  32.081  1.00  0.00     0.091 C 
HETATM   16  S1  UNL     1      19.967 -18.967  33.203  1.00  0.00    -0.097 SA
ENDBRANCH  13  15
ENDBRANCH  10  13
ENDBRANCH   9  10
ENDBRANCH   1   9
TORSDOF 4
ENDMDL
MODEL 5
REMARK VINA RESULT: -5.101083161      1.946      2.338
REMARK  4 active torsions:
REMARK  status: ('A' for Active; 'I' for Inactive)
REMARK    1  A    between atoms: C2_2  and  C3_3 
REMARK    2  A    between atoms: C2_2  and  C4_5 
REMARK    3  A    between atoms: C4_5  and  C7_8 
REMARK    4  A    between atoms: C7_8  and  C8_9 
ROOT
HETATM    1  C8  UNL     1      23.341 -20.452  31.530  1.00  0.00     0.022 C 
HETATM    2  N1  UNL     1      24.524 -20.650  31.941  1.00  0.00    -0.309 N 
ATOM      3  H1  UNL     1      24.690 -21.305  32.705  1.00  0.00     0.186 HD
HETATM    4  N2  UNL     1      25.600 -19.983  31.363  1.00  0.00    -0.336 N 
ATOM      5  H2  UNL     1      26.471 -20.486  31.195  1.00  0.00     0.180 HD
HETATM    6  C9  UNL     1      25.501 -18.582  30.996  1.00  0.00     0.139 C 
HETATM    7  C10 UNL     1      24.050 -18.213  30.801  1.00  0.00     0.027 C 
HETATM    8  C11 UNL     1      23.318 -19.475  30.359  1.00  0.00     0.060 C 
ENDROOT
BRANCH   1   9
HETATM    9  C7  UNL     1      22.078 -21.015  31.960  1.00  0.00     0.009 C 
BRANCH   9  10
HETATM   10  C4  UNL     1      21.171 -20.325  32.884  1.00  0.00    -0.024 C 
HETATM   11  C5  UNL     1      21.874 -19.813  34.141  1.00  0.00     0.019 C 
HETATM   12  C6  UNL     1      20.332 -21.506  33.513  1.00  0.00     0.019 C 
BRANCH  10  13
HETATM   13  C2  UNL     1      20.134 -19.402  32.393  1.00  0.00     0.003 C 
HETATM   14  C1  UNL     1      20.468 -17.945  32.271  1.00  0.00     0.012 C 
BRANCH  13  15
HETATM   15  C3  UNL     1      18.835 -19.463  33.185  1.00  0.00     0.091 C 
HETATM   16  S1  UNL     1      17.412 -19.160  32.055  1.00  0.00    -0.097 SA
ENDBRANCH  13  15
ENDBRANCH  10  13
ENDBRANCH   9  10
ENDBRANCH   1   9
TORSDOF 4
ENDMDL
