MODEL 1
REMARK VINA RESULT: -7.776765676      0.000      0.000
REMARK  3 active torsions:
REMARK  status: ('A' for Active; 'I' for Inactive)
REMARK    1  A    between atoms: C2_2  and  C4_4 
REMARK    2  A    between atoms: C4_4  and  C5_5 
REMARK    3  A    between atoms: C13_14  and  O2_15 
ROOT
HETATM    1  C4  UNL     1     -26.758  18.600 -20.945  1.00  0.00    -0.018 C 
HETATM    2  C7  UNL     1     -26.383  19.464 -19.777  1.00  0.00     0.019 C 
HETATM    3  C8  UNL     1     -27.480  20.206 -19.110  1.00  0.00     0.070 C 
HETATM    4  C9  UNL     1     -28.582  19.530 -18.464  1.00  0.00     0.177 C 
HETATM    5  O1  UNL     1     -28.697  19.772 -17.073  1.00  0.00    -0.319 OA
HETATM    6  C10 UNL     1     -30.038  19.992 -17.247  1.00  0.00     0.170 C 
HETATM    7  C11 UNL     1     -30.652  21.113 -16.449  1.00  0.00     0.079 C 
HETATM    8  C12 UNL     1     -30.752  18.679 -17.188  1.00  0.00     0.100 C 
HETATM    9  C13 UNL     1     -29.779  17.581 -17.643  1.00  0.00     0.133 C 
HETATM   10  C14 UNL     1     -28.907  18.134 -18.757  1.00  0.00     0.081 C 
HETATM   11  C15 UNL     1     -27.752  17.235 -19.056  1.00  0.00    -0.006 C 
HETATM   12  C16 UNL     1     -28.041  15.773 -18.780  1.00  0.00     0.010 C 
HETATM   13  C17 UNL     1     -27.474  17.329 -20.537  1.00  0.00     0.019 C 
HETATM   14  O3  UNL     1     -29.781  20.282 -18.580  1.00  0.00    -0.319 OA
ENDROOT
BRANCH   1  15
HETATM   15  C2  UNL     1     -25.491  18.143 -21.569  1.00  0.00    -0.084 C 
HETATM   16  C1  UNL     1     -25.398  17.209 -22.511  1.00  0.00     0.015 C 
HETATM   17  C3  UNL     1     -24.157  18.731 -21.168  1.00  0.00     0.043 C 
ENDBRANCH   1  15
BRANCH   1  18
HETATM   18  C5  UNL     1     -27.538  19.416 -21.910  1.00  0.00     0.009 C 
HETATM   19  C6  UNL     1     -26.862  20.483 -22.667  1.00  0.00     0.006 C 
ENDBRANCH   1  18
BRANCH   9  20
HETATM   20  O2  UNL     1     -28.998  17.117 -16.617  1.00  0.00    -0.395 OA
ATOM     21  H2  UNL     1     -28.598  16.278 -16.816  1.00  0.00     0.210 HD
ENDBRANCH   9  20
TORSDOF 3
ENDMDL
MODEL 2
REMARK VINA RESULT: -7.772761958      3.627      5.319
REMARK  3 active torsions:
REMARK  status: ('A' for Active; 'I' for Inactive)
REMARK    1  A    between atoms: C2_2  and  C4_4 
REMARK    2  A    between atoms: C4_4  and  C5_5 
REMARK    3  A    between atoms: C13_14  and  O2_15 
ROOT
HETATM    1  C4  UNL     1     -26.842  18.783 -21.966  1.00  0.00    -0.018 C 
HETATM    2  C7  UNL     1     -27.433  19.052 -23.318  1.00  0.00     0.019 C 
HETATM    3  C8  UNL     1     -27.971  17.886 -24.060  1.00  0.00     0.070 C 
HETATM    4  C9  UNL     1     -29.071  17.096 -23.556  1.00  0.00     0.177 C 
HETATM    5  O1  UNL     1     -30.227  17.093 -24.376  1.00  0.00    -0.319 OA
HETATM    6  C10 UNL     1     -30.291  15.730 -24.236  1.00  0.00     0.170 C 
HETATM    7  C11 UNL     1     -30.678  14.940 -25.459  1.00  0.00     0.079 C 
HETATM    8  C12 UNL     1     -31.045  15.411 -22.984  1.00  0.00     0.100 C 
HETATM    9  C13 UNL     1     -30.869  16.581 -22.005  1.00  0.00     0.133 C 
HETATM   10  C14 UNL     1     -29.458  17.126 -22.146  1.00  0.00     0.081 C 
HETATM   11  C15 UNL     1     -29.297  18.436 -21.444  1.00  0.00    -0.006 C 
HETATM   12  C16 UNL     1     -30.205  18.588 -20.241  1.00  0.00     0.010 C 
HETATM   13  C17 UNL     1     -27.887  18.493 -20.908  1.00  0.00     0.019 C 
HETATM   14  O3  UNL     1     -28.937  15.734 -23.934  1.00  0.00    -0.319 OA
ENDROOT
BRANCH   1  15
HETATM   15  C2  UNL     1     -26.186  20.040 -21.522  1.00  0.00    -0.084 C 
HETATM   16  C1  UNL     1     -25.566  20.899 -22.324  1.00  0.00     0.015 C 
HETATM   17  C3  UNL     1     -26.178  20.454 -20.068  1.00  0.00     0.043 C 
ENDBRANCH   1  15
BRANCH   1  18
HETATM   18  C5  UNL     1     -25.835  17.699 -22.093  1.00  0.00     0.009 C 
HETATM   19  C6  UNL     1     -24.541  17.829 -21.401  1.00  0.00     0.006 C 
ENDBRANCH   1  18
BRANCH   9  20
HETATM   20  O2  UNL     1     -31.785  17.578 -22.212  1.00  0.00    -0.395 OA
ATOM     21  H2  UNL     1     -32.674  17.297 -22.029  1.00  0.00     0.210 HD
ENDBRANCH   9  20
TORSDOF 3
ENDMDL
MODEL 3
REMARK VINA RESULT: -7.625996004      5.350      6.620
REMARK  3 active torsions:
REMARK  status: ('A' for Active; 'I' for Inactive)
REMARK    1  A    between atoms: C2_2  and  C4_4 
REMARK    2  A    between atoms: C4_4  and  C5_5 
REMARK    3  A    between atoms: C13_14  and  O2_15 
ROOT
HETATM    1  C4  UNL     1     -29.662  17.311 -21.942  1.00  0.00    -0.018 C 
HETATM    2  C7  UNL     1     -29.787  16.022 -21.184  1.00  0.00     0.019 C 
HETATM    3  C8  UNL     1     -31.122  15.375 -21.175  1.00  0.00     0.070 C 
HETATM    4  C9  UNL     1     -31.759  14.914 -22.387  1.00  0.00     0.177 C 
HETATM    5  O1  UNL     1     -32.009  13.520 -22.436  1.00  0.00    -0.319 OA
HETATM    6  C10 UNL     1     -33.280  13.788 -22.874  1.00  0.00     0.170 C 
HETATM    7  C11 UNL     1     -34.384  12.925 -22.322  1.00  0.00     0.079 C 
HETATM    8  C12 UNL     1     -33.253  13.946 -24.361  1.00  0.00     0.100 C 
HETATM    9  C13 UNL     1     -31.854  14.435 -24.767  1.00  0.00     0.133 C 
HETATM   10  C14 UNL     1     -31.346  15.395 -23.705  1.00  0.00     0.081 C 
HETATM   11  C15 UNL     1     -29.891  15.690 -23.875  1.00  0.00    -0.006 C 
HETATM   12  C16 UNL     1     -29.427  15.612 -25.316  1.00  0.00     0.010 C 
HETATM   13  C17 UNL     1     -29.664  17.119 -23.444  1.00  0.00     0.019 C 
HETATM   14  O3  UNL     1     -33.170  15.050 -22.305  1.00  0.00    -0.319 OA
ENDROOT
BRANCH   1  15
HETATM   15  C2  UNL     1     -28.321  17.867 -21.629  1.00  0.00    -0.084 C 
HETATM   16  C1  UNL     1     -27.789  18.942 -22.201  1.00  0.00     0.015 C 
HETATM   17  C3  UNL     1     -27.424  17.227 -20.592  1.00  0.00     0.043 C 
ENDBRANCH   1  15
BRANCH   1  18
HETATM   18  C5  UNL     1     -30.721  18.242 -21.478  1.00  0.00     0.009 C 
HETATM   19  C6  UNL     1     -30.720  18.699 -20.078  1.00  0.00     0.006 C 
ENDBRANCH   1  18
BRANCH   9  20
HETATM   20  O2  UNL     1     -30.969  13.403 -24.936  1.00  0.00    -0.395 OA
ATOM     21  H2  UNL     1     -30.399  13.534 -25.685  1.00  0.00     0.210 HD
ENDBRANCH   9  20
TORSDOF 3
ENDMDL
MODEL 4
REMARK VINA RESULT: -7.577544191      1.302      1.333
REMARK  3 active torsions:
REMARK  status: ('A' for Active; 'I' for Inactive)
REMARK    1  A    between atoms: C2_2  and  C4_4 
REMARK    2  A    between atoms: C4_4  and  C5_5 
REMARK    3  A    between atoms: C13_14  and  O2_15 
ROOT
HETATM    1  C4  UNL     1     -26.480  19.104 -21.143  1.00  0.00    -0.018 C 
HETATM    2  C7  UNL     1     -26.285  19.201 -19.659  1.00  0.00     0.019 C 
HETATM    3  C8  UNL     1     -27.188  20.117 -18.921  1.00  0.00     0.070 C 
HETATM    4  C9  UNL     1     -28.619  19.919 -18.884  1.00  0.00     0.177 C 
HETATM    5  O1  UNL     1     -29.156  19.695 -17.592  1.00  0.00    -0.319 OA
HETATM    6  C10 UNL     1     -30.141  20.607 -17.871  1.00  0.00     0.170 C 
HETATM    7  C11 UNL     1     -30.544  21.534 -16.754  1.00  0.00     0.079 C 
HETATM    8  C12 UNL     1     -31.259  19.906 -18.576  1.00  0.00     0.100 C 
HETATM    9  C13 UNL     1     -30.674  18.699 -19.324  1.00  0.00     0.133 C 
HETATM   10  C14 UNL     1     -29.305  19.076 -19.863  1.00  0.00     0.081 C 
HETATM   11  C15 UNL     1     -28.552  17.881 -20.350  1.00  0.00    -0.006 C 
HETATM   12  C16 UNL     1     -29.450  16.774 -20.866  1.00  0.00     0.010 C 
HETATM   13  C17 UNL     1     -27.717  18.319 -21.529  1.00  0.00     0.019 C 
HETATM   14  O3  UNL     1     -29.306  21.160 -18.831  1.00  0.00    -0.319 OA
ENDROOT
BRANCH   1  15
HETATM   15  C2  UNL     1     -25.343  18.313 -21.678  1.00  0.00    -0.084 C 
HETATM   16  C1  UNL     1     -25.458  17.245 -22.461  1.00  0.00     0.015 C 
HETATM   17  C3  UNL     1     -23.910  18.680 -21.362  1.00  0.00     0.043 C 
ENDBRANCH   1  15
BRANCH   1  18
HETATM   18  C5  UNL     1     -26.465  20.473 -21.718  1.00  0.00     0.009 C 
HETATM   19  C6  UNL     1     -26.940  20.685 -23.095  1.00  0.00     0.006 C 
ENDBRANCH   1  18
BRANCH   9  20
HETATM   20  O2  UNL     1     -30.580  17.587 -18.528  1.00  0.00    -0.395 OA
ATOM     21  H2  UNL     1     -29.740  17.151 -18.612  1.00  0.00     0.210 HD
ENDBRANCH   9  20
TORSDOF 3
ENDMDL
MODEL 5
REMARK VINA RESULT: -7.550432653      1.670      3.457
REMARK  3 active torsions:
REMARK  status: ('A' for Active; 'I' for Inactive)
REMARK    1  A    between atoms: C2_2  and  C4_4 
REMARK    2  A    between atoms: C4_4  and  C5_5 
REMARK    3  A    between atoms: C13_14  and  O2_15 
ROOT
HETATM    1  C4  UNL     1     -26.694  19.179 -21.759  1.00  0.00    -0.018 C 
HETATM    2  C7  UNL     1     -28.125  18.886 -22.096  1.00  0.00     0.019 C 
HETATM    3  C8  UNL     1     -28.673  17.587 -21.634  1.00  0.00     0.070 C 
HETATM    4  C9  UNL     1     -28.762  17.246 -20.233  1.00  0.00     0.177 C 
HETATM    5  O1  UNL     1     -30.077  17.019 -19.757  1.00  0.00    -0.319 OA
HETATM    6  C10 UNL     1     -29.629  15.881 -19.136  1.00  0.00     0.170 C 
HETATM    7  C11 UNL     1     -30.540  14.682 -19.176  1.00  0.00     0.079 C 
HETATM    8  C12 UNL     1     -29.090  16.250 -17.790  1.00  0.00     0.100 C 
HETATM    9  C13 UNL     1     -28.595  17.703 -17.852  1.00  0.00     0.133 C 
HETATM   10  C14 UNL     1     -27.978  17.950 -19.217  1.00  0.00     0.081 C 
HETATM   11  C15 UNL     1     -27.736  19.405 -19.461  1.00  0.00    -0.006 C 
HETATM   12  C16 UNL     1     -27.461  20.188 -18.193  1.00  0.00     0.010 C 
HETATM   13  C17 UNL     1     -26.485  19.522 -20.299  1.00  0.00     0.019 C 
HETATM   14  O3  UNL     1     -28.569  15.854 -20.032  1.00  0.00    -0.319 OA
ENDROOT
BRANCH   1  15
HETATM   15  C2  UNL     1     -26.319  20.411 -22.499  1.00  0.00    -0.084 C 
HETATM   16  C1  UNL     1     -26.995  20.920 -23.525  1.00  0.00     0.015 C 
HETATM   17  C3  UNL     1     -25.092  21.212 -22.126  1.00  0.00     0.043 C 
ENDBRANCH   1  15
BRANCH   1  18
HETATM   18  C5  UNL     1     -25.855  18.039 -22.208  1.00  0.00     0.009 C 
HETATM   19  C6  UNL     1     -24.622  17.714 -21.472  1.00  0.00     0.006 C 
ENDBRANCH   1  18
BRANCH   9  20
HETATM   20  O2  UNL     1     -29.597  18.606 -17.613  1.00  0.00    -0.395 OA
ATOM     21  H2  UNL     1     -29.613  18.900 -16.710  1.00  0.00     0.210 HD
ENDBRANCH   9  20
TORSDOF 3
ENDMDL
