MODEL 1
REMARK VINA RESULT: -6.227481658      0.000      0.000
REMARK  3 active torsions:
REMARK  status: ('A' for Active; 'I' for Inactive)
REMARK    1  A    between atoms: O1_2  and  C2_3 
REMARK    2  A    between atoms: C2_3  and  C3_5 
REMARK    3  A    between atoms: C7_9  and  O3_11 
ROOT
HETATM    1  C3  UNL     1     -29.643  17.882 -19.662  1.00  0.00     0.068 C 
HETATM    2  C4  UNL     1     -30.099  18.360 -20.968  1.00  0.00     0.004 C 
HETATM    3  C5  UNL     1     -31.443  18.055 -21.458  1.00  0.00     0.011 C 
HETATM    4  C6  UNL     1     -29.032  17.960 -22.003  1.00  0.00     0.044 C 
HETATM    5  C7  UNL     1     -27.812  18.354 -21.207  1.00  0.00     0.063 C 
HETATM    6  C8  UNL     1     -26.531  17.858 -21.765  1.00  0.00     0.046 C 
HETATM    7  C9  UNL     1     -28.147  17.709 -19.857  1.00  0.00     0.005 C 
HETATM    8  C10 UNL     1     -27.321  18.444 -18.841  1.00  0.00     0.020 C 
HETATM    9  C11 UNL     1     -27.710  16.282 -19.957  1.00  0.00     0.013 C 
HETATM   10  C12 UNL     1     -28.174  15.407 -18.842  1.00  0.00     0.002 C 
HETATM   11  C13 UNL     1     -29.331  15.971 -18.097  1.00  0.00     0.010 C 
HETATM   12  C14 UNL     1     -30.304  16.722 -19.026  1.00  0.00    -0.030 C 
HETATM   13  C15 UNL     1     -30.867  15.669 -19.921  1.00  0.00     0.016 C 
HETATM   14  C16 UNL     1     -31.440  17.174 -18.097  1.00  0.00     0.016 C 
ENDROOT
BRANCH   1  15
HETATM   15  C2  UNL     1     -29.779  19.022 -18.672  1.00  0.00     0.269 C 
HETATM   16  O2  UNL     1     -30.148  20.180 -19.076  1.00  0.00    -0.264 OA
BRANCH  15  17
HETATM   17  O1  UNL     1     -29.535  18.920 -17.336  1.00  0.00    -0.326 OA
HETATM   18  C1  UNL     1     -29.642  19.977 -16.423  1.00  0.00     0.213 C 
ENDBRANCH  15  17
ENDBRANCH   1  15
BRANCH   5  19
HETATM   19  O3  UNL     1     -27.762  19.721 -21.080  1.00  0.00    -0.389 OA
ATOM     20  H3  UNL     1     -27.830  19.961 -20.163  1.00  0.00     0.210 HD
ENDBRANCH   5  19
TORSDOF 3
ENDMDL
MODEL 2
REMARK VINA RESULT: -6.207815753      1.673      3.130
REMARK  3 active torsions:
REMARK  status: ('A' for Active; 'I' for Inactive)
REMARK    1  A    between atoms: O1_2  and  C2_3 
REMARK    2  A    between atoms: C2_3  and  C3_5 
REMARK    3  A    between atoms: C7_9  and  O3_11 
ROOT
HETATM    1  C3  UNL     1     -28.969  17.985 -20.163  1.00  0.00     0.068 C 
HETATM    2  C4  UNL     1     -29.170  19.230 -19.420  1.00  0.00     0.004 C 
HETATM    3  C5  UNL     1     -30.504  19.643 -18.982  1.00  0.00     0.011 C 
HETATM    4  C6  UNL     1     -28.477  20.355 -20.209  1.00  0.00     0.044 C 
HETATM    5  C7  UNL     1     -27.197  19.624 -20.533  1.00  0.00     0.063 C 
HETATM    6  C8  UNL     1     -26.351  20.294 -21.549  1.00  0.00     0.046 C 
HETATM    7  C9  UNL     1     -27.763  18.291 -21.035  1.00  0.00     0.005 C 
HETATM    8  C10 UNL     1     -26.649  17.296 -20.888  1.00  0.00     0.020 C 
HETATM    9  C11 UNL     1     -28.096  18.497 -22.479  1.00  0.00     0.013 C 
HETATM   10  C12 UNL     1     -28.897  17.402 -23.098  1.00  0.00     0.002 C 
HETATM   11  C13 UNL     1     -29.596  16.550 -22.099  1.00  0.00     0.010 C 
HETATM   12  C14 UNL     1     -30.098  17.369 -20.895  1.00  0.00    -0.030 C 
HETATM   13  C15 UNL     1     -31.138  18.278 -21.457  1.00  0.00     0.016 C 
HETATM   14  C16 UNL     1     -30.828  16.342 -20.018  1.00  0.00     0.016 C 
ENDROOT
BRANCH   1  15
HETATM   15  C2  UNL     1     -28.489  16.929 -19.189  1.00  0.00     0.269 C 
HETATM   16  O2  UNL     1     -28.232  17.247 -17.976  1.00  0.00    -0.264 OA
BRANCH  15  17
HETATM   17  O1  UNL     1     -28.300  15.616 -19.500  1.00  0.00    -0.326 OA
HETATM   18  C1  UNL     1     -27.879  14.635 -18.595  1.00  0.00     0.213 C 
ENDBRANCH  15  17
ENDBRANCH   1  15
BRANCH   5  19
HETATM   19  O3  UNL     1     -26.470  19.428 -19.383  1.00  0.00    -0.389 OA
ATOM     20  H3  UNL     1     -25.830  20.123 -19.285  1.00  0.00     0.210 HD
ENDBRANCH   5  19
TORSDOF 3
ENDMDL
MODEL 3
REMARK VINA RESULT: -6.187070002      1.334      4.116
REMARK  3 active torsions:
REMARK  status: ('A' for Active; 'I' for Inactive)
REMARK    1  A    between atoms: O1_2  and  C2_3 
REMARK    2  A    between atoms: C2_3  and  C3_5 
REMARK    3  A    between atoms: C7_9  and  O3_11 
ROOT
HETATM    1  C3  UNL     1     -28.956  17.988 -19.463  1.00  0.00     0.068 C 
HETATM    2  C4  UNL     1     -28.485  17.171 -18.344  1.00  0.00     0.004 C 
HETATM    3  C5  UNL     1     -28.097  15.774 -18.539  1.00  0.00     0.011 C 
HETATM    4  C6  UNL     1     -29.517  17.303 -17.210  1.00  0.00     0.044 C 
HETATM    5  C7  UNL     1     -29.725  18.795 -17.290  1.00  0.00     0.063 C 
HETATM    6  C8  UNL     1     -30.889  19.293 -16.518  1.00  0.00     0.046 C 
HETATM    7  C9  UNL     1     -29.915  18.964 -18.802  1.00  0.00     0.005 C 
HETATM    8  C10 UNL     1     -29.601  20.403 -19.093  1.00  0.00     0.020 C 
HETATM    9  C11 UNL     1     -31.357  18.675 -19.076  1.00  0.00     0.013 C 
HETATM   10  C12 UNL     1     -31.703  18.533 -20.520  1.00  0.00     0.002 C 
HETATM   11  C13 UNL     1     -30.523  18.252 -21.380  1.00  0.00     0.010 C 
HETATM   12  C14 UNL     1     -29.501  17.340 -20.676  1.00  0.00    -0.030 C 
HETATM   13  C15 UNL     1     -30.204  16.035 -20.508  1.00  0.00     0.016 C 
HETATM   14  C16 UNL     1     -28.402  17.123 -21.726  1.00  0.00     0.016 C 
ENDROOT
BRANCH   1  15
HETATM   15  C2  UNL     1     -27.799  18.842 -19.942  1.00  0.00     0.269 C 
HETATM   16  O2  UNL     1     -26.700  18.855 -19.285  1.00  0.00    -0.264 OA
BRANCH  15  17
HETATM   17  O1  UNL     1     -27.824  19.627 -21.054  1.00  0.00    -0.326 OA
HETATM   18  C1  UNL     1     -26.721  20.324 -21.562  1.00  0.00     0.213 C 
ENDBRANCH  15  17
ENDBRANCH   1  15
BRANCH   5  19
HETATM   19  O3  UNL     1     -28.587  19.446 -16.880  1.00  0.00    -0.389 OA
ATOM     20  H3  UNL     1     -28.815  20.143 -16.275  1.00  0.00     0.210 HD
ENDBRANCH   5  19
TORSDOF 3
ENDMDL
MODEL 4
REMARK VINA RESULT: -6.088561152      2.745      4.250
REMARK  3 active torsions:
REMARK  status: ('A' for Active; 'I' for Inactive)
REMARK    1  A    between atoms: O1_2  and  C2_3 
REMARK    2  A    between atoms: C2_3  and  C3_5 
REMARK    3  A    between atoms: C7_9  and  O3_11 
ROOT
HETATM    1  C3  UNL     1     -31.720  19.024 -18.110  1.00  0.00     0.068 C 
HETATM    2  C4  UNL     1     -32.330  20.147 -18.824  1.00  0.00     0.004 C 
HETATM    3  C5  UNL     1     -32.788  20.006 -20.206  1.00  0.00     0.011 C 
HETATM    4  C6  UNL     1     -31.385  21.354 -18.678  1.00  0.00     0.044 C 
HETATM    5  C7  UNL     1     -31.078  21.201 -17.208  1.00  0.00     0.063 C 
HETATM    6  C8  UNL     1     -29.950  22.036 -16.729  1.00  0.00     0.046 C 
HETATM    7  C9  UNL     1     -30.757  19.703 -17.150  1.00  0.00     0.005 C 
HETATM    8  C10 UNL     1     -30.956  19.301 -15.717  1.00  0.00     0.020 C 
HETATM    9  C11 UNL     1     -29.320  19.569 -17.539  1.00  0.00     0.013 C 
HETATM   10  C12 UNL     1     -28.869  18.170 -17.795  1.00  0.00     0.002 C 
HETATM   11  C13 UNL     1     -29.992  17.232 -18.063  1.00  0.00     0.010 C 
HETATM   12  C14 UNL     1     -31.122  17.903 -18.866  1.00  0.00    -0.030 C 
HETATM   13  C15 UNL     1     -30.518  18.208 -20.196  1.00  0.00     0.016 C 
HETATM   14  C16 UNL     1     -32.145  16.779 -19.088  1.00  0.00     0.016 C 
ENDROOT
BRANCH   1  15
HETATM   15  C2  UNL     1     -32.780  18.400 -17.224  1.00  0.00     0.269 C 
HETATM   16  O2  UNL     1     -33.950  18.916 -17.166  1.00  0.00    -0.264 OA
BRANCH  15  17
HETATM   17  O1  UNL     1     -32.591  17.293 -16.453  1.00  0.00    -0.326 OA
HETATM   18  C1  UNL     1     -33.591  16.667 -15.699  1.00  0.00     0.213 C 
ENDBRANCH  15  17
ENDBRANCH   1  15
BRANCH   5  19
HETATM   19  O3  UNL     1     -32.203  21.475 -16.467  1.00  0.00    -0.389 OA
ATOM     20  H3  UNL     1     -32.979  21.268 -16.974  1.00  0.00     0.210 HD
ENDBRANCH   5  19
TORSDOF 3
ENDMDL
MODEL 5
REMARK VINA RESULT: -6.083191291      2.335      4.614
REMARK  3 active torsions:
REMARK  status: ('A' for Active; 'I' for Inactive)
REMARK    1  A    between atoms: O1_2  and  C2_3 
REMARK    2  A    between atoms: C2_3  and  C3_5 
REMARK    3  A    between atoms: C7_9  and  O3_11 
ROOT
HETATM    1  C3  UNL     1     -30.661  19.339 -17.572  1.00  0.00     0.068 C 
HETATM    2  C4  UNL     1     -30.101  18.423 -18.566  1.00  0.00     0.004 C 
HETATM    3  C5  UNL     1     -30.148  18.734 -19.994  1.00  0.00     0.011 C 
HETATM    4  C6  UNL     1     -30.687  17.027 -18.287  1.00  0.00     0.044 C 
HETATM    5  C7  UNL     1     -30.530  17.031 -16.786  1.00  0.00     0.063 C 
HETATM    6  C8  UNL     1     -31.252  15.938 -16.092  1.00  0.00     0.046 C 
HETATM    7  C9  UNL     1     -31.108  18.412 -16.455  1.00  0.00     0.005 C 
HETATM    8  C10 UNL     1     -30.545  18.776 -15.112  1.00  0.00     0.020 C 
HETATM    9  C11 UNL     1     -32.591  18.234 -16.372  1.00  0.00     0.013 C 
HETATM   10  C12 UNL     1     -33.370  19.504 -16.311  1.00  0.00     0.002 C 
HETATM   11  C13 UNL     1     -32.605  20.685 -16.791  1.00  0.00     0.010 C 
HETATM   12  C14 UNL     1     -31.682  20.331 -17.973  1.00  0.00    -0.030 C 
HETATM   13  C15 UNL     1     -32.607  19.964 -19.084  1.00  0.00     0.016 C 
HETATM   14  C16 UNL     1     -31.032  21.668 -18.357  1.00  0.00     0.016 C 
ENDROOT
BRANCH   1  15
HETATM   15  C2  UNL     1     -29.521  20.144 -16.980  1.00  0.00     0.269 C 
HETATM   16  O2  UNL     1     -28.315  19.897 -17.330  1.00  0.00    -0.264 OA
BRANCH  15  17
HETATM   17  O1  UNL     1     -29.671  21.147 -16.071  1.00  0.00    -0.326 OA
HETATM   18  C1  UNL     1     -28.616  21.793 -15.415  1.00  0.00     0.213 C 
ENDBRANCH  15  17
ENDBRANCH   1  15
BRANCH   5  19
HETATM   19  O3  UNL     1     -29.196  16.984 -16.458  1.00  0.00    -0.389 OA
ATOM     20  H3  UNL     1     -29.100  16.835 -15.524  1.00  0.00     0.210 HD
ENDBRANCH   5  19
TORSDOF 3
ENDMDL
