MODEL 1
REMARK VINA RESULT: -7.830449643      0.000      0.000
REMARK  2 active torsions:
REMARK  status: ('A' for Active; 'I' for Inactive)
REMARK    1  A    between atoms: O1_1  and  C1_3 
REMARK    2  A    between atoms: N1_14  and  C11_15 
ROOT
HETATM    1  C1  UNL     1     -29.480  16.273 -20.261  1.00  0.00     0.184 C 
HETATM    2  C2  UNL     1     -30.208  16.580 -18.996  1.00  0.00     0.037 C 
HETATM    3  C3  UNL     1     -31.691  16.476 -19.059  1.00  0.00     0.003 C 
HETATM    4  C4  UNL     1     -32.392  17.749 -18.634  1.00  0.00     0.002 C 
HETATM    5  C5  UNL     1     -31.788  18.974 -19.269  1.00  0.00     0.026 C 
HETATM    6  C6  UNL     1     -31.299  18.696 -20.679  1.00  0.00     0.171 C 
HETATM    7  O2  UNL     1     -29.946  18.609 -20.654  1.00  0.00    -0.350 OA
HETATM    8  C7  UNL     1     -29.371  17.486 -21.201  1.00  0.00     0.287 C 
HETATM    9  C8  UNL     1     -30.301  17.129 -22.381  1.00  0.00     0.076 C 
HETATM   10  C9  UNL     1     -29.280  16.684 -23.416  1.00  0.00     0.035 C 
HETATM   11  C10 UNL     1     -28.266  17.781 -23.151  1.00  0.00     0.277 C 
HETATM   12  N1  UNL     1     -28.072  17.644 -21.717  1.00  0.00     0.131 N 
ENDROOT
BRANCH   1  13
HETATM   13  O1  UNL     1     -28.183  15.763 -20.007  1.00  0.00    -0.391 OA
ATOM     14  H1  UNL     1     -27.645  15.770 -20.790  1.00  0.00     0.210 HD
ENDBRANCH   1  13
BRANCH  12  15
HETATM   15  C11 UNL     1     -27.261  18.754 -21.318  1.00  0.00     0.227 C 
HETATM   16  C12 UNL     1     -27.353  19.770 -22.424  1.00  0.00     0.036 C 
HETATM   17  C13 UNL     1     -26.183  20.583 -22.750  1.00  0.00     0.002 C 
HETATM   18  C14 UNL     1     -25.259  20.978 -21.670  1.00  0.00     0.000 C 
HETATM   19  C15 UNL     1     -24.111  19.960 -21.663  1.00  0.00     0.000 C 
HETATM   20  C16 UNL     1     -24.781  18.595 -21.783  1.00  0.00     0.002 C 
HETATM   21  C17 UNL     1     -25.920  18.502 -20.800  1.00  0.00     0.036 C 
ENDBRANCH  12  15
TORSDOF 2
ENDMDL
MODEL 2
REMARK VINA RESULT: -7.715973700      1.957      2.312
REMARK  2 active torsions:
REMARK  status: ('A' for Active; 'I' for Inactive)
REMARK    1  A    between atoms: O1_1  and  C1_3 
REMARK    2  A    between atoms: N1_14  and  C11_15 
ROOT
HETATM    1  C1  UNL     1     -29.298  18.079 -18.197  1.00  0.00     0.184 C 
HETATM    2  C2  UNL     1     -29.507  18.803 -16.911  1.00  0.00     0.037 C 
HETATM    3  C3  UNL     1     -30.922  19.085 -16.547  1.00  0.00     0.003 C 
HETATM    4  C4  UNL     1     -31.189  20.554 -16.300  1.00  0.00     0.002 C 
HETATM    5  C5  UNL     1     -30.596  21.431 -17.371  1.00  0.00     0.026 C 
HETATM    6  C6  UNL     1     -30.650  20.768 -18.736  1.00  0.00     0.171 C 
HETATM    7  O2  UNL     1     -29.404  20.334 -19.051  1.00  0.00    -0.350 OA
HETATM    8  C7  UNL     1     -29.264  19.016 -19.417  1.00  0.00     0.287 C 
HETATM    9  C8  UNL     1     -30.575  18.697 -20.170  1.00  0.00     0.076 C 
HETATM   10  C9  UNL     1     -30.046  17.808 -21.284  1.00  0.00     0.035 C 
HETATM   11  C10 UNL     1     -28.809  18.629 -21.597  1.00  0.00     0.277 C 
HETATM   12  N1  UNL     1     -28.195  18.723 -20.283  1.00  0.00     0.131 N 
ENDROOT
BRANCH   1  13
HETATM   13  O1  UNL     1     -28.113  17.303 -18.173  1.00  0.00    -0.391 OA
ATOM     14  H1  UNL     1     -28.262  16.425 -18.504  1.00  0.00     0.210 HD
ENDBRANCH   1  13
BRANCH  12  15
HETATM   15  C11 UNL     1     -27.100  19.635 -20.420  1.00  0.00     0.227 C 
HETATM   16  C12 UNL     1     -27.266  20.302 -21.758  1.00  0.00     0.036 C 
HETATM   17  C13 UNL     1     -26.078  20.648 -22.539  1.00  0.00     0.002 C 
HETATM   18  C14 UNL     1     -24.848  21.051 -21.834  1.00  0.00     0.000 C 
HETATM   19  C15 UNL     1     -23.968  19.800 -21.709  1.00  0.00     0.000 C 
HETATM   20  C16 UNL     1     -24.909  18.689 -21.256  1.00  0.00     0.002 C 
HETATM   21  C17 UNL     1     -25.751  19.176 -20.105  1.00  0.00     0.036 C 
ENDBRANCH  12  15
TORSDOF 2
ENDMDL
MODEL 3
REMARK VINA RESULT: -7.679505789      1.758      4.648
REMARK  2 active torsions:
REMARK  status: ('A' for Active; 'I' for Inactive)
REMARK    1  A    between atoms: O1_1  and  C1_3 
REMARK    2  A    between atoms: N1_14  and  C11_15 
ROOT
HETATM    1  C1  UNL     1     -29.973  18.486 -20.436  1.00  0.00     0.184 C 
HETATM    2  C2  UNL     1     -30.396  17.723 -19.227  1.00  0.00     0.037 C 
HETATM    3  C3  UNL     1     -29.720  18.094 -17.955  1.00  0.00     0.003 C 
HETATM    4  C4  UNL     1     -29.052  16.918 -17.274  1.00  0.00     0.002 C 
HETATM    5  C5  UNL     1     -28.243  16.086 -18.233  1.00  0.00     0.026 C 
HETATM    6  C6  UNL     1     -27.589  16.938 -19.307  1.00  0.00     0.171 C 
HETATM    7  O2  UNL     1     -28.276  16.769 -20.464  1.00  0.00    -0.350 OA
HETATM    8  C7  UNL     1     -28.721  17.899 -21.110  1.00  0.00     0.287 C 
HETATM    9  C8  UNL     1     -27.620  18.945 -20.829  1.00  0.00     0.076 C 
HETATM   10  C9  UNL     1     -27.569  19.663 -22.168  1.00  0.00     0.035 C 
HETATM   11  C10 UNL     1     -27.666  18.425 -23.039  1.00  0.00     0.277 C 
HETATM   12  N1  UNL     1     -28.865  17.799 -22.505  1.00  0.00     0.131 N 
ENDROOT
BRANCH   1  13
HETATM   13  O1  UNL     1     -31.017  18.575 -21.390  1.00  0.00    -0.391 OA
ATOM     14  H1  UNL     1     -31.438  19.426 -21.370  1.00  0.00     0.210 HD
ENDBRANCH   1  13
BRANCH  12  15
HETATM   15  C11 UNL     1     -28.960  16.518 -23.136  1.00  0.00     0.227 C 
HETATM   16  C12 UNL     1     -28.467  16.699 -24.546  1.00  0.00     0.036 C 
HETATM   17  C13 UNL     1     -29.086  15.932 -25.627  1.00  0.00     0.002 C 
HETATM   18  C14 UNL     1     -29.578  14.570 -25.351  1.00  0.00     0.000 C 
HETATM   19  C15 UNL     1     -31.078  14.684 -25.046  1.00  0.00     0.000 C 
HETATM   20  C16 UNL     1     -31.208  15.868 -24.095  1.00  0.00     0.002 C 
HETATM   21  C17 UNL     1     -30.189  15.745 -22.991  1.00  0.00     0.036 C 
ENDBRANCH  12  15
TORSDOF 2
ENDMDL
MODEL 4
REMARK VINA RESULT: -7.425250060      1.957      2.791
REMARK  2 active torsions:
REMARK  status: ('A' for Active; 'I' for Inactive)
REMARK    1  A    between atoms: O1_1  and  C1_3 
REMARK    2  A    between atoms: N1_14  and  C11_15 
ROOT
HETATM    1  C1  UNL     1     -29.773  18.476 -17.544  1.00  0.00     0.184 C 
HETATM    2  C2  UNL     1     -30.310  19.643 -16.788  1.00  0.00     0.037 C 
HETATM    3  C3  UNL     1     -31.672  19.475 -16.214  1.00  0.00     0.003 C 
HETATM    4  C4  UNL     1     -32.640  20.550 -16.660  1.00  0.00     0.002 C 
HETATM    5  C5  UNL     1     -32.575  20.798 -18.144  1.00  0.00     0.026 C 
HETATM    6  C6  UNL     1     -32.297  19.521 -18.918  1.00  0.00     0.171 C 
HETATM    7  O2  UNL     1     -31.004  19.542 -19.326  1.00  0.00    -0.350 OA
HETATM    8  C7  UNL     1     -30.222  18.453 -19.015  1.00  0.00     0.287 C 
HETATM    9  C8  UNL     1     -31.201  17.260 -19.089  1.00  0.00     0.076 C 
HETATM   10  C9  UNL     1     -30.304  16.204 -19.717  1.00  0.00     0.035 C 
HETATM   11  C10 UNL     1     -29.649  17.111 -20.742  1.00  0.00     0.277 C 
HETATM   12  N1  UNL     1     -29.157  18.184 -19.893  1.00  0.00     0.131 N 
ENDROOT
BRANCH   1  13
HETATM   13  O1  UNL     1     -28.359  18.423 -17.489  1.00  0.00    -0.391 OA
ATOM     14  H1  UNL     1     -28.030  17.564 -17.729  1.00  0.00     0.210 HD
ENDBRANCH   1  13
BRANCH  12  15
HETATM   15  C11 UNL     1     -28.670  19.199 -20.777  1.00  0.00     0.227 C 
HETATM   16  C12 UNL     1     -28.385  18.521 -22.090  1.00  0.00     0.036 C 
HETATM   17  C13 UNL     1     -27.252  18.970 -22.898  1.00  0.00     0.002 C 
HETATM   18  C14 UNL     1     -26.882  20.397 -22.886  1.00  0.00     0.000 C 
HETATM   19  C15 UNL     1     -25.759  20.564 -21.853  1.00  0.00     0.000 C 
HETATM   20  C16 UNL     1     -26.211  19.769 -20.633  1.00  0.00     0.002 C 
HETATM   21  C17 UNL     1     -27.640  20.117 -20.303  1.00  0.00     0.036 C 
ENDBRANCH  12  15
TORSDOF 2
ENDMDL
MODEL 5
REMARK VINA RESULT: -7.390955269      2.043      5.482
REMARK  2 active torsions:
REMARK  status: ('A' for Active; 'I' for Inactive)
REMARK    1  A    between atoms: O1_1  and  C1_3 
REMARK    2  A    between atoms: N1_14  and  C11_15 
ROOT
HETATM    1  C1  UNL     1     -30.004  16.834 -21.101  1.00  0.00     0.184 C 
HETATM    2  C2  UNL     1     -29.891  17.488 -22.437  1.00  0.00     0.037 C 
HETATM    3  C3  UNL     1     -28.816  16.969 -23.325  1.00  0.00     0.003 C 
HETATM    4  C4  UNL     1     -27.862  18.047 -23.793  1.00  0.00     0.002 C 
HETATM    5  C5  UNL     1     -27.414  18.942 -22.667  1.00  0.00     0.026 C 
HETATM    6  C6  UNL     1     -27.270  18.178 -21.363  1.00  0.00     0.171 C 
HETATM    7  O2  UNL     1     -28.326  18.485 -20.569  1.00  0.00    -0.350 OA
HETATM    8  C7  UNL     1     -29.057  17.441 -20.052  1.00  0.00     0.287 C 
HETATM    9  C8  UNL     1     -28.007  16.334 -19.812  1.00  0.00     0.076 C 
HETATM   10  C9  UNL     1     -28.511  15.751 -18.502  1.00  0.00     0.035 C 
HETATM   11  C10 UNL     1     -28.839  17.073 -17.832  1.00  0.00     0.277 C 
HETATM   12  N1  UNL     1     -29.705  17.684 -18.828  1.00  0.00     0.131 N 
ENDROOT
BRANCH   1  13
HETATM   13  O1  UNL     1     -31.332  16.878 -20.610  1.00  0.00    -0.391 OA
ATOM     14  H1  UNL     1     -31.375  17.284 -19.752  1.00  0.00     0.210 HD
ENDBRANCH   1  13
BRANCH  12  15
HETATM   15  C11 UNL     1     -29.938  19.024 -18.383  1.00  0.00     0.227 C 
HETATM   16  C12 UNL     1     -29.815  19.004 -16.883  1.00  0.00     0.036 C 
HETATM   17  C13 UNL     1     -30.675  19.872 -16.080  1.00  0.00     0.002 C 
HETATM   18  C14 UNL     1     -31.066  21.189 -16.616  1.00  0.00     0.000 C 
HETATM   19  C15 UNL     1     -32.444  21.020 -17.270  1.00  0.00     0.000 C 
HETATM   20  C16 UNL     1     -32.347  19.738 -18.090  1.00  0.00     0.002 C 
HETATM   21  C17 UNL     1     -31.084  19.758 -18.912  1.00  0.00     0.036 C 
ENDBRANCH  12  15
TORSDOF 2
ENDMDL
