MODEL 1
REMARK VINA RESULT: -6.397779872      0.000      0.000
REMARK  6 active torsions:
REMARK  status: ('A' for Active; 'I' for Inactive)
REMARK    1  A    between atoms: C2_2  and  O1_3 
REMARK    2  A    between atoms: O1_3  and  C3_4 
REMARK    3  A    between atoms: C3_4  and  C4_6 
REMARK    4  A    between atoms: C5_8  and  N1_9 
REMARK    5  A    between atoms: N1_9  and  C6_11 
REMARK    6  A    between atoms: C6_11  and  C9_14 
ROOT
HETATM    1  C4  UNL     1      14.426  -1.267  50.795  1.00  0.00     0.105 A 
HETATM    2  S1  UNL     1      14.103  -1.809  52.377  1.00  0.00    -0.046 SA
HETATM    3  C5  UNL     1      12.358  -1.682  52.350  1.00  0.00     0.146 A 
HETATM    4  N2  UNL     1      12.160  -1.227  51.110  1.00  0.00    -0.339 N 
ATOM      5  H2  UNL     1      11.211  -1.046  50.780  1.00  0.00     0.168 HD
HETATM    6  C10 UNL     1      13.169  -1.015  50.323  1.00  0.00     0.030 A 
HETATM    7  C11 UNL     1      13.030  -0.497  48.896  1.00  0.00     0.070 C 
ENDROOT
BRANCH   3   8
HETATM    8  N1  UNL     1      11.577  -1.966  53.297  1.00  0.00    -0.353 N 
ATOM      9  H1  UNL     1      11.231  -2.903  53.090  1.00  0.00     0.162 HD
BRANCH   8  10
HETATM   10  C6  UNL     1      10.984  -1.615  54.452  1.00  0.00     0.122 C 
HETATM   11  C7  UNL     1      11.800  -0.432  55.058  1.00  0.00     0.047 C 
HETATM   12  C8  UNL     1      11.058  -2.662  55.578  1.00  0.00     0.047 C 
BRANCH  10  13
HETATM   13  C9  UNL     1       9.564  -1.108  54.485  1.00  0.00     0.411 C 
HETATM   14  F1  UNL     1       9.521   0.092  55.119  1.00  0.00    -0.168 F 
HETATM   15  F2  UNL     1       8.844  -1.982  55.342  1.00  0.00    -0.168 F 
HETATM   16  F3  UNL     1       8.901  -1.190  53.294  1.00  0.00    -0.168 F 
ENDBRANCH  10  13
ENDBRANCH   8  10
ENDBRANCH   3   8
BRANCH   1  17
HETATM   17  C3  UNL     1      15.719  -1.114  50.123  1.00  0.00     0.302 C 
HETATM   18  O2  UNL     1      16.195  -2.035  49.426  1.00  0.00    -0.259 OA
BRANCH  17  19
HETATM   19  O1  UNL     1      16.419   0.056  50.261  1.00  0.00    -0.317 OA
BRANCH  19  20
HETATM   20  C2  UNL     1      16.452   1.069  49.269  1.00  0.00     0.174 C 
HETATM   21  C1  UNL     1      15.710   2.298  49.740  1.00  0.00     0.034 C 
ENDBRANCH  19  20
ENDBRANCH  17  19
ENDBRANCH   1  17
TORSDOF 6
ENDMDL
MODEL 2
REMARK VINA RESULT: -6.310113971      3.290      4.761
REMARK  6 active torsions:
REMARK  status: ('A' for Active; 'I' for Inactive)
REMARK    1  A    between atoms: C2_2  and  O1_3 
REMARK    2  A    between atoms: O1_3  and  C3_4 
REMARK    3  A    between atoms: C3_4  and  C4_6 
REMARK    4  A    between atoms: C5_8  and  N1_9 
REMARK    5  A    between atoms: N1_9  and  C6_11 
REMARK    6  A    between atoms: C6_11  and  C9_14 
ROOT
HETATM    1  C4  UNL     1      11.459  -1.767  53.789  1.00  0.00     0.105 A 
HETATM    2  S1  UNL     1      10.158  -1.173  54.713  1.00  0.00    -0.046 SA
HETATM    3  C5  UNL     1       9.859  -2.591  55.694  1.00  0.00     0.146 A 
HETATM    4  N2  UNL     1      10.797  -3.419  55.227  1.00  0.00    -0.339 N 
ATOM      5  H2  UNL     1      10.882  -4.360  55.614  1.00  0.00     0.168 HD
HETATM    6  C10 UNL     1      11.600  -3.032  54.285  1.00  0.00     0.030 A 
HETATM    7  C11 UNL     1      12.695  -3.914  53.697  1.00  0.00     0.070 C 
ENDROOT
BRANCH   3   8
HETATM    8  N1  UNL     1       8.973  -2.708  56.581  1.00  0.00    -0.353 N 
ATOM      9  H1  UNL     1       8.850  -1.773  56.967  1.00  0.00     0.162 HD
BRANCH   8  10
HETATM   10  C6  UNL     1       8.111  -3.489  57.259  1.00  0.00     0.122 C 
HETATM   11  C7  UNL     1       8.252  -3.142  58.772  1.00  0.00     0.047 C 
HETATM   12  C8  UNL     1       8.432  -4.994  57.245  1.00  0.00     0.047 C 
BRANCH  10  13
HETATM   13  C9  UNL     1       6.623  -3.406  57.023  1.00  0.00     0.411 C 
HETATM   14  F1  UNL     1       6.332  -3.860  55.776  1.00  0.00    -0.168 F 
HETATM   15  F2  UNL     1       6.298  -2.025  56.978  1.00  0.00    -0.168 F 
HETATM   16  F3  UNL     1       5.856  -3.896  58.040  1.00  0.00    -0.168 F 
ENDBRANCH  10  13
ENDBRANCH   8  10
ENDBRANCH   3   8
BRANCH   1  17
HETATM   17  C3  UNL     1      12.224  -1.090  52.739  1.00  0.00     0.302 C 
HETATM   18  O2  UNL     1      13.242  -0.420  53.013  1.00  0.00    -0.259 OA
BRANCH  17  19
HETATM   19  O1  UNL     1      11.817  -1.190  51.434  1.00  0.00    -0.317 OA
BRANCH  19  20
HETATM   20  C2  UNL     1      12.642  -1.688  50.394  1.00  0.00     0.174 C 
HETATM   21  C1  UNL     1      12.540  -0.809  49.169  1.00  0.00     0.034 C 
ENDBRANCH  19  20
ENDBRANCH  17  19
ENDBRANCH   1  17
TORSDOF 6
ENDMDL
MODEL 3
REMARK VINA RESULT: -6.282865915      0.975      1.933
REMARK  6 active torsions:
REMARK  status: ('A' for Active; 'I' for Inactive)
REMARK    1  A    between atoms: C2_2  and  O1_3 
REMARK    2  A    between atoms: O1_3  and  C3_4 
REMARK    3  A    between atoms: C3_4  and  C4_6 
REMARK    4  A    between atoms: C5_8  and  N1_9 
REMARK    5  A    between atoms: N1_9  and  C6_11 
REMARK    6  A    between atoms: C6_11  and  C9_14 
ROOT
HETATM    1  C4  UNL     1      14.287  -1.204  50.674  1.00  0.00     0.105 A 
HETATM    2  S1  UNL     1      14.061  -1.696  52.289  1.00  0.00    -0.046 SA
HETATM    3  C5  UNL     1      12.311  -1.656  52.336  1.00  0.00     0.146 A 
HETATM    4  N2  UNL     1      12.037  -1.263  51.089  1.00  0.00    -0.339 N 
ATOM      5  H2  UNL     1      11.067  -1.143  50.796  1.00  0.00     0.168 HD
HETATM    6  C10 UNL     1      12.999  -1.034  50.250  1.00  0.00     0.030 A 
HETATM    7  C11 UNL     1      12.773  -0.584  48.812  1.00  0.00     0.070 C 
ENDROOT
BRANCH   3   8
HETATM    8  N1  UNL     1      11.588  -1.939  53.327  1.00  0.00    -0.353 N 
ATOM      9  H1  UNL     1      11.279  -2.899  53.171  1.00  0.00     0.162 HD
BRANCH   8  10
HETATM   10  C6  UNL     1      11.031  -1.571  54.496  1.00  0.00     0.122 C 
HETATM   11  C7  UNL     1      11.871  -0.388  55.064  1.00  0.00     0.047 C 
HETATM   12  C8  UNL     1      11.129  -2.607  55.630  1.00  0.00     0.047 C 
BRANCH  10  13
HETATM   13  C9  UNL     1       9.615  -1.053  54.563  1.00  0.00     0.411 C 
HETATM   14  F1  UNL     1       9.593   0.133  55.223  1.00  0.00    -0.168 F 
HETATM   15  F2  UNL     1       8.902  -1.940  55.411  1.00  0.00    -0.168 F 
HETATM   16  F3  UNL     1       8.933  -1.103  53.381  1.00  0.00    -0.168 F 
ENDBRANCH  10  13
ENDBRANCH   8  10
ENDBRANCH   3   8
BRANCH   1  17
HETATM   17  C3  UNL     1      15.540  -1.016  49.939  1.00  0.00     0.302 C 
HETATM   18  O2  UNL     1      16.002   0.126  49.735  1.00  0.00    -0.259 OA
BRANCH  17  19
HETATM   19  O1  UNL     1      16.217  -2.110  49.466  1.00  0.00    -0.317 OA
BRANCH  19  20
HETATM   20  C2  UNL     1      17.323  -2.695  50.136  1.00  0.00     0.174 C 
HETATM   21  C1  UNL     1      17.366  -4.184  49.887  1.00  0.00     0.034 C 
ENDBRANCH  19  20
ENDBRANCH  17  19
ENDBRANCH   1  17
TORSDOF 6
ENDMDL
MODEL 4
REMARK VINA RESULT: -6.128800926      0.904      1.514
REMARK  6 active torsions:
REMARK  status: ('A' for Active; 'I' for Inactive)
REMARK    1  A    between atoms: C2_2  and  O1_3 
REMARK    2  A    between atoms: O1_3  and  C3_4 
REMARK    3  A    between atoms: C3_4  and  C4_6 
REMARK    4  A    between atoms: C5_8  and  N1_9 
REMARK    5  A    between atoms: N1_9  and  C6_11 
REMARK    6  A    between atoms: C6_11  and  C9_14 
ROOT
HETATM    1  C4  UNL     1      14.773  -1.072  50.698  1.00  0.00     0.105 A 
HETATM    2  S1  UNL     1      14.526  -1.220  52.377  1.00  0.00    -0.046 SA
HETATM    3  C5  UNL     1      12.797  -0.952  52.417  1.00  0.00     0.146 A 
HETATM    4  N2  UNL     1      12.543  -0.769  51.118  1.00  0.00    -0.339 N 
ATOM      5  H2  UNL     1      11.589  -0.585  50.808  1.00  0.00     0.168 HD
HETATM    6  C10 UNL     1      13.505  -0.824  50.250  1.00  0.00     0.030 A 
HETATM    7  C11 UNL     1      13.301  -0.626  48.753  1.00  0.00     0.070 C 
ENDROOT
BRANCH   3   8
HETATM    8  N1  UNL     1      12.068  -0.952  53.444  1.00  0.00    -0.353 N 
ATOM      9  H1  UNL     1      12.570  -0.392  54.132  1.00  0.00     0.162 HD
BRANCH   8  10
HETATM   10  C6  UNL     1      10.937  -1.343  54.060  1.00  0.00     0.122 C 
HETATM   11  C7  UNL     1      11.172  -2.785  54.603  1.00  0.00     0.047 C 
HETATM   12  C8  UNL     1       9.719  -1.543  53.140  1.00  0.00     0.047 C 
BRANCH  10  13
HETATM   13  C9  UNL     1      10.400  -0.604  55.261  1.00  0.00     0.411 C 
HETATM   14  F1  UNL     1       9.937  -1.495  56.176  1.00  0.00    -0.168 F 
HETATM   15  F2  UNL     1       9.238   0.085  54.824  1.00  0.00    -0.168 F 
HETATM   16  F3  UNL     1      11.215   0.383  55.734  1.00  0.00    -0.168 F 
ENDBRANCH  10  13
ENDBRANCH   8  10
ENDBRANCH   3   8
BRANCH   1  17
HETATM   17  C3  UNL     1      16.021  -1.184  49.941  1.00  0.00     0.302 C 
HETATM   18  O2  UNL     1      16.367  -2.268  49.426  1.00  0.00    -0.259 OA
BRANCH  17  19
HETATM   19  O1  UNL     1      16.824  -0.083  49.793  1.00  0.00    -0.317 OA
BRANCH  19  20
HETATM   20  C2  UNL     1      16.560   0.959  48.867  1.00  0.00     0.174 C 
HETATM   21  C1  UNL     1      16.135   2.216  49.589  1.00  0.00     0.034 C 
ENDBRANCH  19  20
ENDBRANCH  17  19
ENDBRANCH   1  17
TORSDOF 6
ENDMDL
MODEL 5
REMARK VINA RESULT: -6.033053189      5.021      6.224
REMARK  6 active torsions:
REMARK  status: ('A' for Active; 'I' for Inactive)
REMARK    1  A    between atoms: C2_2  and  O1_3 
REMARK    2  A    between atoms: O1_3  and  C3_4 
REMARK    3  A    between atoms: C3_4  and  C4_6 
REMARK    4  A    between atoms: C5_8  and  N1_9 
REMARK    5  A    between atoms: N1_9  and  C6_11 
REMARK    6  A    between atoms: C6_11  and  C9_14 
ROOT
HETATM    1  C4  UNL     1      15.252  -0.303  50.870  1.00  0.00     0.105 A 
HETATM    2  S1  UNL     1      15.248  -1.481  52.100  1.00  0.00    -0.046 SA
HETATM    3  C5  UNL     1      16.946  -1.905  52.068  1.00  0.00     0.146 A 
HETATM    4  N2  UNL     1      17.387  -1.095  51.102  1.00  0.00    -0.339 N 
ATOM      5  H2  UNL     1      18.373  -1.107  50.839  1.00  0.00     0.168 HD
HETATM    6  C10 UNL     1      16.566  -0.294  50.496  1.00  0.00     0.030 A 
HETATM    7  C11 UNL     1      16.987   0.660  49.384  1.00  0.00     0.070 C 
ENDROOT
BRANCH   3   8
HETATM    8  N1  UNL     1      17.513  -2.759  52.799  1.00  0.00    -0.353 N 
ATOM      9  H1  UNL     1      18.173  -2.232  53.370  1.00  0.00     0.162 HD
BRANCH   8  10
HETATM   10  C6  UNL     1      17.657  -4.042  53.182  1.00  0.00     0.122 C 
HETATM   11  C7  UNL     1      16.638  -4.307  54.331  1.00  0.00     0.047 C 
HETATM   12  C8  UNL     1      18.997  -4.382  53.858  1.00  0.00     0.047 C 
BRANCH  10  13
HETATM   13  C9  UNL     1      17.404  -5.180  52.225  1.00  0.00     0.411 C 
HETATM   14  F1  UNL     1      17.853  -4.846  50.987  1.00  0.00    -0.168 F 
HETATM   15  F2  UNL     1      15.995  -5.273  52.073  1.00  0.00    -0.168 F 
HETATM   16  F3  UNL     1      17.770  -6.410  52.691  1.00  0.00    -0.168 F 
ENDBRANCH  10  13
ENDBRANCH   8  10
ENDBRANCH   3   8
BRANCH   1  17
HETATM   17  C3  UNL     1      14.133   0.490  50.356  1.00  0.00     0.302 C 
HETATM   18  O2  UNL     1      13.955   1.669  50.728  1.00  0.00    -0.259 OA
BRANCH  17  19
HETATM   19  O1  UNL     1      13.267  -0.068  49.452  1.00  0.00    -0.317 OA
BRANCH  19  20
HETATM   20  C2  UNL     1      12.490  -1.223  49.725  1.00  0.00     0.174 C 
HETATM   21  C1  UNL     1      11.768  -1.077  51.044  1.00  0.00     0.034 C 
ENDBRANCH  19  20
ENDBRANCH  17  19
ENDBRANCH   1  17
TORSDOF 6
ENDMDL
