MODEL 1
REMARK VINA RESULT: -6.553266822      0.000      0.000
REMARK  4 active torsions:
REMARK  status: ('A' for Active; 'I' for Inactive)
REMARK    1  A    between atoms: C2_2  and  C5_5 
REMARK    2  A    between atoms: N1_9  and  C8_11 
REMARK    3  A    between atoms: C8_11  and  C9_12 
REMARK    4  A    between atoms: N2_17  and  O1_19 
ROOT
HETATM    1  C5  UNL     1      16.847  -3.178  52.369  1.00  0.00     0.008 C 
HETATM    2  C6  UNL     1      15.672  -2.427  52.945  1.00  0.00     0.086 C 
HETATM    3  S1  UNL     1      14.832  -1.412  51.712  1.00  0.00    -0.116 SA
HETATM    4  C7  UNL     1      15.953  -0.644  50.573  1.00  0.00     0.048 C 
HETATM    5  N1  UNL     1      15.523   0.418  50.046  1.00  0.00    -0.382 N 
ATOM      6  H1  UNL     1      14.591   0.734  50.314  1.00  0.00     0.160 HD
HETATM    7  C10 UNL     1      17.302  -1.074  50.163  1.00  0.00     0.118 C 
HETATM    8  C11 UNL     1      17.405  -2.553  50.106  1.00  0.00     0.016 C 
HETATM    9  N2  UNL     1      18.242  -3.100  49.317  1.00  0.00    -0.277 N 
ATOM     10  H2  UNL     1      18.329  -4.114  49.259  1.00  0.00     0.193 HD
HETATM   11  C12 UNL     1      16.603  -3.514  50.902  1.00  0.00     0.061 C 
ENDROOT
BRANCH   5  12
HETATM   12  C8  UNL     1      16.245   1.212  49.100  1.00  0.00     0.191 C 
BRANCH  12  13
HETATM   13  C9  UNL     1      16.239   2.674  49.455  1.00  0.00     0.370 C 
HETATM   14  F1  UNL     1      16.453   3.472  48.338  1.00  0.00    -0.213 F 
HETATM   15  F2  UNL     1      15.062   2.995  50.086  1.00  0.00    -0.213 F 
ENDBRANCH  12  13
ENDBRANCH   5  12
BRANCH   1  16
HETATM   16  C2  UNL     1      17.125  -4.469  53.080  1.00  0.00    -0.047 C 
HETATM   17  C1  UNL     1      16.290  -4.629  54.328  1.00  0.00     0.015 C 
HETATM   18  C3  UNL     1      18.578  -4.443  53.519  1.00  0.00     0.015 C 
HETATM   19  C4  UNL     1      16.912  -5.616  52.131  1.00  0.00     0.015 C 
ENDBRANCH   1  16
BRANCH   9  20
HETATM   20  O1  UNL     1      19.025  -2.268  48.542  1.00  0.00    -0.290 OA
ATOM     21  H1  UNL     1      19.965  -2.302  48.674  1.00  0.00     0.244 HD
ENDBRANCH   9  20
TORSDOF 4
ENDMDL
MODEL 2
REMARK VINA RESULT: -6.536747426      3.873      5.905
REMARK  4 active torsions:
REMARK  status: ('A' for Active; 'I' for Inactive)
REMARK    1  A    between atoms: C2_2  and  C5_5 
REMARK    2  A    between atoms: N1_9  and  C8_11 
REMARK    3  A    between atoms: C8_11  and  C9_12 
REMARK    4  A    between atoms: N2_17  and  O1_19 
ROOT
HETATM    1  C5  UNL     1      14.446  -1.558  51.115  1.00  0.00     0.008 C 
HETATM    2  C6  UNL     1      14.181  -1.303  52.577  1.00  0.00     0.086 C 
HETATM    3  S1  UNL     1      15.631  -1.617  53.605  1.00  0.00    -0.116 SA
HETATM    4  C7  UNL     1      16.566  -3.024  53.065  1.00  0.00     0.048 C 
HETATM    5  N1  UNL     1      17.245  -3.583  53.968  1.00  0.00    -0.382 N 
ATOM      6  H1  UNL     1      17.199  -3.186  54.907  1.00  0.00     0.160 HD
HETATM    7  C10 UNL     1      16.656  -3.621  51.720  1.00  0.00     0.118 C 
HETATM    8  C11 UNL     1      16.584  -2.583  50.661  1.00  0.00     0.016 C 
HETATM    9  N2  UNL     1      17.141  -2.787  49.535  1.00  0.00    -0.277 N 
ATOM     10  H2  UNL     1      17.107  -2.089  48.793  1.00  0.00     0.193 HD
HETATM   11  C12 UNL     1      15.904  -1.269  50.773  1.00  0.00     0.061 C 
ENDROOT
BRANCH   5  12
HETATM   12  C8  UNL     1      18.076  -4.731  53.775  1.00  0.00     0.191 C 
BRANCH  12  13
HETATM   13  C9  UNL     1      19.355  -4.653  54.562  1.00  0.00     0.370 C 
HETATM   14  F1  UNL     1      20.469  -4.798  53.743  1.00  0.00    -0.213 F 
HETATM   15  F2  UNL     1      19.398  -3.474  55.265  1.00  0.00    -0.213 F 
ENDBRANCH  12  13
ENDBRANCH   5  12
BRANCH   1  16
HETATM   16  C2  UNL     1      13.602  -0.712  50.207  1.00  0.00    -0.047 C 
HETATM   17  C1  UNL     1      13.924  -0.937  48.749  1.00  0.00     0.015 C 
HETATM   18  C3  UNL     1      13.920   0.741  50.514  1.00  0.00     0.015 C 
HETATM   19  C4  UNL     1      12.148  -0.974  50.492  1.00  0.00     0.015 C 
ENDBRANCH   1  16
BRANCH   9  20
HETATM   20  O1  UNL     1      17.795  -3.990  49.356  1.00  0.00    -0.290 OA
ATOM     21  H1  UNL     1      18.409  -4.259  50.028  1.00  0.00     0.244 HD
ENDBRANCH   9  20
TORSDOF 4
ENDMDL
MODEL 3
REMARK VINA RESULT: -6.474463930      4.611      6.596
REMARK  4 active torsions:
REMARK  status: ('A' for Active; 'I' for Inactive)
REMARK    1  A    between atoms: C2_2  and  C5_5 
REMARK    2  A    between atoms: N1_9  and  C8_11 
REMARK    3  A    between atoms: C8_11  and  C9_12 
REMARK    4  A    between atoms: N2_17  and  O1_19 
ROOT
HETATM    1  C5  UNL     1      14.768  -1.012  51.107  1.00  0.00     0.008 C 
HETATM    2  C6  UNL     1      15.692  -1.785  50.201  1.00  0.00     0.086 C 
HETATM    3  S1  UNL     1      16.541  -3.124  51.064  1.00  0.00    -0.116 SA
HETATM    4  C7  UNL     1      17.016  -2.688  52.715  1.00  0.00     0.048 C 
HETATM    5  N1  UNL     1      18.000  -3.332  53.168  1.00  0.00    -0.382 N 
ATOM      6  H1  UNL     1      18.427  -4.031  52.559  1.00  0.00     0.160 HD
HETATM    7  C10 UNL     1      16.422  -1.686  53.620  1.00  0.00     0.118 C 
HETATM    8  C11 UNL     1      14.951  -1.600  53.441  1.00  0.00     0.016 C 
HETATM    9  N2  UNL     1      14.216  -1.228  54.412  1.00  0.00    -0.277 N 
ATOM     10  H2  UNL     1      13.203  -1.162  54.313  1.00  0.00     0.193 HD
HETATM   11  C12 UNL     1      14.204  -1.915  52.199  1.00  0.00     0.061 C 
ENDROOT
BRANCH   5  12
HETATM   12  C8  UNL     1      18.564  -3.156  54.471  1.00  0.00     0.191 C 
BRANCH  12  13
HETATM   13  C9  UNL     1      19.357  -4.353  54.919  1.00  0.00     0.370 C 
HETATM   14  F1  UNL     1      20.132  -4.868  53.887  1.00  0.00    -0.213 F 
HETATM   15  F2  UNL     1      20.126  -4.021  56.009  1.00  0.00    -0.213 F 
ENDBRANCH  12  13
ENDBRANCH   5  12
BRANCH   1  16
HETATM   16  C2  UNL     1      13.600  -0.410  50.382  1.00  0.00    -0.047 C 
HETATM   17  C1  UNL     1      13.544  -0.835  48.933  1.00  0.00     0.015 C 
HETATM   18  C3  UNL     1      13.784   1.097  50.395  1.00  0.00     0.015 C 
HETATM   19  C4  UNL     1      12.329  -0.764  51.103  1.00  0.00     0.015 C 
ENDBRANCH   1  16
BRANCH   9  20
HETATM   20  O1  UNL     1      14.841  -0.917  55.602  1.00  0.00    -0.290 OA
ATOM     21  H1  UNL     1      15.734  -1.216  55.720  1.00  0.00     0.244 HD
ENDBRANCH   9  20
TORSDOF 4
ENDMDL
MODEL 4
REMARK VINA RESULT: -6.434936959      3.898      6.117
REMARK  4 active torsions:
REMARK  status: ('A' for Active; 'I' for Inactive)
REMARK    1  A    between atoms: C2_2  and  C5_5 
REMARK    2  A    between atoms: N1_9  and  C8_11 
REMARK    3  A    between atoms: C8_11  and  C9_12 
REMARK    4  A    between atoms: N2_17  and  O1_19 
ROOT
HETATM    1  C5  UNL     1      14.862  -1.116  50.682  1.00  0.00     0.008 C 
HETATM    2  C6  UNL     1      14.251  -1.015  52.057  1.00  0.00     0.086 C 
HETATM    3  S1  UNL     1      15.226  -1.875  53.309  1.00  0.00    -0.116 SA
HETATM    4  C7  UNL     1      15.925  -3.393  52.716  1.00  0.00     0.048 C 
HETATM    5  N1  UNL     1      16.164  -4.248  53.610  1.00  0.00    -0.382 N 
ATOM      6  H1  UNL     1      15.941  -3.997  54.574  1.00  0.00     0.160 HD
HETATM    7  C10 UNL     1      16.261  -3.785  51.334  1.00  0.00     0.118 C 
HETATM    8  C11 UNL     1      16.741  -2.625  50.544  1.00  0.00     0.016 C 
HETATM    9  N2  UNL     1      17.538  -2.810  49.568  1.00  0.00    -0.277 N 
ATOM     10  H2  UNL     1      17.883  -2.028  49.012  1.00  0.00     0.193 HD
HETATM   11  C12 UNL     1      16.382  -1.204  50.774  1.00  0.00     0.061 C 
ENDROOT
BRANCH   5  12
HETATM   12  C8  UNL     1      16.725  -5.543  53.376  1.00  0.00     0.191 C 
BRANCH  12  13
HETATM   13  C9  UNL     1      18.128  -5.665  53.907  1.00  0.00     0.370 C 
HETATM   14  F1  UNL     1      18.671  -6.914  53.632  1.00  0.00    -0.213 F 
HETATM   15  F2  UNL     1      18.907  -4.653  53.400  1.00  0.00    -0.213 F 
ENDBRANCH  12  13
ENDBRANCH   5  12
BRANCH   1  16
HETATM   16  C2  UNL     1      14.538   0.059  49.807  1.00  0.00    -0.047 C 
HETATM   17  C1  UNL     1      13.886   1.184  50.575  1.00  0.00     0.015 C 
HETATM   18  C3  UNL     1      13.533  -0.411  48.770  1.00  0.00     0.015 C 
HETATM   19  C4  UNL     1      15.789   0.524  49.114  1.00  0.00     0.015 C 
ENDBRANCH   1  16
BRANCH   9  20
HETATM   20  O1  UNL     1      17.918  -4.108  49.293  1.00  0.00    -0.290 OA
ATOM     21  H1  UNL     1      18.028  -4.698  50.028  1.00  0.00     0.244 HD
ENDBRANCH   9  20
TORSDOF 4
ENDMDL
MODEL 5
REMARK VINA RESULT: -6.421794799      4.598      6.601
REMARK  4 active torsions:
REMARK  status: ('A' for Active; 'I' for Inactive)
REMARK    1  A    between atoms: C2_2  and  C5_5 
REMARK    2  A    between atoms: N1_9  and  C8_11 
REMARK    3  A    between atoms: C8_11  and  C9_12 
REMARK    4  A    between atoms: N2_17  and  O1_19 
ROOT
HETATM    1  C5  UNL     1      14.998  -0.855  51.115  1.00  0.00     0.008 C 
HETATM    2  C6  UNL     1      15.963  -1.595  50.224  1.00  0.00     0.086 C 
HETATM    3  S1  UNL     1      16.754  -2.981  51.068  1.00  0.00    -0.116 SA
HETATM    4  C7  UNL     1      17.143  -2.626  52.761  1.00  0.00     0.048 C 
HETATM    5  N1  UNL     1      18.096  -3.300  53.235  1.00  0.00    -0.382 N 
ATOM      6  H1  UNL     1      18.550  -3.975  52.618  1.00  0.00     0.160 HD
HETATM    7  C10 UNL     1      16.508  -1.662  53.678  1.00  0.00     0.118 C 
HETATM    8  C11 UNL     1      15.050  -1.552  53.425  1.00  0.00     0.016 C 
HETATM    9  N2  UNL     1      14.266  -1.218  54.371  1.00  0.00    -0.277 N 
ATOM     10  H2  UNL     1      13.261  -1.138  54.222  1.00  0.00     0.193 HD
HETATM   11  C12 UNL     1      14.368  -1.802  52.131  1.00  0.00     0.061 C 
ENDROOT
BRANCH   5  12
HETATM   12  C8  UNL     1      18.590  -3.190  54.573  1.00  0.00     0.191 C 
BRANCH  12  13
HETATM   13  C9  UNL     1      19.416  -4.381  54.979  1.00  0.00     0.370 C 
HETATM   14  F1  UNL     1      20.187  -4.852  53.923  1.00  0.00    -0.213 F 
HETATM   15  F2  UNL     1      20.193  -4.059  56.066  1.00  0.00    -0.213 F 
ENDBRANCH  12  13
ENDBRANCH   5  12
BRANCH   1  16
HETATM   16  C2  UNL     1      13.875  -0.209  50.356  1.00  0.00    -0.047 C 
HETATM   17  C1  UNL     1      14.013   1.294  50.299  1.00  0.00     0.015 C 
HETATM   18  C3  UNL     1      12.589  -0.509  51.104  1.00  0.00     0.015 C 
HETATM   19  C4  UNL     1      13.800  -0.803  48.977  1.00  0.00     0.015 C 
ENDBRANCH   1  16
BRANCH   9  20
HETATM   20  O1  UNL     1      14.829  -0.969  55.607  1.00  0.00    -0.290 OA
ATOM     21  H1  UNL     1      14.574  -1.533  56.327  1.00  0.00     0.244 HD
ENDBRANCH   9  20
TORSDOF 4
ENDMDL
