MODEL 1
REMARK VINA RESULT: -6.727570051      0.000      0.000
REMARK  6 active torsions:
REMARK  status: ('A' for Active; 'I' for Inactive)
REMARK    1  A    between atoms: C3_5  and  N2_6 
REMARK       I    between atoms: N2_6  and  C4_8 
REMARK    2  A    between atoms: C4_8  and  O2_10 
REMARK    3  A    between atoms: O2_10  and  C5_11 
REMARK    4  A    between atoms: C9_16  and  S2_17 
REMARK    5  A    between atoms: S2_17  and  C10_18 
REMARK    6  A    between atoms: C10_18  and  C11_19 
ROOT
HETATM    1  C1  UNL     1      16.894  -2.599  54.177  1.00  0.00     0.070 C 
HETATM    2  C2  UNL     1      16.914  -2.554  52.651  1.00  0.00     0.031 A 
HETATM    3  N1  UNL     1      17.170  -1.475  51.966  1.00  0.00    -0.339 N 
ATOM      4  H1  UNL     1      17.371  -0.594  52.438  1.00  0.00     0.168 HD
HETATM    5  C3  UNL     1      17.161  -1.549  50.634  1.00  0.00     0.154 A 
HETATM    6  S1  UNL     1      16.783  -3.183  50.338  1.00  0.00    -0.045 SA
HETATM    7  C9  UNL     1      16.651  -3.705  51.958  1.00  0.00     0.067 A 
ENDROOT
BRANCH   5   8
HETATM    8  N2  UNL     1      17.394  -0.571  49.780  1.00  0.00    -0.282 N 
HETATM    9  C4  UNL     1      16.492   0.492  49.611  1.00  0.00     0.367 C 
HETATM   10  O1  UNL     1      16.900   1.652  49.883  1.00  0.00    -0.238 OA
ATOM     11  H2  UNL     1      18.251  -0.588  49.228  1.00  0.00     0.173 HD
BRANCH   9  12
HETATM   12  O2  UNL     1      15.200   0.398  49.177  1.00  0.00    -0.294 OA
BRANCH  12  13
HETATM   13  C5  UNL     1      14.050   0.503  49.958  1.00  0.00     0.061 C 
HETATM   14  C6  UNL     1      13.702   1.957  50.156  1.00  0.00     0.046 C 
HETATM   15  C7  UNL     1      14.093  -0.189  51.268  1.00  0.00     0.046 C 
HETATM   16  C8  UNL     1      12.902  -0.107  49.145  1.00  0.00     0.046 C 
ENDBRANCH  12  13
ENDBRANCH   9  12
ENDBRANCH   5   8
BRANCH   7  17
HETATM   17  S2  UNL     1      16.265  -5.351  52.604  1.00  0.00    -0.116 SA
BRANCH  17  18
HETATM   18  C10 UNL     1      17.764  -6.112  53.278  1.00  0.00     0.140 C 
BRANCH  18  19
HETATM   19  C11 UNL     1      17.530  -7.607  53.326  1.00  0.00     0.184 C 
HETATM   20  C12 UNL     1      17.259  -8.031  54.753  1.00  0.00     0.071 C 
HETATM   21  F1  UNL     1      18.662  -8.224  52.858  1.00  0.00    -0.225 F 
HETATM   22 CL1  UNL     1      16.090  -8.020  52.371  1.00  0.00    -0.082 Cl
ENDBRANCH  18  19
ENDBRANCH  17  18
ENDBRANCH   7  17
TORSDOF 6
ENDMDL
MODEL 2
REMARK VINA RESULT: -6.673209250      1.086      1.140
REMARK  6 active torsions:
REMARK  status: ('A' for Active; 'I' for Inactive)
REMARK    1  A    between atoms: C3_5  and  N2_6 
REMARK       I    between atoms: N2_6  and  C4_8 
REMARK    2  A    between atoms: C4_8  and  O2_10 
REMARK    3  A    between atoms: O2_10  and  C5_11 
REMARK    4  A    between atoms: C9_16  and  S2_17 
REMARK    5  A    between atoms: S2_17  and  C10_18 
REMARK    6  A    between atoms: C10_18  and  C11_19 
ROOT
HETATM    1  C1  UNL     1      16.865  -2.429  54.353  1.00  0.00     0.070 C 
HETATM    2  C2  UNL     1      16.886  -2.433  52.827  1.00  0.00     0.031 A 
HETATM    3  N1  UNL     1      17.153  -1.380  52.108  1.00  0.00    -0.339 N 
ATOM      4  H1  UNL     1      17.364  -0.486  52.552  1.00  0.00     0.168 HD
HETATM    5  C3  UNL     1      17.144  -1.496  50.779  1.00  0.00     0.154 A 
HETATM    6  S1  UNL     1      16.748  -3.134  50.535  1.00  0.00    -0.045 SA
HETATM    7  C9  UNL     1      16.611  -3.603  52.170  1.00  0.00     0.067 A 
ENDROOT
BRANCH   5   8
HETATM    8  N2  UNL     1      17.387  -0.548  49.894  1.00  0.00    -0.282 N 
HETATM    9  C4  UNL     1      16.475   0.493  49.658  1.00  0.00     0.367 C 
HETATM   10  O1  UNL     1      16.858   1.669  49.896  1.00  0.00    -0.238 OA
ATOM     11  H2  UNL     1      18.261  -0.572  49.368  1.00  0.00     0.173 HD
BRANCH   9  12
HETATM   12  O2  UNL     1      15.199   0.362  49.190  1.00  0.00    -0.294 OA
BRANCH  12  13
HETATM   13  C5  UNL     1      14.024   0.484  49.933  1.00  0.00     0.061 C 
HETATM   14  C6  UNL     1      13.690   1.943  50.119  1.00  0.00     0.046 C 
HETATM   15  C7  UNL     1      14.013  -0.208  51.244  1.00  0.00     0.046 C 
HETATM   16  C8  UNL     1      12.896  -0.110  49.082  1.00  0.00     0.046 C 
ENDBRANCH  12  13
ENDBRANCH   9  12
ENDBRANCH   5   8
BRANCH   7  17
HETATM   17  S2  UNL     1      16.206  -5.223  52.869  1.00  0.00    -0.116 SA
BRANCH  17  18
HETATM   18  C10 UNL     1      17.063  -6.522  51.941  1.00  0.00     0.140 C 
BRANCH  18  19
HETATM   19  C11 UNL     1      16.781  -7.836  52.637  1.00  0.00     0.184 C 
HETATM   20  C12 UNL     1      17.853  -8.840  52.275  1.00  0.00     0.071 C 
HETATM   21  F1  UNL     1      15.555  -8.282  52.211  1.00  0.00    -0.225 F 
HETATM   22 CL1  UNL     1      16.844  -7.608  54.398  1.00  0.00    -0.082 Cl
ENDBRANCH  18  19
ENDBRANCH  17  18
ENDBRANCH   7  17
TORSDOF 6
ENDMDL
MODEL 3
REMARK VINA RESULT: -6.522408468      1.549      1.578
REMARK  6 active torsions:
REMARK  status: ('A' for Active; 'I' for Inactive)
REMARK    1  A    between atoms: C3_5  and  N2_6 
REMARK       I    between atoms: N2_6  and  C4_8 
REMARK    2  A    between atoms: C4_8  and  O2_10 
REMARK    3  A    between atoms: O2_10  and  C5_11 
REMARK    4  A    between atoms: C9_16  and  S2_17 
REMARK    5  A    between atoms: S2_17  and  C10_18 
REMARK    6  A    between atoms: C10_18  and  C11_19 
ROOT
HETATM    1  C1  UNL     1      16.914  -2.493  54.198  1.00  0.00     0.070 C 
HETATM    2  C2  UNL     1      16.940  -2.467  52.672  1.00  0.00     0.031 A 
HETATM    3  N1  UNL     1      17.175  -1.392  51.974  1.00  0.00    -0.339 N 
ATOM      4  H1  UNL     1      17.354  -0.500  52.435  1.00  0.00     0.168 HD
HETATM    5  C3  UNL     1      17.175  -1.483  50.643  1.00  0.00     0.154 A 
HETATM    6  S1  UNL     1      16.835  -3.129  50.366  1.00  0.00    -0.045 SA
HETATM    7  C9  UNL     1      16.707  -3.633  51.992  1.00  0.00     0.067 A 
ENDROOT
BRANCH   5   8
HETATM    8  N2  UNL     1      17.390  -0.512  49.777  1.00  0.00    -0.282 N 
HETATM    9  C4  UNL     1      16.472   0.537  49.601  1.00  0.00     0.367 C 
HETATM   10  O1  UNL     1      16.866   1.705  49.858  1.00  0.00    -0.238 OA
ATOM     11  H2  UNL     1      18.245  -0.522  49.221  1.00  0.00     0.173 HD
BRANCH   9  12
HETATM   12  O2  UNL     1      15.180   0.420  49.174  1.00  0.00    -0.294 OA
BRANCH  12  13
HETATM   13  C5  UNL     1      14.033   0.494  49.964  1.00  0.00     0.061 C 
HETATM   14  C6  UNL     1      13.661   1.938  50.186  1.00  0.00     0.046 C 
HETATM   15  C7  UNL     1      14.096  -0.218  51.263  1.00  0.00     0.046 C 
HETATM   16  C8  UNL     1      12.890  -0.123  49.148  1.00  0.00     0.046 C 
ENDBRANCH  12  13
ENDBRANCH   9  12
ENDBRANCH   5   8
BRANCH   7  17
HETATM   17  S2  UNL     1      16.354  -5.279  52.658  1.00  0.00    -0.116 SA
BRANCH  17  18
HETATM   18  C10 UNL     1      17.845  -5.960  53.430  1.00  0.00     0.140 C 
BRANCH  18  19
HETATM   19  C11 UNL     1      17.552  -6.131  54.906  1.00  0.00     0.184 C 
HETATM   20  C12 UNL     1      17.625  -7.598  55.269  1.00  0.00     0.071 C 
HETATM   21  F1  UNL     1      16.289  -5.650  55.141  1.00  0.00    -0.225 F 
HETATM   22 CL1  UNL     1      18.788  -5.288  55.864  1.00  0.00    -0.082 Cl
ENDBRANCH  18  19
ENDBRANCH  17  18
ENDBRANCH   7  17
TORSDOF 6
ENDMDL
MODEL 4
REMARK VINA RESULT: -6.499068899      2.389      2.475
REMARK  6 active torsions:
REMARK  status: ('A' for Active; 'I' for Inactive)
REMARK    1  A    between atoms: C3_5  and  N2_6 
REMARK       I    between atoms: N2_6  and  C4_8 
REMARK    2  A    between atoms: C4_8  and  O2_10 
REMARK    3  A    between atoms: O2_10  and  C5_11 
REMARK    4  A    between atoms: C9_16  and  S2_17 
REMARK    5  A    between atoms: S2_17  and  C10_18 
REMARK    6  A    between atoms: C10_18  and  C11_19 
ROOT
HETATM    1  C1  UNL     1      17.416  -2.517  54.185  1.00  0.00     0.070 C 
HETATM    2  C2  UNL     1      17.178  -2.484  52.677  1.00  0.00     0.031 A 
HETATM    3  N1  UNL     1      17.427  -1.445  51.931  1.00  0.00    -0.339 N 
ATOM      4  H1  UNL     1      17.801  -0.589  52.340  1.00  0.00     0.168 HD
HETATM    5  C3  UNL     1      17.181  -1.526  50.623  1.00  0.00     0.154 A 
HETATM    6  S1  UNL     1      16.584  -3.110  50.437  1.00  0.00    -0.045 SA
HETATM    7  C9  UNL     1      16.677  -3.604  52.068  1.00  0.00     0.067 A 
ENDROOT
BRANCH   5   8
HETATM    8  N2  UNL     1      17.368  -0.586  49.717  1.00  0.00    -0.282 N 
HETATM    9  C4  UNL     1      16.462   0.475  49.556  1.00  0.00     0.367 C 
HETATM   10  O1  UNL     1      16.889   1.642  49.755  1.00  0.00    -0.238 OA
ATOM     11  H2  UNL     1      18.193  -0.630  49.118  1.00  0.00     0.173 HD
BRANCH   9  12
HETATM   12  O2  UNL     1      15.147   0.370  49.200  1.00  0.00    -0.294 OA
BRANCH  12  13
HETATM   13  C5  UNL     1      14.045   0.454  50.051  1.00  0.00     0.061 C 
HETATM   14  C6  UNL     1      13.699   1.902  50.292  1.00  0.00     0.046 C 
HETATM   15  C7  UNL     1      14.173  -0.257  51.345  1.00  0.00     0.046 C 
HETATM   16  C8  UNL     1      12.855  -0.153  49.299  1.00  0.00     0.046 C 
ENDBRANCH  12  13
ENDBRANCH   9  12
ENDBRANCH   5   8
BRANCH   7  17
HETATM   17  S2  UNL     1      16.231  -5.192  52.812  1.00  0.00    -0.116 SA
BRANCH  17  18
HETATM   18  C10 UNL     1      14.437  -5.275  53.050  1.00  0.00     0.140 C 
BRANCH  18  19
HETATM   19  C11 UNL     1      14.147  -4.823  54.466  1.00  0.00     0.184 C 
HETATM   20  C12 UNL     1      15.325  -5.153  55.355  1.00  0.00     0.071 C 
HETATM   21  F1  UNL     1      13.029  -5.490  54.898  1.00  0.00    -0.225 F 
HETATM   22 CL1  UNL     1      13.938  -3.058  54.500  1.00  0.00    -0.082 Cl
ENDBRANCH  18  19
ENDBRANCH  17  18
ENDBRANCH   7  17
TORSDOF 6
ENDMDL
MODEL 5
REMARK VINA RESULT: -6.370207442      1.454      1.768
REMARK  6 active torsions:
REMARK  status: ('A' for Active; 'I' for Inactive)
REMARK    1  A    between atoms: C3_5  and  N2_6 
REMARK       I    between atoms: N2_6  and  C4_8 
REMARK    2  A    between atoms: C4_8  and  O2_10 
REMARK    3  A    between atoms: O2_10  and  C5_11 
REMARK    4  A    between atoms: C9_16  and  S2_17 
REMARK    5  A    between atoms: S2_17  and  C10_18 
REMARK    6  A    between atoms: C10_18  and  C11_19 
ROOT
HETATM    1  C1  UNL     1      17.853  -2.702  54.451  1.00  0.00     0.070 C 
HETATM    2  C2  UNL     1      17.443  -3.126  53.043  1.00  0.00     0.031 A 
HETATM    3  N1  UNL     1      17.049  -2.290  52.125  1.00  0.00    -0.339 N 
ATOM      4  H1  UNL     1      16.996  -1.289  52.319  1.00  0.00     0.168 HD
HETATM    5  C3  UNL     1      16.714  -2.770  50.926  1.00  0.00     0.154 A 
HETATM    6  S1  UNL     1      16.963  -4.446  51.096  1.00  0.00    -0.045 SA
HETATM    7  C9  UNL     1      17.492  -4.456  52.719  1.00  0.00     0.067 A 
ENDROOT
BRANCH   5   8
HETATM    8  N2  UNL     1      16.295  -2.083  49.881  1.00  0.00    -0.282 N 
HETATM    9  C4  UNL     1      16.068  -0.699  49.950  1.00  0.00     0.367 C 
HETATM   10  O1  UNL     1      16.762   0.043  49.205  1.00  0.00    -0.238 OA
ATOM     11  H2  UNL     1      16.131  -2.570  49.000  1.00  0.00     0.173 HD
BRANCH   9  12
HETATM   12  O2  UNL     1      15.161  -0.065  50.750  1.00  0.00    -0.294 OA
BRANCH  12  13
HETATM   13  C5  UNL     1      13.838   0.240  50.429  1.00  0.00     0.061 C 
HETATM   14  C6  UNL     1      12.929  -0.203  51.547  1.00  0.00     0.046 C 
HETATM   15  C7  UNL     1      13.347  -0.294  49.136  1.00  0.00     0.046 C 
HETATM   16  C8  UNL     1      13.736   1.769  50.372  1.00  0.00     0.046 C 
ENDBRANCH  12  13
ENDBRANCH   9  12
ENDBRANCH   5   8
BRANCH   7  17
HETATM   17  S2  UNL     1      17.990  -5.854  53.754  1.00  0.00    -0.116 SA
BRANCH  17  18
HETATM   18  C10 UNL     1      16.567  -6.937  54.047  1.00  0.00     0.140 C 
BRANCH  18  19
HETATM   19  C11 UNL     1      16.669  -8.091  53.071  1.00  0.00     0.184 C 
HETATM   20  C12 UNL     1      18.124  -8.440  52.850  1.00  0.00     0.071 C 
HETATM   21  F1  UNL     1      16.094  -7.694  51.890  1.00  0.00    -0.225 F 
HETATM   22 CL1  UNL     1      15.879  -9.527  53.758  1.00  0.00    -0.082 Cl
ENDBRANCH  18  19
ENDBRANCH  17  18
ENDBRANCH   7  17
TORSDOF 6
ENDMDL
