MODEL 1
REMARK VINA RESULT: -6.953363928      0.000      0.000
REMARK  2 active torsions:
REMARK  status: ('A' for Active; 'I' for Inactive)
REMARK       I    between atoms: C1_2  and  N2_4 
REMARK    1  A    between atoms: C3_6  and  C4_7 
REMARK    2  A    between atoms: C8_15  and  C9_16 
ROOT
HETATM    1  N1  UNL     1      13.579  -5.211  53.320  1.00  0.00    -0.040 NA
HETATM    2  C1  UNL     1      13.641  -3.813  53.089  1.00  0.00     0.335 C 
HETATM    3  O1  UNL     1      14.258  -3.429  52.087  1.00  0.00    -0.251 OA
HETATM    4  N2  UNL     1      12.983  -2.949  54.033  1.00  0.00    -0.296 N 
HETATM    5  C2  UNL     1      12.300  -3.418  55.159  1.00  0.00     0.090 C 
HETATM    6  C3  UNL     1      11.572  -2.393  55.896  1.00  0.00     0.128 C 
HETATM    7  S2  UNL     1      11.529  -1.007  54.725  1.00  0.00    -0.122 SA
HETATM    8  C8  UNL     1      13.024  -1.522  53.830  1.00  0.00     0.196 C 
ENDROOT
BRANCH   6   9
HETATM    9  C4  UNL     1      10.209  -2.782  56.343  1.00  0.00     0.007 A 
HETATM   10  C5  UNL     1       9.000  -2.170  56.204  1.00  0.00     0.062 A 
HETATM   11  C6  UNL     1       7.928  -2.778  56.724  1.00  0.00     0.163 A 
HETATM   12  F1  UNL     1       6.631  -2.270  56.659  1.00  0.00    -0.202 F 
HETATM   13  C7  UNL     1       8.133  -3.977  57.361  1.00  0.00     0.196 A 
HETATM   14  F2  UNL     1       7.194  -4.782  57.969  1.00  0.00    -0.195 F 
HETATM   15  S1  UNL     1       9.820  -4.201  57.202  1.00  0.00    -0.060 SA
ENDBRANCH   6   9
BRANCH   8  16
HETATM   16  C9  UNL     1      12.928  -1.137  52.389  1.00  0.00     0.016 A 
HETATM   17  C10 UNL     1      11.860  -1.289  51.549  1.00  0.00     0.018 A 
HETATM   18  C11 UNL     1      11.998  -0.877  50.284  1.00  0.00     0.008 A 
HETATM   19  C12 UNL     1      13.205  -0.334  49.929  1.00  0.00     0.050 A 
HETATM   20  S3  UNL     1      14.098  -0.420  51.378  1.00  0.00    -0.103 SA
ENDBRANCH   8  16
TORSDOF 2
ENDMDL
MODEL 2
REMARK VINA RESULT: -6.880286296      0.749      1.269
REMARK  2 active torsions:
REMARK  status: ('A' for Active; 'I' for Inactive)
REMARK       I    between atoms: C1_2  and  N2_4 
REMARK    1  A    between atoms: C3_6  and  C4_7 
REMARK    2  A    between atoms: C8_15  and  C9_16 
ROOT
HETATM    1  N1  UNL     1      13.606  -5.237  53.301  1.00  0.00    -0.040 NA
HETATM    2  C1  UNL     1      13.700  -3.842  53.063  1.00  0.00     0.335 C 
HETATM    3  O1  UNL     1      14.344  -3.476  52.073  1.00  0.00    -0.251 OA
HETATM    4  N2  UNL     1      13.039  -2.959  53.989  1.00  0.00    -0.296 N 
HETATM    5  C2  UNL     1      12.325  -3.408  55.104  1.00  0.00     0.090 C 
HETATM    6  C3  UNL     1      11.602  -2.364  55.820  1.00  0.00     0.128 C 
HETATM    7  S2  UNL     1      11.611  -0.986  54.640  1.00  0.00    -0.122 SA
HETATM    8  C8  UNL     1      13.113  -1.535  53.779  1.00  0.00     0.196 C 
ENDROOT
BRANCH   6   9
HETATM    9  C4  UNL     1      10.224  -2.724  56.242  1.00  0.00     0.007 A 
HETATM   10  C5  UNL     1       9.736  -3.796  56.926  1.00  0.00     0.062 A 
HETATM   11  C6  UNL     1       8.420  -3.842  57.161  1.00  0.00     0.163 A 
HETATM   12  F1  UNL     1       7.783  -4.877  57.846  1.00  0.00    -0.202 F 
HETATM   13  C7  UNL     1       7.661  -2.800  56.690  1.00  0.00     0.196 A 
HETATM   14  F2  UNL     1       6.298  -2.626  56.808  1.00  0.00    -0.195 F 
HETATM   15  S1  UNL     1       8.825  -1.799  55.940  1.00  0.00    -0.060 SA
ENDBRANCH   6   9
BRANCH   8  16
HETATM   16  C9  UNL     1      13.053  -1.157  52.334  1.00  0.00     0.016 A 
HETATM   17  C10 UNL     1      11.999  -1.292  51.473  1.00  0.00     0.018 A 
HETATM   18  C11 UNL     1      12.171  -0.892  50.210  1.00  0.00     0.008 A 
HETATM   19  C12 UNL     1      13.395  -0.374  49.876  1.00  0.00     0.050 A 
HETATM   20  S3  UNL     1      14.258  -0.469  51.342  1.00  0.00    -0.103 SA
ENDBRANCH   8  16
TORSDOF 2
ENDMDL
MODEL 3
REMARK VINA RESULT: -6.653186364      5.341      7.324
REMARK  2 active torsions:
REMARK  status: ('A' for Active; 'I' for Inactive)
REMARK       I    between atoms: C1_2  and  N2_4 
REMARK    1  A    between atoms: C3_6  and  C4_7 
REMARK    2  A    between atoms: C8_15  and  C9_16 
ROOT
HETATM    1  N1  UNL     1      17.084  -1.199  55.356  1.00  0.00    -0.040 NA
HETATM    2  C1  UNL     1      17.465  -2.408  54.722  1.00  0.00     0.335 C 
HETATM    3  O1  UNL     1      18.035  -3.260  55.415  1.00  0.00    -0.251 OA
HETATM    4  N2  UNL     1      17.161  -2.554  53.322  1.00  0.00    -0.296 N 
HETATM    5  C2  UNL     1      16.522  -1.567  52.567  1.00  0.00     0.090 C 
HETATM    6  C3  UNL     1      16.166  -1.976  51.213  1.00  0.00     0.128 C 
HETATM    7  S2  UNL     1      16.331  -3.781  51.281  1.00  0.00    -0.122 SA
HETATM    8  C8  UNL     1      17.532  -3.771  52.644  1.00  0.00     0.196 C 
ENDROOT
BRANCH   6   9
HETATM    9  C4  UNL     1      14.813  -1.560  50.762  1.00  0.00     0.007 A 
HETATM   10  C5  UNL     1      14.389  -0.930  49.631  1.00  0.00     0.062 A 
HETATM   11  C6  UNL     1      13.079  -0.685  49.505  1.00  0.00     0.163 A 
HETATM   12  F1  UNL     1      12.504  -0.049  48.406  1.00  0.00    -0.202 F 
HETATM   13  C7  UNL     1      12.263  -1.089  50.532  1.00  0.00     0.196 A 
HETATM   14  F2  UNL     1      10.895  -0.949  50.630  1.00  0.00    -0.195 F 
HETATM   15  S1  UNL     1      13.366  -1.797  51.629  1.00  0.00    -0.060 SA
ENDBRANCH   6   9
BRANCH   8  16
HETATM   16  C9  UNL     1      17.364  -4.987  53.496  1.00  0.00     0.016 A 
HETATM   17  C10 UNL     1      18.331  -5.858  53.917  1.00  0.00     0.018 A 
HETATM   18  C11 UNL     1      17.952  -6.893  54.673  1.00  0.00     0.008 A 
HETATM   19  C12 UNL     1      16.618  -6.999  54.969  1.00  0.00     0.050 A 
HETATM   20  S3  UNL     1      15.947  -5.647  54.177  1.00  0.00    -0.103 SA
ENDBRANCH   8  16
TORSDOF 2
ENDMDL
MODEL 4
REMARK VINA RESULT: -6.579947457      6.194      7.979
REMARK  2 active torsions:
REMARK  status: ('A' for Active; 'I' for Inactive)
REMARK       I    between atoms: C1_2  and  N2_4 
REMARK    1  A    between atoms: C3_6  and  C4_7 
REMARK    2  A    between atoms: C8_15  and  C9_16 
ROOT
HETATM    1  N1  UNL     1      18.039  -3.934  49.203  1.00  0.00    -0.040 NA
HETATM    2  C1  UNL     1      17.494  -4.200  50.485  1.00  0.00     0.335 C 
HETATM    3  O1  UNL     1      18.044  -5.073  51.167  1.00  0.00    -0.251 OA
HETATM    4  N2  UNL     1      16.345  -3.435  50.896  1.00  0.00    -0.296 N 
HETATM    5  C2  UNL     1      15.745  -2.459  50.095  1.00  0.00     0.090 C 
HETATM    6  C3  UNL     1      14.697  -1.693  50.758  1.00  0.00     0.128 C 
HETATM    7  S2  UNL     1      14.963  -2.078  52.511  1.00  0.00    -0.122 SA
HETATM    8  C8  UNL     1      15.765  -3.677  52.193  1.00  0.00     0.196 C 
ENDROOT
BRANCH   6   9
HETATM    9  C4  UNL     1      14.724  -0.230  50.502  1.00  0.00     0.007 A 
HETATM   10  C5  UNL     1      13.827   0.756  50.784  1.00  0.00     0.062 A 
HETATM   11  C6  UNL     1      14.139   2.006  50.423  1.00  0.00     0.163 A 
HETATM   12  F1  UNL     1      13.320   3.113  50.646  1.00  0.00    -0.202 F 
HETATM   13  C7  UNL     1      15.344   2.196  49.792  1.00  0.00     0.196 A 
HETATM   14  F2  UNL     1      15.878   3.381  49.331  1.00  0.00    -0.195 F 
HETATM   15  S1  UNL     1      15.988   0.615  49.735  1.00  0.00    -0.060 SA
ENDBRANCH   6   9
BRANCH   8  16
HETATM   16  C9  UNL     1      16.788  -3.966  53.243  1.00  0.00     0.016 A 
HETATM   17  C10 UNL     1      17.766  -3.133  53.715  1.00  0.00     0.018 A 
HETATM   18  C11 UNL     1      18.585  -3.606  54.659  1.00  0.00     0.008 A 
HETATM   19  C12 UNL     1      18.379  -4.893  55.082  1.00  0.00     0.050 A 
HETATM   20  S3  UNL     1      17.048  -5.391  54.142  1.00  0.00    -0.103 SA
ENDBRANCH   8  16
TORSDOF 2
ENDMDL
MODEL 5
REMARK VINA RESULT: -6.519433681      5.443      6.842
REMARK  2 active torsions:
REMARK  status: ('A' for Active; 'I' for Inactive)
REMARK       I    between atoms: C1_2  and  N2_4 
REMARK    1  A    between atoms: C3_6  and  C4_7 
REMARK    2  A    between atoms: C8_15  and  C9_16 
ROOT
HETATM    1  N1  UNL     1      13.091  -0.631  55.304  1.00  0.00    -0.040 NA
HETATM    2  C1  UNL     1      12.972  -1.125  53.980  1.00  0.00     0.335 C 
HETATM    3  O1  UNL     1      12.220  -0.513  53.211  1.00  0.00    -0.251 OA
HETATM    4  N2  UNL     1      13.732  -2.296  53.631  1.00  0.00    -0.296 N 
HETATM    5  C2  UNL     1      14.567  -2.967  54.530  1.00  0.00     0.090 C 
HETATM    6  C3  UNL     1      15.366  -4.031  53.934  1.00  0.00     0.128 C 
HETATM    7  S2  UNL     1      15.227  -3.694  52.157  1.00  0.00    -0.122 SA
HETATM    8  C8  UNL     1      13.637  -2.825  52.293  1.00  0.00     0.196 C 
ENDROOT
BRANCH   6   9
HETATM    9  C4  UNL     1      16.783  -4.082  54.379  1.00  0.00     0.007 A 
HETATM   10  C5  UNL     1      17.906  -4.561  53.774  1.00  0.00     0.062 A 
HETATM   11  C6  UNL     1      19.063  -4.464  54.439  1.00  0.00     0.163 A 
HETATM   12  F1  UNL     1      20.289  -4.911  53.946  1.00  0.00    -0.202 F 
HETATM   13  C7  UNL     1      19.026  -3.889  55.685  1.00  0.00     0.196 A 
HETATM   14  F2  UNL     1      20.079  -3.682  56.551  1.00  0.00    -0.195 F 
HETATM   15  S1  UNL     1      17.371  -3.506  55.870  1.00  0.00    -0.060 SA
ENDBRANCH   6   9
BRANCH   8  16
HETATM   16  C9  UNL     1      13.535  -1.758  51.252  1.00  0.00     0.016 A 
HETATM   17  C10 UNL     1      12.514  -1.544  50.367  1.00  0.00     0.018 A 
HETATM   18  C11 UNL     1      12.636  -0.527  49.509  1.00  0.00     0.008 A 
HETATM   19  C12 UNL     1      13.780   0.225  49.585  1.00  0.00     0.050 A 
HETATM   20  S3  UNL     1      14.639  -0.522  50.854  1.00  0.00    -0.103 SA
ENDBRANCH   8  16
TORSDOF 2
ENDMDL
