MODEL 1
REMARK VINA RESULT: -6.406472922      0.000      0.000
REMARK  3 active torsions:
REMARK  status: ('A' for Active; 'I' for Inactive)
REMARK    1  A    between atoms: N1_6  and  C6_7 
REMARK    2  A    between atoms: C6_7  and  N2_8 
REMARK    3  A    between atoms: C7_9  and  C8_10 
ROOT
HETATM    1  N2  UNL     1      15.040  -2.299  51.209  1.00  0.00    -0.275 N 
HETATM    2  C7  UNL     1      14.671  -1.354  50.261  1.00  0.00     0.113 A 
HETATM    3  N3  UNL     1      15.643  -1.370  49.348  1.00  0.00    -0.286 N 
ATOM      4  H3  UNL     1      15.661  -0.777  48.520  1.00  0.00     0.188 HD
HETATM    5  N4  UNL     1      16.565  -2.237  49.644  1.00  0.00    -0.274 N 
ATOM      6  H4  UNL     1      17.407  -2.438  49.106  1.00  0.00     0.189 HD
HETATM    7  C12 UNL     1      16.196  -2.815  50.793  1.00  0.00     0.199 A 
HETATM    8  S1  UNL     1      17.055  -4.069  51.506  1.00  0.00    -0.039 SA
ENDROOT
BRANCH   1   9
HETATM    9  C6  UNL     1      14.214  -2.614  52.312  1.00  0.00     0.166 C 
BRANCH   9  10
HETATM   10  N1  UNL     1      14.127  -1.794  53.462  1.00  0.00    -0.243 NA
HETATM   11  C5  UNL     1      12.777  -2.092  54.069  1.00  0.00     0.099 C 
HETATM   12  C4  UNL     1      12.448  -0.871  54.912  1.00  0.00     0.015 C 
HETATM   13  C3  UNL     1      13.230  -1.155  56.207  1.00  0.00     0.010 C 
HETATM   14  C2  UNL     1      14.656  -1.284  55.823  1.00  0.00     0.036 C 
HETATM   15  C1  UNL     1      15.346  -2.057  56.986  1.00  0.00     0.014 C 
HETATM   16  C13 UNL     1      15.014  -2.003  54.570  1.00  0.00     0.176 C 
HETATM   17 CL1  UNL     1      15.086  -3.752  55.024  1.00  0.00    -0.083 Cl
HETATM   18 CL2  UNL     1      16.686  -1.383  54.213  1.00  0.00    -0.083 Cl
ENDBRANCH   9  10
ENDBRANCH   1   9
BRANCH   2  19
HETATM   19  C8  UNL     1      13.464  -0.506  50.193  1.00  0.00     0.009 C 
HETATM   20  C9  UNL     1      13.293  -0.124  48.701  1.00  0.00     0.023 C 
HETATM   21  C10 UNL     1      12.189  -1.292  50.459  1.00  0.00     0.023 C 
HETATM   22  C11 UNL     1      13.525   0.814  50.872  1.00  0.00     0.023 C 
ENDBRANCH   2  19
TORSDOF 3
ENDMDL
MODEL 2
REMARK VINA RESULT: -6.286662084      2.287      3.731
REMARK  3 active torsions:
REMARK  status: ('A' for Active; 'I' for Inactive)
REMARK    1  A    between atoms: N1_6  and  C6_7 
REMARK    2  A    between atoms: C6_7  and  N2_8 
REMARK    3  A    between atoms: C7_9  and  C8_10 
ROOT
HETATM    1  N2  UNL     1      15.206  -1.361  51.624  1.00  0.00    -0.275 N 
HETATM    2  C7  UNL     1      16.015  -2.420  51.232  1.00  0.00     0.113 A 
HETATM    3  N3  UNL     1      16.360  -2.152  49.972  1.00  0.00    -0.286 N 
ATOM      4  H3  UNL     1      16.955  -2.753  49.401  1.00  0.00     0.188 HD
HETATM    5  N4  UNL     1      15.845  -1.033  49.560  1.00  0.00    -0.274 N 
ATOM      6  H4  UNL     1      15.962  -0.611  48.639  1.00  0.00     0.189 HD
HETATM    7  C12 UNL     1      15.132  -0.539  50.579  1.00  0.00     0.199 A 
HETATM    8  S1  UNL     1      14.360   0.951  50.520  1.00  0.00    -0.039 SA
ENDROOT
BRANCH   1   9
HETATM    9  C6  UNL     1      14.692  -1.259  52.938  1.00  0.00     0.166 C 
BRANCH   9  10
HETATM   10  N1  UNL     1      13.321  -1.039  53.208  1.00  0.00    -0.243 NA
HETATM   11  C5  UNL     1      12.571  -1.840  52.170  1.00  0.00     0.099 C 
HETATM   12  C4  UNL     1      11.201  -1.187  52.087  1.00  0.00     0.015 C 
HETATM   13  C3  UNL     1      10.469  -1.821  53.282  1.00  0.00     0.010 C 
HETATM   14  C2  UNL     1      11.253  -1.475  54.492  1.00  0.00     0.036 C 
HETATM   15  C1  UNL     1      10.834  -2.504  55.584  1.00  0.00     0.014 C 
HETATM   16  C13 UNL     1      12.740  -1.506  54.434  1.00  0.00     0.176 C 
HETATM   17 CL1  UNL     1      13.198  -3.226  54.756  1.00  0.00    -0.083 Cl
HETATM   18 CL2  UNL     1      13.221  -0.460  55.842  1.00  0.00    -0.083 Cl
ENDBRANCH   9  10
ENDBRANCH   1   9
BRANCH   2  19
HETATM   19  C8  UNL     1      16.467  -3.597  52.000  1.00  0.00     0.009 C 
HETATM   20  C9  UNL     1      17.346  -4.428  51.030  1.00  0.00     0.023 C 
HETATM   21  C10 UNL     1      17.467  -3.231  53.086  1.00  0.00     0.023 C 
HETATM   22  C11 UNL     1      15.427  -4.568  52.424  1.00  0.00     0.023 C 
ENDBRANCH   2  19
TORSDOF 3
ENDMDL
MODEL 3
REMARK VINA RESULT: -6.279008917      2.046      2.768
REMARK  3 active torsions:
REMARK  status: ('A' for Active; 'I' for Inactive)
REMARK    1  A    between atoms: N1_6  and  C6_7 
REMARK    2  A    between atoms: C6_7  and  N2_8 
REMARK    3  A    between atoms: C7_9  and  C8_10 
ROOT
HETATM    1  N2  UNL     1      15.860  -2.297  51.212  1.00  0.00    -0.275 N 
HETATM    2  C7  UNL     1      15.832  -1.520  50.062  1.00  0.00     0.113 A 
HETATM    3  N3  UNL     1      16.638  -2.138  49.198  1.00  0.00    -0.286 N 
ATOM      4  H3  UNL     1      16.829  -1.805  48.253  1.00  0.00     0.188 HD
HETATM    5  N4  UNL     1      17.150  -3.218  49.707  1.00  0.00    -0.274 N 
ATOM      6  H4  UNL     1      17.793  -3.863  49.248  1.00  0.00     0.189 HD
HETATM    7  C12 UNL     1      16.671  -3.322  50.952  1.00  0.00     0.199 A 
HETATM    8  S1  UNL     1      17.002  -4.625  51.957  1.00  0.00    -0.039 SA
ENDROOT
BRANCH   1   9
HETATM    9  C6  UNL     1      15.068  -1.989  52.342  1.00  0.00     0.166 C 
BRANCH   9  10
HETATM   10  N1  UNL     1      13.907  -2.722  52.686  1.00  0.00    -0.243 NA
HETATM   11  C5  UNL     1      14.273  -3.498  53.929  1.00  0.00     0.099 C 
HETATM   12  C4  UNL     1      13.296  -4.661  53.966  1.00  0.00     0.015 C 
HETATM   13  C3  UNL     1      12.047  -4.013  54.590  1.00  0.00     0.010 C 
HETATM   14  C2  UNL     1      11.656  -2.897  53.695  1.00  0.00     0.036 C 
HETATM   15  C1  UNL     1      10.760  -1.953  54.552  1.00  0.00     0.014 C 
HETATM   16  C13 UNL     1      12.713  -2.039  53.092  1.00  0.00     0.176 C 
HETATM   17 CL1  UNL     1      13.076  -0.777  54.335  1.00  0.00    -0.083 Cl
HETATM   18 CL2  UNL     1      11.859  -1.287  51.672  1.00  0.00    -0.083 Cl
ENDBRANCH   9  10
ENDBRANCH   1   9
BRANCH   2  19
HETATM   19  C8  UNL     1      15.070  -0.288  49.772  1.00  0.00     0.009 C 
HETATM   20  C9  UNL     1      16.001   0.596  48.905  1.00  0.00     0.023 C 
HETATM   21  C10 UNL     1      13.906  -0.537  48.824  1.00  0.00     0.023 C 
HETATM   22  C11 UNL     1      14.747   0.593  50.923  1.00  0.00     0.023 C 
ENDBRANCH   2  19
TORSDOF 3
ENDMDL
MODEL 4
REMARK VINA RESULT: -6.241221929      2.576      4.802
REMARK  3 active torsions:
REMARK  status: ('A' for Active; 'I' for Inactive)
REMARK    1  A    between atoms: N1_6  and  C6_7 
REMARK    2  A    between atoms: C6_7  and  N2_8 
REMARK    3  A    between atoms: C7_9  and  C8_10 
ROOT
HETATM    1  N2  UNL     1      14.189  -1.373  54.664  1.00  0.00    -0.275 N 
HETATM    2  C7  UNL     1      12.923  -1.351  54.095  1.00  0.00     0.113 A 
HETATM    3  N3  UNL     1      12.084  -1.136  55.110  1.00  0.00    -0.286 N 
ATOM      4  H3  UNL     1      11.071  -1.071  55.011  1.00  0.00     0.188 HD
HETATM    5  N4  UNL     1      12.716  -1.020  56.239  1.00  0.00    -0.274 N 
ATOM      6  H4  UNL     1      12.299  -0.852  57.155  1.00  0.00     0.189 HD
HETATM    7  C12 UNL     1      14.018  -1.164  55.969  1.00  0.00     0.199 A 
HETATM    8  S1  UNL     1      15.219  -0.998  57.130  1.00  0.00    -0.039 SA
ENDROOT
BRANCH   1   9
HETATM    9  C6  UNL     1      15.358  -1.516  53.881  1.00  0.00     0.166 C 
BRANCH   9  10
HETATM   10  N1  UNL     1      15.767  -2.756  53.336  1.00  0.00    -0.243 NA
HETATM   11  C5  UNL     1      16.480  -2.415  52.049  1.00  0.00     0.099 C 
HETATM   12  C4  UNL     1      16.410  -3.683  51.215  1.00  0.00     0.015 C 
HETATM   13  C3  UNL     1      17.577  -4.509  51.786  1.00  0.00     0.010 C 
HETATM   14  C2  UNL     1      17.298  -4.695  53.230  1.00  0.00     0.036 C 
HETATM   15  C1  UNL     1      18.663  -5.053  53.889  1.00  0.00     0.014 C 
HETATM   16  C13 UNL     1      16.736  -3.564  54.018  1.00  0.00     0.176 C 
HETATM   17 CL1  UNL     1      18.162  -2.577  54.528  1.00  0.00    -0.083 Cl
HETATM   18 CL2  UNL     1      16.010  -4.400  55.461  1.00  0.00    -0.083 Cl
ENDBRANCH   9  10
ENDBRANCH   1   9
BRANCH   2  19
HETATM   19  C8  UNL     1      12.520  -1.489  52.681  1.00  0.00     0.009 C 
HETATM   20  C9  UNL     1      10.972  -1.399  52.667  1.00  0.00     0.023 C 
HETATM   21  C10 UNL     1      12.908  -0.277  51.848  1.00  0.00     0.023 C 
HETATM   22  C11 UNL     1      12.785  -2.796  52.027  1.00  0.00     0.023 C 
ENDBRANCH   2  19
TORSDOF 3
ENDMDL
MODEL 5
REMARK VINA RESULT: -6.236769385      1.681      2.313
REMARK  3 active torsions:
REMARK  status: ('A' for Active; 'I' for Inactive)
REMARK    1  A    between atoms: N1_6  and  C6_7 
REMARK    2  A    between atoms: C6_7  and  N2_8 
REMARK    3  A    between atoms: C7_9  and  C8_10 
ROOT
HETATM    1  N2  UNL     1      15.188  -1.559  51.994  1.00  0.00    -0.275 N 
HETATM    2  C7  UNL     1      14.702  -1.202  50.743  1.00  0.00     0.113 A 
HETATM    3  N3  UNL     1      15.512  -1.797  49.866  1.00  0.00    -0.286 N 
ATOM      4  H3  UNL     1      15.415  -1.721  48.854  1.00  0.00     0.188 HD
HETATM    5  N4  UNL     1      16.440  -2.485  50.461  1.00  0.00    -0.274 N 
ATOM      6  H4  UNL     1      17.176  -3.029  50.011  1.00  0.00     0.189 HD
HETATM    7  C12 UNL     1      16.243  -2.343  51.776  1.00  0.00     0.199 A 
HETATM    8  S1  UNL     1      17.163  -3.139  52.932  1.00  0.00    -0.039 SA
ENDROOT
BRANCH   1   9
HETATM    9  C6  UNL     1      14.542  -1.164  53.188  1.00  0.00     0.166 C 
BRANCH   9  10
HETATM   10  N1  UNL     1      14.236  -2.072  54.230  1.00  0.00    -0.243 NA
HETATM   11  C5  UNL     1      14.585  -1.350  55.509  1.00  0.00     0.099 C 
HETATM   12  C4  UNL     1      14.804  -2.452  56.533  1.00  0.00     0.015 C 
HETATM   13  C3  UNL     1      13.364  -2.779  56.966  1.00  0.00     0.010 C 
HETATM   14  C2  UNL     1      12.638  -3.199  55.744  1.00  0.00     0.036 C 
HETATM   15  C1  UNL     1      11.123  -3.030  56.064  1.00  0.00     0.014 C 
HETATM   16  C13 UNL     1      12.880  -2.476  54.465  1.00  0.00     0.176 C 
HETATM   17 CL1  UNL     1      11.774  -1.045  54.505  1.00  0.00    -0.083 Cl
HETATM   18 CL2  UNL     1      12.311  -3.667  53.214  1.00  0.00    -0.083 Cl
ENDBRANCH   9  10
ENDBRANCH   1   9
BRANCH   2  19
HETATM   19  C8  UNL     1      13.529  -0.379  50.386  1.00  0.00     0.009 C 
HETATM   20  C9  UNL     1      13.353  -0.528  48.853  1.00  0.00     0.023 C 
HETATM   21  C10 UNL     1      12.227  -0.971  50.905  1.00  0.00     0.023 C 
HETATM   22  C11 UNL     1      13.652   1.090  50.568  1.00  0.00     0.023 C 
ENDBRANCH   2  19
TORSDOF 3
ENDMDL
