MODEL 1
REMARK VINA RESULT: -7.147495184      0.000      0.000
REMARK  5 active torsions:
REMARK  status: ('A' for Active; 'I' for Inactive)
REMARK    1  A    between atoms: C7_7  and  O1_8 
REMARK    2  A    between atoms: O1_8  and  C8_9 
REMARK    3  A    between atoms: C8_9  and  C9_10 
REMARK    4  A    between atoms: C10_11  and  C11_12 
REMARK    5  A    between atoms: C11_12  and  O2_13 
ROOT
HETATM    1  C1  UNL     1      17.517  -6.841  54.304  1.00  0.00     0.043 C 
HETATM    2  C2  UNL     1      17.584  -5.434  53.733  1.00  0.00    -0.087 C 
HETATM    3  C3  UNL     1      16.511  -4.936  53.207  1.00  0.00    -0.017 C 
HETATM    4  C4  UNL     1      16.225  -3.656  52.585  1.00  0.00     0.044 C 
HETATM    5  C5  UNL     1      14.707  -3.471  52.401  1.00  0.00     0.016 C 
HETATM    6  C6  UNL     1      14.518  -2.415  51.345  1.00  0.00     0.061 C 
HETATM    7  C7  UNL     1      15.645  -1.414  51.334  1.00  0.00     0.261 C 
HETATM    8  O3  UNL     1      16.320  -1.282  52.484  1.00  0.00    -0.349 OA
HETATM    9  C12 UNL     1      16.737  -2.417  53.170  1.00  0.00     0.210 C 
HETATM   10  C13 UNL     1      16.520  -2.125  54.598  1.00  0.00     0.307 C 
HETATM   11  F1  UNL     1      17.427  -1.112  54.984  1.00  0.00    -0.197 F 
HETATM   12  F2  UNL     1      15.286  -1.466  54.683  1.00  0.00    -0.197 F 
HETATM   13  C14 UNL     1      16.624  -3.180  55.584  1.00  0.00     0.082 C 
HETATM   14 CL1  UNL     1      15.193  -3.489  56.605  1.00  0.00    -0.083 Cl
HETATM   15  C15 UNL     1      17.651  -3.948  55.823  1.00  0.00    -0.001 C 
HETATM   16  C16 UNL     1      18.955  -3.883  55.103  1.00  0.00     0.033 C 
HETATM   17  C17 UNL     1      18.926  -4.770  53.868  1.00  0.00     0.037 C 
ENDROOT
BRANCH   7  18
HETATM   18  O1  UNL     1      16.398  -1.609  50.188  1.00  0.00    -0.350 OA
BRANCH  18  19
HETATM   19  C8  UNL     1      17.364  -0.659  49.970  1.00  0.00     0.264 C 
BRANCH  19  20
HETATM   20  C9  UNL     1      16.723   0.650  49.771  1.00  0.00    -0.078 C 
HETATM   21  C10 UNL     1      16.205   1.726  49.627  1.00  0.00    -0.079 C 
BRANCH  21  22
HETATM   22  C11 UNL     1      15.556   3.050  49.472  1.00  0.00     0.257 C 
BRANCH  22  23
HETATM   23  O2  UNL     1      16.376   3.922  48.747  1.00  0.00    -0.389 OA
ATOM     24  H2  UNL     1      16.733   3.488  47.981  1.00  0.00     0.210 HD
ENDBRANCH  22  23
ENDBRANCH  21  22
ENDBRANCH  19  20
ENDBRANCH  18  19
ENDBRANCH   7  18
TORSDOF 5
ENDMDL
MODEL 2
REMARK VINA RESULT: -7.116280554      4.301      7.078
REMARK  5 active torsions:
REMARK  status: ('A' for Active; 'I' for Inactive)
REMARK    1  A    between atoms: C7_7  and  O1_8 
REMARK    2  A    between atoms: O1_8  and  C8_9 
REMARK    3  A    between atoms: C8_9  and  C9_10 
REMARK    4  A    between atoms: C10_11  and  C11_12 
REMARK    5  A    between atoms: C11_12  and  O2_13 
ROOT
HETATM    1  C1  UNL     1      12.451  -0.897  48.876  1.00  0.00     0.043 C 
HETATM    2  C2  UNL     1      12.831  -0.881  50.347  1.00  0.00    -0.087 C 
HETATM    3  C3  UNL     1      12.792  -1.999  51.001  1.00  0.00    -0.017 C 
HETATM    4  C4  UNL     1      13.083  -2.339  52.381  1.00  0.00     0.044 C 
HETATM    5  C5  UNL     1      13.166  -3.868  52.555  1.00  0.00     0.016 C 
HETATM    6  C6  UNL     1      12.968  -4.154  54.020  1.00  0.00     0.061 C 
HETATM    7  C7  UNL     1      13.469  -3.030  54.891  1.00  0.00     0.261 C 
HETATM    8  O3  UNL     1      14.412  -2.248  54.351  1.00  0.00    -0.349 OA
HETATM    9  C12 UNL     1      14.249  -1.770  53.055  1.00  0.00     0.210 C 
HETATM   10  C13 UNL     1      15.581  -1.848  52.428  1.00  0.00     0.307 C 
HETATM   11  F1  UNL     1      16.422  -0.905  53.061  1.00  0.00    -0.197 F 
HETATM   12  F2  UNL     1      16.139  -3.066  52.838  1.00  0.00    -0.197 F 
HETATM   13  C14 UNL     1      15.729  -1.653  51.001  1.00  0.00     0.082 C 
HETATM   14 CL1  UNL     1      16.472  -2.980  50.068  1.00  0.00    -0.083 Cl
HETATM   15  C15 UNL     1      15.381  -0.609  50.300  1.00  0.00    -0.001 C 
HETATM   16  C16 UNL     1      14.742   0.620  50.852  1.00  0.00     0.033 C 
HETATM   17  C17 UNL     1      13.229   0.470  50.873  1.00  0.00     0.037 C 
ENDROOT
BRANCH   7  18
HETATM   18  O1  UNL     1      12.379  -2.392  55.458  1.00  0.00    -0.350 OA
BRANCH  18  19
HETATM   19  C8  UNL     1      11.800  -3.068  56.503  1.00  0.00     0.264 C 
BRANCH  19  20
HETATM   20  C9  UNL     1      10.346  -2.844  56.480  1.00  0.00    -0.078 C 
HETATM   21  C10 UNL     1       9.157  -2.656  56.481  1.00  0.00    -0.079 C 
BRANCH  21  22
HETATM   22  C11 UNL     1       7.691  -2.439  56.503  1.00  0.00     0.257 C 
BRANCH  22  23
HETATM   23  O2  UNL     1       7.073  -3.131  55.456  1.00  0.00    -0.389 OA
ATOM     24  H2  UNL     1       6.497  -3.806  55.794  1.00  0.00     0.210 HD
ENDBRANCH  22  23
ENDBRANCH  21  22
ENDBRANCH  19  20
ENDBRANCH  18  19
ENDBRANCH   7  18
TORSDOF 5
ENDMDL
MODEL 3
REMARK VINA RESULT: -6.968073626      2.441      4.094
REMARK  5 active torsions:
REMARK  status: ('A' for Active; 'I' for Inactive)
REMARK    1  A    between atoms: C7_7  and  O1_8 
REMARK    2  A    between atoms: O1_8  and  C8_9 
REMARK    3  A    between atoms: C8_9  and  C9_10 
REMARK    4  A    between atoms: C10_11  and  C11_12 
REMARK    5  A    between atoms: C11_12  and  O2_13 
ROOT
HETATM    1  C1  UNL     1      12.368  -0.531  55.581  1.00  0.00     0.043 C 
HETATM    2  C2  UNL     1      12.861  -1.248  54.335  1.00  0.00    -0.087 C 
HETATM    3  C3  UNL     1      14.138  -1.338  54.146  1.00  0.00    -0.017 C 
HETATM    4  C4  UNL     1      14.935  -1.938  53.093  1.00  0.00     0.044 C 
HETATM    5  C5  UNL     1      16.415  -2.022  53.515  1.00  0.00     0.016 C 
HETATM    6  C6  UNL     1      17.224  -2.168  52.254  1.00  0.00     0.061 C 
HETATM    7  C7  UNL     1      16.461  -2.888  51.170  1.00  0.00     0.261 C 
HETATM    8  O3  UNL     1      15.477  -3.696  51.587  1.00  0.00    -0.349 OA
HETATM    9  C12 UNL     1      14.575  -3.244  52.543  1.00  0.00     0.210 C 
HETATM   10  C13 UNL     1      14.335  -4.387  53.441  1.00  0.00     0.307 C 
HETATM   11  F1  UNL     1      13.633  -5.377  52.717  1.00  0.00    -0.197 F 
HETATM   12  F2  UNL     1      15.580  -4.996  53.645  1.00  0.00    -0.197 F 
HETATM   13  C14 UNL     1      13.628  -4.199  54.691  1.00  0.00     0.082 C 
HETATM   14 CL1  UNL     1      14.477  -4.668  56.189  1.00  0.00    -0.083 Cl
HETATM   15  C15 UNL     1      12.426  -3.721  54.861  1.00  0.00    -0.001 C 
HETATM   16  C16 UNL     1      11.524  -3.261  53.766  1.00  0.00     0.033 C 
HETATM   17  C17 UNL     1      11.768  -1.793  53.456  1.00  0.00     0.037 C 
ENDROOT
BRANCH   7  18
HETATM   18  O1  UNL     1      16.143  -1.979  50.176  1.00  0.00    -0.350 OA
BRANCH  18  19
HETATM   19  C8  UNL     1      17.165  -1.132  49.826  1.00  0.00     0.264 C 
BRANCH  19  20
HETATM   20  C9  UNL     1      16.649   0.243  49.741  1.00  0.00    -0.078 C 
HETATM   21  C10 UNL     1      16.219   1.365  49.692  1.00  0.00    -0.079 C 
BRANCH  21  22
HETATM   22  C11 UNL     1      15.667   2.740  49.639  1.00  0.00     0.257 C 
BRANCH  22  23
HETATM   23  O2  UNL     1      16.497   3.577  48.885  1.00  0.00    -0.389 OA
ATOM     24  H2  UNL     1      16.137   4.456  48.842  1.00  0.00     0.210 HD
ENDBRANCH  22  23
ENDBRANCH  21  22
ENDBRANCH  19  20
ENDBRANCH  18  19
ENDBRANCH   7  18
TORSDOF 5
ENDMDL
MODEL 4
REMARK VINA RESULT: -6.851066001      1.778      2.421
REMARK  5 active torsions:
REMARK  status: ('A' for Active; 'I' for Inactive)
REMARK    1  A    between atoms: C7_7  and  O1_8 
REMARK    2  A    between atoms: O1_8  and  C8_9 
REMARK    3  A    between atoms: C8_9  and  C9_10 
REMARK    4  A    between atoms: C10_11  and  C11_12 
REMARK    5  A    between atoms: C11_12  and  O2_13 
ROOT
HETATM    1  C1  UNL     1      19.519  -4.874  55.827  1.00  0.00     0.043 C 
HETATM    2  C2  UNL     1      18.509  -4.036  55.060  1.00  0.00    -0.087 C 
HETATM    3  C3  UNL     1      18.363  -4.262  53.793  1.00  0.00    -0.017 C 
HETATM    4  C4  UNL     1      17.511  -3.665  52.781  1.00  0.00     0.044 C 
HETATM    5  C5  UNL     1      17.521  -4.516  51.496  1.00  0.00     0.016 C 
HETATM    6  C6  UNL     1      17.057  -3.624  50.376  1.00  0.00     0.061 C 
HETATM    7  C7  UNL     1      16.097  -2.564  50.854  1.00  0.00     0.261 C 
HETATM    8  O3  UNL     1      15.428  -2.847  51.979  1.00  0.00    -0.349 OA
HETATM    9  C12 UNL     1      16.113  -3.357  53.076  1.00  0.00     0.210 C 
HETATM   10  C13 UNL     1      15.233  -4.387  53.657  1.00  0.00     0.307 C 
HETATM   11  F1  UNL     1      14.099  -3.741  54.203  1.00  0.00    -0.197 F 
HETATM   12  F2  UNL     1      14.682  -5.089  52.577  1.00  0.00    -0.197 F 
HETATM   13  C14 UNL     1      15.733  -5.288  54.673  1.00  0.00     0.082 C 
HETATM   14 CL1  UNL     1      15.645  -7.037  54.329  1.00  0.00    -0.083 Cl
HETATM   15  C15 UNL     1      16.250  -4.976  55.830  1.00  0.00    -0.001 C 
HETATM   16  C16 UNL     1      16.431  -3.586  56.340  1.00  0.00     0.033 C 
HETATM   17  C17 UNL     1      17.773  -3.026  55.897  1.00  0.00     0.037 C 
ENDROOT
BRANCH   7  18
HETATM   18  O1  UNL     1      16.732  -1.335  50.799  1.00  0.00    -0.350 OA
BRANCH  18  19
HETATM   19  C8  UNL     1      16.859  -0.813  49.536  1.00  0.00     0.264 C 
BRANCH  19  20
HETATM   20  C9  UNL     1      16.423   0.592  49.546  1.00  0.00    -0.078 C 
HETATM   21  C10 UNL     1      16.054   1.738  49.538  1.00  0.00    -0.079 C 
BRANCH  21  22
HETATM   22  C11 UNL     1      15.603   3.149  49.503  1.00  0.00     0.257 C 
BRANCH  22  23
HETATM   23  O2  UNL     1      16.439   3.915  48.683  1.00  0.00    -0.389 OA
ATOM     24  H2  UNL     1      15.959   4.637  48.294  1.00  0.00     0.210 HD
ENDBRANCH  22  23
ENDBRANCH  21  22
ENDBRANCH  19  20
ENDBRANCH  18  19
ENDBRANCH   7  18
TORSDOF 5
ENDMDL
MODEL 5
REMARK VINA RESULT: -6.849533853      1.920      2.412
REMARK  5 active torsions:
REMARK  status: ('A' for Active; 'I' for Inactive)
REMARK    1  A    between atoms: C7_7  and  O1_8 
REMARK    2  A    between atoms: O1_8  and  C8_9 
REMARK    3  A    between atoms: C8_9  and  C9_10 
REMARK    4  A    between atoms: C10_11  and  C11_12 
REMARK    5  A    between atoms: C11_12  and  O2_13 
ROOT
HETATM    1  C1  UNL     1      15.692  -6.642  53.313  1.00  0.00     0.043 C 
HETATM    2  C2  UNL     1      15.486  -5.242  52.758  1.00  0.00    -0.087 C 
HETATM    3  C3  UNL     1      14.348  -4.662  52.969  1.00  0.00    -0.017 C 
HETATM    4  C4  UNL     1      13.825  -3.362  52.593  1.00  0.00     0.044 C 
HETATM    5  C5  UNL     1      12.523  -3.060  53.361  1.00  0.00     0.016 C 
HETATM    6  C6  UNL     1      11.797  -1.990  52.591  1.00  0.00     0.061 C 
HETATM    7  C7  UNL     1      12.745  -1.078  51.854  1.00  0.00     0.261 C 
HETATM    8  O3  UNL     1      13.987  -1.002  52.351  1.00  0.00    -0.349 OA
HETATM    9  C12 UNL     1      14.663  -2.168  52.692  1.00  0.00     0.210 C 
HETATM   10  C13 UNL     1      15.378  -1.865  53.945  1.00  0.00     0.307 C 
HETATM   11  F1  UNL     1      16.395  -0.925  53.656  1.00  0.00    -0.197 F 
HETATM   12  F2  UNL     1      14.495  -1.114  54.731  1.00  0.00    -0.197 F 
HETATM   13  C14 UNL     1      15.994  -2.928  54.711  1.00  0.00     0.082 C 
HETATM   14 CL1  UNL     1      15.464  -3.130  56.403  1.00  0.00    -0.083 Cl
HETATM   15  C15 UNL     1      16.905  -3.773  54.311  1.00  0.00    -0.001 C 
HETATM   16  C16 UNL     1      17.502  -3.806  52.944  1.00  0.00     0.033 C 
HETATM   17  C17 UNL     1      16.672  -4.684  52.021  1.00  0.00     0.037 C 
ENDROOT
BRANCH   7  18
HETATM   18  O1  UNL     1      12.631  -1.326  50.496  1.00  0.00    -0.350 OA
BRANCH  18  19
HETATM   19  C8  UNL     1      12.690  -0.207  49.704  1.00  0.00     0.264 C 
BRANCH  19  20
HETATM   20  C9  UNL     1      14.082   0.262  49.627  1.00  0.00    -0.078 C 
HETATM   21  C10 UNL     1      15.226   0.632  49.581  1.00  0.00    -0.079 C 
BRANCH  21  22
HETATM   22  C11 UNL     1      16.635   1.092  49.549  1.00  0.00     0.257 C 
BRANCH  22  23
HETATM   23  O2  UNL     1      16.723   2.441  49.910  1.00  0.00    -0.389 OA
ATOM     24  H2  UNL     1      16.741   2.994  49.138  1.00  0.00     0.210 HD
ENDBRANCH  22  23
ENDBRANCH  21  22
ENDBRANCH  19  20
ENDBRANCH  18  19
ENDBRANCH   7  18
TORSDOF 5
ENDMDL
