MODEL 1
REMARK VINA RESULT: -7.544058753      0.000      0.000
REMARK  6 active torsions:
REMARK  status: ('A' for Active; 'I' for Inactive)
REMARK    1  A    between atoms: N1_1  and  N2_4 
REMARK    2  A    between atoms: N2_4  and  C1_5 
REMARK    3  A    between atoms: N2_4  and  C3_10 
REMARK    4  A    between atoms: C1_5  and  C2_6 
REMARK    5  A    between atoms: C3_10  and  O1_11 
REMARK    6  A    between atoms: C3_10  and  C4_13 
ROOT
HETATM    1  C4  UNL     1      10.892  -1.926  53.370  1.00  0.00     0.018 A 
HETATM    2  C5  UNL     1      11.807  -2.721  53.997  1.00  0.00     0.017 A 
HETATM    3  C6  UNL     1      13.053  -3.015  53.417  1.00  0.00     0.021 A 
HETATM    4  C7  UNL     1      13.396  -2.511  52.193  1.00  0.00     0.022 A 
HETATM    5  C8  UNL     1      12.500  -1.709  51.537  1.00  0.00     0.023 A 
HETATM    6  C9  UNL     1      11.287  -1.435  52.123  1.00  0.00     0.036 A 
HETATM    7  S1  UNL     1      12.913  -1.024  49.921  1.00  0.00    -0.088 SA
HETATM    8  C10 UNL     1      14.644  -0.603  49.945  1.00  0.00     0.022 A 
HETATM    9  C11 UNL     1      15.116   0.523  49.312  1.00  0.00     0.020 A 
HETATM   10  C12 UNL     1      16.466   0.859  49.327  1.00  0.00     0.001 A 
HETATM   11  C13 UNL     1      17.362   0.041  49.993  1.00  0.00     0.001 A 
HETATM   12  C14 UNL     1      16.866  -1.098  50.630  1.00  0.00     0.020 A 
HETATM   13  C15 UNL     1      15.535  -1.419  50.610  1.00  0.00     0.022 A 
HETATM   14  S2  UNL     1      15.005  -2.899  51.457  1.00  0.00    -0.088 SA
ENDROOT
BRANCH   1  15
HETATM   15  C3  UNL     1       9.600  -1.599  53.933  1.00  0.00     0.167 C 
BRANCH  15  16
HETATM   16  N2  UNL     1       9.266  -1.193  55.225  1.00  0.00    -0.269 N 
BRANCH  16  17
HETATM   17  N1  UNL     1       9.716  -0.073  55.875  1.00  0.00    -0.341 N 
ATOM     18  H12 UNL     1       9.236   0.824  55.950  1.00  0.00     0.177 HD
ATOM     19  H11 UNL     1      10.625  -0.158  56.329  1.00  0.00     0.177 HD
ENDBRANCH  16  17
BRANCH  16  20
HETATM   20  C1  UNL     1       8.333  -2.041  55.981  1.00  0.00     0.268 C 
BRANCH  20  21
HETATM   21  C2  UNL     1       9.019  -2.944  56.950  1.00  0.00     0.405 C 
HETATM   22  F1  UNL     1       8.585  -4.240  56.766  1.00  0.00    -0.169 F 
HETATM   23  F2  UNL     1      10.386  -2.918  56.854  1.00  0.00    -0.169 F 
HETATM   24  F3  UNL     1       8.666  -2.552  58.215  1.00  0.00    -0.169 F 
ENDBRANCH  20  21
ENDBRANCH  16  20
ENDBRANCH  15  16
BRANCH  15  25
HETATM   25  O1  UNL     1       8.620  -1.713  53.069  1.00  0.00    -0.344 OA
ATOM     26  H1  UNL     1       8.695  -1.220  52.260  1.00  0.00     0.219 HD
ENDBRANCH  15  25
ENDBRANCH   1  15
TORSDOF 6
ENDMDL
MODEL 2
REMARK VINA RESULT: -7.481571213      1.832      2.181
REMARK  6 active torsions:
REMARK  status: ('A' for Active; 'I' for Inactive)
REMARK    1  A    between atoms: N1_1  and  N2_4 
REMARK    2  A    between atoms: N2_4  and  C1_5 
REMARK    3  A    between atoms: N2_4  and  C3_10 
REMARK    4  A    between atoms: C1_5  and  C2_6 
REMARK    5  A    between atoms: C3_10  and  O1_11 
REMARK    6  A    between atoms: C3_10  and  C4_13 
ROOT
HETATM    1  C4  UNL     1      10.935  -2.355  54.961  1.00  0.00     0.018 A 
HETATM    2  C5  UNL     1      12.029  -3.108  55.278  1.00  0.00     0.017 A 
HETATM    3  C6  UNL     1      13.106  -3.259  54.389  1.00  0.00     0.021 A 
HETATM    4  C7  UNL     1      13.099  -2.652  53.163  1.00  0.00     0.022 A 
HETATM    5  C8  UNL     1      12.015  -1.889  52.815  1.00  0.00     0.023 A 
HETATM    6  C9  UNL     1      10.972  -1.756  53.700  1.00  0.00     0.036 A 
HETATM    7  S1  UNL     1      11.965  -1.071  51.208  1.00  0.00    -0.088 SA
HETATM    8  C10 UNL     1      13.615  -0.508  50.843  1.00  0.00     0.022 A 
HETATM    9  C11 UNL     1      13.838   0.692  50.208  1.00  0.00     0.020 A 
HETATM   10  C12 UNL     1      15.123   1.139  49.920  1.00  0.00     0.001 A 
HETATM   11  C13 UNL     1      16.210   0.360  50.277  1.00  0.00     0.001 A 
HETATM   12  C14 UNL     1      15.966  -0.854  50.921  1.00  0.00     0.020 A 
HETATM   13  C15 UNL     1      14.697  -1.285  51.200  1.00  0.00     0.022 A 
HETATM   14  S2  UNL     1      14.495  -2.855  52.028  1.00  0.00    -0.088 SA
ENDROOT
BRANCH   1  15
HETATM   15  C3  UNL     1       9.806  -2.175  55.847  1.00  0.00     0.167 C 
BRANCH  15  16
HETATM   16  N2  UNL     1       9.097  -3.118  56.592  1.00  0.00    -0.269 N 
BRANCH  16  17
HETATM   17  N1  UNL     1       9.281  -4.476  56.585  1.00  0.00    -0.341 N 
ATOM     18  H12 UNL     1       9.087  -5.122  57.350  1.00  0.00     0.177 HD
ATOM     19  H11 UNL     1       9.649  -4.870  55.720  1.00  0.00     0.177 HD
ENDBRANCH  16  17
BRANCH  16  20
HETATM   20  C1  UNL     1       8.041  -2.619  57.484  1.00  0.00     0.268 C 
BRANCH  20  21
HETATM   21  C2  UNL     1       6.667  -2.960  57.012  1.00  0.00     0.405 C 
HETATM   22  F1  UNL     1       5.818  -1.900  57.245  1.00  0.00    -0.169 F 
HETATM   23  F2  UNL     1       6.609  -3.289  55.683  1.00  0.00    -0.169 F 
HETATM   24  F3  UNL     1       6.223  -4.031  57.743  1.00  0.00    -0.169 F 
ENDBRANCH  20  21
ENDBRANCH  16  20
ENDBRANCH  15  16
BRANCH  15  25
HETATM   25  O1  UNL     1       9.419  -0.925  55.938  1.00  0.00    -0.344 OA
ATOM     26  H1  UNL     1       9.181  -0.485  55.130  1.00  0.00     0.219 HD
ENDBRANCH  15  25
ENDBRANCH   1  15
TORSDOF 6
ENDMDL
MODEL 3
REMARK VINA RESULT: -7.440976192      2.423      3.322
REMARK  6 active torsions:
REMARK  status: ('A' for Active; 'I' for Inactive)
REMARK    1  A    between atoms: N1_1  and  N2_4 
REMARK    2  A    between atoms: N2_4  and  C1_5 
REMARK    3  A    between atoms: N2_4  and  C3_10 
REMARK    4  A    between atoms: C1_5  and  C2_6 
REMARK    5  A    between atoms: C3_10  and  O1_11 
REMARK    6  A    between atoms: C3_10  and  C4_13 
ROOT
HETATM    1  C4  UNL     1      10.496  -1.708  54.817  1.00  0.00     0.018 A 
HETATM    2  C5  UNL     1      10.179  -1.554  53.498  1.00  0.00     0.017 A 
HETATM    3  C6  UNL     1      11.169  -1.395  52.513  1.00  0.00     0.021 A 
HETATM    4  C7  UNL     1      12.496  -1.389  52.843  1.00  0.00     0.022 A 
HETATM    5  C8  UNL     1      12.847  -1.541  54.158  1.00  0.00     0.023 A 
HETATM    6  C9  UNL     1      11.863  -1.695  55.105  1.00  0.00     0.036 A 
HETATM    7  S1  UNL     1      14.587  -1.539  54.635  1.00  0.00    -0.088 SA
HETATM    8  C10 UNL     1      15.492  -2.389  53.359  1.00  0.00     0.022 A 
HETATM    9  C11 UNL     1      16.555  -3.210  53.661  1.00  0.00     0.020 A 
HETATM   10  C12 UNL     1      17.267  -3.878  52.671  1.00  0.00     0.001 A 
HETATM   11  C13 UNL     1      16.903  -3.717  51.345  1.00  0.00     0.001 A 
HETATM   12  C14 UNL     1      15.822  -2.881  51.057  1.00  0.00     0.020 A 
HETATM   13  C15 UNL     1      15.127  -2.228  52.039  1.00  0.00     0.022 A 
HETATM   14  S2  UNL     1      13.760  -1.183  51.562  1.00  0.00    -0.088 SA
ENDROOT
BRANCH   1  15
HETATM   15  C3  UNL     1       9.509  -1.874  55.861  1.00  0.00     0.167 C 
BRANCH  15  16
HETATM   16  N2  UNL     1       9.104  -3.029  56.531  1.00  0.00    -0.269 N 
BRANCH  16  17
HETATM   17  N1  UNL     1       9.568  -4.302  56.325  1.00  0.00    -0.341 N 
ATOM     18  H12 UNL     1      10.280  -4.788  56.871  1.00  0.00     0.177 HD
ATOM     19  H11 UNL     1       9.149  -4.807  55.544  1.00  0.00     0.177 HD
ENDBRANCH  16  17
BRANCH  16  20
HETATM   20  C1  UNL     1       8.075  -2.882  57.571  1.00  0.00     0.268 C 
BRANCH  20  21
HETATM   21  C2  UNL     1       6.691  -3.105  57.058  1.00  0.00     0.405 C 
HETATM   22  F1  UNL     1       5.974  -1.930  57.131  1.00  0.00    -0.169 F 
HETATM   23  F2  UNL     1       6.649  -3.570  55.770  1.00  0.00    -0.169 F 
HETATM   24  F3  UNL     1       6.083  -4.027  57.871  1.00  0.00    -0.169 F 
ENDBRANCH  20  21
ENDBRANCH  16  20
ENDBRANCH  15  16
BRANCH  15  25
HETATM   25  O1  UNL     1       8.928  -0.749  56.203  1.00  0.00    -0.344 OA
ATOM     26  H1  UNL     1       9.201   0.037  55.743  1.00  0.00     0.219 HD
ENDBRANCH  15  25
ENDBRANCH   1  15
TORSDOF 6
ENDMDL
MODEL 4
REMARK VINA RESULT: -7.419927053      1.481      1.777
REMARK  6 active torsions:
REMARK  status: ('A' for Active; 'I' for Inactive)
REMARK    1  A    between atoms: N1_1  and  N2_4 
REMARK    2  A    between atoms: N2_4  and  C1_5 
REMARK    3  A    between atoms: N2_4  and  C3_10 
REMARK    4  A    between atoms: C1_5  and  C2_6 
REMARK    5  A    between atoms: C3_10  and  O1_11 
REMARK    6  A    between atoms: C3_10  and  C4_13 
ROOT
HETATM    1  C4  UNL     1      10.554  -2.023  54.856  1.00  0.00     0.018 A 
HETATM    2  C5  UNL     1      11.518  -2.887  55.292  1.00  0.00     0.017 A 
HETATM    3  C6  UNL     1      12.629  -3.218  54.500  1.00  0.00     0.021 A 
HETATM    4  C7  UNL     1      12.788  -2.684  53.251  1.00  0.00     0.022 A 
HETATM    5  C8  UNL     1      11.839  -1.813  52.783  1.00  0.00     0.023 A 
HETATM    6  C9  UNL     1      10.760  -1.504  53.575  1.00  0.00     0.036 A 
HETATM    7  S1  UNL     1      12.011  -1.086  51.141  1.00  0.00    -0.088 SA
HETATM    8  C10 UNL     1      13.741  -0.752  50.883  1.00  0.00     0.022 A 
HETATM    9  C11 UNL     1      14.162   0.375  50.214  1.00  0.00     0.020 A 
HETATM   10  C12 UNL     1      15.511   0.643  50.008  1.00  0.00     0.001 A 
HETATM   11  C13 UNL     1      16.460  -0.243  50.486  1.00  0.00     0.001 A 
HETATM   12  C14 UNL     1      16.018  -1.381  51.163  1.00  0.00     0.020 A 
HETATM   13  C15 UNL     1      14.687  -1.635  51.361  1.00  0.00     0.022 A 
HETATM   14  S2  UNL     1      14.227  -3.120  52.240  1.00  0.00    -0.088 SA
ENDROOT
BRANCH   1  15
HETATM   15  C3  UNL     1       9.396  -1.657  55.640  1.00  0.00     0.167 C 
BRANCH  15  16
HETATM   16  N2  UNL     1       8.387  -2.460  56.171  1.00  0.00    -0.269 N 
BRANCH  16  17
HETATM   17  N1  UNL     1       7.312  -2.979  55.498  1.00  0.00    -0.341 N 
ATOM     18  H12 UNL     1       6.467  -2.480  55.219  1.00  0.00     0.177 HD
ATOM     19  H11 UNL     1       7.376  -3.968  55.254  1.00  0.00     0.177 HD
ENDBRANCH  16  17
BRANCH  16  20
HETATM   20  C1  UNL     1       8.473  -2.797  57.600  1.00  0.00     0.268 C 
BRANCH  20  21
HETATM   21  C2  UNL     1       8.762  -4.240  57.843  1.00  0.00     0.405 C 
HETATM   22  F1  UNL     1       7.593  -4.905  58.145  1.00  0.00    -0.169 F 
HETATM   23  F2  UNL     1       9.367  -4.867  56.784  1.00  0.00    -0.169 F 
HETATM   24  F3  UNL     1       9.594  -4.327  58.930  1.00  0.00    -0.169 F 
ENDBRANCH  20  21
ENDBRANCH  16  20
ENDBRANCH  15  16
BRANCH  15  25
HETATM   25  O1  UNL     1       9.316  -0.367  55.865  1.00  0.00    -0.344 OA
ATOM     26  H1  UNL     1       9.981   0.185  55.471  1.00  0.00     0.219 HD
ENDBRANCH  15  25
ENDBRANCH   1  15
TORSDOF 6
ENDMDL
MODEL 5
REMARK VINA RESULT: -7.370480991      1.788      2.848
REMARK  6 active torsions:
REMARK  status: ('A' for Active; 'I' for Inactive)
REMARK    1  A    between atoms: N1_1  and  N2_4 
REMARK    2  A    between atoms: N2_4  and  C1_5 
REMARK    3  A    between atoms: N2_4  and  C3_10 
REMARK    4  A    between atoms: C1_5  and  C2_6 
REMARK    5  A    between atoms: C3_10  and  O1_11 
REMARK    6  A    between atoms: C3_10  and  C4_13 
ROOT
HETATM    1  C4  UNL     1      11.169  -1.458  52.918  1.00  0.00     0.018 A 
HETATM    2  C5  UNL     1      11.143  -1.099  51.601  1.00  0.00     0.017 A 
HETATM    3  C6  UNL     1      12.313  -1.043  50.826  1.00  0.00     0.021 A 
HETATM    4  C7  UNL     1      13.531  -1.350  51.366  1.00  0.00     0.022 A 
HETATM    5  C8  UNL     1      13.592  -1.715  52.685  1.00  0.00     0.023 A 
HETATM    6  C9  UNL     1      12.435  -1.762  53.425  1.00  0.00     0.036 A 
HETATM    7  S1  UNL     1      15.179  -2.128  53.437  1.00  0.00    -0.088 SA
HETATM    8  C10 UNL     1      16.136  -3.005  52.218  1.00  0.00     0.022 A 
HETATM    9  C11 UNL     1      16.951  -4.057  52.567  1.00  0.00     0.020 A 
HETATM   10  C12 UNL     1      17.701  -4.747  51.622  1.00  0.00     0.001 A 
HETATM   11  C13 UNL     1      17.631  -4.369  50.292  1.00  0.00     0.001 A 
HETATM   12  C14 UNL     1      16.800  -3.301  49.954  1.00  0.00     0.020 A 
HETATM   13  C15 UNL     1      16.065  -2.628  50.893  1.00  0.00     0.022 A 
HETATM   14  S2  UNL     1      15.032  -1.274  50.354  1.00  0.00    -0.088 SA
ENDROOT
BRANCH   1  15
HETATM   15  C3  UNL     1       9.988  -1.528  53.750  1.00  0.00     0.167 C 
BRANCH  15  16
HETATM   16  N2  UNL     1       9.849  -1.310  55.121  1.00  0.00    -0.269 N 
BRANCH  16  17
HETATM   17  N1  UNL     1       9.613  -0.111  55.742  1.00  0.00    -0.341 N 
ATOM     18  H12 UNL     1       8.969   0.060  56.514  1.00  0.00     0.177 HD
ATOM     19  H11 UNL     1      10.145   0.684  55.388  1.00  0.00     0.177 HD
ENDBRANCH  16  17
BRANCH  16  20
HETATM   20  C1  UNL     1       9.959  -2.480  56.006  1.00  0.00     0.268 C 
BRANCH  20  21
HETATM   21  C2  UNL     1       8.654  -2.885  56.604  1.00  0.00     0.405 C 
HETATM   22  F1  UNL     1       8.519  -2.317  57.853  1.00  0.00    -0.169 F 
HETATM   23  F2  UNL     1       7.568  -2.540  55.842  1.00  0.00    -0.169 F 
HETATM   24  F3  UNL     1       8.663  -4.247  56.754  1.00  0.00    -0.169 F 
ENDBRANCH  20  21
ENDBRANCH  16  20
ENDBRANCH  15  16
BRANCH  15  25
HETATM   25  O1  UNL     1       8.905  -1.845  53.081  1.00  0.00    -0.344 OA
ATOM     26  H1  UNL     1       9.020  -2.137  52.184  1.00  0.00     0.219 HD
ENDBRANCH  15  25
ENDBRANCH   1  15
TORSDOF 6
ENDMDL
