MODEL 1
REMARK VINA RESULT: -6.264977099      0.000      0.000
REMARK  6 active torsions:
REMARK  status: ('A' for Active; 'I' for Inactive)
REMARK    1  A    between atoms: C2_2  and  N1_5 
REMARK    2  A    between atoms: N1_5  and  C3_8 
REMARK    3  A    between atoms: C3_8  and  O1_9 
REMARK    4  A    between atoms: O1_9  and  C4_10 
REMARK    5  A    between atoms: C4_10  and  N2_12 
REMARK    6  A    between atoms: N2_12  and  C5_14 
ROOT
HETATM    1  C4  UNL     1      16.801  -4.128  51.899  1.00  0.00     0.217 C 
HETATM    2  S1  UNL     1      15.644  -5.048  52.581  1.00  0.00    -0.033 SA
ENDROOT
BRANCH   1   3
HETATM    3  O1  UNL     1      18.004  -3.910  52.553  1.00  0.00    -0.299 OA
BRANCH   3   4
HETATM    4  C3  UNL     1      17.948  -3.466  53.893  1.00  0.00     0.415 C 
BRANCH   4   5
HETATM    5  N1  UNL     1      17.590  -2.062  53.851  1.00  0.00    -0.003 N 
ATOM      6  H12 UNL     1      17.137  -1.817  52.971  1.00  0.00     0.285 HD
ATOM      7  H11 UNL     1      18.416  -1.468  53.774  1.00  0.00     0.285 HD
BRANCH   5   8
HETATM    8  C2  UNL     1      16.769  -1.689  54.996  1.00  0.00     0.339 C 
HETATM    9  C1  UNL     1      15.335  -1.576  54.465  1.00  0.00     0.103 C 
HETATM   10  F1  UNL     1      17.170  -0.456  55.414  1.00  0.00    -0.194 F 
HETATM   11 CL1  UNL     1      16.864  -2.906  56.284  1.00  0.00    -0.053 Cl
ENDBRANCH   5   8
ENDBRANCH   4   5
ENDBRANCH   3   4
ENDBRANCH   1   3
BRANCH   1  12
HETATM   12  N2  UNL     1      16.619  -3.526  50.630  1.00  0.00    -0.316 N 
ATOM     13  H2  UNL     1      16.725  -4.107  49.798  1.00  0.00     0.170 HD
BRANCH  12  14
HETATM   14  C5  UNL     1      16.329  -2.294  50.475  1.00  0.00     0.120 A 
HETATM   15  S2  UNL     1      14.812  -1.628  50.835  1.00  0.00    -0.064 SA
HETATM   16  C6  UNL     1      14.801   0.056  50.500  1.00  0.00     0.024 A 
HETATM   17  C7  UNL     1      13.787   0.967  50.647  1.00  0.00     0.020 A 
HETATM   18  C11 UNL     1      16.055   0.427  50.018  1.00  0.00     0.024 A 
HETATM   19  C8  UNL     1      13.997   2.300  50.311  1.00  0.00     0.001 A 
HETATM   20  C9  UNL     1      15.220   2.697  49.834  1.00  0.00     0.001 A 
HETATM   21  C10 UNL     1      16.208   1.762  49.701  1.00  0.00     0.020 A 
HETATM   22  S3  UNL     1      17.135  -0.909  49.935  1.00  0.00    -0.064 SA
ENDBRANCH  12  14
ENDBRANCH   1  12
TORSDOF 6
ENDMDL
MODEL 2
REMARK VINA RESULT: -6.197719841      1.857      2.281
REMARK  6 active torsions:
REMARK  status: ('A' for Active; 'I' for Inactive)
REMARK    1  A    between atoms: C2_2  and  N1_5 
REMARK    2  A    between atoms: N1_5  and  C3_8 
REMARK    3  A    between atoms: C3_8  and  O1_9 
REMARK    4  A    between atoms: O1_9  and  C4_10 
REMARK    5  A    between atoms: C4_10  and  N2_12 
REMARK    6  A    between atoms: N2_12  and  C5_14 
ROOT
HETATM    1  C4  UNL     1      17.055  -4.105  51.838  1.00  0.00     0.217 C 
HETATM    2  S1  UNL     1      16.788  -5.686  52.117  1.00  0.00    -0.033 SA
ENDROOT
BRANCH   1   3
HETATM    3  O1  UNL     1      17.564  -3.290  52.838  1.00  0.00    -0.299 OA
BRANCH   3   4
HETATM    4  C3  UNL     1      17.314  -3.665  54.177  1.00  0.00     0.415 C 
BRANCH   4   5
HETATM    5  N1  UNL     1      18.539  -3.418  54.912  1.00  0.00    -0.003 N 
ATOM      6  H12 UNL     1      18.360  -2.914  55.780  1.00  0.00     0.285 HD
ATOM      7  H11 UNL     1      19.123  -2.725  54.445  1.00  0.00     0.285 HD
BRANCH   5   8
HETATM    8  C2  UNL     1      19.271  -4.655  55.156  1.00  0.00     0.339 C 
HETATM    9  C1  UNL     1      20.188  -4.372  56.351  1.00  0.00     0.103 C 
HETATM   10  F1  UNL     1      20.050  -4.901  54.065  1.00  0.00    -0.194 F 
HETATM   11 CL1  UNL     1      18.169  -5.998  55.519  1.00  0.00    -0.053 Cl
ENDBRANCH   5   8
ENDBRANCH   4   5
ENDBRANCH   3   4
ENDBRANCH   1   3
BRANCH   1  12
HETATM   12  N2  UNL     1      16.779  -3.515  50.580  1.00  0.00    -0.316 N 
ATOM     13  H2  UNL     1      16.850  -4.098  49.745  1.00  0.00     0.170 HD
BRANCH  12  14
HETATM   14  C5  UNL     1      16.446  -2.293  50.439  1.00  0.00     0.120 A 
HETATM   15  S2  UNL     1      14.920  -1.675  50.847  1.00  0.00    -0.064 SA
HETATM   16  C6  UNL     1      14.846   0.008  50.519  1.00  0.00     0.024 A 
HETATM   17  C7  UNL     1      13.808   0.886  50.700  1.00  0.00     0.020 A 
HETATM   18  C11 UNL     1      16.072   0.420  50.001  1.00  0.00     0.024 A 
HETATM   19  C8  UNL     1      13.966   2.226  50.363  1.00  0.00     0.001 A 
HETATM   20  C9  UNL     1      15.160   2.663  49.850  1.00  0.00     0.001 A 
HETATM   21  C10 UNL     1      16.173   1.760  49.684  1.00  0.00     0.020 A 
HETATM   22  S3  UNL     1      17.190  -0.881  49.880  1.00  0.00    -0.064 SA
ENDBRANCH  12  14
ENDBRANCH   1  12
TORSDOF 6
ENDMDL
MODEL 3
REMARK VINA RESULT: -6.138071637      4.246      4.661
REMARK  6 active torsions:
REMARK  status: ('A' for Active; 'I' for Inactive)
REMARK    1  A    between atoms: C2_2  and  N1_5 
REMARK    2  A    between atoms: N1_5  and  C3_8 
REMARK    3  A    between atoms: C3_8  and  O1_9 
REMARK    4  A    between atoms: O1_9  and  C4_10 
REMARK    5  A    between atoms: C4_10  and  N2_12 
REMARK    6  A    between atoms: N2_12  and  C5_14 
ROOT
HETATM    1  C4  UNL     1      13.101  -3.342  53.561  1.00  0.00     0.217 C 
HETATM    2  S1  UNL     1      13.728  -4.792  53.952  1.00  0.00    -0.033 SA
ENDROOT
BRANCH   1   3
HETATM    3  O1  UNL     1      12.705  -2.457  54.552  1.00  0.00    -0.299 OA
BRANCH   3   4
HETATM    4  C3  UNL     1      11.406  -2.613  55.086  1.00  0.00     0.415 C 
BRANCH   4   5
HETATM    5  N1  UNL     1      10.991  -1.307  55.559  1.00  0.00    -0.003 N 
ATOM      6  H12 UNL     1      11.598  -0.569  55.202  1.00  0.00     0.285 HD
ATOM      7  H11 UNL     1      11.177  -1.194  56.555  1.00  0.00     0.285 HD
BRANCH   5   8
HETATM    8  C2  UNL     1       9.593  -1.047  55.244  1.00  0.00     0.339 C 
HETATM    9  C1  UNL     1       9.425  -1.392  53.759  1.00  0.00     0.103 C 
HETATM   10  F1  UNL     1       9.369   0.288  55.402  1.00  0.00    -0.194 F 
HETATM   11 CL1  UNL     1       8.510  -2.039  56.240  1.00  0.00    -0.053 Cl
ENDBRANCH   5   8
ENDBRANCH   4   5
ENDBRANCH   3   4
ENDBRANCH   1   3
BRANCH   1  12
HETATM   12  N2  UNL     1      12.942  -2.940  52.213  1.00  0.00    -0.316 N 
ATOM     13  H2  UNL     1      12.284  -3.457  51.627  1.00  0.00     0.170 HD
BRANCH  12  14
HETATM   14  C5  UNL     1      13.579  -1.966  51.693  1.00  0.00     0.120 A 
HETATM   15  S2  UNL     1      12.935  -0.408  51.507  1.00  0.00    -0.064 SA
HETATM   16  C6  UNL     1      14.085   0.633  50.772  1.00  0.00     0.024 A 
HETATM   17  C7  UNL     1      13.975   1.960  50.444  1.00  0.00     0.020 A 
HETATM   18  C11 UNL     1      15.251  -0.088  50.524  1.00  0.00     0.024 A 
HETATM   19  C8  UNL     1      15.044   2.619  49.847  1.00  0.00     0.001 A 
HETATM   20  C9  UNL     1      16.206   1.937  49.589  1.00  0.00     0.001 A 
HETATM   21  C10 UNL     1      16.280   0.615  49.930  1.00  0.00     0.020 A 
HETATM   22  S3  UNL     1      15.117  -1.725  51.032  1.00  0.00    -0.064 SA
ENDBRANCH  12  14
ENDBRANCH   1  12
TORSDOF 6
ENDMDL
MODEL 4
REMARK VINA RESULT: -6.092256946      3.378      4.197
REMARK  6 active torsions:
REMARK  status: ('A' for Active; 'I' for Inactive)
REMARK    1  A    between atoms: C2_2  and  N1_5 
REMARK    2  A    between atoms: N1_5  and  C3_8 
REMARK    3  A    between atoms: C3_8  and  O1_9 
REMARK    4  A    between atoms: O1_9  and  C4_10 
REMARK    5  A    between atoms: C4_10  and  N2_12 
REMARK    6  A    between atoms: N2_12  and  C5_14 
ROOT
HETATM    1  C4  UNL     1      17.198  -4.175  51.301  1.00  0.00     0.217 C 
HETATM    2  S1  UNL     1      17.327  -3.577  52.810  1.00  0.00    -0.033 SA
ENDROOT
BRANCH   1   3
HETATM    3  O1  UNL     1      17.223  -5.543  51.082  1.00  0.00    -0.299 OA
BRANCH   3   4
HETATM    4  C3  UNL     1      16.884  -6.385  52.165  1.00  0.00     0.415 C 
BRANCH   4   5
HETATM    5  N1  UNL     1      17.160  -7.743  51.738  1.00  0.00    -0.003 N 
ATOM      6  H12 UNL     1      17.779  -7.762  50.928  1.00  0.00     0.285 HD
ATOM      7  H11 UNL     1      16.338  -8.177  51.319  1.00  0.00     0.285 HD
BRANCH   5   8
HETATM    8  C2  UNL     1      17.689  -8.546  52.833  1.00  0.00     0.339 C 
HETATM    9  C1  UNL     1      17.840  -7.589  54.022  1.00  0.00     0.103 C 
HETATM   10  F1  UNL     1      18.930  -8.980  52.471  1.00  0.00    -0.194 F 
HETATM   11 CL1  UNL     1      16.597  -9.883  53.242  1.00  0.00    -0.053 Cl
ENDBRANCH   5   8
ENDBRANCH   4   5
ENDBRANCH   3   4
ENDBRANCH   1   3
BRANCH   1  12
HETATM   12  N2  UNL     1      17.057  -3.327  50.176  1.00  0.00    -0.316 N 
ATOM     13  H2  UNL     1      17.466  -3.625  49.290  1.00  0.00     0.170 HD
BRANCH  12  14
HETATM   14  C5  UNL     1      16.444  -2.209  50.215  1.00  0.00     0.120 A 
HETATM   15  S2  UNL     1      17.148  -0.730  49.773  1.00  0.00    -0.064 SA
HETATM   16  C6  UNL     1      16.018   0.549  49.956  1.00  0.00     0.024 A 
HETATM   17  C7  UNL     1      16.173   1.890  49.713  1.00  0.00     0.020 A 
HETATM   18  C11 UNL     1      14.814   0.025  50.422  1.00  0.00     0.024 A 
HETATM   19  C8  UNL     1      15.113   2.763  49.931  1.00  0.00     0.001 A 
HETATM   20  C9  UNL     1      13.915   2.278  50.390  1.00  0.00     0.001 A 
HETATM   21  C10 UNL     1      13.796   0.935  50.621  1.00  0.00     0.020 A 
HETATM   22  S3  UNL     1      14.896  -1.679  50.641  1.00  0.00    -0.064 SA
ENDBRANCH  12  14
ENDBRANCH   1  12
TORSDOF 6
ENDMDL
MODEL 5
REMARK VINA RESULT: -6.053199462      6.325      8.278
REMARK  6 active torsions:
REMARK  status: ('A' for Active; 'I' for Inactive)
REMARK    1  A    between atoms: C2_2  and  N1_5 
REMARK    2  A    between atoms: N1_5  and  C3_8 
REMARK    3  A    between atoms: C3_8  and  O1_9 
REMARK    4  A    between atoms: O1_9  and  C4_10 
REMARK    5  A    between atoms: C4_10  and  N2_12 
REMARK    6  A    between atoms: N2_12  and  C5_14 
ROOT
HETATM    1  C4  UNL     1      13.149  -1.753  54.406  1.00  0.00     0.217 C 
HETATM    2  S1  UNL     1      14.297  -1.374  55.497  1.00  0.00    -0.033 SA
ENDROOT
BRANCH   1   3
HETATM    3  O1  UNL     1      13.458  -2.533  53.303  1.00  0.00    -0.299 OA
BRANCH   3   4
HETATM    4  C3  UNL     1      14.025  -1.885  52.182  1.00  0.00     0.415 C 
BRANCH   4   5
HETATM    5  N1  UNL     1      13.150  -2.157  51.058  1.00  0.00    -0.003 N 
ATOM      6  H12 UNL     1      12.530  -2.943  51.248  1.00  0.00     0.285 HD
ATOM      7  H11 UNL     1      13.665  -2.548  50.270  1.00  0.00     0.285 HD
BRANCH   5   8
HETATM    8  C2  UNL     1      12.402  -0.969  50.670  1.00  0.00     0.339 C 
HETATM    9  C1  UNL     1      13.196   0.225  51.213  1.00  0.00     0.103 C 
HETATM   10  F1  UNL     1      11.197  -1.008  51.305  1.00  0.00    -0.194 F 
HETATM   11 CL1  UNL     1      12.234  -0.856  48.907  1.00  0.00    -0.053 Cl
ENDBRANCH   5   8
ENDBRANCH   4   5
ENDBRANCH   3   4
ENDBRANCH   1   3
BRANCH   1  12
HETATM   12  N2  UNL     1      11.814  -1.304  54.547  1.00  0.00    -0.316 N 
ATOM     13  H2  UNL     1      11.532  -0.456  54.053  1.00  0.00     0.170 HD
BRANCH  12  14
HETATM   14  C5  UNL     1      10.945  -1.905  55.261  1.00  0.00     0.120 A 
HETATM   15  S2  UNL     1       9.322  -1.428  55.376  1.00  0.00    -0.064 SA
HETATM   16  C6  UNL     1       8.461  -2.478  56.427  1.00  0.00     0.024 A 
HETATM   17  C7  UNL     1       7.140  -2.451  56.795  1.00  0.00     0.020 A 
HETATM   18  C11 UNL     1       9.336  -3.450  56.908  1.00  0.00     0.024 A 
HETATM   19  C8  UNL     1       6.644  -3.411  57.671  1.00  0.00     0.001 A 
HETATM   20  C9  UNL     1       7.479  -4.381  58.162  1.00  0.00     0.001 A 
HETATM   21  C10 UNL     1       8.790  -4.377  57.773  1.00  0.00     0.020 A 
HETATM   22  S3  UNL     1      10.927  -3.249  56.288  1.00  0.00    -0.064 SA
ENDBRANCH  12  14
ENDBRANCH   1  12
TORSDOF 6
ENDMDL
