MODEL 1
REMARK VINA RESULT: -7.133551634      0.000      0.000
REMARK  4 active torsions:
REMARK  status: ('A' for Active; 'I' for Inactive)
REMARK    1  A    between atoms: C2_2  and  C4_4 
REMARK    2  A    between atoms: C2_2  and  C18_22 
REMARK    3  A    between atoms: C7_9  and  N2_10 
REMARK    4  A    between atoms: N3_13  and  C10_14 
ROOT
HETATM    1  C4  UNL     1      15.184  -0.959  49.732  1.00  0.00     0.071 C 
HETATM    2  C5  UNL     1      15.530   0.227  48.882  1.00  0.00     0.033 C 
HETATM    3  C6  UNL     1      16.537   0.944  49.725  1.00  0.00     0.121 C 
HETATM    4  N1  UNL     1      17.036  -0.070  50.587  1.00  0.00    -0.379 N 
ATOM      5  H1  UNL     1      17.890   0.040  51.135  1.00  0.00     0.160 HD
HETATM    6  C7  UNL     1      16.317  -1.143  50.620  1.00  0.00     0.080 C 
ENDROOT
BRANCH   6   7
HETATM    7  N2  UNL     1      16.635  -2.308  51.419  1.00  0.00    -0.367 N 
HETATM    8  C8  UNL     1      16.884  -3.606  50.822  1.00  0.00     0.154 C 
HETATM    9  C9  UNL     1      17.324  -4.589  51.853  1.00  0.00     0.292 C 
HETATM   10  N3  UNL     1      16.506  -4.688  53.016  1.00  0.00     0.096 N 
HETATM   11  C16 UNL     1      15.843  -3.464  53.313  1.00  0.00     0.292 C 
HETATM   12  C17 UNL     1      16.723  -2.286  52.865  1.00  0.00     0.154 C 
BRANCH  10  13
HETATM   13  C10 UNL     1      17.270  -5.228  54.108  1.00  0.00     0.223 C 
HETATM   14  C11 UNL     1      16.411  -5.607  55.293  1.00  0.00     0.036 C 
HETATM   15  C12 UNL     1      15.343  -6.565  54.853  1.00  0.00     0.002 C 
HETATM   16  C13 UNL     1      15.998  -7.831  54.367  1.00  0.00     0.000 C 
HETATM   17  C14 UNL     1      17.025  -7.583  53.290  1.00  0.00     0.002 C 
HETATM   18  C15 UNL     1      17.982  -6.481  53.657  1.00  0.00     0.036 C 
ENDBRANCH  10  13
ENDBRANCH   6   7
BRANCH   1  19
HETATM   19  C2  UNL     1      13.821  -0.947  50.287  1.00  0.00     0.061 C 
HETATM   20  C1  UNL     1      12.873  -0.574  49.126  1.00  0.00     0.025 C 
HETATM   21  C3  UNL     1      13.392  -2.364  50.651  1.00  0.00     0.025 C 
BRANCH  19  22
HETATM   22  C18 UNL     1      13.464  -0.065  51.399  1.00  0.00     0.395 C 
HETATM   23  F1  UNL     1      13.556   1.291  51.148  1.00  0.00    -0.170 F 
HETATM   24  F2  UNL     1      14.096  -0.303  52.591  1.00  0.00    -0.170 F 
HETATM   25  F3  UNL     1      12.098  -0.283  51.665  1.00  0.00    -0.170 F 
ENDBRANCH  19  22
ENDBRANCH   1  19
TORSDOF 4
ENDMDL
MODEL 2
REMARK VINA RESULT: -7.078578923      1.106      2.144
REMARK  4 active torsions:
REMARK  status: ('A' for Active; 'I' for Inactive)
REMARK    1  A    between atoms: C2_2  and  C4_4 
REMARK    2  A    between atoms: C2_2  and  C18_22 
REMARK    3  A    between atoms: C7_9  and  N2_10 
REMARK    4  A    between atoms: N3_13  and  C10_14 
ROOT
HETATM    1  C4  UNL     1      14.985  -0.767  49.759  1.00  0.00     0.071 C 
HETATM    2  C5  UNL     1      15.686   0.167  48.819  1.00  0.00     0.033 C 
HETATM    3  C6  UNL     1      16.715   0.801  49.702  1.00  0.00     0.121 C 
HETATM    4  N1  UNL     1      16.867  -0.133  50.763  1.00  0.00    -0.379 N 
ATOM      5  H1  UNL     1      17.650  -0.106  51.416  1.00  0.00     0.160 HD
HETATM    6  C7  UNL     1      15.930  -1.021  50.831  1.00  0.00     0.080 C 
ENDROOT
BRANCH   6   7
HETATM    7  N2  UNL     1      15.882  -2.075  51.822  1.00  0.00    -0.367 N 
HETATM    8  C8  UNL     1      15.810  -1.793  53.242  1.00  0.00     0.154 C 
HETATM    9  C9  UNL     1      15.632  -3.050  54.024  1.00  0.00     0.292 C 
HETATM   10  N3  UNL     1      16.548  -4.104  53.738  1.00  0.00     0.096 N 
HETATM   11  C16 UNL     1      17.014  -4.060  52.394  1.00  0.00     0.292 C 
HETATM   12  C17 UNL     1      15.911  -3.485  51.491  1.00  0.00     0.154 C 
BRANCH  10  13
HETATM   13  C10 UNL     1      15.979  -5.366  54.127  1.00  0.00     0.223 C 
HETATM   14  C11 UNL     1      16.891  -6.535  53.828  1.00  0.00     0.036 C 
HETATM   15  C12 UNL     1      18.223  -6.315  54.483  1.00  0.00     0.002 C 
HETATM   16  C13 UNL     1      18.029  -6.285  55.976  1.00  0.00     0.000 C 
HETATM   17  C14 UNL     1      17.000  -5.272  56.413  1.00  0.00     0.002 C 
HETATM   18  C15 UNL     1      15.728  -5.370  55.617  1.00  0.00     0.036 C 
ENDBRANCH  10  13
ENDBRANCH   6   7
BRANCH   1  19
HETATM   19  C2  UNL     1      13.601  -0.390  50.087  1.00  0.00     0.061 C 
HETATM   20  C1  UNL     1      13.659   1.031  50.688  1.00  0.00     0.025 C 
HETATM   21  C3  UNL     1      12.793  -0.198  48.807  1.00  0.00     0.025 C 
BRANCH  19  22
HETATM   22  C18 UNL     1      12.797  -1.188  51.014  1.00  0.00     0.395 C 
HETATM   23  F1  UNL     1      12.881  -0.832  52.347  1.00  0.00    -0.170 F 
HETATM   24  F2  UNL     1      12.958  -2.547  50.944  1.00  0.00    -0.170 F 
HETATM   25  F3  UNL     1      11.448  -0.966  50.674  1.00  0.00    -0.170 F 
ENDBRANCH  19  22
ENDBRANCH   1  19
TORSDOF 4
ENDMDL
MODEL 3
REMARK VINA RESULT: -7.056236530      2.768      7.018
REMARK  4 active torsions:
REMARK  status: ('A' for Active; 'I' for Inactive)
REMARK    1  A    between atoms: C2_2  and  C4_4 
REMARK    2  A    between atoms: C2_2  and  C18_22 
REMARK    3  A    between atoms: C7_9  and  N2_10 
REMARK    4  A    between atoms: N3_13  and  C10_14 
ROOT
HETATM    1  C4  UNL     1      16.088  -5.412  54.665  1.00  0.00     0.071 C 
HETATM    2  C5  UNL     1      16.265  -6.108  55.981  1.00  0.00     0.033 C 
HETATM    3  C6  UNL     1      16.128  -4.985  56.961  1.00  0.00     0.121 C 
HETATM    4  N1  UNL     1      15.401  -3.999  56.241  1.00  0.00    -0.379 N 
ATOM      5  H1  UNL     1      14.954  -3.201  56.693  1.00  0.00     0.160 HD
HETATM    6  C7  UNL     1      15.352  -4.197  54.965  1.00  0.00     0.080 C 
ENDROOT
BRANCH   6   7
HETATM    7  N2  UNL     1      14.660  -3.330  54.035  1.00  0.00    -0.367 N 
HETATM    8  C8  UNL     1      13.854  -3.852  52.949  1.00  0.00     0.154 C 
HETATM    9  C9  UNL     1      13.146  -2.750  52.236  1.00  0.00     0.292 C 
HETATM   10  N3  UNL     1      13.953  -1.652  51.817  1.00  0.00     0.096 N 
HETATM   11  C16 UNL     1      15.079  -1.459  52.666  1.00  0.00     0.292 C 
HETATM   12  C17 UNL     1      14.717  -1.883  54.098  1.00  0.00     0.154 C 
BRANCH  10  13
HETATM   13  C10 UNL     1      13.135  -0.482  51.642  1.00  0.00     0.223 C 
HETATM   14  C11 UNL     1      13.836   0.611  50.868  1.00  0.00     0.036 C 
HETATM   15  C12 UNL     1      14.302   0.072  49.547  1.00  0.00     0.002 C 
HETATM   16  C13 UNL     1      13.099  -0.332  48.738  1.00  0.00     0.000 C 
HETATM   17  C14 UNL     1      12.199  -1.299  49.467  1.00  0.00     0.002 C 
HETATM   18  C15 UNL     1      11.890  -0.846  50.868  1.00  0.00     0.036 C 
ENDBRANCH  10  13
ENDBRANCH   6   7
BRANCH   1  19
HETATM   19  C2  UNL     1      17.302  -5.339  53.836  1.00  0.00     0.061 C 
HETATM   20  C1  UNL     1      18.143  -6.590  54.171  1.00  0.00     0.025 C 
HETATM   21  C3  UNL     1      16.944  -5.538  52.366  1.00  0.00     0.025 C 
BRANCH  19  22
HETATM   22  C18 UNL     1      18.216  -4.200  53.929  1.00  0.00     0.395 C 
HETATM   23  F1  UNL     1      18.445  -3.712  55.202  1.00  0.00    -0.170 F 
HETATM   24  F2  UNL     1      17.934  -3.126  53.125  1.00  0.00    -0.170 F 
HETATM   25  F3  UNL     1      19.476  -4.656  53.493  1.00  0.00    -0.170 F 
ENDBRANCH  19  22
ENDBRANCH   1  19
TORSDOF 4
ENDMDL
MODEL 4
REMARK VINA RESULT: -7.015839036      2.987      6.949
REMARK  4 active torsions:
REMARK  status: ('A' for Active; 'I' for Inactive)
REMARK    1  A    between atoms: C2_2  and  C4_4 
REMARK    2  A    between atoms: C2_2  and  C18_22 
REMARK    3  A    between atoms: C7_9  and  N2_10 
REMARK    4  A    between atoms: N3_13  and  C10_14 
ROOT
HETATM    1  C4  UNL     1      18.129  -3.364  55.039  1.00  0.00     0.071 C 
HETATM    2  C5  UNL     1      19.399  -4.159  54.976  1.00  0.00     0.033 C 
HETATM    3  C6  UNL     1      19.044  -5.259  54.025  1.00  0.00     0.121 C 
HETATM    4  N1  UNL     1      17.954  -4.724  53.286  1.00  0.00    -0.379 N 
ATOM      5  H1  UNL     1      17.622  -5.136  52.414  1.00  0.00     0.160 HD
HETATM    6  C7  UNL     1      17.418  -3.672  53.812  1.00  0.00     0.080 C 
ENDROOT
BRANCH   6   7
HETATM    7  N2  UNL     1      16.303  -2.954  53.231  1.00  0.00    -0.367 N 
HETATM    8  C8  UNL     1      15.167  -3.639  52.645  1.00  0.00     0.154 C 
HETATM    9  C9  UNL     1      14.107  -2.667  52.251  1.00  0.00     0.292 C 
HETATM   10  N3  UNL     1      14.531  -1.564  51.454  1.00  0.00     0.096 N 
HETATM   11  C16 UNL     1      15.885  -1.207  51.706  1.00  0.00     0.292 C 
HETATM   12  C17 UNL     1      16.227  -1.508  53.175  1.00  0.00     0.154 C 
BRANCH  10  13
HETATM   13  C10 UNL     1      13.598  -0.478  51.586  1.00  0.00     0.223 C 
HETATM   14  C11 UNL     1      13.948   0.704  50.709  1.00  0.00     0.036 C 
HETATM   15  C12 UNL     1      14.059   0.255  49.281  1.00  0.00     0.002 C 
HETATM   16  C13 UNL     1      12.715  -0.244  48.824  1.00  0.00     0.000 C 
HETATM   17  C14 UNL     1      12.151  -1.318  49.721  1.00  0.00     0.002 C 
HETATM   18  C15 UNL     1      12.220  -0.941  51.176  1.00  0.00     0.036 C 
ENDBRANCH  10  13
ENDBRANCH   6   7
BRANCH   1  19
HETATM   19  C2  UNL     1      17.419  -3.433  56.326  1.00  0.00     0.061 C 
HETATM   20  C1  UNL     1      18.483  -3.737  57.404  1.00  0.00     0.025 C 
HETATM   21  C3  UNL     1      16.907  -2.050  56.716  1.00  0.00     0.025 C 
BRANCH  19  22
HETATM   22  C18 UNL     1      16.338  -4.395  56.545  1.00  0.00     0.395 C 
HETATM   23  F1  UNL     1      16.604  -5.699  56.172  1.00  0.00    -0.170 F 
HETATM   24  F2  UNL     1      15.115  -4.064  56.022  1.00  0.00    -0.170 F 
HETATM   25  F3  UNL     1      16.130  -4.460  57.936  1.00  0.00    -0.170 F 
ENDBRANCH  19  22
ENDBRANCH   1  19
TORSDOF 4
ENDMDL
MODEL 5
REMARK VINA RESULT: -6.953041574      2.598      3.329
REMARK  4 active torsions:
REMARK  status: ('A' for Active; 'I' for Inactive)
REMARK    1  A    between atoms: C2_2  and  C4_4 
REMARK    2  A    between atoms: C2_2  and  C18_22 
REMARK    3  A    between atoms: C7_9  and  N2_10 
REMARK    4  A    between atoms: N3_13  and  C10_14 
ROOT
HETATM    1  C4  UNL     1      14.972  -1.385  50.320  1.00  0.00     0.071 C 
HETATM    2  C5  UNL     1      16.019  -0.947  49.340  1.00  0.00     0.033 C 
HETATM    3  C6  UNL     1      17.028  -0.282  50.223  1.00  0.00     0.121 C 
HETATM    4  N1  UNL     1      16.779  -0.849  51.503  1.00  0.00    -0.379 N 
ATOM      5  H1  UNL     1      17.436  -0.771  52.280  1.00  0.00     0.160 HD
HETATM    6  C7  UNL     1      15.650  -1.470  51.601  1.00  0.00     0.080 C 
ENDROOT
BRANCH   6   7
HETATM    7  N2  UNL     1      15.191  -2.132  52.804  1.00  0.00    -0.367 N 
HETATM    8  C8  UNL     1      15.059  -3.573  52.887  1.00  0.00     0.154 C 
HETATM    9  C9  UNL     1      14.704  -3.994  54.273  1.00  0.00     0.292 C 
HETATM   10  N3  UNL     1      13.595  -3.325  54.869  1.00  0.00     0.096 N 
HETATM   11  C16 UNL     1      13.438  -2.000  54.373  1.00  0.00     0.292 C 
HETATM   12  C17 UNL     1      14.817  -1.424  54.011  1.00  0.00     0.154 C 
BRANCH  10  13
HETATM   13  C10 UNL     1      13.681  -3.415  56.301  1.00  0.00     0.223 C 
HETATM   14  C11 UNL     1      12.434  -2.914  56.994  1.00  0.00     0.036 C 
HETATM   15  C12 UNL     1      11.237  -3.656  56.475  1.00  0.00     0.002 C 
HETATM   16  C13 UNL     1      11.378  -5.112  56.831  1.00  0.00     0.000 C 
HETATM   17  C14 UNL     1      12.678  -5.710  56.350  1.00  0.00     0.002 C 
HETATM   18  C15 UNL     1      13.865  -4.858  56.708  1.00  0.00     0.036 C 
ENDBRANCH  10  13
ENDBRANCH   6   7
BRANCH   1  19
HETATM   19  C2  UNL     1      13.693  -0.663  50.224  1.00  0.00     0.061 C 
HETATM   20  C1  UNL     1      13.937   0.749  50.800  1.00  0.00     0.025 C 
HETATM   21  C3  UNL     1      13.354  -0.394  48.761  1.00  0.00     0.025 C 
BRANCH  19  22
HETATM   22  C18 UNL     1      12.487  -1.166  50.883  1.00  0.00     0.395 C 
HETATM   23  F1  UNL     1      12.090  -0.484  52.017  1.00  0.00    -0.170 F 
HETATM   24  F2  UNL     1      12.472  -2.503  51.185  1.00  0.00    -0.170 F 
HETATM   25  F3  UNL     1      11.426  -0.989  49.974  1.00  0.00    -0.170 F 
ENDBRANCH  19  22
ENDBRANCH   1  19
TORSDOF 4
ENDMDL
