MODEL 1
REMARK VINA RESULT: -8.087006471      0.000      0.000
REMARK  4 active torsions:
REMARK  status: ('A' for Active; 'I' for Inactive)
REMARK    1  A    between atoms: O1_1  and  C1_3 
REMARK    2  A    between atoms: C6_8  and  C7_9 
REMARK    3  A    between atoms: N1_14  and  C11_15 
REMARK    4  A    between atoms: C14_22  and  C15_23 
ROOT
HETATM    1  C11 UNL     1      15.468  -2.507  50.460  1.00  0.00     0.119 A 
HETATM    2  N2  UNL     1      16.474  -2.714  49.527  1.00  0.00    -0.338 N 
ATOM      3  H2  UNL     1      16.494  -2.119  48.699  1.00  0.00     0.168 HD
HETATM    4  C12 UNL     1      17.410  -3.645  49.655  1.00  0.00     0.181 A 
HETATM    5  N3  UNL     1      17.414  -4.447  50.733  1.00  0.00    -0.361 N 
ATOM      6  H3  UNL     1      18.138  -5.160  50.825  1.00  0.00     0.166 HD
HETATM    7  C13 UNL     1      16.494  -4.328  51.679  1.00  0.00     0.104 A 
HETATM    8  C14 UNL     1      15.494  -3.326  51.530  1.00  0.00     0.034 A 
ENDROOT
BRANCH   1   9
HETATM    9  N1  UNL     1      14.600  -1.449  50.239  1.00  0.00    -0.327 N 
HETATM   10  C7  UNL     1      14.586  -0.187  51.020  1.00  0.00     0.210 C 
HETATM   11  F1  UNL     1      15.340  -0.281  52.163  1.00  0.00    -0.213 F 
HETATM   12  C8  UNL     1      13.128  -0.131  51.438  1.00  0.00     0.074 C 
HETATM   13  C9  UNL     1      12.386  -0.634  50.231  1.00  0.00     0.025 C 
HETATM   14  C10 UNL     1      13.488  -1.265  49.360  1.00  0.00     0.128 C 
BRANCH  10  15
HETATM   15  C6  UNL     1      15.018   0.974  50.244  1.00  0.00     0.035 A 
HETATM   16  C1  UNL     1      16.269   1.046  49.630  1.00  0.00     0.077 A 
HETATM   17  C2  UNL     1      16.681   2.125  48.881  1.00  0.00     0.037 A 
HETATM   18  C3  UNL     1      15.820   3.184  48.731  1.00  0.00     0.003 A 
HETATM   19  C4  UNL     1      14.577   3.144  49.326  1.00  0.00     0.001 A 
HETATM   20  C5  UNL     1      14.166   2.059  50.077  1.00  0.00     0.015 A 
BRANCH  16  21
HETATM   21  O1  UNL     1      17.162   0.001  49.760  1.00  0.00    -0.360 OA
ATOM     22  H1  UNL     1      17.293  -0.344  50.635  1.00  0.00     0.217 HD
ENDBRANCH  16  21
ENDBRANCH  10  15
ENDBRANCH   1   9
BRANCH   8  23
HETATM   23  C15 UNL     1      14.481  -3.277  52.559  1.00  0.00    -0.021 A 
HETATM   24  C16 UNL     1      14.822  -2.862  53.824  1.00  0.00     0.015 A 
HETATM   25  C17 UNL     1      13.866  -2.873  54.853  1.00  0.00     0.043 A 
HETATM   26  C18 UNL     1      12.593  -3.299  54.583  1.00  0.00     0.116 A 
HETATM   27  F2  UNL     1      11.636  -3.322  55.558  1.00  0.00    -0.206 F 
HETATM   28  C19 UNL     1      12.239  -3.710  53.344  1.00  0.00     0.043 A 
HETATM   29  C20 UNL     1      13.207  -3.695  52.329  1.00  0.00     0.015 A 
ENDBRANCH   8  23
TORSDOF 4
ENDMDL
MODEL 2
REMARK VINA RESULT: -7.968219936      2.941      5.744
REMARK  4 active torsions:
REMARK  status: ('A' for Active; 'I' for Inactive)
REMARK    1  A    between atoms: O1_1  and  C1_3 
REMARK    2  A    between atoms: C6_8  and  C7_9 
REMARK    3  A    between atoms: N1_14  and  C11_15 
REMARK    4  A    between atoms: C14_22  and  C15_23 
ROOT
HETATM    1  C11 UNL     1      13.932  -1.131  51.435  1.00  0.00     0.119 A 
HETATM    2  N2  UNL     1      13.153  -0.149  50.840  1.00  0.00    -0.338 N 
ATOM      3  H2  UNL     1      12.145  -0.176  50.990  1.00  0.00     0.168 HD
HETATM    4  C12 UNL     1      13.650   0.824  50.087  1.00  0.00     0.181 A 
HETATM    5  N3  UNL     1      14.975   0.891  49.869  1.00  0.00    -0.361 N 
ATOM      6  H3  UNL     1      15.349   1.642  49.289  1.00  0.00     0.166 HD
HETATM    7  C13 UNL     1      15.802  -0.002  50.393  1.00  0.00     0.104 A 
HETATM    8  C14 UNL     1      15.256  -1.041  51.198  1.00  0.00     0.034 A 
ENDROOT
BRANCH   1   9
HETATM    9  N1  UNL     1      13.291  -2.043  52.260  1.00  0.00    -0.327 N 
HETATM   10  C7  UNL     1      12.972  -1.813  53.691  1.00  0.00     0.210 C 
HETATM   11  F1  UNL     1      13.620  -0.712  54.192  1.00  0.00    -0.213 F 
HETATM   12  C8  UNL     1      13.605  -3.041  54.320  1.00  0.00     0.074 C 
HETATM   13  C9  UNL     1      13.317  -4.141  53.337  1.00  0.00     0.025 C 
HETATM   14  C10 UNL     1      12.858  -3.391  52.073  1.00  0.00     0.128 C 
BRANCH  10  15
HETATM   15  C6  UNL     1      11.537  -1.696  53.948  1.00  0.00     0.035 A 
HETATM   16  C1  UNL     1      10.992  -1.785  55.229  1.00  0.00     0.077 A 
HETATM   17  C2  UNL     1       9.646  -1.659  55.486  1.00  0.00     0.037 A 
HETATM   18  C3  UNL     1       8.796  -1.435  54.431  1.00  0.00     0.003 A 
HETATM   19  C4  UNL     1       9.305  -1.343  53.152  1.00  0.00     0.001 A 
HETATM   20  C5  UNL     1      10.656  -1.469  52.897  1.00  0.00     0.015 A 
BRANCH  16  21
HETATM   21  O1  UNL     1      11.815  -2.010  56.314  1.00  0.00    -0.360 OA
ATOM     22  H1  UNL     1      12.643  -2.444  56.142  1.00  0.00     0.217 HD
ENDBRANCH  16  21
ENDBRANCH  10  15
ENDBRANCH   1   9
BRANCH   8  23
HETATM   23  C15 UNL     1      16.193  -2.022  51.696  1.00  0.00    -0.021 A 
HETATM   24  C16 UNL     1      16.424  -3.166  50.970  1.00  0.00     0.015 A 
HETATM   25  C17 UNL     1      17.280  -4.160  51.471  1.00  0.00     0.043 A 
HETATM   26  C18 UNL     1      17.883  -3.977  52.687  1.00  0.00     0.116 A 
HETATM   27  F2  UNL     1      18.722  -4.923  53.206  1.00  0.00    -0.206 F 
HETATM   28  C19 UNL     1      17.667  -2.858  53.415  1.00  0.00     0.043 A 
HETATM   29  C20 UNL     1      16.808  -1.876  52.901  1.00  0.00     0.015 A 
ENDBRANCH   8  23
TORSDOF 4
ENDMDL
MODEL 3
REMARK VINA RESULT: -7.952835538      0.485      1.045
REMARK  4 active torsions:
REMARK  status: ('A' for Active; 'I' for Inactive)
REMARK    1  A    between atoms: O1_1  and  C1_3 
REMARK    2  A    between atoms: C6_8  and  C7_9 
REMARK    3  A    between atoms: N1_14  and  C11_15 
REMARK    4  A    between atoms: C14_22  and  C15_23 
ROOT
HETATM    1  C11 UNL     1      15.316  -2.784  50.883  1.00  0.00     0.119 A 
HETATM    2  N2  UNL     1      16.342  -3.004  49.977  1.00  0.00    -0.338 N 
ATOM      3  H2  UNL     1      16.384  -2.417  49.144  1.00  0.00     0.168 HD
HETATM    4  C12 UNL     1      17.270  -3.938  50.134  1.00  0.00     0.181 A 
HETATM    5  N3  UNL     1      17.245  -4.731  51.219  1.00  0.00    -0.361 N 
ATOM      6  H3  UNL     1      17.963  -5.446  51.334  1.00  0.00     0.166 HD
HETATM    7  C13 UNL     1      16.304  -4.599  52.143  1.00  0.00     0.104 A 
HETATM    8  C14 UNL     1      15.313  -3.593  51.961  1.00  0.00     0.034 A 
ENDROOT
BRANCH   1   9
HETATM    9  N1  UNL     1      14.458  -1.724  50.634  1.00  0.00    -0.327 N 
HETATM   10  C7  UNL     1      14.469  -0.433  51.367  1.00  0.00     0.210 C 
HETATM   11  F1  UNL     1      15.236  -0.494  52.503  1.00  0.00    -0.213 F 
HETATM   12  C8  UNL     1      13.017  -0.343  51.799  1.00  0.00     0.074 C 
HETATM   13  C9  UNL     1      12.254  -0.882  50.620  1.00  0.00     0.025 C 
HETATM   14  C10 UNL     1      13.338  -1.558  49.761  1.00  0.00     0.128 C 
BRANCH  10  15
HETATM   15  C6  UNL     1      14.907   0.692  50.542  1.00  0.00     0.035 A 
HETATM   16  C1  UNL     1      16.191   0.778  50.005  1.00  0.00     0.077 A 
HETATM   17  C2  UNL     1      16.610   1.823  49.212  1.00  0.00     0.037 A 
HETATM   18  C3  UNL     1      15.720   2.831  48.936  1.00  0.00     0.003 A 
HETATM   19  C4  UNL     1      14.442   2.776  49.452  1.00  0.00     0.001 A 
HETATM   20  C5  UNL     1      14.025   1.726  50.247  1.00  0.00     0.015 A 
BRANCH  16  21
HETATM   21  O1  UNL     1      17.114  -0.216  50.262  1.00  0.00    -0.360 OA
ATOM     22  H1  UNL     1      16.898  -1.090  49.958  1.00  0.00     0.217 HD
ENDBRANCH  16  21
ENDBRANCH  10  15
ENDBRANCH   1   9
BRANCH   8  23
HETATM   23  C15 UNL     1      14.276  -3.531  52.966  1.00  0.00    -0.021 A 
HETATM   24  C16 UNL     1      13.003  -3.943  52.650  1.00  0.00     0.015 A 
HETATM   25  C17 UNL     1      11.969  -3.826  53.593  1.00  0.00     0.043 A 
HETATM   26  C18 UNL     1      12.241  -3.300  54.828  1.00  0.00     0.116 A 
HETATM   27  F2  UNL     1      11.260  -3.171  55.770  1.00  0.00    -0.206 F 
HETATM   28  C19 UNL     1      13.487  -2.889  55.155  1.00  0.00     0.043 A 
HETATM   29  C20 UNL     1      14.508  -3.011  54.202  1.00  0.00     0.015 A 
ENDBRANCH   8  23
TORSDOF 4
ENDMDL
MODEL 4
REMARK VINA RESULT: -7.871203543      2.997      5.623
REMARK  4 active torsions:
REMARK  status: ('A' for Active; 'I' for Inactive)
REMARK    1  A    between atoms: O1_1  and  C1_3 
REMARK    2  A    between atoms: C6_8  and  C7_9 
REMARK    3  A    between atoms: N1_14  and  C11_15 
REMARK    4  A    between atoms: C14_22  and  C15_23 
ROOT
HETATM    1  C11 UNL     1      13.890  -1.897  51.423  1.00  0.00     0.119 A 
HETATM    2  N2  UNL     1      13.098  -1.368  50.414  1.00  0.00    -0.338 N 
ATOM      3  H2  UNL     1      12.093  -1.541  50.449  1.00  0.00     0.168 HD
HETATM    4  C12 UNL     1      13.577  -0.650  49.407  1.00  0.00     0.181 A 
HETATM    5  N3  UNL     1      14.895  -0.401  49.330  1.00  0.00    -0.361 N 
ATOM      6  H3  UNL     1      15.256   0.152  48.553  1.00  0.00     0.166 HD
HETATM    7  C13 UNL     1      15.735  -0.864  50.245  1.00  0.00     0.104 A 
HETATM    8  C14 UNL     1      15.208  -1.635  51.320  1.00  0.00     0.034 A 
ENDROOT
BRANCH   1   9
HETATM    9  N1  UNL     1      13.250  -2.563  52.456  1.00  0.00    -0.327 N 
HETATM   10  C7  UNL     1      12.913  -1.964  53.772  1.00  0.00     0.210 C 
HETATM   11  F1  UNL     1      13.545  -0.761  53.965  1.00  0.00    -0.213 F 
HETATM   12  C8  UNL     1      13.551  -2.971  54.711  1.00  0.00     0.074 C 
HETATM   13  C9  UNL     1      13.284  -4.298  54.055  1.00  0.00     0.025 C 
HETATM   14  C10 UNL     1      12.831  -3.918  52.633  1.00  0.00     0.128 C 
BRANCH  10  15
HETATM   15  C6  UNL     1      11.475  -1.800  53.977  1.00  0.00     0.035 A 
HETATM   16  C1  UNL     1      10.888  -1.823  55.242  1.00  0.00     0.077 A 
HETATM   17  C2  UNL     1       9.538  -1.652  55.451  1.00  0.00     0.037 A 
HETATM   18  C3  UNL     1       8.728  -1.449  54.361  1.00  0.00     0.003 A 
HETATM   19  C4  UNL     1       9.278  -1.421  53.097  1.00  0.00     0.001 A 
HETATM   20  C5  UNL     1      10.634  -1.593  52.891  1.00  0.00     0.015 A 
BRANCH  16  21
HETATM   21  O1  UNL     1      11.670  -2.026  56.362  1.00  0.00    -0.360 OA
ATOM     22  H1  UNL     1      12.205  -1.295  56.649  1.00  0.00     0.217 HD
ENDBRANCH  16  21
ENDBRANCH  10  15
ENDBRANCH   1   9
BRANCH   8  23
HETATM   23  C15 UNL     1      16.172  -2.165  52.257  1.00  0.00    -0.021 A 
HETATM   24  C16 UNL     1      16.541  -1.412  53.345  1.00  0.00     0.015 A 
HETATM   25  C17 UNL     1      17.526  -1.883  54.229  1.00  0.00     0.043 A 
HETATM   26  C18 UNL     1      18.112  -3.099  53.996  1.00  0.00     0.116 A 
HETATM   27  F2  UNL     1      19.073  -3.589  54.835  1.00  0.00    -0.206 F 
HETATM   28  C19 UNL     1      17.761  -3.853  52.931  1.00  0.00     0.043 A 
HETATM   29  C20 UNL     1      16.777  -3.367  52.057  1.00  0.00     0.015 A 
ENDBRANCH   8  23
TORSDOF 4
ENDMDL
MODEL 5
REMARK VINA RESULT: -7.860145908      3.475      5.948
REMARK  4 active torsions:
REMARK  status: ('A' for Active; 'I' for Inactive)
REMARK    1  A    between atoms: O1_1  and  C1_3 
REMARK    2  A    between atoms: C6_8  and  C7_9 
REMARK    3  A    between atoms: N1_14  and  C11_15 
REMARK    4  A    between atoms: C14_22  and  C15_23 
ROOT
HETATM    1  C11 UNL     1      14.830  -1.486  54.402  1.00  0.00     0.119 A 
HETATM    2  N2  UNL     1      14.630  -0.888  55.637  1.00  0.00    -0.338 N 
ATOM      3  H2  UNL     1      13.740  -0.420  55.808  1.00  0.00     0.168 HD
HETATM    4  C12 UNL     1      15.533  -0.893  56.608  1.00  0.00     0.181 A 
HETATM    5  N3  UNL     1      16.717  -1.501  56.418  1.00  0.00    -0.361 N 
ATOM      6  H3  UNL     1      17.407  -1.501  57.170  1.00  0.00     0.166 HD
HETATM    7  C13 UNL     1      17.004  -2.100  55.271  1.00  0.00     0.104 A 
HETATM    8  C14 UNL     1      16.025  -2.087  54.237  1.00  0.00     0.034 A 
ENDROOT
BRANCH   1   9
HETATM    9  N1  UNL     1      13.772  -1.473  53.506  1.00  0.00    -0.327 N 
HETATM   10  C7  UNL     1      12.733  -2.528  53.406  1.00  0.00     0.210 C 
HETATM   11  F1  UNL     1      13.077  -3.657  54.105  1.00  0.00    -0.213 F 
HETATM   12  C8  UNL     1      12.814  -2.863  51.928  1.00  0.00     0.074 C 
HETATM   13  C9  UNL     1      13.035  -1.531  51.266  1.00  0.00     0.025 C 
HETATM   14  C10 UNL     1      13.412  -0.600  52.433  1.00  0.00     0.128 C 
BRANCH  10  15
HETATM   15  C6  UNL     1      11.410  -2.074  53.832  1.00  0.00     0.035 A 
HETATM   16  C1  UNL     1      11.078  -1.872  55.171  1.00  0.00     0.077 A 
HETATM   17  C2  UNL     1       9.842  -1.427  55.584  1.00  0.00     0.037 A 
HETATM   18  C3  UNL     1       8.888  -1.170  54.631  1.00  0.00     0.003 A 
HETATM   19  C4  UNL     1       9.185  -1.360  53.298  1.00  0.00     0.001 A 
HETATM   20  C5  UNL     1      10.426  -1.806  52.887  1.00  0.00     0.015 A 
BRANCH  16  21
HETATM   21  O1  UNL     1      12.011  -2.121  56.158  1.00  0.00    -0.360 OA
ATOM     22  H1  UNL     1      11.962  -2.966  56.590  1.00  0.00     0.217 HD
ENDBRANCH  16  21
ENDBRANCH  10  15
ENDBRANCH   1   9
BRANCH   8  23
HETATM   23  C15 UNL     1      16.410  -2.702  52.988  1.00  0.00    -0.021 A 
HETATM   24  C16 UNL     1      16.739  -1.906  51.916  1.00  0.00     0.015 A 
HETATM   25  C17 UNL     1      17.051  -2.485  50.675  1.00  0.00     0.043 A 
HETATM   26  C18 UNL     1      17.023  -3.848  50.544  1.00  0.00     0.116 A 
HETATM   27  F2  UNL     1      17.320  -4.447  49.352  1.00  0.00    -0.206 F 
HETATM   28  C19 UNL     1      16.702  -4.646  51.587  1.00  0.00     0.043 A 
HETATM   29  C20 UNL     1      16.392  -4.051  52.819  1.00  0.00     0.015 A 
ENDBRANCH   8  23
TORSDOF 4
ENDMDL
