MODEL 1
REMARK VINA RESULT: -8.462505402      0.000      0.000
REMARK  2 active torsions:
REMARK  status: ('A' for Active; 'I' for Inactive)
REMARK    1  A    between atoms: C5_5  and  N1_6 
REMARK    2  A    between atoms: C8_9  and  C9_10 
ROOT
HETATM    1  N1  UNL     1      15.420  -3.863  52.709  1.00  0.00    -0.340 N 
HETATM    2  C6  UNL     1      16.562  -3.048  53.019  1.00  0.00     0.127 C 
HETATM    3  C7  UNL     1      16.876  -2.004  51.972  1.00  0.00     0.032 C 
HETATM    4  C8  UNL     1      15.707  -1.704  51.103  1.00  0.00     0.053 C 
HETATM    5  C16 UNL     1      14.451  -1.707  51.985  1.00  0.00     0.114 C 
HETATM    6  C17 UNL     1      14.255  -3.138  52.335  1.00  0.00     0.221 C 
HETATM    7  O2  UNL     1      13.102  -3.623  52.285  1.00  0.00    -0.273 OA
ENDROOT
BRANCH   1   8
HETATM    8  C5  UNL     1      15.348  -5.281  52.740  1.00  0.00     0.192 C 
HETATM    9  C4  UNL     1      15.175  -5.715  54.180  1.00  0.00     0.071 C 
HETATM   10  C2  UNL     1      16.450  -6.453  54.510  1.00  0.00     0.127 C 
HETATM   11  C1  UNL     1      16.223  -7.926  54.643  1.00  0.00     0.046 C 
HETATM   12  C3  UNL     1      16.954  -5.948  55.852  1.00  0.00     0.046 C 
HETATM   13  N3  UNL     1      17.389  -6.111  53.451  1.00  0.00     0.001 N 
HETATM   14  C18 UNL     1      16.556  -6.015  52.302  1.00  0.00     0.425 C 
ATOM     15  H32 UNL     1      17.956  -5.284  53.635  1.00  0.00     0.285 HD
ATOM     16  H31 UNL     1      18.175  -6.754  53.354  1.00  0.00     0.285 HD
HETATM   17  F1  UNL     1      16.163  -7.309  51.950  1.00  0.00    -0.172 F 
HETATM   18  F2  UNL     1      17.173  -5.498  51.192  1.00  0.00    -0.172 F 
ENDBRANCH   1   8
BRANCH   4  19
HETATM   19  C9  UNL     1      15.771  -0.426  50.404  1.00  0.00     0.060 A 
HETATM   20  C10 UNL     1      16.693  -0.099  49.435  1.00  0.00     0.065 A 
HETATM   21  C11 UNL     1      16.409   1.203  49.030  1.00  0.00     0.068 A 
HETATM   22  N2  UNL     1      16.965   2.040  48.124  1.00  0.00    -0.364 N 
HETATM   23  C15 UNL     1      15.317   1.587  49.792  1.00  0.00     0.102 A 
HETATM   24  C12 UNL     1      16.501   3.283  47.905  1.00  0.00     0.088 A 
ATOM     25  H2  UNL     1      17.767   1.715  47.585  1.00  0.00     0.165 HD
HETATM   26  C13 UNL     1      15.411   3.686  48.655  1.00  0.00     0.020 A 
HETATM   27  C14 UNL     1      14.821   2.857  49.587  1.00  0.00     0.041 A 
HETATM   28  O1  UNL     1      14.973   0.591  50.591  1.00  0.00    -0.312 OA
ENDBRANCH   4  19
TORSDOF 2
ENDMDL
MODEL 2
REMARK VINA RESULT: -8.449412581      1.820      2.216
REMARK  2 active torsions:
REMARK  status: ('A' for Active; 'I' for Inactive)
REMARK    1  A    between atoms: C5_5  and  N1_6 
REMARK    2  A    between atoms: C8_9  and  C9_10 
ROOT
HETATM    1  N1  UNL     1      15.653  -4.165  52.048  1.00  0.00    -0.340 N 
HETATM    2  C6  UNL     1      14.392  -3.484  51.949  1.00  0.00     0.127 C 
HETATM    3  C7  UNL     1      14.512  -2.001  51.685  1.00  0.00     0.032 C 
HETATM    4  C8  UNL     1      15.834  -1.633  51.111  1.00  0.00     0.053 C 
HETATM    5  C16 UNL     1      16.239  -2.733  50.120  1.00  0.00     0.114 C 
HETATM    6  C17 UNL     1      16.557  -3.901  50.982  1.00  0.00     0.221 C 
HETATM    7  O2  UNL     1      17.581  -4.578  50.734  1.00  0.00    -0.273 OA
ENDROOT
BRANCH   1   8
HETATM    8  C5  UNL     1      16.069  -5.051  53.077  1.00  0.00     0.192 C 
HETATM    9  C4  UNL     1      14.859  -5.826  53.553  1.00  0.00     0.071 C 
HETATM   10  C2  UNL     1      14.645  -5.363  54.974  1.00  0.00     0.127 C 
HETATM   11  C1  UNL     1      14.996  -6.427  55.965  1.00  0.00     0.046 C 
HETATM   12  C3  UNL     1      13.169  -5.048  55.150  1.00  0.00     0.046 C 
HETATM   13  N3  UNL     1      15.446  -4.156  55.120  1.00  0.00     0.001 N 
HETATM   14  C18 UNL     1      16.587  -4.428  54.316  1.00  0.00     0.425 C 
ATOM     15  H32 UNL     1      14.958  -3.291  54.886  1.00  0.00     0.285 HD
ATOM     16  H31 UNL     1      15.656  -3.898  56.084  1.00  0.00     0.285 HD
HETATM   17  F1  UNL     1      17.359  -5.384  54.981  1.00  0.00    -0.172 F 
HETATM   18  F2  UNL     1      17.414  -3.353  54.118  1.00  0.00    -0.172 F 
ENDBRANCH   1   8
BRANCH   4  19
HETATM   19  C9  UNL     1      15.866  -0.354  50.412  1.00  0.00     0.060 A 
HETATM   20  C10 UNL     1      16.802   0.010  49.470  1.00  0.00     0.065 A 
HETATM   21  C11 UNL     1      16.478   1.299  49.054  1.00  0.00     0.068 A 
HETATM   22  N2  UNL     1      17.025   2.156  48.163  1.00  0.00    -0.364 N 
HETATM   23  C15 UNL     1      15.348   1.638  49.782  1.00  0.00     0.102 A 
HETATM   24  C12 UNL     1      16.517   3.379  47.927  1.00  0.00     0.088 A 
ATOM     25  H2  UNL     1      17.856   1.864  47.650  1.00  0.00     0.165 HD
HETATM   26  C13 UNL     1      15.390   3.738  48.643  1.00  0.00     0.020 A 
HETATM   27  C14 UNL     1      14.806   2.887  49.559  1.00  0.00     0.041 A 
HETATM   28  O1  UNL     1      15.022   0.630  50.573  1.00  0.00    -0.312 OA
ENDBRANCH   4  19
TORSDOF 2
ENDMDL
MODEL 3
REMARK VINA RESULT: -8.447615004      3.297      4.245
REMARK  2 active torsions:
REMARK  status: ('A' for Active; 'I' for Inactive)
REMARK    1  A    between atoms: C5_5  and  N1_6 
REMARK    2  A    between atoms: C8_9  and  C9_10 
ROOT
HETATM    1  N1  UNL     1      12.781  -2.687  52.979  1.00  0.00    -0.340 N 
HETATM    2  C6  UNL     1      11.859  -1.781  52.350  1.00  0.00     0.127 C 
HETATM    3  C7  UNL     1      12.503  -0.526  51.809  1.00  0.00     0.032 C 
HETATM    4  C8  UNL     1      13.967  -0.685  51.597  1.00  0.00     0.053 C 
HETATM    5  C16 UNL     1      14.212  -2.098  51.050  1.00  0.00     0.114 C 
HETATM    6  C17 UNL     1      13.938  -2.990  52.209  1.00  0.00     0.221 C 
HETATM    7  O2  UNL     1      14.720  -3.939  52.443  1.00  0.00    -0.273 OA
ENDROOT
BRANCH   1   8
HETATM    8  C5  UNL     1      12.649  -3.291  54.257  1.00  0.00     0.192 C 
HETATM    9  C4  UNL     1      11.175  -3.485  54.540  1.00  0.00     0.071 C 
HETATM   10  C2  UNL     1      10.884  -2.563  55.699  1.00  0.00     0.127 C 
HETATM   11  C1  UNL     1      10.636  -3.322  56.965  1.00  0.00     0.046 C 
HETATM   12  C3  UNL     1       9.618  -1.787  55.379  1.00  0.00     0.046 C 
HETATM   13  N3  UNL     1      12.027  -1.665  55.783  1.00  0.00     0.001 N 
HETATM   14  C18 UNL     1      13.119  -2.498  55.415  1.00  0.00     0.425 C 
ATOM     15  H32 UNL     1      11.939  -0.811  55.232  1.00  0.00     0.285 HD
ATOM     16  H31 UNL     1      12.134  -1.195  56.683  1.00  0.00     0.285 HD
HETATM   17  F1  UNL     1      13.355  -3.384  56.469  1.00  0.00    -0.172 F 
HETATM   18  F2  UNL     1      14.302  -1.833  55.216  1.00  0.00    -0.172 F 
ENDBRANCH   1   8
BRANCH   4  19
HETATM   19  C9  UNL     1      14.562   0.272  50.673  1.00  0.00     0.060 A 
HETATM   20  C10 UNL     1      15.531  -0.025  49.741  1.00  0.00     0.065 A 
HETATM   21  C11 UNL     1      15.823   1.159  49.069  1.00  0.00     0.068 A 
HETATM   22  N2  UNL     1      16.675   1.477  48.068  1.00  0.00    -0.364 N 
HETATM   23  C15 UNL     1      15.000   2.112  49.646  1.00  0.00     0.102 A 
HETATM   24  C12 UNL     1      16.780   2.723  47.574  1.00  0.00     0.088 A 
ATOM     25  H2  UNL     1      17.262   0.743  47.673  1.00  0.00     0.165 HD
HETATM   26  C13 UNL     1      15.968   3.691  48.136  1.00  0.00     0.020 A 
HETATM   27  C14 UNL     1      15.087   3.399  49.157  1.00  0.00     0.041 A 
HETATM   28  O1  UNL     1      14.271   1.543  50.591  1.00  0.00    -0.312 OA
ENDBRANCH   4  19
TORSDOF 2
ENDMDL
MODEL 4
REMARK VINA RESULT: -8.384545767      1.853      2.367
REMARK  2 active torsions:
REMARK  status: ('A' for Active; 'I' for Inactive)
REMARK    1  A    between atoms: C5_5  and  N1_6 
REMARK    2  A    between atoms: C8_9  and  C9_10 
ROOT
HETATM    1  N1  UNL     1      16.886  -4.649  53.015  1.00  0.00    -0.340 N 
HETATM    2  C6  UNL     1      17.120  -4.701  51.598  1.00  0.00     0.127 C 
HETATM    3  C7  UNL     1      16.517  -3.547  50.832  1.00  0.00     0.032 C 
HETATM    4  C8  UNL     1      16.235  -2.374  51.701  1.00  0.00     0.053 C 
HETATM    5  C16 UNL     1      17.387  -2.247  52.708  1.00  0.00     0.114 C 
HETATM    6  C17 UNL     1      17.198  -3.402  53.625  1.00  0.00     0.221 C 
HETATM    7  O2  UNL     1      17.321  -3.225  54.858  1.00  0.00    -0.273 OA
ENDROOT
BRANCH   1   8
HETATM    8  C5  UNL     1      16.387  -5.692  53.839  1.00  0.00     0.192 C 
HETATM    9  C4  UNL     1      17.213  -6.934  53.583  1.00  0.00     0.071 C 
HETATM   10  C2  UNL     1      16.252  -7.905  52.940  1.00  0.00     0.127 C 
HETATM   11  C1  UNL     1      15.900  -9.031  53.861  1.00  0.00     0.046 C 
HETATM   12  C3  UNL     1      16.934  -8.510  51.724  1.00  0.00     0.046 C 
HETATM   13  N3  UNL     1      15.100  -7.111  52.538  1.00  0.00     0.001 N 
HETATM   14  C18 UNL     1      15.002  -6.140  53.573  1.00  0.00     0.425 C 
ATOM     15  H32 UNL     1      15.158  -6.724  51.596  1.00  0.00     0.285 HD
ATOM     16  H31 UNL     1      14.248  -7.648  52.376  1.00  0.00     0.285 HD
HETATM   17  F1  UNL     1      14.536  -6.786  54.721  1.00  0.00    -0.172 F 
HETATM   18  F2  UNL     1      14.107  -5.131  53.324  1.00  0.00    -0.172 F 
ENDBRANCH   1   8
BRANCH   4  19
HETATM   19  C9  UNL     1      16.102  -1.104  50.998  1.00  0.00     0.060 A 
HETATM   20  C10 UNL     1      17.064  -0.542  50.189  1.00  0.00     0.065 A 
HETATM   21  C11 UNL     1      16.544   0.659  49.716  1.00  0.00     0.068 A 
HETATM   22  N2  UNL     1      17.022   1.625  48.898  1.00  0.00    -0.364 N 
HETATM   23  C15 UNL     1      15.280   0.750  50.277  1.00  0.00     0.102 A 
HETATM   24  C12 UNL     1      16.313   2.722  48.580  1.00  0.00     0.088 A 
ATOM     25  H2  UNL     1      17.957   1.516  48.507  1.00  0.00     0.165 HD
HETATM   26  C13 UNL     1      15.048   2.833  49.129  1.00  0.00     0.020 A 
HETATM   27  C14 UNL     1      14.531   1.866  49.967  1.00  0.00     0.041 A 
HETATM   28  O1  UNL     1      15.060  -0.316  51.028  1.00  0.00    -0.312 OA
ENDBRANCH   4  19
TORSDOF 2
ENDMDL
MODEL 5
REMARK VINA RESULT: -7.952417852      4.644      7.937
REMARK  2 active torsions:
REMARK  status: ('A' for Active; 'I' for Inactive)
REMARK    1  A    between atoms: C5_5  and  N1_6 
REMARK    2  A    between atoms: C8_9  and  C9_10 
ROOT
HETATM    1  N1  UNL     1      14.409  -1.278  53.387  1.00  0.00    -0.340 N 
HETATM    2  C6  UNL     1      13.171  -0.903  52.761  1.00  0.00     0.127 C 
HETATM    3  C7  UNL     1      11.965  -1.646  53.288  1.00  0.00     0.032 C 
HETATM    4  C8  UNL     1      12.205  -2.237  54.632  1.00  0.00     0.053 C 
HETATM    5  C16 UNL     1      13.037  -1.234  55.444  1.00  0.00     0.114 C 
HETATM    6  C17 UNL     1      14.381  -1.278  54.809  1.00  0.00     0.221 C 
HETATM    7  O2  UNL     1      15.397  -1.312  55.540  1.00  0.00    -0.273 OA
ENDROOT
BRANCH   1   8
HETATM    8  C5  UNL     1      15.621  -1.637  52.740  1.00  0.00     0.192 C 
HETATM    9  C4  UNL     1      15.836  -0.691  51.579  1.00  0.00     0.071 C 
HETATM   10  C2  UNL     1      15.718  -1.561  50.351  1.00  0.00     0.127 C 
HETATM   11  C1  UNL     1      17.040  -1.763  49.682  1.00  0.00     0.046 C 
HETATM   12  C3  UNL     1      14.810  -0.854  49.358  1.00  0.00     0.046 C 
HETATM   13  N3  UNL     1      15.108  -2.803  50.806  1.00  0.00     0.001 N 
HETATM   14  C18 UNL     1      15.661  -2.974  52.106  1.00  0.00     0.425 C 
ATOM     15  H32 UNL     1      14.090  -2.814  50.772  1.00  0.00     0.285 HD
ATOM     16  H31 UNL     1      15.241  -3.597  50.179  1.00  0.00     0.285 HD
HETATM   17  F1  UNL     1      17.002  -3.334  51.956  1.00  0.00    -0.172 F 
HETATM   18  F2  UNL     1      15.086  -3.978  52.841  1.00  0.00    -0.172 F 
ENDBRANCH   1   8
BRANCH   4  19
HETATM   19  C9  UNL     1      11.000  -2.550  55.390  1.00  0.00     0.060 A 
HETATM   20  C10 UNL     1      10.889  -3.561  56.318  1.00  0.00     0.065 A 
HETATM   21  C11 UNL     1       9.586  -3.520  56.806  1.00  0.00     0.068 A 
HETATM   22  N2  UNL     1       8.909  -4.253  57.720  1.00  0.00    -0.364 N 
HETATM   23  C15 UNL     1       8.981  -2.472  56.132  1.00  0.00     0.102 A 
HETATM   24  C12 UNL     1       7.623  -4.017  58.030  1.00  0.00     0.088 A 
ATOM     25  H2  UNL     1       9.395  -5.015  58.193  1.00  0.00     0.165 HD
HETATM   26  C13 UNL     1       7.000  -2.975  57.369  1.00  0.00     0.020 A 
HETATM   27  C14 UNL     1       7.661  -2.208  56.431  1.00  0.00     0.041 A 
HETATM   28  O1  UNL     1       9.856  -1.926  55.304  1.00  0.00    -0.312 OA
ENDBRANCH   4  19
TORSDOF 2
ENDMDL
