MODEL 1
REMARK VINA RESULT: -7.369834742      0.000      0.000
REMARK  2 active torsions:
REMARK  status: ('A' for Active; 'I' for Inactive)
REMARK    1  A    between atoms: N1_2  and  C1_4 
REMARK    2  A    between atoms: C2_5  and  C3_6 
ROOT
HETATM    1  C3  UNL     1      16.735  -2.850  51.396  1.00  0.00     0.036 C 
HETATM    2  C4  UNL     1      16.156  -1.776  50.959  1.00  0.00     0.044 C 
HETATM    3  S1  UNL     1      17.003  -0.700  49.776  1.00  0.00    -0.085 SA
HETATM    4  C5  UNL     1      16.053   0.809  49.691  1.00  0.00     0.032 A 
HETATM    5  C6  UNL     1      16.599   1.893  48.992  1.00  0.00     0.021 A 
HETATM    6  C7  UNL     1      15.874   3.037  48.843  1.00  0.00     0.002 A 
HETATM    7  C8  UNL     1      14.615   3.130  49.377  1.00  0.00     0.002 A 
HETATM    8  C9  UNL     1      14.102   2.064  50.056  1.00  0.00     0.031 A 
HETATM    9  C10 UNL     1      14.812   0.862  50.236  1.00  0.00     0.050 A 
HETATM   10  N2  UNL     1      14.210  -0.153  51.011  1.00  0.00    -0.345 N 
ATOM     11  H2  UNL     1      13.263   0.008  51.356  1.00  0.00     0.167 HD
HETATM   12  C11 UNL     1      14.836  -1.379  51.342  1.00  0.00     0.118 C 
HETATM   13  S2  UNL     1      13.885  -2.429  52.192  1.00  0.00    -0.059 SA
ENDROOT
BRANCH   1  14
HETATM   14  C2  UNL     1      16.339  -3.872  52.312  1.00  0.00     0.002 A 
HETATM   15  C1  UNL     1      16.599  -3.631  53.677  1.00  0.00     0.154 A 
HETATM   16  C15 UNL     1      16.165  -4.600  54.558  1.00  0.00     0.188 A 
HETATM   17  C14 UNL     1      15.509  -5.746  54.149  1.00  0.00     0.157 A 
HETATM   18  F2  UNL     1      16.407  -4.396  55.893  1.00  0.00    -0.200 F 
HETATM   19  C13 UNL     1      15.245  -5.994  52.814  1.00  0.00     0.046 A 
HETATM   20  F1  UNL     1      15.100  -6.672  55.057  1.00  0.00    -0.203 F 
HETATM   21  C12 UNL     1      15.678  -5.031  51.932  1.00  0.00     0.017 A 
BRANCH  15  22
HETATM   22  N1  UNL     1      17.255  -2.459  54.108  1.00  0.00    -0.112 N 
HETATM   23  O1  UNL     1      18.499  -2.403  54.181  1.00  0.00    -0.532 OA
HETATM   24  O2  UNL     1      16.548  -1.337  54.459  1.00  0.00    -0.532 OA
ENDBRANCH  15  22
ENDBRANCH   1  14
TORSDOF 2
ENDMDL
MODEL 2
REMARK VINA RESULT: -7.237636730      5.642      7.749
REMARK  2 active torsions:
REMARK  status: ('A' for Active; 'I' for Inactive)
REMARK    1  A    between atoms: N1_2  and  C1_4 
REMARK    2  A    between atoms: C2_5  and  C3_6 
ROOT
HETATM    1  C3  UNL     1      12.272  -1.053  54.773  1.00  0.00     0.036 C 
HETATM    2  C4  UNL     1      11.332  -1.832  55.209  1.00  0.00     0.044 C 
HETATM    3  S1  UNL     1       9.623  -1.241  55.291  1.00  0.00    -0.085 SA
HETATM    4  C5  UNL     1       8.715  -2.447  56.244  1.00  0.00     0.032 A 
HETATM    5  C6  UNL     1       7.404  -2.134  56.627  1.00  0.00     0.021 A 
HETATM    6  C7  UNL     1       6.654  -3.057  57.292  1.00  0.00     0.002 A 
HETATM    7  C8  UNL     1       7.179  -4.288  57.588  1.00  0.00     0.002 A 
HETATM    8  C9  UNL     1       8.458  -4.573  57.209  1.00  0.00     0.031 A 
HETATM    9  C10 UNL     1       9.271  -3.653  56.520  1.00  0.00     0.050 A 
HETATM   10  N2  UNL     1      10.601  -4.032  56.234  1.00  0.00    -0.345 N 
ATOM     11  H2  UNL     1      10.894  -4.976  56.485  1.00  0.00     0.167 HD
HETATM   12  C11 UNL     1      11.554  -3.184  55.620  1.00  0.00     0.118 C 
HETATM   13  S2  UNL     1      13.015  -3.895  55.322  1.00  0.00    -0.059 SA
ENDROOT
BRANCH   1  14
HETATM   14  C2  UNL     1      13.679  -1.221  54.598  1.00  0.00     0.002 A 
HETATM   15  C1  UNL     1      14.147  -1.289  53.269  1.00  0.00     0.154 A 
HETATM   16  C15 UNL     1      15.513  -1.399  53.112  1.00  0.00     0.188 A 
HETATM   17  C14 UNL     1      16.390  -1.439  54.179  1.00  0.00     0.157 A 
HETATM   18  F2  UNL     1      15.999  -1.472  51.830  1.00  0.00    -0.200 F 
HETATM   19  C13 UNL     1      15.947  -1.372  55.487  1.00  0.00     0.046 A 
HETATM   20  F1  UNL     1      17.730  -1.548  53.971  1.00  0.00    -0.203 F 
HETATM   21  C12 UNL     1      14.584  -1.264  55.649  1.00  0.00     0.017 A 
BRANCH  15  22
HETATM   22  N1  UNL     1      13.263  -1.235  52.172  1.00  0.00    -0.112 N 
HETATM   23  O1  UNL     1      12.788  -2.274  51.671  1.00  0.00    -0.532 OA
HETATM   24  O2  UNL     1      12.891  -0.037  51.617  1.00  0.00    -0.532 OA
ENDBRANCH  15  22
ENDBRANCH   1  14
TORSDOF 2
ENDMDL
MODEL 3
REMARK VINA RESULT: -7.106894084      5.515      7.538
REMARK  2 active torsions:
REMARK  status: ('A' for Active; 'I' for Inactive)
REMARK    1  A    between atoms: N1_2  and  C1_4 
REMARK    2  A    between atoms: C2_5  and  C3_6 
ROOT
HETATM    1  C3  UNL     1      12.810  -3.505  54.906  1.00  0.00     0.036 C 
HETATM    2  C4  UNL     1      11.673  -3.236  55.467  1.00  0.00     0.044 C 
HETATM    3  S1  UNL     1      10.893  -4.440  56.570  1.00  0.00    -0.085 SA
HETATM    4  C5  UNL     1       9.227  -3.863  56.854  1.00  0.00     0.032 A 
HETATM    5  C6  UNL     1       8.338  -4.717  57.520  1.00  0.00     0.021 A 
HETATM    6  C7  UNL     1       7.081  -4.286  57.819  1.00  0.00     0.002 A 
HETATM    7  C8  UNL     1       6.684  -3.021  57.470  1.00  0.00     0.002 A 
HETATM    8  C9  UNL     1       7.564  -2.206  56.820  1.00  0.00     0.031 A 
HETATM    9  C10 UNL     1       8.872  -2.606  56.490  1.00  0.00     0.050 A 
HETATM   10  N2  UNL     1       9.676  -1.703  55.760  1.00  0.00    -0.345 N 
ATOM     11  H2  UNL     1       9.293  -0.779  55.558  1.00  0.00     0.167 HD
HETATM   12  C11 UNL     1      10.978  -1.997  55.290  1.00  0.00     0.118 C 
HETATM   13  S2  UNL     1      11.737  -0.740  54.534  1.00  0.00    -0.059 SA
ENDROOT
BRANCH   1  14
HETATM   14  C2  UNL     1      13.653  -2.782  54.008  1.00  0.00     0.002 A 
HETATM   15  C1  UNL     1      14.763  -2.123  54.575  1.00  0.00     0.154 A 
HETATM   16  C15 UNL     1      15.599  -1.472  53.692  1.00  0.00     0.188 A 
HETATM   17  C14 UNL     1      15.382  -1.455  52.327  1.00  0.00     0.157 A 
HETATM   18  F2  UNL     1      16.688  -0.819  54.214  1.00  0.00    -0.200 F 
HETATM   19  C13 UNL     1      14.298  -2.098  51.756  1.00  0.00     0.046 A 
HETATM   20  F1  UNL     1      16.236  -0.799  51.497  1.00  0.00    -0.203 F 
HETATM   21  C12 UNL     1      13.460  -2.747  52.634  1.00  0.00     0.017 A 
BRANCH  15  22
HETATM   22  N1  UNL     1      15.004  -2.145  55.965  1.00  0.00    -0.112 N 
HETATM   23  O1  UNL     1      15.699  -3.039  56.488  1.00  0.00    -0.532 OA
HETATM   24  O2  UNL     1      14.484  -1.181  56.791  1.00  0.00    -0.532 OA
ENDBRANCH  15  22
ENDBRANCH   1  14
TORSDOF 2
ENDMDL
MODEL 4
REMARK VINA RESULT: -7.021571568      5.689      7.692
REMARK  2 active torsions:
REMARK  status: ('A' for Active; 'I' for Inactive)
REMARK    1  A    between atoms: N1_2  and  C1_4 
REMARK    2  A    between atoms: C2_5  and  C3_6 
ROOT
HETATM    1  C3  UNL     1      13.268  -3.388  55.934  1.00  0.00     0.036 C 
HETATM    2  C4  UNL     1      12.026  -3.101  56.172  1.00  0.00     0.044 C 
HETATM    3  S1  UNL     1      11.118  -3.986  57.463  1.00  0.00    -0.085 SA
HETATM    4  C5  UNL     1       9.397  -3.563  57.254  1.00  0.00     0.032 A 
HETATM    5  C6  UNL     1       8.448  -4.269  58.005  1.00  0.00     0.021 A 
HETATM    6  C7  UNL     1       7.131  -3.927  57.926  1.00  0.00     0.002 A 
HETATM    7  C8  UNL     1       6.734  -2.896  57.115  1.00  0.00     0.002 A 
HETATM    8  C9  UNL     1       7.672  -2.222  56.390  1.00  0.00     0.031 A 
HETATM    9  C10 UNL     1       9.043  -2.539  56.438  1.00  0.00     0.050 A 
HETATM   10  N2  UNL     1       9.918  -1.817  55.597  1.00  0.00    -0.345 N 
ATOM     11  H2  UNL     1       9.526  -1.059  55.038  1.00  0.00     0.167 HD
HETATM   12  C11 UNL     1      11.304  -2.079  55.479  1.00  0.00     0.118 C 
HETATM   13  S2  UNL     1      12.118  -1.038  54.488  1.00  0.00    -0.059 SA
ENDROOT
BRANCH   1  14
HETATM   14  C2  UNL     1      14.227  -2.884  55.002  1.00  0.00     0.002 A 
HETATM   15  C1  UNL     1      14.270  -3.510  53.740  1.00  0.00     0.154 A 
HETATM   16  C15 UNL     1      15.163  -2.981  52.831  1.00  0.00     0.188 A 
HETATM   17  C14 UNL     1      15.975  -1.900  53.119  1.00  0.00     0.157 A 
HETATM   18  F2  UNL     1      15.232  -3.571  51.594  1.00  0.00    -0.200 F 
HETATM   19  C13 UNL     1      15.942  -1.275  54.352  1.00  0.00     0.046 A 
HETATM   20  F1  UNL     1      16.839  -1.415  52.188  1.00  0.00    -0.203 F 
HETATM   21  C12 UNL     1      15.053  -1.800  55.263  1.00  0.00     0.017 A 
BRANCH  15  22
HETATM   22  N1  UNL     1      13.437  -4.605  53.430  1.00  0.00    -0.112 N 
HETATM   23  O1  UNL     1      12.327  -4.440  52.886  1.00  0.00    -0.532 OA
HETATM   24  O2  UNL     1      13.821  -5.892  53.712  1.00  0.00    -0.532 OA
ENDBRANCH  15  22
ENDBRANCH   1  14
TORSDOF 2
ENDMDL
MODEL 5
REMARK VINA RESULT: -6.889385071      3.632      7.429
REMARK  2 active torsions:
REMARK  status: ('A' for Active; 'I' for Inactive)
REMARK    1  A    between atoms: N1_2  and  C1_4 
REMARK    2  A    between atoms: C2_5  and  C3_6 
ROOT
HETATM    1  C3  UNL     1      15.599  -2.225  52.260  1.00  0.00     0.036 C 
HETATM    2  C4  UNL     1      15.900  -3.483  52.335  1.00  0.00     0.044 C 
HETATM    3  S1  UNL     1      15.506  -4.426  53.829  1.00  0.00    -0.085 SA
HETATM    4  C5  UNL     1      16.366  -5.984  53.687  1.00  0.00     0.032 A 
HETATM    5  C6  UNL     1      16.390  -6.829  54.804  1.00  0.00     0.021 A 
HETATM    6  C7  UNL     1      16.974  -8.056  54.713  1.00  0.00     0.002 A 
HETATM    7  C8  UNL     1      17.537  -8.466  53.533  1.00  0.00     0.002 A 
HETATM    8  C9  UNL     1      17.506  -7.629  52.457  1.00  0.00     0.031 A 
HETATM    9  C10 UNL     1      16.914  -6.352  52.502  1.00  0.00     0.050 A 
HETATM   10  N2  UNL     1      16.996  -5.544  51.347  1.00  0.00    -0.345 N 
ATOM     11  H2  UNL     1      17.426  -5.944  50.513  1.00  0.00     0.167 HD
HETATM   12  C11 UNL     1      16.520  -4.213  51.272  1.00  0.00     0.118 C 
HETATM   13  S2  UNL     1      16.662  -3.515  49.782  1.00  0.00    -0.059 SA
ENDROOT
BRANCH   1  14
HETATM   14  C2  UNL     1      15.780  -1.235  51.245  1.00  0.00     0.002 A 
HETATM   15  C1  UNL     1      14.616  -0.596  50.772  1.00  0.00     0.154 A 
HETATM   16  C15 UNL     1      14.807   0.394  49.831  1.00  0.00     0.188 A 
HETATM   17  C14 UNL     1      16.057   0.756  49.366  1.00  0.00     0.157 A 
HETATM   18  F2  UNL     1      13.692   1.033  49.348  1.00  0.00    -0.200 F 
HETATM   19  C13 UNL     1      17.208   0.139  49.822  1.00  0.00     0.046 A 
HETATM   20  F1  UNL     1      16.193   1.740  48.437  1.00  0.00    -0.203 F 
HETATM   21  C12 UNL     1      17.022  -0.851  50.760  1.00  0.00     0.017 A 
BRANCH  15  22
HETATM   22  N1  UNL     1      13.335  -0.947  51.248  1.00  0.00    -0.112 N 
HETATM   23  O1  UNL     1      12.691  -1.887  50.741  1.00  0.00    -0.532 OA
HETATM   24  O2  UNL     1      12.754  -0.269  52.289  1.00  0.00    -0.532 OA
ENDBRANCH  15  22
ENDBRANCH   1  14
TORSDOF 2
ENDMDL
