MODEL 1
REMARK VINA RESULT: -7.597239364      0.000      0.000
REMARK  5 active torsions:
REMARK  status: ('A' for Active; 'I' for Inactive)
REMARK    1  A    between atoms: C2_2  and  C4_4 
REMARK    2  A    between atoms: C4_4  and  N1_5 
REMARK    3  A    between atoms: C4_4  and  C15_23 
REMARK       I    between atoms: N1_5  and  C5_7 
REMARK    4  A    between atoms: C5_7  and  C6_9 
REMARK    5  A    between atoms: C7_10  and  C8_11 
ROOT
HETATM    1  C6  UNL     1       1.041   5.925 -14.941  1.00  0.00     0.059 C 
HETATM    2  C7  UNL     1       1.671   6.558 -15.908  1.00  0.00     0.046 C 
HETATM    3  C9  UNL     1       1.304   8.041 -15.866  1.00  0.00     0.124 C 
HETATM    4  C10 UNL     1      -0.032   7.930 -15.255  1.00  0.00     0.171 C 
HETATM    5  O4  UNL     1      -1.058   8.479 -15.518  1.00  0.00    -0.294 OA
HETATM    6  C11 UNL     1       0.206   6.932 -14.191  1.00  0.00     0.231 C 
HETATM    7  O5  UNL     1       0.937   7.530 -13.180  1.00  0.00    -0.371 OA
HETATM    8  C12 UNL     1       2.172   7.992 -13.578  1.00  0.00     0.195 C 
HETATM    9  C13 UNL     1       2.191   8.730 -14.872  1.00  0.00     0.069 C 
HETATM   10  C14 UNL     1       1.677  10.157 -14.730  1.00  0.00     0.036 C 
HETATM   11 CL1  UNL     1       3.856   8.847 -15.484  1.00  0.00    -0.116 Cl
ENDROOT
BRANCH   1  12
HETATM   12  C5  UNL     1       1.049   4.531 -14.553  1.00  0.00     0.252 C 
HETATM   13  N1  UNL     1       0.336   3.576 -15.328  1.00  0.00    -0.344 N 
ATOM     14  H1  UNL     1      -0.169   3.914 -16.147  1.00  0.00     0.163 HD
HETATM   15  O1  UNL     1       1.643   4.027 -13.562  1.00  0.00    -0.268 OA
BRANCH  13  16
HETATM   16  C4  UNL     1       0.274   2.171 -15.044  1.00  0.00     0.177 C 
BRANCH  16  17
HETATM   17  C2  UNL     1       0.699   1.316 -16.212  1.00  0.00     0.009 C 
HETATM   18  C1  UNL     1       2.198   1.143 -16.284  1.00  0.00     0.012 C 
HETATM   19  C3  UNL     1       0.260   1.971 -17.505  1.00  0.00     0.012 C 
ENDBRANCH  16  17
BRANCH  16  20
HETATM   20  C15 UNL     1      -1.067   1.860 -14.529  1.00  0.00     0.254 C 
HETATM   21  N2  UNL     1      -1.711   0.660 -14.895  1.00  0.00    -0.060 NA
HETATM   22  O6  UNL     1      -1.646   2.657 -13.762  1.00  0.00    -0.275 OA
ENDBRANCH  16  20
ENDBRANCH  13  16
ENDBRANCH   1  12
BRANCH   2  23
HETATM   23  C8  UNL     1       2.580   6.019 -16.890  1.00  0.00     0.206 C 
HETATM   24  O2  UNL     1       3.657   6.479 -17.283  1.00  0.00    -0.644 OA
HETATM   25  O3  UNL     1       2.214   4.795 -17.506  1.00  0.00    -0.644 OA
ENDBRANCH   2  23
TORSDOF 5
ENDMDL
MODEL 2
REMARK VINA RESULT: -7.584378074      3.024      6.247
REMARK  5 active torsions:
REMARK  status: ('A' for Active; 'I' for Inactive)
REMARK    1  A    between atoms: C2_2  and  C4_4 
REMARK    2  A    between atoms: C4_4  and  N1_5 
REMARK    3  A    between atoms: C4_4  and  C15_23 
REMARK       I    between atoms: N1_5  and  C5_7 
REMARK    4  A    between atoms: C5_7  and  C6_9 
REMARK    5  A    between atoms: C7_10  and  C8_11 
ROOT
HETATM    1  C6  UNL     1       3.005   4.385 -16.179  1.00  0.00     0.059 C 
HETATM    2  C7  UNL     1       2.664   3.266 -16.784  1.00  0.00     0.046 C 
HETATM    3  C9  UNL     1       3.599   2.143 -16.337  1.00  0.00     0.124 C 
HETATM    4  C10 UNL     1       4.790   2.949 -16.014  1.00  0.00     0.171 C 
HETATM    5  O4  UNL     1       5.944   2.766 -16.251  1.00  0.00    -0.294 OA
HETATM    6  C11 UNL     1       4.192   4.094 -15.294  1.00  0.00     0.231 C 
HETATM    7  O5  UNL     1       3.786   3.665 -14.043  1.00  0.00    -0.371 OA
HETATM    8  C12 UNL     1       2.833   2.670 -14.072  1.00  0.00     0.195 C 
HETATM    9  C13 UNL     1       3.086   1.573 -15.048  1.00  0.00     0.069 C 
HETATM   10  C14 UNL     1       4.136   0.587 -14.547  1.00  0.00     0.036 C 
HETATM   11 CL1  UNL     1       1.598   0.639 -15.316  1.00  0.00    -0.116 Cl
ENDROOT
BRANCH   1  12
HETATM   12  C5  UNL     1       2.443   5.716 -16.254  1.00  0.00     0.252 C 
HETATM   13  N1  UNL     1       2.232   6.464 -15.064  1.00  0.00    -0.344 N 
ATOM     14  H1  UNL     1       2.487   6.026 -14.179  1.00  0.00     0.163 HD
HETATM   15  O1  UNL     1       2.100   6.332 -17.299  1.00  0.00    -0.268 OA
BRANCH  13  16
HETATM   16  C4  UNL     1       1.687   7.789 -15.015  1.00  0.00     0.177 C 
BRANCH  16  17
HETATM   17  C2  UNL     1       2.702   8.828 -14.608  1.00  0.00     0.009 C 
HETATM   18  C1  UNL     1       2.129   9.851 -13.656  1.00  0.00     0.012 C 
HETATM   19  C3  UNL     1       3.181   9.577 -15.836  1.00  0.00     0.012 C 
ENDBRANCH  16  17
BRANCH  16  20
HETATM   20  C15 UNL     1       0.482   7.765 -14.173  1.00  0.00     0.254 C 
HETATM   21  N2  UNL     1       0.504   7.126 -12.915  1.00  0.00    -0.060 NA
HETATM   22  O6  UNL     1      -0.570   8.311 -14.564  1.00  0.00    -0.275 OA
ENDBRANCH  16  20
ENDBRANCH  13  16
ENDBRANCH   1  12
BRANCH   2  23
HETATM   23  C8  UNL     1       1.595   3.045 -17.726  1.00  0.00     0.206 C 
HETATM   24  O2  UNL     1       1.646   3.004 -18.960  1.00  0.00    -0.644 OA
HETATM   25  O3  UNL     1       0.296   2.845 -17.193  1.00  0.00    -0.644 OA
ENDBRANCH   2  23
TORSDOF 5
ENDMDL
MODEL 3
REMARK VINA RESULT: -7.402240957      3.234      6.319
REMARK  5 active torsions:
REMARK  status: ('A' for Active; 'I' for Inactive)
REMARK    1  A    between atoms: C2_2  and  C4_4 
REMARK    2  A    between atoms: C4_4  and  N1_5 
REMARK    3  A    between atoms: C4_4  and  C15_23 
REMARK       I    between atoms: N1_5  and  C5_7 
REMARK    4  A    between atoms: C5_7  and  C6_9 
REMARK    5  A    between atoms: C7_10  and  C8_11 
ROOT
HETATM    1  C6  UNL     1       2.589   3.869 -15.737  1.00  0.00     0.059 C 
HETATM    2  C7  UNL     1       2.502   2.887 -16.610  1.00  0.00     0.046 C 
HETATM    3  C9  UNL     1       3.674   1.926 -16.410  1.00  0.00     0.124 C 
HETATM    4  C10 UNL     1       4.655   2.872 -15.850  1.00  0.00     0.171 C 
HETATM    5  O4  UNL     1       5.817   3.016 -16.075  1.00  0.00    -0.294 OA
HETATM    6  C11 UNL     1       3.823   3.642 -14.899  1.00  0.00     0.231 C 
HETATM    7  O5  UNL     1       3.542   2.838 -13.808  1.00  0.00    -0.371 OA
HETATM    8  C12 UNL     1       2.840   1.694 -14.120  1.00  0.00     0.195 C 
HETATM    9  C13 UNL     1       3.322   0.956 -15.321  1.00  0.00     0.069 C 
HETATM   10  C14 UNL     1       4.574   0.138 -15.031  1.00  0.00     0.036 C 
HETATM   11 CL1  UNL     1       2.080  -0.191 -15.872  1.00  0.00    -0.116 Cl
ENDROOT
BRANCH   1  12
HETATM   12  C5  UNL     1       1.739   5.018 -15.510  1.00  0.00     0.252 C 
HETATM   13  N1  UNL     1       2.306   6.320 -15.460  1.00  0.00    -0.344 N 
ATOM     14  H1  UNL     1       3.315   6.401 -15.587  1.00  0.00     0.163 HD
HETATM   15  O1  UNL     1       0.490   5.010 -15.342  1.00  0.00    -0.268 OA
BRANCH  13  16
HETATM   16  C4  UNL     1       1.565   7.529 -15.245  1.00  0.00     0.177 C 
BRANCH  16  17
HETATM   17  C2  UNL     1       2.166   8.720 -15.949  1.00  0.00     0.009 C 
HETATM   18  C1  UNL     1       2.921   8.330 -17.198  1.00  0.00     0.012 C 
HETATM   19  C3  UNL     1       3.150   9.411 -15.027  1.00  0.00     0.012 C 
ENDBRANCH  16  17
BRANCH  16  20
HETATM   20  C15 UNL     1       1.389   7.714 -13.798  1.00  0.00     0.254 C 
HETATM   21  N2  UNL     1       0.490   8.685 -13.307  1.00  0.00    -0.060 NA
HETATM   22  O6  UNL     1       2.033   7.013 -12.991  1.00  0.00    -0.275 OA
ENDBRANCH  16  20
ENDBRANCH  13  16
ENDBRANCH   1  12
BRANCH   2  23
HETATM   23  C8  UNL     1       1.498   2.673 -17.622  1.00  0.00     0.206 C 
HETATM   24  O2  UNL     1       1.584   2.829 -18.845  1.00  0.00    -0.644 OA
HETATM   25  O3  UNL     1       0.226   2.220 -17.185  1.00  0.00    -0.644 OA
ENDBRANCH   2  23
TORSDOF 5
ENDMDL
MODEL 4
REMARK VINA RESULT: -7.354903849      2.435      3.630
REMARK  5 active torsions:
REMARK  status: ('A' for Active; 'I' for Inactive)
REMARK    1  A    between atoms: C2_2  and  C4_4 
REMARK    2  A    between atoms: C4_4  and  N1_5 
REMARK    3  A    between atoms: C4_4  and  C15_23 
REMARK       I    between atoms: N1_5  and  C5_7 
REMARK    4  A    between atoms: C5_7  and  C6_9 
REMARK    5  A    between atoms: C7_10  and  C8_11 
ROOT
HETATM    1  C6  UNL     1       2.534   4.663 -15.568  1.00  0.00     0.059 C 
HETATM    2  C7  UNL     1       2.940   4.749 -14.319  1.00  0.00     0.046 C 
HETATM    3  C9  UNL     1       2.812   6.195 -13.842  1.00  0.00     0.124 C 
HETATM    4  C10 UNL     1       2.958   6.879 -15.140  1.00  0.00     0.171 C 
HETATM    5  O4  UNL     1       3.581   7.849 -15.445  1.00  0.00    -0.294 OA
HETATM    6  C11 UNL     1       2.115   6.040 -16.018  1.00  0.00     0.231 C 
HETATM    7  O5  UNL     1       0.786   6.280 -15.714  1.00  0.00    -0.371 OA
HETATM    8  C12 UNL     1       0.443   5.971 -14.416  1.00  0.00     0.195 C 
HETATM    9  C13 UNL     1       1.406   6.427 -13.375  1.00  0.00     0.069 C 
HETATM   10  C14 UNL     1       1.274   7.917 -13.080  1.00  0.00     0.036 C 
HETATM   11 CL1  UNL     1       1.099   5.577 -11.844  1.00  0.00    -0.116 Cl
ENDROOT
BRANCH   1  12
HETATM   12  C5  UNL     1       2.452   3.532 -16.466  1.00  0.00     0.252 C 
HETATM   13  N1  UNL     1       1.673   2.398 -16.109  1.00  0.00    -0.344 N 
ATOM     14  H1  UNL     1       1.190   2.421 -15.211  1.00  0.00     0.163 HD
HETATM   15  O1  UNL     1       3.015   3.418 -17.588  1.00  0.00    -0.268 OA
BRANCH  13  16
HETATM   16  C4  UNL     1       1.516   1.224 -16.917  1.00  0.00     0.177 C 
BRANCH  16  17
HETATM   17  C2  UNL     1       0.071   0.869 -17.164  1.00  0.00     0.009 C 
HETATM   18  C1  UNL     1      -0.464   1.484 -18.436  1.00  0.00     0.012 C 
HETATM   19  C3  UNL     1      -0.780   1.388 -16.023  1.00  0.00     0.012 C 
ENDBRANCH  16  17
BRANCH  16  20
HETATM   20  C15 UNL     1       2.306   0.139 -16.318  1.00  0.00     0.254 C 
HETATM   21  N2  UNL     1       2.308  -1.147 -16.899  1.00  0.00    -0.060 NA
HETATM   22  O6  UNL     1       2.982   0.346 -15.290  1.00  0.00    -0.275 OA
ENDBRANCH  16  20
ENDBRANCH  13  16
ENDBRANCH   1  12
BRANCH   2  23
HETATM   23  C8  UNL     1       3.436   3.700 -13.463  1.00  0.00     0.206 C 
HETATM   24  O2  UNL     1       4.576   3.541 -13.012  1.00  0.00    -0.644 OA
HETATM   25  O3  UNL     1       2.512   2.699 -13.065  1.00  0.00    -0.644 OA
ENDBRANCH   2  23
TORSDOF 5
ENDMDL
MODEL 5
REMARK VINA RESULT: -7.338284388      4.911      7.261
REMARK  5 active torsions:
REMARK  status: ('A' for Active; 'I' for Inactive)
REMARK    1  A    between atoms: C2_2  and  C4_4 
REMARK    2  A    between atoms: C4_4  and  N1_5 
REMARK    3  A    between atoms: C4_4  and  C15_23 
REMARK       I    between atoms: N1_5  and  C5_7 
REMARK    4  A    between atoms: C5_7  and  C6_9 
REMARK    5  A    between atoms: C7_10  and  C8_11 
ROOT
HETATM    1  C6  UNL     1       2.782   0.098 -16.909  1.00  0.00     0.059 C 
HETATM    2  C7  UNL     1       3.336   1.030 -16.162  1.00  0.00     0.046 C 
HETATM    3  C9  UNL     1       2.489   2.301 -16.226  1.00  0.00     0.124 C 
HETATM    4  C10 UNL     1       1.892   2.113 -17.560  1.00  0.00     0.171 C 
HETATM    5  O4  UNL     1       1.723   2.883 -18.454  1.00  0.00    -0.294 OA
HETATM    6  C11 UNL     1       1.536   0.678 -17.531  1.00  0.00     0.231 C 
HETATM    7  O5  UNL     1       0.442   0.512 -16.699  1.00  0.00    -0.371 OA
HETATM    8  C12 UNL     1       0.666   0.895 -15.394  1.00  0.00     0.195 C 
HETATM    9  C13 UNL     1       1.379   2.192 -15.223  1.00  0.00     0.069 C 
HETATM   10  C14 UNL     1       0.461   3.388 -15.443  1.00  0.00     0.036 C 
HETATM   11 CL1  UNL     1       2.006   2.329 -13.566  1.00  0.00    -0.116 Cl
ENDROOT
BRANCH   1  12
HETATM   12  C5  UNL     1       3.182  -1.265 -17.181  1.00  0.00     0.252 C 
HETATM   13  N1  UNL     1       4.495  -1.539 -17.652  1.00  0.00    -0.344 N 
ATOM     14  H1  UNL     1       5.122  -0.746 -17.787  1.00  0.00     0.163 HD
HETATM   15  O1  UNL     1       2.474  -2.300 -17.044  1.00  0.00    -0.268 OA
BRANCH  13  16
HETATM   16  C4  UNL     1       5.002  -2.846 -17.952  1.00  0.00     0.177 C 
BRANCH  16  17
HETATM   17  C2  UNL     1       6.350  -3.111 -17.327  1.00  0.00     0.009 C 
HETATM   18  C1  UNL     1       6.460  -4.509 -16.767  1.00  0.00     0.012 C 
HETATM   19  C3  UNL     1       6.573  -2.149 -16.178  1.00  0.00     0.012 C 
ENDBRANCH  16  17
BRANCH  16  20
HETATM   20  C15 UNL     1       4.969  -3.034 -19.409  1.00  0.00     0.254 C 
HETATM   21  N2  UNL     1       3.741  -3.230 -20.075  1.00  0.00    -0.060 NA
HETATM   22  O6  UNL     1       6.029  -3.022 -20.069  1.00  0.00    -0.275 OA
ENDBRANCH  16  20
ENDBRANCH  13  16
ENDBRANCH   1  12
BRANCH   2  23
HETATM   23  C8  UNL     1       4.541   0.949 -15.375  1.00  0.00     0.206 C 
HETATM   24  O2  UNL     1       4.707   0.443 -14.260  1.00  0.00    -0.644 OA
HETATM   25  O3  UNL     1       5.715   1.521 -15.930  1.00  0.00    -0.644 OA
ENDBRANCH   2  23
TORSDOF 5
ENDMDL
