MODEL 1
REMARK VINA RESULT: -7.602736605      0.000      0.000
REMARK  7 active torsions:
REMARK  status: ('A' for Active; 'I' for Inactive)
REMARK    1  A    between atoms: C2_2  and  C3_3 
REMARK    2  A    between atoms: C3_3  and  N1_4 
REMARK       I    between atoms: N1_4  and  C4_6 
REMARK    3  A    between atoms: C4_6  and  C5_8 
REMARK       I    between atoms: C5_8  and  N2_10 
REMARK    4  A    between atoms: N2_10  and  C6_12 
REMARK    5  A    between atoms: C11_19  and  C12_20 
REMARK    6  A    between atoms: C12_20  and  C13_21 
REMARK    7  A    between atoms: C16_25  and  C17_26 
ROOT
HETATM    1  C6  UNL     1       0.049   0.658 -16.571  1.00  0.00     0.165 C 
HETATM    2  C7  UNL     1       0.320   2.150 -16.524  1.00  0.00     0.354 C 
HETATM    3  C8  UNL     1       1.270   2.518 -17.577  1.00  0.00     0.097 C 
HETATM    4  N3  UNL     1       2.011   2.788 -18.408  1.00  0.00    -0.195 NA
HETATM    5  N4  UNL     1       0.828   1.970 -15.215  1.00  0.00     0.130 N 
HETATM    6  C9  UNL     1      -0.116   0.846 -15.076  1.00  0.00     0.252 C 
HETATM    7  C10 UNL     1      -1.440   1.477 -14.681  1.00  0.00     0.045 C 
HETATM    8  C11 UNL     1      -1.075   2.825 -14.136  1.00  0.00     0.035 C 
HETATM    9  C16 UNL     1       0.400   2.853 -14.150  1.00  0.00     0.329 C 
ENDROOT
BRANCH   1  10
HETATM   10  N2  UNL     1       1.165  -0.190 -16.840  1.00  0.00    -0.343 N 
HETATM   11  C5  UNL     1       1.467  -0.799 -18.064  1.00  0.00     0.309 C 
HETATM   12  O2  UNL     1       0.708  -0.606 -19.044  1.00  0.00    -0.262 OA
ATOM     13  H2  UNL     1       1.805  -0.370 -16.066  1.00  0.00     0.163 HD
BRANCH  11  14
HETATM   14  C4  UNL     1       2.628  -1.652 -18.254  1.00  0.00     0.309 C 
HETATM   15  N1  UNL     1       3.263  -1.769 -19.513  1.00  0.00    -0.349 N 
ATOM     16  H1  UNL     1       2.910  -1.247 -20.315  1.00  0.00     0.163 HD
HETATM   17  O1  UNL     1       3.079  -2.300 -17.283  1.00  0.00    -0.262 OA
BRANCH  15  18
HETATM   18  C3  UNL     1       4.408  -2.627 -19.658  1.00  0.00     0.149 C 
BRANCH  18  19
HETATM   19  C2  UNL     1       4.247  -3.732 -20.601  1.00  0.00    -0.018 C 
HETATM   20  C1  UNL     1       5.296  -4.457 -20.966  1.00  0.00     0.008 C 
ENDBRANCH  18  19
ENDBRANCH  15  18
ENDBRANCH  11  14
ENDBRANCH   1  10
BRANCH   9  21
HETATM   21  C17 UNL     1       0.985   4.221 -14.291  1.00  0.00     0.208 C 
HETATM   22  O3  UNL     1       2.048   4.532 -13.700  1.00  0.00    -0.646 OA
HETATM   23  O4  UNL     1       0.383   5.178 -15.066  1.00  0.00    -0.646 OA
ENDBRANCH   9  21
BRANCH   8  24
HETATM   24  C12 UNL     1      -1.817   3.301 -12.973  1.00  0.00     0.050 C 
BRANCH  24  25
HETATM   25  C13 UNL     1      -1.292   3.180 -11.605  1.00  0.00     0.096 C 
HETATM   26  C14 UNL     1      -0.745   4.444 -10.987  1.00  0.00     0.051 C 
HETATM   27  C15 UNL     1      -2.523   2.835 -10.725  1.00  0.00     0.051 C 
HETATM   28  F1  UNL     1      -0.440   2.105 -11.388  1.00  0.00    -0.244 F 
ENDBRANCH  24  25
ENDBRANCH   8  24
TORSDOF 7
ENDMDL
MODEL 2
REMARK VINA RESULT: -7.506228676      1.297      1.692
REMARK  7 active torsions:
REMARK  status: ('A' for Active; 'I' for Inactive)
REMARK    1  A    between atoms: C2_2  and  C3_3 
REMARK    2  A    between atoms: C3_3  and  N1_4 
REMARK       I    between atoms: N1_4  and  C4_6 
REMARK    3  A    between atoms: C4_6  and  C5_8 
REMARK       I    between atoms: C5_8  and  N2_10 
REMARK    4  A    between atoms: N2_10  and  C6_12 
REMARK    5  A    between atoms: C11_19  and  C12_20 
REMARK    6  A    between atoms: C12_20  and  C13_21 
REMARK    7  A    between atoms: C16_25  and  C17_26 
ROOT
HETATM    1  C6  UNL     1       0.121   0.753 -16.542  1.00  0.00     0.165 C 
HETATM    2  C7  UNL     1       0.353   2.252 -16.497  1.00  0.00     0.354 C 
HETATM    3  C8  UNL     1       1.294   2.642 -17.551  1.00  0.00     0.097 C 
HETATM    4  N3  UNL     1       2.027   2.929 -18.382  1.00  0.00    -0.195 NA
HETATM    5  N4  UNL     1       0.865   2.087 -15.188  1.00  0.00     0.130 N 
HETATM    6  C9  UNL     1      -0.048   0.939 -15.047  1.00  0.00     0.252 C 
HETATM    7  C10 UNL     1      -1.389   1.536 -14.653  1.00  0.00     0.045 C 
HETATM    8  C11 UNL     1      -1.059   2.895 -14.111  1.00  0.00     0.035 C 
HETATM    9  C16 UNL     1       0.415   2.960 -14.125  1.00  0.00     0.329 C 
ENDROOT
BRANCH   1  10
HETATM   10  N2  UNL     1       1.259  -0.067 -16.809  1.00  0.00    -0.343 N 
HETATM   11  C5  UNL     1       1.533  -0.738 -18.007  1.00  0.00     0.309 C 
HETATM   12  O2  UNL     1       0.727  -0.636 -18.961  1.00  0.00    -0.262 OA
ATOM     13  H2  UNL     1       1.939  -0.173 -16.055  1.00  0.00     0.163 HD
BRANCH  11  14
HETATM   14  C4  UNL     1       2.720  -1.556 -18.196  1.00  0.00     0.309 C 
HETATM   15  N1  UNL     1       3.888  -1.356 -17.422  1.00  0.00    -0.349 N 
ATOM     16  H1  UNL     1       3.912  -0.627 -16.710  1.00  0.00     0.163 HD
HETATM   17  O1  UNL     1       2.712  -2.458 -19.064  1.00  0.00    -0.262 OA
BRANCH  15  18
HETATM   18  C3  UNL     1       5.041  -2.186 -17.644  1.00  0.00     0.149 C 
BRANCH  18  19
HETATM   19  C2  UNL     1       6.075  -2.110 -16.612  1.00  0.00    -0.018 C 
HETATM   20  C1  UNL     1       5.981  -1.214 -15.639  1.00  0.00     0.008 C 
ENDBRANCH  18  19
ENDBRANCH  15  18
ENDBRANCH  11  14
ENDBRANCH   1  10
BRANCH   9  21
HETATM   21  C17 UNL     1       0.964   4.343 -14.269  1.00  0.00     0.208 C 
HETATM   22  O3  UNL     1       2.050   4.665 -13.728  1.00  0.00    -0.646 OA
HETATM   23  O4  UNL     1       0.304   5.302 -14.991  1.00  0.00    -0.646 OA
ENDBRANCH   9  21
BRANCH   8  24
HETATM   24  C12 UNL     1      -1.813   3.353 -12.949  1.00  0.00     0.050 C 
BRANCH  24  25
HETATM   25  C13 UNL     1      -1.292   3.234 -11.579  1.00  0.00     0.096 C 
HETATM   26  C14 UNL     1      -0.722   4.492 -10.971  1.00  0.00     0.051 C 
HETATM   27  C15 UNL     1      -2.530   2.919 -10.697  1.00  0.00     0.051 C 
HETATM   28  F1  UNL     1      -0.460   2.145 -11.352  1.00  0.00    -0.244 F 
ENDBRANCH  24  25
ENDBRANCH   8  24
TORSDOF 7
ENDMDL
MODEL 3
REMARK VINA RESULT: -7.462046699      4.186      5.955
REMARK  7 active torsions:
REMARK  status: ('A' for Active; 'I' for Inactive)
REMARK    1  A    between atoms: C2_2  and  C3_3 
REMARK    2  A    between atoms: C3_3  and  N1_4 
REMARK       I    between atoms: N1_4  and  C4_6 
REMARK    3  A    between atoms: C4_6  and  C5_8 
REMARK       I    between atoms: C5_8  and  N2_10 
REMARK    4  A    between atoms: N2_10  and  C6_12 
REMARK    5  A    between atoms: C11_19  and  C12_20 
REMARK    6  A    between atoms: C12_20  and  C13_21 
REMARK    7  A    between atoms: C16_25  and  C17_26 
ROOT
HETATM    1  C6  UNL     1       1.777   3.341 -15.645  1.00  0.00     0.165 C 
HETATM    2  C7  UNL     1       1.921   3.976 -14.275  1.00  0.00     0.354 C 
HETATM    3  C8  UNL     1       1.387   3.076 -13.249  1.00  0.00     0.097 C 
HETATM    4  N3  UNL     1       0.969   2.359 -12.461  1.00  0.00    -0.195 NA
HETATM    5  N4  UNL     1       1.086   5.028 -14.725  1.00  0.00     0.130 N 
HETATM    6  C9  UNL     1       1.625   4.786 -16.076  1.00  0.00     0.252 C 
HETATM    7  C10 UNL     1       2.938   5.550 -16.129  1.00  0.00     0.045 C 
HETATM    8  C11 UNL     1       2.836   6.564 -15.029  1.00  0.00     0.035 C 
HETATM    9  C16 UNL     1       1.472   6.403 -14.490  1.00  0.00     0.329 C 
ENDROOT
BRANCH   1  10
HETATM   10  N2  UNL     1       0.569   2.623 -15.897  1.00  0.00    -0.343 N 
HETATM   11  C5  UNL     1       0.268   1.886 -17.049  1.00  0.00     0.309 C 
HETATM   12  O2  UNL     1       1.115   1.824 -17.971  1.00  0.00    -0.262 OA
ATOM     13  H2  UNL     1      -0.144   2.650 -15.168  1.00  0.00     0.163 HD
BRANCH  11  14
HETATM   14  C4  UNL     1      -0.991   1.183 -17.226  1.00  0.00     0.309 C 
HETATM   15  N1  UNL     1      -1.390   0.687 -18.490  1.00  0.00    -0.349 N 
ATOM     16  H1  UNL     1      -0.790   0.818 -19.304  1.00  0.00     0.163 HD
HETATM   17  O1  UNL     1      -1.743   1.010 -16.241  1.00  0.00    -0.262 OA
BRANCH  15  18
HETATM   18  C3  UNL     1      -2.646  -0.001 -18.622  1.00  0.00     0.149 C 
BRANCH  18  19
HETATM   19  C2  UNL     1      -3.444   0.371 -19.790  1.00  0.00    -0.018 C 
HETATM   20  C1  UNL     1      -3.550  -0.461 -20.819  1.00  0.00     0.008 C 
ENDBRANCH  18  19
ENDBRANCH  15  18
ENDBRANCH  11  14
ENDBRANCH   1  10
BRANCH   9  21
HETATM   21  C17 UNL     1       1.335   6.783 -13.051  1.00  0.00     0.208 C 
HETATM   22  O3  UNL     1       0.539   7.686 -12.696  1.00  0.00    -0.646 OA
HETATM   23  O4  UNL     1       2.071   6.162 -12.076  1.00  0.00    -0.646 OA
ENDBRANCH   9  21
BRANCH   8  24
HETATM   24  C12 UNL     1       3.380   7.892 -15.292  1.00  0.00     0.050 C 
BRANCH  24  25
HETATM   25  C13 UNL     1       2.519   9.056 -15.547  1.00  0.00     0.096 C 
HETATM   26  C14 UNL     1       2.425  10.072 -14.435  1.00  0.00     0.051 C 
HETATM   27  C15 UNL     1       3.209   9.829 -16.703  1.00  0.00     0.051 C 
HETATM   28  F1  UNL     1       1.265   8.765 -16.069  1.00  0.00    -0.244 F 
ENDBRANCH  24  25
ENDBRANCH   8  24
TORSDOF 7
ENDMDL
MODEL 4
REMARK VINA RESULT: -7.439463310      1.108      1.122
REMARK  7 active torsions:
REMARK  status: ('A' for Active; 'I' for Inactive)
REMARK    1  A    between atoms: C2_2  and  C3_3 
REMARK    2  A    between atoms: C3_3  and  N1_4 
REMARK       I    between atoms: N1_4  and  C4_6 
REMARK    3  A    between atoms: C4_6  and  C5_8 
REMARK       I    between atoms: C5_8  and  N2_10 
REMARK    4  A    between atoms: N2_10  and  C6_12 
REMARK    5  A    between atoms: C11_19  and  C12_20 
REMARK    6  A    between atoms: C12_20  and  C13_21 
REMARK    7  A    between atoms: C16_25  and  C17_26 
ROOT
HETATM    1  C6  UNL     1       1.145   1.189 -16.674  1.00  0.00     0.165 C 
HETATM    2  C7  UNL     1       1.269   2.655 -16.300  1.00  0.00     0.354 C 
HETATM    3  C8  UNL     1       2.380   3.265 -17.036  1.00  0.00     0.097 C 
HETATM    4  N3  UNL     1       3.249   3.725 -17.623  1.00  0.00    -0.195 NA
HETATM    5  N4  UNL     1       1.511   2.247 -14.966  1.00  0.00     0.130 N 
HETATM    6  C9  UNL     1       0.661   1.074 -15.242  1.00  0.00     0.252 C 
HETATM    7  C10 UNL     1      -0.766   1.554 -15.039  1.00  0.00     0.045 C 
HETATM    8  C11 UNL     1      -0.640   2.786 -14.193  1.00  0.00     0.035 C 
HETATM    9  C16 UNL     1       0.798   2.884 -13.880  1.00  0.00     0.329 C 
ENDROOT
BRANCH   1  10
HETATM   10  N2  UNL     1       2.363   0.463 -16.841  1.00  0.00    -0.343 N 
HETATM   11  C5  UNL     1       2.485  -0.853 -17.304  1.00  0.00     0.309 C 
HETATM   12  O2  UNL     1       1.449  -1.490 -17.612  1.00  0.00    -0.262 OA
ATOM     13  H2  UNL     1       3.227   0.950 -16.601  1.00  0.00     0.163 HD
BRANCH  11  14
HETATM   14  C4  UNL     1       3.768  -1.521 -17.444  1.00  0.00     0.309 C 
HETATM   15  N1  UNL     1       4.100  -2.247 -18.613  1.00  0.00    -0.349 N 
ATOM     16  H1  UNL     1       3.435  -2.310 -19.383  1.00  0.00     0.163 HD
HETATM   17  O1  UNL     1       4.600  -1.456 -16.512  1.00  0.00    -0.262 OA
BRANCH  15  18
HETATM   18  C3  UNL     1       5.380  -2.896 -18.710  1.00  0.00     0.149 C 
BRANCH  18  19
HETATM   19  C2  UNL     1       5.686  -3.485 -20.013  1.00  0.00    -0.018 C 
HETATM   20  C1  UNL     1       4.716  -4.001 -20.757  1.00  0.00     0.008 C 
ENDBRANCH  18  19
ENDBRANCH  15  18
ENDBRANCH  11  14
ENDBRANCH   1  10
BRANCH   9  21
HETATM   21  C17 UNL     1       1.278   4.279 -13.640  1.00  0.00     0.208 C 
HETATM   22  O3  UNL     1       2.274   4.502 -12.909  1.00  0.00    -0.646 OA
HETATM   23  O4  UNL     1       0.650   5.357 -14.207  1.00  0.00    -0.646 OA
ENDBRANCH   9  21
BRANCH   8  24
HETATM   24  C12 UNL     1      -1.644   2.990 -13.154  1.00  0.00     0.050 C 
BRANCH  24  25
HETATM   25  C13 UNL     1      -1.328   2.863 -11.723  1.00  0.00     0.096 C 
HETATM   26  C14 UNL     1      -1.277   4.149 -10.935  1.00  0.00     0.051 C 
HETATM   27  C15 UNL     1      -2.529   2.094 -11.108  1.00  0.00     0.051 C 
HETATM   28  F1  UNL     1      -0.246   2.046 -11.423  1.00  0.00    -0.244 F 
ENDBRANCH  24  25
ENDBRANCH   8  24
TORSDOF 7
ENDMDL
MODEL 5
REMARK VINA RESULT: -7.437871799      4.253      5.994
REMARK  7 active torsions:
REMARK  status: ('A' for Active; 'I' for Inactive)
REMARK    1  A    between atoms: C2_2  and  C3_3 
REMARK    2  A    between atoms: C3_3  and  N1_4 
REMARK       I    between atoms: N1_4  and  C4_6 
REMARK    3  A    between atoms: C4_6  and  C5_8 
REMARK       I    between atoms: C5_8  and  N2_10 
REMARK    4  A    between atoms: N2_10  and  C6_12 
REMARK    5  A    between atoms: C11_19  and  C12_20 
REMARK    6  A    between atoms: C12_20  and  C13_21 
REMARK    7  A    between atoms: C16_25  and  C17_26 
ROOT
HETATM    1  C6  UNL     1       3.004   3.865 -16.667  1.00  0.00     0.165 C 
HETATM    2  C7  UNL     1       2.973   4.553 -15.315  1.00  0.00     0.354 C 
HETATM    3  C8  UNL     1       2.957   3.551 -14.245  1.00  0.00     0.097 C 
HETATM    4  N3  UNL     1       2.949   2.755 -13.423  1.00  0.00    -0.195 NA
HETATM    5  N4  UNL     1       1.737   5.133 -15.690  1.00  0.00     0.130 N 
HETATM    6  C9  UNL     1       2.217   5.091 -17.084  1.00  0.00     0.252 C 
HETATM    7  C10 UNL     1       3.071   6.337 -17.252  1.00  0.00     0.045 C 
HETATM    8  C11 UNL     1       2.635   7.253 -16.149  1.00  0.00     0.035 C 
HETATM    9  C16 UNL     1       1.518   6.549 -15.491  1.00  0.00     0.329 C 
ENDROOT
BRANCH   1  10
HETATM   10  N2  UNL     1       2.201   2.693 -16.811  1.00  0.00    -0.343 N 
HETATM   11  C5  UNL     1       1.507   2.301 -17.962  1.00  0.00     0.309 C 
HETATM   12  O2  UNL     1       1.570   3.021 -18.987  1.00  0.00    -0.262 OA
ATOM     13  H2  UNL     1       2.126   2.083 -15.997  1.00  0.00     0.163 HD
BRANCH  11  14
HETATM   14  C4  UNL     1       0.708   1.089 -18.024  1.00  0.00     0.309 C 
HETATM   15  N1  UNL     1      -0.673   1.127 -18.329  1.00  0.00    -0.349 N 
ATOM     16  H1  UNL     1      -1.132   2.018 -18.514  1.00  0.00     0.163 HD
HETATM   17  O1  UNL     1       1.251  -0.017 -17.802  1.00  0.00    -0.262 OA
BRANCH  15  18
HETATM   18  C3  UNL     1      -1.427  -0.097 -18.378  1.00  0.00     0.149 C 
BRANCH  18  19
HETATM   19  C2  UNL     1      -2.860   0.060 -18.627  1.00  0.00    -0.018 C 
HETATM   20  C1  UNL     1      -3.334  -0.010 -19.864  1.00  0.00     0.008 C 
ENDBRANCH  18  19
ENDBRANCH  15  18
ENDBRANCH  11  14
ENDBRANCH   1  10
BRANCH   9  21
HETATM   21  C17 UNL     1       1.347   6.890 -14.045  1.00  0.00     0.208 C 
HETATM   22  O3  UNL     1       2.327   6.877 -13.261  1.00  0.00    -0.646 OA
HETATM   23  O4  UNL     1       0.123   7.225 -13.530  1.00  0.00    -0.646 OA
ENDBRANCH   9  21
BRANCH   8  24
HETATM   24  C12 UNL     1       2.538   8.676 -16.459  1.00  0.00     0.050 C 
BRANCH  24  25
HETATM   25  C13 UNL     1       3.306   9.693 -15.725  1.00  0.00     0.096 C 
HETATM   26  C14 UNL     1       3.665  10.941 -16.493  1.00  0.00     0.051 C 
HETATM   27  C15 UNL     1       2.350  10.200 -14.611  1.00  0.00     0.051 C 
HETATM   28  F1  UNL     1       4.395   9.213 -15.008  1.00  0.00    -0.244 F 
ENDBRANCH  24  25
ENDBRANCH   8  24
TORSDOF 7
ENDMDL
