MODEL 1
REMARK VINA RESULT: -8.014109692      0.000      0.000
REMARK  8 active torsions:
REMARK  status: ('A' for Active; 'I' for Inactive)
REMARK    1  A    between atoms: C2_2  and  C3_3 
REMARK    2  A    between atoms: C3_3  and  N1_4 
REMARK    3  A    between atoms: C5_7  and  O2_8 
REMARK    4  A    between atoms: C8_13  and  C9_14 
REMARK    5  A    between atoms: C9_14  and  C10_15 
REMARK    6  A    between atoms: C10_15  and  O3_16 
REMARK    7  A    between atoms: C10_15  and  O4_18 
REMARK    8  A    between atoms: C12_21  and  C13_22 
ROOT
HETATM    1  N1  UNL     1       1.899   6.328 -15.492  1.00  0.00    -0.340 N 
HETATM    2  C4  UNL     1       2.764   5.580 -16.328  1.00  0.00     0.259 C 
HETATM    3  O1  UNL     1       3.485   6.063 -17.219  1.00  0.00    -0.270 OA
HETATM    4  C5  UNL     1       2.688   4.140 -15.989  1.00  0.00     0.182 C 
HETATM    5  C6  UNL     1       1.500   3.461 -16.627  1.00  0.00     0.150 C 
HETATM    6  C7  UNL     1       1.730   2.272 -17.466  1.00  0.00     0.116 C 
HETATM    7 CL1  UNL     1       0.501   2.252 -18.783  1.00  0.00    -0.122 Cl
HETATM    8  C8  UNL     1       1.584   0.949 -16.752  1.00  0.00     0.036 C 
HETATM    9  C11 UNL     1       0.393   0.911 -15.876  1.00  0.00     0.013 C 
HETATM   10  C12 UNL     1       0.178   2.003 -15.141  1.00  0.00     0.073 C 
HETATM   11  N2  UNL     1       1.099   3.072 -15.286  1.00  0.00    -0.358 N 
HETATM   12  C15 UNL     1       1.927   4.098 -14.678  1.00  0.00     0.154 C 
HETATM   13  C16 UNL     1       1.201   5.420 -14.577  1.00  0.00     0.110 C 
HETATM   14  C17 UNL     1       1.316   5.890 -13.142  1.00  0.00     0.034 C 
ENDROOT
BRANCH   8  15
HETATM   15  C9  UNL     1       1.641  -0.200 -17.729  1.00  0.00     0.070 C 
BRANCH  15  16
HETATM   16  C10 UNL     1       2.513  -1.308 -17.192  1.00  0.00     0.254 C 
BRANCH  16  17
HETATM   17  O3  UNL     1       3.694  -1.437 -17.949  1.00  0.00    -0.371 OA
ATOM     18  H3  UNL     1       4.350  -0.810 -17.669  1.00  0.00     0.212 HD
ENDBRANCH  16  17
BRANCH  16  19
HETATM   19  O4  UNL     1       1.837  -2.546 -17.274  1.00  0.00    -0.371 OA
ATOM     20  H4  UNL     1       2.365  -3.236 -16.891  1.00  0.00     0.212 HD
ENDBRANCH  16  19
ENDBRANCH  15  16
ENDBRANCH   8  15
BRANCH  10  21
HETATM   21  C13 UNL     1      -0.969   2.079 -14.235  1.00  0.00     0.171 C 
HETATM   22  C14 UNL     1      -1.162   3.284 -13.400  1.00  0.00     0.098 C 
HETATM   23  O5  UNL     1      -1.771   1.136 -14.170  1.00  0.00    -0.291 OA
ENDBRANCH  10  21
BRANCH   4  24
HETATM   24  O2  UNL     1       3.861   3.436 -16.030  1.00  0.00    -0.376 OA
ATOM     25  H2  UNL     1       3.884   2.676 -16.599  1.00  0.00     0.211 HD
ENDBRANCH   4  24
BRANCH   1  26
HETATM   26  C3  UNL     1       1.656   7.764 -15.453  1.00  0.00     0.153 C 
BRANCH  26  27
HETATM   27  C2  UNL     1       2.892   8.510 -15.116  1.00  0.00    -0.017 C 
HETATM   28  C1  UNL     1       3.123   9.703 -15.630  1.00  0.00     0.008 C 
ENDBRANCH  26  27
ENDBRANCH   1  26
TORSDOF 8
ENDMDL
MODEL 2
REMARK VINA RESULT: -7.959968884      2.717      6.326
REMARK  8 active torsions:
REMARK  status: ('A' for Active; 'I' for Inactive)
REMARK    1  A    between atoms: C2_2  and  C3_3 
REMARK    2  A    between atoms: C3_3  and  N1_4 
REMARK    3  A    between atoms: C5_7  and  O2_8 
REMARK    4  A    between atoms: C8_13  and  C9_14 
REMARK    5  A    between atoms: C9_14  and  C10_15 
REMARK    6  A    between atoms: C10_15  and  O3_16 
REMARK    7  A    between atoms: C10_15  and  O4_18 
REMARK    8  A    between atoms: C12_21  and  C13_22 
ROOT
HETATM    1  N1  UNL     1       4.327   0.556 -15.664  1.00  0.00    -0.340 N 
HETATM    2  C4  UNL     1       4.813   1.836 -16.025  1.00  0.00     0.259 C 
HETATM    3  O1  UNL     1       6.014   2.153 -16.074  1.00  0.00    -0.270 OA
HETATM    4  C5  UNL     1       3.685   2.744 -16.337  1.00  0.00     0.182 C 
HETATM    5  C6  UNL     1       3.065   3.340 -15.095  1.00  0.00     0.150 C 
HETATM    6  C7  UNL     1       2.966   4.806 -14.986  1.00  0.00     0.116 C 
HETATM    7 CL1  UNL     1       3.145   5.266 -13.254  1.00  0.00    -0.122 Cl
HETATM    8  C8  UNL     1       1.645   5.389 -15.428  1.00  0.00     0.036 C 
HETATM    9  C11 UNL     1       0.490   4.616 -14.923  1.00  0.00     0.013 C 
HETATM   10  C12 UNL     1       0.602   3.289 -15.001  1.00  0.00     0.073 C 
HETATM   11  N2  UNL     1       1.806   2.772 -15.544  1.00  0.00    -0.358 N 
HETATM   12  C15 UNL     1       2.477   1.833 -16.425  1.00  0.00     0.154 C 
HETATM   13  C16 UNL     1       2.861   0.562 -15.704  1.00  0.00     0.110 C 
HETATM   14  C17 UNL     1       2.328  -0.599 -16.518  1.00  0.00     0.034 C 
ENDROOT
BRANCH   8  15
HETATM   15  C9  UNL     1       1.567   6.859 -15.097  1.00  0.00     0.070 C 
BRANCH  15  16
HETATM   16  C10 UNL     1       0.137   7.273 -14.856  1.00  0.00     0.254 C 
BRANCH  16  17
HETATM   17  O3  UNL     1      -0.429   7.841 -16.014  1.00  0.00    -0.371 OA
ATOM     18  H3  UNL     1      -1.367   7.698 -16.042  1.00  0.00     0.212 HD
ENDBRANCH  16  17
BRANCH  16  19
HETATM   19  O4  UNL     1       0.075   8.259 -13.845  1.00  0.00    -0.371 OA
ATOM     20  H4  UNL     1      -0.576   8.914 -14.064  1.00  0.00     0.212 HD
ENDBRANCH  16  19
ENDBRANCH  15  16
ENDBRANCH   8  15
BRANCH  10  21
HETATM   21  C13 UNL     1      -0.479   2.420 -14.534  1.00  0.00     0.171 C 
HETATM   22  C14 UNL     1      -1.333   2.855 -13.408  1.00  0.00     0.098 C 
HETATM   23  O5  UNL     1      -0.674   1.325 -15.083  1.00  0.00    -0.291 OA
ENDBRANCH  10  21
BRANCH   4  24
HETATM   24  O2  UNL     1       3.864   3.613 -17.380  1.00  0.00    -0.376 OA
ATOM     25  H2  UNL     1       3.260   4.343 -17.436  1.00  0.00     0.211 HD
ENDBRANCH   4  24
BRANCH   1  26
HETATM   26  C3  UNL     1       5.061  -0.648 -15.294  1.00  0.00     0.153 C 
BRANCH  26  27
HETATM   27  C2  UNL     1       5.861  -1.162 -16.432  1.00  0.00    -0.017 C 
HETATM   28  C1  UNL     1       5.517  -2.274 -17.052  1.00  0.00     0.008 C 
ENDBRANCH  26  27
ENDBRANCH   1  26
TORSDOF 8
ENDMDL
MODEL 3
REMARK VINA RESULT: -7.682042512      2.612      4.754
REMARK  8 active torsions:
REMARK  status: ('A' for Active; 'I' for Inactive)
REMARK    1  A    between atoms: C2_2  and  C3_3 
REMARK    2  A    between atoms: C3_3  and  N1_4 
REMARK    3  A    between atoms: C5_7  and  O2_8 
REMARK    4  A    between atoms: C8_13  and  C9_14 
REMARK    5  A    between atoms: C9_14  and  C10_15 
REMARK    6  A    between atoms: C10_15  and  O3_16 
REMARK    7  A    between atoms: C10_15  and  O4_18 
REMARK    8  A    between atoms: C12_21  and  C13_22 
ROOT
HETATM    1  N1  UNL     1       1.696   4.062 -12.000  1.00  0.00    -0.340 N 
HETATM    2  C4  UNL     1       0.685   3.117 -12.299  1.00  0.00     0.259 C 
HETATM    3  O1  UNL     1       0.210   2.303 -11.487  1.00  0.00    -0.270 OA
HETATM    4  C5  UNL     1       0.272   3.236 -13.716  1.00  0.00     0.182 C 
HETATM    5  C6  UNL     1       1.210   2.512 -14.652  1.00  0.00     0.150 C 
HETATM    6  C7  UNL     1       0.657   1.502 -15.570  1.00  0.00     0.116 C 
HETATM    7 CL1  UNL     1       1.886   0.207 -15.808  1.00  0.00    -0.122 Cl
HETATM    8  C8  UNL     1       0.327   2.010 -16.954  1.00  0.00     0.036 C 
HETATM    9  C11 UNL     1       1.390   2.879 -17.502  1.00  0.00     0.013 C 
HETATM   10  C12 UNL     1       1.904   3.772 -16.655  1.00  0.00     0.073 C 
HETATM   11  N2  UNL     1       1.387   3.782 -15.334  1.00  0.00    -0.358 N 
HETATM   12  C15 UNL     1       0.902   4.531 -14.188  1.00  0.00     0.154 C 
HETATM   13  C16 UNL     1       2.010   4.836 -13.206  1.00  0.00     0.110 C 
HETATM   14  C17 UNL     1       1.972   6.324 -12.929  1.00  0.00     0.034 C 
ENDROOT
BRANCH   8  15
HETATM   15  C9  UNL     1      -0.043   0.871 -17.872  1.00  0.00     0.070 C 
BRANCH  15  16
HETATM   16  C10 UNL     1      -1.527   0.870 -18.142  1.00  0.00     0.254 C 
BRANCH  16  17
HETATM   17  O3  UNL     1      -2.204   0.013 -17.253  1.00  0.00    -0.371 OA
ATOM     18  H3  UNL     1      -2.016  -0.898 -17.445  1.00  0.00     0.212 HD
ENDBRANCH  16  17
BRANCH  16  19
HETATM   19  O4  UNL     1      -1.786   0.393 -19.447  1.00  0.00    -0.371 OA
ATOM     20  H4  UNL     1      -2.402   0.965 -19.890  1.00  0.00     0.212 HD
ENDBRANCH  16  19
ENDBRANCH  15  16
ENDBRANCH   8  15
BRANCH  10  21
HETATM   21  C13 UNL     1       2.961   4.689 -17.086  1.00  0.00     0.171 C 
HETATM   22  C14 UNL     1       2.690   6.141 -17.144  1.00  0.00     0.098 C 
HETATM   23  O5  UNL     1       4.076   4.245 -17.400  1.00  0.00    -0.291 OA
ENDBRANCH  10  21
BRANCH   4  24
HETATM   24  O2  UNL     1      -1.062   3.080 -13.984  1.00  0.00    -0.376 OA
ATOM     25  H2  UNL     1      -1.444   2.235 -13.778  1.00  0.00     0.211 HD
ENDBRANCH   4  24
BRANCH   1  26
HETATM   26  C3  UNL     1       2.388   4.319 -10.744  1.00  0.00     0.153 C 
BRANCH  26  27
HETATM   27  C2  UNL     1       3.531   3.393 -10.560  1.00  0.00    -0.017 C 
HETATM   28  C1  UNL     1       4.195   3.357  -9.421  1.00  0.00     0.008 C 
ENDBRANCH  26  27
ENDBRANCH   1  26
TORSDOF 8
ENDMDL
MODEL 4
REMARK VINA RESULT: -7.672647302      2.742      6.129
REMARK  8 active torsions:
REMARK  status: ('A' for Active; 'I' for Inactive)
REMARK    1  A    between atoms: C2_2  and  C3_3 
REMARK    2  A    between atoms: C3_3  and  N1_4 
REMARK    3  A    between atoms: C5_7  and  O2_8 
REMARK    4  A    between atoms: C8_13  and  C9_14 
REMARK    5  A    between atoms: C9_14  and  C10_15 
REMARK    6  A    between atoms: C10_15  and  O3_16 
REMARK    7  A    between atoms: C10_15  and  O4_18 
REMARK    8  A    between atoms: C12_21  and  C13_22 
ROOT
HETATM    1  N1  UNL     1       3.493   1.170 -15.895  1.00  0.00    -0.340 N 
HETATM    2  C4  UNL     1       3.765   2.524 -16.207  1.00  0.00     0.259 C 
HETATM    3  O1  UNL     1       4.892   2.981 -16.468  1.00  0.00    -0.270 OA
HETATM    4  C5  UNL     1       2.516   3.319 -16.178  1.00  0.00     0.182 C 
HETATM    5  C6  UNL     1       2.126   3.730 -14.779  1.00  0.00     0.150 C 
HETATM    6  C7  UNL     1       1.914   5.159 -14.493  1.00  0.00     0.116 C 
HETATM    7 CL1  UNL     1       2.420   5.487 -12.795  1.00  0.00    -0.122 Cl
HETATM    8  C8  UNL     1       0.479   5.622 -14.586  1.00  0.00     0.036 C 
HETATM    9  C11 UNL     1      -0.460   4.679 -13.940  1.00  0.00     0.013 C 
HETATM   10  C12 UNL     1      -0.242   3.386 -14.183  1.00  0.00     0.073 C 
HETATM   11  N2  UNL     1       0.859   3.061 -15.016  1.00  0.00    -0.358 N 
HETATM   12  C15 UNL     1       1.409   2.284 -16.114  1.00  0.00     0.154 C 
HETATM   13  C16 UNL     1       2.060   1.009 -15.630  1.00  0.00     0.110 C 
HETATM   14  C17 UNL     1       1.476  -0.131 -16.437  1.00  0.00     0.034 C 
ENDROOT
BRANCH   8  15
HETATM   15  C9  UNL     1       0.336   7.039 -14.088  1.00  0.00     0.070 C 
BRANCH  15  16
HETATM   16  C10 UNL     1       0.003   7.970 -15.227  1.00  0.00     0.254 C 
BRANCH  16  17
HETATM   17  O3  UNL     1       0.903   9.052 -15.278  1.00  0.00    -0.371 OA
ATOM     18  H3  UNL     1       0.725   9.610 -16.026  1.00  0.00     0.212 HD
ENDBRANCH  16  17
BRANCH  16  19
HETATM   19  O4  UNL     1      -1.288   8.518 -15.050  1.00  0.00    -0.371 OA
ATOM     20  H4  UNL     1      -1.499   9.102 -15.768  1.00  0.00     0.212 HD
ENDBRANCH  16  19
ENDBRANCH  15  16
ENDBRANCH   8  15
BRANCH  10  21
HETATM   21  C13 UNL     1      -1.109   2.360 -13.600  1.00  0.00     0.171 C 
HETATM   22  C14 UNL     1      -1.612   2.526 -12.220  1.00  0.00     0.098 C 
HETATM   23  O5  UNL     1      -1.416   1.359 -14.265  1.00  0.00    -0.291 OA
ENDBRANCH  10  21
BRANCH   4  24
HETATM   24  O2  UNL     1       2.381   4.289 -17.135  1.00  0.00    -0.376 OA
ATOM     25  H2  UNL     1       1.665   4.186 -17.751  1.00  0.00     0.211 HD
ENDBRANCH   4  24
BRANCH   1  26
HETATM   26  C3  UNL     1       4.401   0.032 -15.817  1.00  0.00     0.153 C 
BRANCH  26  27
HETATM   27  C2  UNL     1       5.173   0.045 -14.551  1.00  0.00    -0.017 C 
HETATM   28  C1  UNL     1       6.405  -0.424 -14.505  1.00  0.00     0.008 C 
ENDBRANCH  26  27
ENDBRANCH   1  26
TORSDOF 8
ENDMDL
MODEL 5
REMARK VINA RESULT: -7.662161897      3.013      7.261
REMARK  8 active torsions:
REMARK  status: ('A' for Active; 'I' for Inactive)
REMARK    1  A    between atoms: C2_2  and  C3_3 
REMARK    2  A    between atoms: C3_3  and  N1_4 
REMARK    3  A    between atoms: C5_7  and  O2_8 
REMARK    4  A    between atoms: C8_13  and  C9_14 
REMARK    5  A    between atoms: C9_14  and  C10_15 
REMARK    6  A    between atoms: C10_15  and  O3_16 
REMARK    7  A    between atoms: C10_15  and  O4_18 
REMARK    8  A    between atoms: C12_21  and  C13_22 
ROOT
HETATM    1  N1  UNL     1      -0.185   2.075 -15.163  1.00  0.00    -0.340 N 
HETATM    2  C4  UNL     1      -0.615   2.845 -14.055  1.00  0.00     0.259 C 
HETATM    3  O1  UNL     1      -1.703   2.701 -13.469  1.00  0.00    -0.270 OA
HETATM    4  C5  UNL     1       0.415   3.845 -13.692  1.00  0.00     0.182 C 
HETATM    5  C6  UNL     1       0.351   5.078 -14.561  1.00  0.00     0.150 C 
HETATM    6  C7  UNL     1       0.213   6.394 -13.913  1.00  0.00     0.116 C 
HETATM    7 CL1  UNL     1      -0.761   7.463 -14.987  1.00  0.00    -0.122 Cl
HETATM    8  C8  UNL     1       1.513   7.128 -13.678  1.00  0.00     0.036 C 
HETATM    9  C11 UNL     1       2.414   7.067 -14.849  1.00  0.00     0.013 C 
HETATM   10  C12 UNL     1       2.510   5.877 -15.445  1.00  0.00     0.073 C 
HETATM   11  N2  UNL     1       1.738   4.818 -14.902  1.00  0.00    -0.358 N 
HETATM   12  C15 UNL     1       1.641   3.431 -14.482  1.00  0.00     0.154 C 
HETATM   13  C16 UNL     1       1.137   2.540 -15.594  1.00  0.00     0.110 C 
HETATM   14  C17 UNL     1       2.110   1.387 -15.726  1.00  0.00     0.034 C 
ENDROOT
BRANCH   8  15
HETATM   15  C9  UNL     1       1.257   8.536 -13.198  1.00  0.00     0.070 C 
BRANCH  15  16
HETATM   16  C10 UNL     1       2.253   9.492 -13.807  1.00  0.00     0.254 C 
BRANCH  16  17
HETATM   17  O3  UNL     1       2.726  10.410 -12.850  1.00  0.00    -0.371 OA
ATOM     18  H3  UNL     1       3.397  10.973 -13.218  1.00  0.00     0.212 HD
ENDBRANCH  16  17
BRANCH  16  19
HETATM   19  O4  UNL     1       1.641  10.248 -14.832  1.00  0.00    -0.371 OA
ATOM     20  H4  UNL     1       2.267  10.437 -15.520  1.00  0.00     0.212 HD
ENDBRANCH  16  19
ENDBRANCH  15  16
ENDBRANCH   8  15
BRANCH  10  21
HETATM   21  C13 UNL     1       3.374   5.694 -16.612  1.00  0.00     0.171 C 
HETATM   22  C14 UNL     1       3.934   4.357 -16.905  1.00  0.00     0.098 C 
HETATM   23  O5  UNL     1       3.633   6.658 -17.349  1.00  0.00    -0.291 OA
ENDBRANCH  10  21
BRANCH   4  24
HETATM   24  O2  UNL     1       0.607   4.075 -12.356  1.00  0.00    -0.376 OA
ATOM     25  H2  UNL     1       0.524   4.974 -12.061  1.00  0.00     0.211 HD
ENDBRANCH   4  24
BRANCH   1  26
HETATM   26  C3  UNL     1      -0.854   0.979 -15.851  1.00  0.00     0.153 C 
BRANCH  26  27
HETATM   27  C2  UNL     1      -1.065   1.292 -17.285  1.00  0.00    -0.017 C 
HETATM   28  C1  UNL     1      -1.706   0.451 -18.073  1.00  0.00     0.008 C 
ENDBRANCH  26  27
ENDBRANCH   1  26
TORSDOF 8
ENDMDL
