MODEL 1
REMARK VINA RESULT: -5.277108097      0.000      0.000
REMARK  2 active torsions:
REMARK  status: ('A' for Active; 'I' for Inactive)
REMARK    1  A    between atoms: C4_9  and  N3_10 
REMARK    2  A    between atoms: N3_10  and  S1_12 
ROOT
HETATM    1  C1  UNL     1      37.078   0.683   7.212  1.00  0.00     0.055 C 
HETATM    2  C2  UNL     1      36.632   0.729   8.636  1.00  0.00     0.019 A 
HETATM    3  C3  UNL     1      35.368   0.399   9.085  1.00  0.00     0.104 A 
HETATM    4 BR1  UNL     1      33.892  -0.194   8.012  1.00  0.00    -0.029 Br
HETATM    5  N1  UNL     1      35.396   0.579  10.424  1.00  0.00    -0.291 N 
ATOM      6  H1  UNL     1      34.612   0.418  11.055  1.00  0.00     0.187 HD
HETATM    7  N2  UNL     1      36.612   1.002  10.793  1.00  0.00    -0.284 N 
ATOM      8  H2  UNL     1      36.894   1.212  11.750  1.00  0.00     0.188 HD
HETATM    9  C4  UNL     1      37.402   1.105   9.717  1.00  0.00     0.136 A 
ENDROOT
BRANCH   9  10
HETATM   10  N3  UNL     1      38.636   1.471   9.616  1.00  0.00    -0.290 N 
ATOM     11  H3  UNL     1      39.204   1.094   8.858  1.00  0.00     0.178 HD
BRANCH  10  12
HETATM   12  S1  UNL     1      39.359   2.595  10.741  1.00  0.00     0.111 S 
HETATM   13  C5  UNL     1      39.483   4.206   9.946  1.00  0.00     0.152 C 
HETATM   14  O1  UNL     1      38.587   2.710  12.031  1.00  0.00    -0.236 OA
ENDBRANCH  10  12
ENDBRANCH   9  10
TORSDOF 2
ENDMDL
MODEL 2
REMARK VINA RESULT: -5.190989051      5.948      7.076
REMARK  2 active torsions:
REMARK  status: ('A' for Active; 'I' for Inactive)
REMARK    1  A    between atoms: C4_9  and  N3_10 
REMARK    2  A    between atoms: N3_10  and  S1_12 
ROOT
HETATM    1  C1  UNL     1      34.986  -1.851   4.657  1.00  0.00     0.055 C 
HETATM    2  C2  UNL     1      34.313  -1.054   5.725  1.00  0.00     0.019 A 
HETATM    3  C3  UNL     1      34.899  -0.025   6.437  1.00  0.00     0.104 A 
HETATM    4 BR1  UNL     1      36.691   0.631   6.235  1.00  0.00    -0.029 Br
HETATM    5  N1  UNL     1      33.950   0.417   7.291  1.00  0.00    -0.291 N 
ATOM      6  H1  UNL     1      34.067   1.178   7.960  1.00  0.00     0.187 HD
HETATM    7  N2  UNL     1      32.830  -0.300   7.125  1.00  0.00    -0.284 N 
ATOM      8  H2  UNL     1      31.966  -0.167   7.649  1.00  0.00     0.188 HD
HETATM    9  C4  UNL     1      33.017  -1.216   6.167  1.00  0.00     0.136 A 
ENDROOT
BRANCH   9  10
HETATM   10  N3  UNL     1      32.212  -2.105   5.690  1.00  0.00    -0.290 N 
ATOM     11  H3  UNL     1      31.994  -2.093   4.693  1.00  0.00     0.178 HD
BRANCH  10  12
HETATM   12  S1  UNL     1      31.484  -3.328   6.703  1.00  0.00     0.111 S 
HETATM   13  C5  UNL     1      32.754  -4.511   7.181  1.00  0.00     0.152 C 
HETATM   14  O1  UNL     1      30.822  -2.752   7.930  1.00  0.00    -0.236 OA
ENDBRANCH  10  12
ENDBRANCH   9  10
TORSDOF 2
ENDMDL
MODEL 3
REMARK VINA RESULT: -5.138037109      3.452      3.779
REMARK  2 active torsions:
REMARK  status: ('A' for Active; 'I' for Inactive)
REMARK    1  A    between atoms: C4_9  and  N3_10 
REMARK    2  A    between atoms: N3_10  and  S1_12 
ROOT
HETATM    1  C1  UNL     1      36.198  -0.922   4.768  1.00  0.00     0.055 C 
HETATM    2  C2  UNL     1      35.096  -0.510   5.688  1.00  0.00     0.019 A 
HETATM    3  C3  UNL     1      33.832  -1.066   5.714  1.00  0.00     0.104 A 
HETATM    4 BR1  UNL     1      33.183  -2.483   4.596  1.00  0.00    -0.029 Br
HETATM    5  N1  UNL     1      33.162  -0.407   6.685  1.00  0.00    -0.291 N 
ATOM      6  H1  UNL     1      32.195  -0.584   6.956  1.00  0.00     0.187 HD
HETATM    7  N2  UNL     1      33.963   0.514   7.236  1.00  0.00    -0.284 N 
ATOM      8  H2  UNL     1      33.698   1.146   7.991  1.00  0.00     0.188 HD
HETATM    9  C4  UNL     1      35.165   0.479   6.647  1.00  0.00     0.136 A 
ENDROOT
BRANCH   9  10
HETATM   10  N3  UNL     1      36.225   1.184   6.864  1.00  0.00    -0.290 N 
ATOM     11  H3  UNL     1      36.592   1.769   6.114  1.00  0.00     0.178 HD
BRANCH  10  12
HETATM   12  S1  UNL     1      37.046   1.162   8.405  1.00  0.00     0.111 S 
HETATM   13  C5  UNL     1      38.321   2.434   8.396  1.00  0.00     0.152 C 
HETATM   14  O1  UNL     1      36.111   1.371   9.570  1.00  0.00    -0.236 OA
ENDBRANCH  10  12
ENDBRANCH   9  10
TORSDOF 2
ENDMDL
MODEL 4
REMARK VINA RESULT: -5.088464576      2.526      2.859
REMARK  2 active torsions:
REMARK  status: ('A' for Active; 'I' for Inactive)
REMARK    1  A    between atoms: C4_9  and  N3_10 
REMARK    2  A    between atoms: N3_10  and  S1_12 
ROOT
HETATM    1  C1  UNL     1      38.808   1.531   6.159  1.00  0.00     0.055 C 
HETATM    2  C2  UNL     1      37.527   1.022   6.735  1.00  0.00     0.019 A 
HETATM    3  C3  UNL     1      36.690   0.108   6.127  1.00  0.00     0.104 A 
HETATM    4 BR1  UNL     1      36.954  -0.727   4.420  1.00  0.00    -0.029 Br
HETATM    5  N1  UNL     1      35.660  -0.072   6.983  1.00  0.00    -0.291 N 
ATOM      6  H1  UNL     1      34.866  -0.693   6.827  1.00  0.00     0.187 HD
HETATM    7  N2  UNL     1      35.842   0.691   8.069  1.00  0.00    -0.284 N 
ATOM      8  H2  UNL     1      35.207   0.740   8.865  1.00  0.00     0.188 HD
HETATM    9  C4  UNL     1      36.985   1.380   7.951  1.00  0.00     0.136 A 
ENDROOT
BRANCH   9  10
HETATM   10  N3  UNL     1      37.540   2.223   8.755  1.00  0.00    -0.290 N 
ATOM     11  H3  UNL     1      38.312   2.797   8.415  1.00  0.00     0.178 HD
BRANCH  10  12
HETATM   12  S1  UNL     1      37.009   2.408  10.409  1.00  0.00     0.111 S 
HETATM   13  C5  UNL     1      38.427   2.191  11.497  1.00  0.00     0.152 C 
HETATM   14  O1  UNL     1      36.355   3.742  10.667  1.00  0.00    -0.236 OA
ENDBRANCH  10  12
ENDBRANCH   9  10
TORSDOF 2
ENDMDL
MODEL 5
REMARK VINA RESULT: -5.046128855      6.796      7.910
REMARK  2 active torsions:
REMARK  status: ('A' for Active; 'I' for Inactive)
REMARK    1  A    between atoms: C4_9  and  N3_10 
REMARK    2  A    between atoms: N3_10  and  S1_12 
ROOT
HETATM    1  C1  UNL     1      35.442  -1.503   4.257  1.00  0.00     0.055 C 
HETATM    2  C2  UNL     1      34.474  -1.061   5.305  1.00  0.00     0.019 A 
HETATM    3  C3  UNL     1      34.760  -0.181   6.331  1.00  0.00     0.104 A 
HETATM    4 BR1  UNL     1      36.441   0.683   6.662  1.00  0.00    -0.029 Br
HETATM    5  N1  UNL     1      33.616  -0.059   7.039  1.00  0.00    -0.291 N 
ATOM      6  H1  UNL     1      33.495   0.526   7.865  1.00  0.00     0.187 HD
HETATM    7  N2  UNL     1      32.665  -0.824   6.487  1.00  0.00    -0.284 N 
ATOM      8  H2  UNL     1      31.709  -0.911   6.831  1.00  0.00     0.188 HD
HETATM    9  C4  UNL     1      33.158  -1.456   5.415  1.00  0.00     0.136 A 
ENDROOT
BRANCH   9  10
HETATM   10  N3  UNL     1      32.595  -2.281   4.596  1.00  0.00    -0.290 N 
ATOM     11  H3  UNL     1      33.175  -2.946   4.085  1.00  0.00     0.178 HD
BRANCH  10  12
HETATM   12  S1  UNL     1      30.867  -2.289   4.339  1.00  0.00     0.111 S 
HETATM   13  C5  UNL     1      30.449  -3.680   3.275  1.00  0.00     0.152 C 
HETATM   14  O1  UNL     1      30.085  -2.366   5.626  1.00  0.00    -0.236 OA
ENDBRANCH  10  12
ENDBRANCH   9  10
TORSDOF 2
ENDMDL
