MODEL 1
REMARK VINA RESULT: -6.105398898      0.000      0.000
REMARK  5 active torsions:
REMARK  status: ('A' for Active; 'I' for Inactive)
REMARK    1  A    between atoms: C2_5  and  C3_6 
REMARK    2  A    between atoms: C3_6  and  C4_7 
REMARK    3  A    between atoms: C5_8  and  C6_9 
REMARK    4  A    between atoms: C6_9  and  C7_10 
REMARK    5  A    between atoms: C8_11  and  C9_12 
ROOT
HETATM    1  C3  UNL     1      33.974  -9.177   5.546  1.00  0.00     0.141 C 
ENDROOT
BRANCH   1   2
HETATM    2  C2  UNL     1      33.880  -9.444   4.069  1.00  0.00     0.201 C 
HETATM    3  N1  UNL     1      32.762  -8.675   3.515  1.00  0.00    -0.321 N 
HETATM    4  C1  UNL     1      32.395  -9.830   2.775  1.00  0.00     0.319 C 
ATOM      5  H1  UNL     1      32.404  -7.725   3.616  1.00  0.00     0.166 HD
HETATM    6  O1  UNL     1      31.730 -10.125   1.748  1.00  0.00    -0.247 OA
HETATM    7  N2  UNL     1      33.122 -10.617   3.702  1.00  0.00    -0.321 N 
ATOM      8  H2  UNL     1      33.113 -11.596   3.988  1.00  0.00     0.166 HD
ENDBRANCH   1   2
BRANCH   1   9
HETATM    9  C4  UNL     1      34.227  -7.745   5.722  1.00  0.00    -0.102 C 
HETATM   10  C5  UNL     1      34.436  -6.548   5.853  1.00  0.00    -0.094 C 
BRANCH  10  11
HETATM   11  C6  UNL     1      34.679  -5.110   5.989  1.00  0.00     0.187 C 
BRANCH  11  12
HETATM   12  C7  UNL     1      33.450  -4.519   6.523  1.00  0.00    -0.094 C 
HETATM   13  C8  UNL     1      32.443  -4.015   6.949  1.00  0.00    -0.095 C 
BRANCH  13  14
HETATM   14  C9  UNL     1      31.206  -3.377   7.459  1.00  0.00     0.178 C 
HETATM   15 BR1  UNL     1      30.411  -2.439   5.983  1.00  0.00    -0.083 Br
ENDBRANCH  13  14
ENDBRANCH  11  12
ENDBRANCH  10  11
ENDBRANCH   1   9
TORSDOF 5
ENDMDL
MODEL 2
REMARK VINA RESULT: -5.805817956      6.991      9.008
REMARK  5 active torsions:
REMARK  status: ('A' for Active; 'I' for Inactive)
REMARK    1  A    between atoms: C2_5  and  C3_6 
REMARK    2  A    between atoms: C3_6  and  C4_7 
REMARK    3  A    between atoms: C5_8  and  C6_9 
REMARK    4  A    between atoms: C6_9  and  C7_10 
REMARK    5  A    between atoms: C8_11  and  C9_12 
ROOT
HETATM    1  C3  UNL     1      33.840  -0.198   7.641  1.00  0.00     0.141 C 
ENDROOT
BRANCH   1   2
HETATM    2  C2  UNL     1      34.360  -0.165   9.052  1.00  0.00     0.201 C 
HETATM    3  N1  UNL     1      34.364   1.220   9.528  1.00  0.00    -0.321 N 
HETATM    4  C1  UNL     1      35.652   0.979  10.076  1.00  0.00     0.319 C 
ATOM      5  H1  UNL     1      33.722   2.012   9.485  1.00  0.00     0.166 HD
HETATM    6  O1  UNL     1      36.409   1.456  10.962  1.00  0.00    -0.247 OA
HETATM    7  N2  UNL     1      35.798  -0.105   9.176  1.00  0.00    -0.321 N 
ATOM      8  H2  UNL     1      36.583  -0.623   8.784  1.00  0.00     0.166 HD
ENDBRANCH   1   2
BRANCH   1   9
HETATM    9  C4  UNL     1      33.162  -1.482   7.449  1.00  0.00    -0.102 C 
HETATM   10  C5  UNL     1      32.600  -2.558   7.304  1.00  0.00    -0.094 C 
BRANCH  10  11
HETATM   11  C6  UNL     1      31.928  -3.850   7.152  1.00  0.00     0.187 C 
BRANCH  11  12
HETATM   12  C7  UNL     1      32.931  -4.796   6.660  1.00  0.00    -0.094 C 
HETATM   13  C8  UNL     1      33.762  -5.561   6.241  1.00  0.00    -0.095 C 
BRANCH  13  14
HETATM   14  C9  UNL     1      34.789  -6.487   5.707  1.00  0.00     0.178 C 
HETATM   15 BR1  UNL     1      34.030  -8.252   5.755  1.00  0.00    -0.083 Br
ENDBRANCH  13  14
ENDBRANCH  11  12
ENDBRANCH  10  11
ENDBRANCH   1   9
TORSDOF 5
ENDMDL
MODEL 3
REMARK VINA RESULT: -5.763869970      1.618      1.679
REMARK  5 active torsions:
REMARK  status: ('A' for Active; 'I' for Inactive)
REMARK    1  A    between atoms: C2_5  and  C3_6 
REMARK    2  A    between atoms: C3_6  and  C4_7 
REMARK    3  A    between atoms: C5_8  and  C6_9 
REMARK    4  A    between atoms: C6_9  and  C7_10 
REMARK    5  A    between atoms: C8_11  and  C9_12 
ROOT
HETATM    1  C3  UNL     1      34.245  -8.611   5.521  1.00  0.00     0.141 C 
ENDROOT
BRANCH   1   2
HETATM    2  C2  UNL     1      33.922  -8.716   4.055  1.00  0.00     0.201 C 
HETATM    3  N1  UNL     1      32.493  -8.459   3.861  1.00  0.00    -0.321 N 
HETATM    4  C1  UNL     1      32.464  -9.561   2.966  1.00  0.00     0.319 C 
ATOM      5  H1  UNL     1      31.815  -7.783   4.214  1.00  0.00     0.166 HD
HETATM    6  O1  UNL     1      31.754  -9.996   2.022  1.00  0.00    -0.247 OA
HETATM    7  N2  UNL     1      33.643 -10.051   3.580  1.00  0.00    -0.321 N 
ATOM      8  H2  UNL     1      34.100 -10.959   3.655  1.00  0.00     0.166 HD
ENDBRANCH   1   2
BRANCH   1   9
HETATM    9  C4  UNL     1      33.956  -7.237   5.939  1.00  0.00    -0.102 C 
HETATM   10  C5  UNL     1      33.716  -6.095   6.303  1.00  0.00    -0.094 C 
BRANCH  10  11
HETATM   11  C6  UNL     1      33.432  -4.733   6.761  1.00  0.00     0.187 C 
BRANCH  11  12
HETATM   12  C7  UNL     1      32.414  -4.186   5.861  1.00  0.00    -0.094 C 
HETATM   13  C8  UNL     1      31.587  -3.716   5.122  1.00  0.00    -0.095 C 
BRANCH  13  14
HETATM   14  C9  UNL     1      30.578  -3.117   4.217  1.00  0.00     0.178 C 
HETATM   15 BR1  UNL     1      30.496  -4.234   2.655  1.00  0.00    -0.083 Br
ENDBRANCH  13  14
ENDBRANCH  11  12
ENDBRANCH  10  11
ENDBRANCH   1   9
TORSDOF 5
ENDMDL
MODEL 4
REMARK VINA RESULT: -5.739377550      4.381      6.329
REMARK  5 active torsions:
REMARK  status: ('A' for Active; 'I' for Inactive)
REMARK    1  A    between atoms: C2_5  and  C3_6 
REMARK    2  A    between atoms: C3_6  and  C4_7 
REMARK    3  A    between atoms: C5_8  and  C6_9 
REMARK    4  A    between atoms: C6_9  and  C7_10 
REMARK    5  A    between atoms: C8_11  and  C9_12 
ROOT
HETATM    1  C3  UNL     1      31.804  -3.877   7.416  1.00  0.00     0.141 C 
ENDROOT
BRANCH   1   2
HETATM    2  C2  UNL     1      31.647  -2.639   6.575  1.00  0.00     0.201 C 
HETATM    3  N1  UNL     1      30.226  -2.441   6.278  1.00  0.00    -0.321 N 
HETATM    4  C1  UNL     1      30.595  -2.143   4.939  1.00  0.00     0.319 C 
ATOM      5  H1  UNL     1      29.353  -2.494   6.802  1.00  0.00     0.166 HD
HETATM    6  O1  UNL     1      30.125  -1.543   3.937  1.00  0.00    -0.247 OA
HETATM    7  N2  UNL     1      31.813  -2.836   5.154  1.00  0.00    -0.321 N 
ATOM      8  H2  UNL     1      32.510  -3.282   4.559  1.00  0.00     0.166 HD
ENDBRANCH   1   2
BRANCH   1   9
HETATM    9  C4  UNL     1      32.932  -4.638   6.875  1.00  0.00    -0.102 C 
HETATM   10  C5  UNL     1      33.879  -5.261   6.416  1.00  0.00    -0.094 C 
BRANCH  10  11
HETATM   11  C6  UNL     1      35.021  -5.987   5.857  1.00  0.00     0.187 C 
BRANCH  11  12
HETATM   12  C7  UNL     1      34.535  -7.315   5.475  1.00  0.00    -0.094 C 
HETATM   13  C8  UNL     1      34.139  -8.402   5.140  1.00  0.00    -0.095 C 
BRANCH  13  14
HETATM   14  C9  UNL     1      33.657  -9.735   4.705  1.00  0.00     0.178 C 
HETATM   15 BR1  UNL     1      31.952  -9.465   3.860  1.00  0.00    -0.083 Br
ENDBRANCH  13  14
ENDBRANCH  11  12
ENDBRANCH  10  11
ENDBRANCH   1   9
TORSDOF 5
ENDMDL
MODEL 5
REMARK VINA RESULT: -5.702101144      6.952      8.216
REMARK  5 active torsions:
REMARK  status: ('A' for Active; 'I' for Inactive)
REMARK    1  A    between atoms: C2_5  and  C3_6 
REMARK    2  A    between atoms: C3_6  and  C4_7 
REMARK    3  A    between atoms: C5_8  and  C6_9 
REMARK    4  A    between atoms: C6_9  and  C7_10 
REMARK    5  A    between atoms: C8_11  and  C9_12 
ROOT
HETATM    1  C3  UNL     1      31.231  -2.311   4.269  1.00  0.00     0.141 C 
ENDROOT
BRANCH   1   2
HETATM    2  C2  UNL     1      30.366  -2.823   5.388  1.00  0.00     0.201 C 
HETATM    3  N1  UNL     1      29.909  -1.689   6.196  1.00  0.00    -0.321 N 
HETATM    4  C1  UNL     1      30.203  -2.456   7.355  1.00  0.00     0.319 C 
ATOM      5  H1  UNL     1      29.541  -0.757   6.009  1.00  0.00     0.166 HD
HETATM    6  O1  UNL     1      29.883  -2.495   8.572  1.00  0.00    -0.247 OA
HETATM    7  N2  UNL     1      31.078  -3.248   6.570  1.00  0.00    -0.321 N 
ATOM      8  H2  UNL     1      31.873  -3.858   6.760  1.00  0.00     0.166 HD
ENDBRANCH   1   2
BRANCH   1   9
HETATM    9  C4  UNL     1      30.775  -2.949   3.032  1.00  0.00    -0.102 C 
HETATM   10  C5  UNL     1      30.394  -3.468   1.992  1.00  0.00    -0.094 C 
BRANCH  10  11
HETATM   11  C6  UNL     1      29.940  -4.070   0.737  1.00  0.00     0.187 C 
BRANCH  11  12
HETATM   12  C7  UNL     1      29.100  -3.074   0.067  1.00  0.00    -0.094 C 
HETATM   13  C8  UNL     1      28.406  -2.269  -0.500  1.00  0.00    -0.095 C 
BRANCH  13  14
HETATM   14  C9  UNL     1      27.549  -1.294  -1.214  1.00  0.00     0.178 C 
HETATM   15 BR1  UNL     1      25.959  -2.234  -1.749  1.00  0.00    -0.083 Br
ENDBRANCH  13  14
ENDBRANCH  11  12
ENDBRANCH  10  11
ENDBRANCH   1   9
TORSDOF 5
ENDMDL
