MODEL 1
REMARK VINA RESULT: -5.486321267      0.000      0.000
REMARK  1 active torsions:
REMARK  status: ('A' for Active; 'I' for Inactive)
REMARK    1  A    between atoms: N3_8  and  S1_10 
ROOT
HETATM    1  C1  UNL     1      36.856  -0.124   5.269  1.00  0.00     0.071 C 
HETATM    2  C2  UNL     1      35.540  -0.076   5.953  1.00  0.00     0.043 A 
HETATM    3  N1  UNL     1      35.154   0.790   6.903  1.00  0.00    -0.302 N 
ATOM      4  H1  UNL     1      35.728   1.541   7.284  1.00  0.00     0.186 HD
HETATM    5  N2  UNL     1      33.917   0.519   7.268  1.00  0.00    -0.284 N 
ATOM      6  H2  UNL     1      33.387   1.028   7.975  1.00  0.00     0.188 HD
HETATM    7  C3  UNL     1      33.460  -0.541   6.559  1.00  0.00     0.149 A 
HETATM    8  N3  UNL     1      32.306  -1.003   6.717  1.00  0.00    -0.268 N 
ATOM      9  H3  UNL     1      31.756  -0.510   7.420  1.00  0.00     0.180 HD
HETATM   10  C5  UNL     1      34.472  -0.928   5.725  1.00  0.00     0.080 A 
HETATM   11 BR1  UNL     1      34.526  -2.346   4.453  1.00  0.00    -0.045 Br
ENDROOT
BRANCH   8  12
HETATM   12  S1  UNL     1      31.493  -2.283   5.987  1.00  0.00     0.228 S 
HETATM   13  C4  UNL     1      32.123  -3.887   6.398  1.00  0.00     0.186 C 
HETATM   14  O1  UNL     1      30.042  -2.269   6.487  1.00  0.00    -0.206 OA
HETATM   15  O2  UNL     1      31.353  -2.138   4.480  1.00  0.00    -0.206 OA
ENDBRANCH   8  12
TORSDOF 1
ENDMDL
MODEL 2
REMARK VINA RESULT: -5.411328631      5.971      6.994
REMARK  1 active torsions:
REMARK  status: ('A' for Active; 'I' for Inactive)
REMARK    1  A    between atoms: N3_8  and  S1_10 
ROOT
HETATM    1  C1  UNL     1      34.027  -0.250   8.458  1.00  0.00     0.071 C 
HETATM    2  C2  UNL     1      35.209   0.288   9.173  1.00  0.00     0.043 A 
HETATM    3  N1  UNL     1      35.347   0.452  10.499  1.00  0.00    -0.302 N 
ATOM      4  H1  UNL     1      34.640   0.223  11.197  1.00  0.00     0.186 HD
HETATM    5  N2  UNL     1      36.537   0.956  10.758  1.00  0.00    -0.284 N 
ATOM      6  H2  UNL     1      36.893   1.177  11.688  1.00  0.00     0.188 HD
HETATM    7  C3  UNL     1      37.213   1.135   9.597  1.00  0.00     0.149 A 
HETATM    8  N3  UNL     1      38.374   1.604   9.567  1.00  0.00    -0.268 N 
ATOM      9  H3  UNL     1      38.752   1.834  10.485  1.00  0.00     0.180 HD
HETATM   10  C5  UNL     1      36.389   0.719   8.589  1.00  0.00     0.080 A 
HETATM   11 BR1  UNL     1      36.689   0.687   6.707  1.00  0.00    -0.045 Br
ENDROOT
BRANCH   8  12
HETATM   12  S1  UNL     1      39.428   1.927   8.294  1.00  0.00     0.228 S 
HETATM   13  C4  UNL     1      38.990   3.336   7.314  1.00  0.00     0.186 C 
HETATM   14  O1  UNL     1      40.804   2.250   8.889  1.00  0.00    -0.206 OA
HETATM   15  O2  UNL     1      39.696   0.724   7.403  1.00  0.00    -0.206 OA
ENDBRANCH   8  12
TORSDOF 1
ENDMDL
MODEL 3
REMARK VINA RESULT: -5.320653123      6.110      7.840
REMARK  1 active torsions:
REMARK  status: ('A' for Active; 'I' for Inactive)
REMARK    1  A    between atoms: N3_8  and  S1_10 
ROOT
HETATM    1  C1  UNL     1      33.473 -11.031   3.733  1.00  0.00     0.071 C 
HETATM    2  C2  UNL     1      33.046  -9.696   3.248  1.00  0.00     0.043 A 
HETATM    3  N1  UNL     1      32.360  -9.423   2.126  1.00  0.00    -0.302 N 
ATOM      4  H1  UNL     1      32.038 -10.116   1.450  1.00  0.00     0.186 HD
HETATM    5  N2  UNL     1      32.168  -8.123   2.034  1.00  0.00    -0.284 N 
ATOM      6  H2  UNL     1      31.673  -7.653   1.275  1.00  0.00     0.188 HD
HETATM    7  C3  UNL     1      32.728  -7.507   3.103  1.00  0.00     0.149 A 
HETATM    8  N3  UNL     1      32.686  -6.265   3.256  1.00  0.00    -0.268 N 
ATOM      9  H3  UNL     1      32.197  -5.772   2.508  1.00  0.00     0.180 HD
HETATM   10  C5  UNL     1      33.286  -8.486   3.878  1.00  0.00     0.080 A 
HETATM   11 BR1  UNL     1      34.235  -8.341   5.524  1.00  0.00    -0.045 Br
ENDROOT
BRANCH   8  12
HETATM   12  S1  UNL     1      33.284  -5.255   4.462  1.00  0.00     0.228 S 
HETATM   13  C4  UNL     1      35.050  -5.121   4.503  1.00  0.00     0.186 C 
HETATM   14  O1  UNL     1      32.769  -3.836   4.190  1.00  0.00    -0.206 OA
HETATM   15  O2  UNL     1      32.744  -5.573   5.848  1.00  0.00    -0.206 OA
ENDBRANCH   8  12
TORSDOF 1
ENDMDL
MODEL 4
REMARK VINA RESULT: -5.287561287      6.727      7.500
REMARK  1 active torsions:
REMARK  status: ('A' for Active; 'I' for Inactive)
REMARK    1  A    between atoms: N3_8  and  S1_10 
ROOT
HETATM    1  C1  UNL     1      35.480  -5.579   5.691  1.00  0.00     0.071 C 
HETATM    2  C2  UNL     1      34.829  -6.059   4.447  1.00  0.00     0.043 A 
HETATM    3  N1  UNL     1      34.795  -5.434   3.259  1.00  0.00    -0.302 N 
ATOM      4  H1  UNL     1      35.221  -4.530   3.057  1.00  0.00     0.186 HD
HETATM    5  N2  UNL     1      34.125  -6.169   2.395  1.00  0.00    -0.284 N 
ATOM      6  H2  UNL     1      33.953  -5.922   1.420  1.00  0.00     0.188 HD
HETATM    7  C3  UNL     1      33.701  -7.304   3.002  1.00  0.00     0.149 A 
HETATM    8  N3  UNL     1      33.038  -8.177   2.396  1.00  0.00    -0.268 N 
ATOM      9  H3  UNL     1      32.851  -7.952   1.419  1.00  0.00     0.180 HD
HETATM   10  C5  UNL     1      34.137  -7.249   4.297  1.00  0.00     0.080 A 
HETATM   11 BR1  UNL     1      33.903  -8.502   5.713  1.00  0.00    -0.045 Br
ENDROOT
BRANCH   8  12
HETATM   12  S1  UNL     1      32.395  -9.652   2.892  1.00  0.00     0.228 S 
HETATM   13  C4  UNL     1      31.041  -9.522   4.027  1.00  0.00     0.186 C 
HETATM   14  O1  UNL     1      31.830 -10.362   1.655  1.00  0.00    -0.206 OA
HETATM   15  O2  UNL     1      33.437 -10.626   3.419  1.00  0.00    -0.206 OA
ENDBRANCH   8  12
TORSDOF 1
ENDMDL
MODEL 5
REMARK VINA RESULT: -5.246590791      6.120      6.708
REMARK  1 active torsions:
REMARK  status: ('A' for Active; 'I' for Inactive)
REMARK    1  A    between atoms: N3_8  and  S1_10 
ROOT
HETATM    1  C1  UNL     1      39.461  -0.118   5.398  1.00  0.00     0.071 C 
HETATM    2  C2  UNL     1      38.330   0.192   6.305  1.00  0.00     0.043 A 
HETATM    3  N1  UNL     1      37.086  -0.309   6.247  1.00  0.00    -0.302 N 
ATOM      4  H1  UNL     1      36.754  -0.982   5.557  1.00  0.00     0.186 HD
HETATM    5  N2  UNL     1      36.360   0.202   7.221  1.00  0.00    -0.284 N 
ATOM      6  H2  UNL     1      35.379  -0.014   7.400  1.00  0.00     0.188 HD
HETATM    7  C3  UNL     1      37.118   1.059   7.947  1.00  0.00     0.149 A 
HETATM    8  N3  UNL     1      36.663   1.681   8.934  1.00  0.00    -0.268 N 
ATOM      9  H3  UNL     1      35.683   1.483   9.133  1.00  0.00     0.180 HD
HETATM   10  C5  UNL     1      38.364   1.064   7.381  1.00  0.00     0.080 A 
HETATM   11 BR1  UNL     1      39.923   2.035   7.884  1.00  0.00    -0.045 Br
ENDROOT
BRANCH   8  12
HETATM   12  S1  UNL     1      37.365   2.784   9.994  1.00  0.00     0.228 S 
HETATM   13  C4  UNL     1      38.662   2.117  11.000  1.00  0.00     0.186 C 
HETATM   14  O1  UNL     1      38.019   3.893   9.160  1.00  0.00    -0.206 OA
HETATM   15  O2  UNL     1      36.357   3.530  10.855  1.00  0.00    -0.206 OA
ENDBRANCH   8  12
TORSDOF 1
ENDMDL
