MODEL 1
REMARK VINA RESULT: -5.847594110      0.000      0.000
REMARK  1 active torsions:
REMARK  status: ('A' for Active; 'I' for Inactive)
REMARK    1  A    between atoms: N1_5  and  N2_7 
ROOT
HETATM    1  C1  UNL     1      35.068  -2.443   3.401  1.00  0.00     0.040 C 
HETATM    2  C2  UNL     1      33.853  -2.533   4.295  1.00  0.00     0.187 C 
HETATM    3  C3  UNL     1      33.749  -1.251   5.072  1.00  0.00     0.087 C 
HETATM    4  C4  UNL     1      33.273  -1.470   6.461  1.00  0.00     0.023 C 
HETATM    5  N1  UNL     1      33.450  -0.530   7.305  1.00  0.00    -0.294 N 
ATOM      6  H1  UNL     1      33.118  -0.692   8.256  1.00  0.00     0.188 HD
HETATM    7  C5  UNL     1      32.613  -2.704   6.913  1.00  0.00     0.135 C 
HETATM    8 BR1  UNL     1      30.688  -2.388   6.980  1.00  0.00    -0.083 Br
HETATM    9  C6  UNL     1      32.907  -3.891   6.037  1.00  0.00     0.202 C 
HETATM   10  C7  UNL     1      33.257  -5.053   6.947  1.00  0.00     0.041 C 
HETATM   11  N4  UNL     1      33.983  -3.693   5.122  1.00  0.00    -0.066 N 
ATOM     12  H41 UNL     1      34.873  -3.678   5.620  1.00  0.00     0.278 HD
ATOM     13  H42 UNL     1      34.118  -4.525   4.547  1.00  0.00     0.278 HD
ENDROOT
BRANCH   5  14
HETATM   14  N2  UNL     1      34.048   0.684   7.048  1.00  0.00    -0.249 N 
HETATM   15  N3  UNL     1      35.263   0.966   7.278  1.00  0.00    -0.331 N 
ATOM     16  H32 UNL     1      35.829   0.222   7.686  1.00  0.00     0.178 HD
ATOM     17  H31 UNL     1      35.707   1.865   7.088  1.00  0.00     0.178 HD
ATOM     18  H2  UNL     1      33.467   1.416   6.640  1.00  0.00     0.207 HD
ENDBRANCH   5  14
TORSDOF 1
ENDMDL
MODEL 2
REMARK VINA RESULT: -5.787546310      3.005      3.851
REMARK  1 active torsions:
REMARK  status: ('A' for Active; 'I' for Inactive)
REMARK    1  A    between atoms: N1_5  and  N2_7 
ROOT
HETATM    1  C1  UNL     1      31.053  -4.262   3.212  1.00  0.00     0.040 C 
HETATM    2  C2  UNL     1      31.594  -3.298   4.241  1.00  0.00     0.187 C 
HETATM    3  C3  UNL     1      32.838  -3.896   4.835  1.00  0.00     0.087 C 
HETATM    4  C4  UNL     1      32.966  -3.609   6.285  1.00  0.00     0.023 C 
HETATM    5  N1  UNL     1      33.783  -4.317   6.962  1.00  0.00    -0.294 N 
ATOM      6  H1  UNL     1      33.863  -4.111   7.958  1.00  0.00     0.188 HD
HETATM    7  C5  UNL     1      32.205  -2.559   6.980  1.00  0.00     0.135 C 
HETATM    8 BR1  UNL     1      33.367  -1.009   7.219  1.00  0.00    -0.083 Br
HETATM    9  C6  UNL     1      30.952  -2.153   6.254  1.00  0.00     0.202 C 
HETATM   10  C7  UNL     1      29.831  -2.103   7.275  1.00  0.00     0.041 C 
HETATM   11  N4  UNL     1      30.568  -3.039   5.205  1.00  0.00    -0.066 N 
ATOM     12  H41 UNL     1      30.215  -3.915   5.591  1.00  0.00     0.278 HD
ATOM     13  H42 UNL     1      29.726  -2.699   4.743  1.00  0.00     0.278 HD
ENDROOT
BRANCH   5  14
HETATM   14  N2  UNL     1      34.569  -5.337   6.468  1.00  0.00    -0.249 N 
HETATM   15  N3  UNL     1      35.791  -5.229   6.144  1.00  0.00    -0.331 N 
ATOM     16  H32 UNL     1      36.210  -4.307   6.265  1.00  0.00     0.178 HD
ATOM     17  H31 UNL     1      36.372  -5.983   5.779  1.00  0.00     0.178 HD
ATOM     18  H2  UNL     1      34.133  -6.251   6.354  1.00  0.00     0.207 HD
ENDBRANCH   5  14
TORSDOF 1
ENDMDL
MODEL 3
REMARK VINA RESULT: -5.778905692      2.635      3.318
REMARK  1 active torsions:
REMARK  status: ('A' for Active; 'I' for Inactive)
REMARK    1  A    between atoms: N1_5  and  N2_7 
ROOT
HETATM    1  C1  UNL     1      34.669  -0.696   5.547  1.00  0.00     0.040 C 
HETATM    2  C2  UNL     1      34.016  -1.914   4.936  1.00  0.00     0.187 C 
HETATM    3  C3  UNL     1      32.527  -1.759   5.058  1.00  0.00     0.087 C 
HETATM    4  C4  UNL     1      31.847  -3.046   5.343  1.00  0.00     0.023 C 
HETATM    5  N1  UNL     1      30.650  -3.001   5.785  1.00  0.00    -0.294 N 
ATOM      6  H1  UNL     1      30.192  -3.892   5.977  1.00  0.00     0.188 HD
HETATM    7  C5  UNL     1      32.472  -4.362   5.144  1.00  0.00     0.135 C 
HETATM    8 BR1  UNL     1      31.813  -5.114   3.468  1.00  0.00    -0.083 Br
HETATM    9  C6  UNL     1      33.975  -4.309   5.126  1.00  0.00     0.202 C 
HETATM   10  C7  UNL     1      34.480  -5.430   6.015  1.00  0.00     0.041 C 
HETATM   11  N4  UNL     1      34.525  -3.079   5.593  1.00  0.00    -0.066 N 
ATOM     12  H41 UNL     1      34.406  -2.998   6.603  1.00  0.00     0.278 HD
ATOM     13  H42 UNL     1      35.543  -3.101   5.538  1.00  0.00     0.278 HD
ENDROOT
BRANCH   5  14
HETATM   14  N2  UNL     1      29.921  -1.857   6.027  1.00  0.00    -0.249 N 
HETATM   15  N3  UNL     1      29.262  -1.617   7.084  1.00  0.00    -0.331 N 
ATOM     16  H32 UNL     1      29.284  -2.340   7.803  1.00  0.00     0.178 HD
ATOM     17  H31 UNL     1      28.723  -0.770   7.263  1.00  0.00     0.178 HD
ATOM     18  H2  UNL     1      29.910  -1.145   5.296  1.00  0.00     0.207 HD
ENDBRANCH   5  14
TORSDOF 1
ENDMDL
MODEL 4
REMARK VINA RESULT: -5.678254800      2.510      3.544
REMARK  1 active torsions:
REMARK  status: ('A' for Active; 'I' for Inactive)
REMARK    1  A    between atoms: N1_5  and  N2_7 
ROOT
HETATM    1  C1  UNL     1      29.499  -2.086   7.507  1.00  0.00     0.040 C 
HETATM    2  C2  UNL     1      30.602  -2.677   6.661  1.00  0.00     0.187 C 
HETATM    3  C3  UNL     1      31.859  -1.897   6.918  1.00  0.00     0.087 C 
HETATM    4  C4  UNL     1      32.678  -1.725   5.693  1.00  0.00     0.023 C 
HETATM    5  N1  UNL     1      33.582  -0.824   5.703  1.00  0.00    -0.294 N 
ATOM      6  H1  UNL     1      34.139  -0.715   4.855  1.00  0.00     0.188 HD
HETATM    7  C5  UNL     1      32.505  -2.531   4.475  1.00  0.00     0.135 C 
HETATM    8 BR1  UNL     1      33.890  -3.906   4.441  1.00  0.00    -0.083 Br
HETATM    9  C6  UNL     1      31.146  -3.169   4.373  1.00  0.00     0.202 C 
HETATM   10  C7  UNL     1      30.638  -2.932   2.964  1.00  0.00     0.041 C 
HETATM   11  N4  UNL     1      30.185  -2.654   5.292  1.00  0.00    -0.066 N 
ATOM     12  H41 UNL     1      29.905  -1.711   5.022  1.00  0.00     0.278 HD
ATOM     13  H42 UNL     1      29.295  -3.139   5.184  1.00  0.00     0.278 HD
ENDROOT
BRANCH   5  14
HETATM   14  N2  UNL     1      33.875   0.014   6.757  1.00  0.00    -0.249 N 
HETATM   15  N3  UNL     1      34.599   1.054   6.687  1.00  0.00    -0.331 N 
ATOM     16  H32 UNL     1      34.988   1.272   5.770  1.00  0.00     0.178 HD
ATOM     17  H31 UNL     1      34.815   1.675   7.467  1.00  0.00     0.178 HD
ATOM     18  H2  UNL     1      33.477  -0.220   7.666  1.00  0.00     0.207 HD
ENDBRANCH   5  14
TORSDOF 1
ENDMDL
MODEL 5
REMARK VINA RESULT: -5.582694883      0.930      1.006
REMARK  1 active torsions:
REMARK  status: ('A' for Active; 'I' for Inactive)
REMARK    1  A    between atoms: N1_5  and  N2_7 
ROOT
HETATM    1  C1  UNL     1      34.464  -3.156   2.514  1.00  0.00     0.040 C 
HETATM    2  C2  UNL     1      33.525  -3.250   3.693  1.00  0.00     0.187 C 
HETATM    3  C3  UNL     1      33.626  -1.972   4.476  1.00  0.00     0.087 C 
HETATM    4  C4  UNL     1      33.529  -2.197   5.939  1.00  0.00     0.023 C 
HETATM    5  N1  UNL     1      33.920  -1.260   6.713  1.00  0.00    -0.294 N 
ATOM      6  H1  UNL     1      33.848  -1.426   7.716  1.00  0.00     0.188 HD
HETATM    7  C5  UNL     1      33.011  -3.434   6.543  1.00  0.00     0.135 C 
HETATM    8 BR1  UNL     1      31.170  -3.121   7.112  1.00  0.00    -0.083 Br
HETATM    9  C6  UNL     1      33.067  -4.617   5.616  1.00  0.00     0.202 C 
HETATM   10  C7  UNL     1      33.643  -5.781   6.399  1.00  0.00     0.041 C 
HETATM   11  N4  UNL     1      33.867  -4.414   4.453  1.00  0.00    -0.066 N 
ATOM     12  H41 UNL     1      34.856  -4.398   4.701  1.00  0.00     0.278 HD
ATOM     13  H42 UNL     1      33.848  -5.243   3.860  1.00  0.00     0.278 HD
ENDROOT
BRANCH   5  14
HETATM   14  N2  UNL     1      34.429  -0.043   6.313  1.00  0.00    -0.249 N 
HETATM   15  N3  UNL     1      34.268   1.056   6.925  1.00  0.00    -0.331 N 
ATOM     16  H32 UNL     1      33.713   1.019   7.780  1.00  0.00     0.178 HD
ATOM     17  H31 UNL     1      34.645   1.957   6.629  1.00  0.00     0.178 HD
ATOM     18  H2  UNL     1      34.981  -0.025   5.455  1.00  0.00     0.207 HD
ENDBRANCH   5  14
TORSDOF 1
ENDMDL
