MODEL 1
REMARK VINA RESULT: -5.535326430      0.000      0.000
REMARK  2 active torsions:
REMARK  status: ('A' for Active; 'I' for Inactive)
REMARK    1  A    between atoms: C4_7  and  C6_9 
REMARK    2  A    between atoms: C6_9  and  C7_10 
ROOT
HETATM    1  C7  UNL     1      33.319  -5.359   6.585  1.00  0.00    -0.091 C 
HETATM    2  C8  UNL     1      33.799  -6.381   6.145  1.00  0.00    -0.024 C 
HETATM    3 BR1  UNL     1      34.523  -7.997   5.468  1.00  0.00     0.010 Br
ENDROOT
BRANCH   1   4
HETATM    4  C6  UNL     1      32.752  -4.149   7.128  1.00  0.00     0.135 C 
BRANCH   4   5
HETATM    5  C4  UNL     1      32.307  -3.223   6.026  1.00  0.00     0.119 C 
HETATM    6  C3  UNL     1      31.547  -2.072   6.495  1.00  0.00     0.252 C 
HETATM    7  N1  UNL     1      32.471  -1.005   6.586  1.00  0.00    -0.315 N 
HETATM    8  O1  UNL     1      30.334  -2.035   6.762  1.00  0.00    -0.270 OA
HETATM    9  C2  UNL     1      33.575  -1.301   6.022  1.00  0.00     0.076 C 
ATOM     10  H1  UNL     1      32.279  -0.114   7.044  1.00  0.00     0.170 HD
HETATM   11  C1  UNL     1      34.748  -0.360   5.960  1.00  0.00     0.089 C 
HETATM   12  N2  UNL     1      33.503  -2.600   5.490  1.00  0.00    -0.362 N 
ATOM     13  H2  UNL     1      34.170  -3.026   4.846  1.00  0.00     0.162 HD
HETATM   14  C5  UNL     1      31.651  -3.954   4.882  1.00  0.00     0.050 C 
ENDBRANCH   4   5
ENDBRANCH   1   4
TORSDOF 2
ENDMDL
MODEL 2
REMARK VINA RESULT: -5.314248585      1.609      2.454
REMARK  2 active torsions:
REMARK  status: ('A' for Active; 'I' for Inactive)
REMARK    1  A    between atoms: C4_7  and  C6_9 
REMARK    2  A    between atoms: C6_9  and  C7_10 
ROOT
HETATM    1  C7  UNL     1      33.875  -5.258   5.729  1.00  0.00    -0.091 C 
HETATM    2  C8  UNL     1      33.946  -6.469   5.721  1.00  0.00    -0.024 C 
HETATM    3 BR1  UNL     1      34.090  -8.359   5.712  1.00  0.00     0.010 Br
ENDROOT
BRANCH   1   4
HETATM    4  C6  UNL     1      33.799  -3.818   5.719  1.00  0.00     0.135 C 
BRANCH   4   5
HETATM    5  C4  UNL     1      32.435  -3.350   6.154  1.00  0.00     0.119 C 
HETATM    6  C3  UNL     1      32.257  -1.906   6.079  1.00  0.00     0.252 C 
HETATM    7  N1  UNL     1      31.602  -1.656   4.851  1.00  0.00    -0.315 N 
HETATM    8  O1  UNL     1      32.609  -1.064   6.923  1.00  0.00    -0.270 OA
HETATM    9  C2  UNL     1      31.170  -2.737   4.330  1.00  0.00     0.076 C 
ATOM     10  H1  UNL     1      31.490  -0.732   4.435  1.00  0.00     0.170 HD
HETATM   11  C1  UNL     1      30.431  -2.783   3.020  1.00  0.00     0.089 C 
HETATM   12  N2  UNL     1      31.490  -3.825   5.160  1.00  0.00    -0.362 N 
ATOM     13  H2  UNL     1      31.124  -4.774   5.078  1.00  0.00     0.162 HD
HETATM   14  C5  UNL     1      32.010  -3.943   7.473  1.00  0.00     0.050 C 
ENDBRANCH   4   5
ENDBRANCH   1   4
TORSDOF 2
ENDMDL
MODEL 3
REMARK VINA RESULT: -5.285547147      3.365      4.040
REMARK  2 active torsions:
REMARK  status: ('A' for Active; 'I' for Inactive)
REMARK    1  A    between atoms: C4_7  and  C6_9 
REMARK    2  A    between atoms: C6_9  and  C7_10 
ROOT
HETATM    1  C7  UNL     1      33.875  -8.888   5.088  1.00  0.00    -0.091 C 
HETATM    2  C8  UNL     1      33.651  -9.807   4.329  1.00  0.00    -0.024 C 
HETATM    3 BR1  UNL     1      33.284 -11.260   3.168  1.00  0.00     0.010 Br
ENDROOT
BRANCH   1   4
HETATM    4  C6  UNL     1      34.157  -7.807   6.000  1.00  0.00     0.135 C 
BRANCH   4   5
HETATM    5  C4  UNL     1      33.799  -6.479   5.385  1.00  0.00     0.119 C 
HETATM    6  C3  UNL     1      33.745  -5.383   6.342  1.00  0.00     0.252 C 
HETATM    7  N1  UNL     1      34.995  -4.727   6.256  1.00  0.00    -0.315 N 
HETATM    8  O1  UNL     1      32.794  -5.084   7.085  1.00  0.00    -0.270 OA
HETATM    9  C2  UNL     1      35.656  -5.126   5.242  1.00  0.00     0.076 C 
ATOM     10  H1  UNL     1      35.325  -4.026   6.919  1.00  0.00     0.170 HD
HETATM   11  C1  UNL     1      37.024  -4.605   4.893  1.00  0.00     0.089 C 
HETATM   12  N2  UNL     1      34.914  -6.091   4.541  1.00  0.00    -0.362 N 
ATOM     13  H2  UNL     1      35.122  -6.452   3.609  1.00  0.00     0.162 HD
HETATM   14  C5  UNL     1      32.588  -6.560   4.491  1.00  0.00     0.050 C 
ENDBRANCH   4   5
ENDBRANCH   1   4
TORSDOF 2
ENDMDL
MODEL 4
REMARK VINA RESULT: -5.266539019      2.603      3.098
REMARK  2 active torsions:
REMARK  status: ('A' for Active; 'I' for Inactive)
REMARK    1  A    between atoms: C4_7  and  C6_9 
REMARK    2  A    between atoms: C6_9  and  C7_10 
ROOT
HETATM    1  C7  UNL     1      32.407  -6.204   4.075  1.00  0.00    -0.091 C 
HETATM    2  C8  UNL     1      33.188  -6.958   4.614  1.00  0.00    -0.024 C 
HETATM    3 BR1  UNL     1      34.390  -8.161   5.452  1.00  0.00     0.010 Br
ENDROOT
BRANCH   1   4
HETATM    4  C6  UNL     1      31.464  -5.309   3.450  1.00  0.00     0.135 C 
BRANCH   4   5
HETATM    5  C4  UNL     1      31.854  -3.872   3.684  1.00  0.00     0.119 C 
HETATM    6  C3  UNL     1      30.746  -2.934   3.558  1.00  0.00     0.252 C 
HETATM    7  N1  UNL     1      30.287  -2.693   4.874  1.00  0.00    -0.315 N 
HETATM    8  O1  UNL     1      30.294  -2.447   2.508  1.00  0.00    -0.270 OA
HETATM    9  C2  UNL     1      31.103  -3.154   5.738  1.00  0.00     0.076 C 
ATOM     10  H1  UNL     1      29.417  -2.212   5.102  1.00  0.00     0.170 HD
HETATM   11  C1  UNL     1      30.880  -3.045   7.223  1.00  0.00     0.089 C 
HETATM   12  N2  UNL     1      32.196  -3.751   5.089  1.00  0.00    -0.362 N 
ATOM     13  H2  UNL     1      33.070  -4.046   5.526  1.00  0.00     0.162 HD
HETATM   14  C5  UNL     1      33.078  -3.467   2.904  1.00  0.00     0.050 C 
ENDBRANCH   4   5
ENDBRANCH   1   4
TORSDOF 2
ENDMDL
MODEL 5
REMARK VINA RESULT: -5.262850222      1.302      1.375
REMARK  2 active torsions:
REMARK  status: ('A' for Active; 'I' for Inactive)
REMARK    1  A    between atoms: C4_7  and  C6_9 
REMARK    2  A    between atoms: C6_9  and  C7_10 
ROOT
HETATM    1  C7  UNL     1      32.877  -5.250   5.678  1.00  0.00    -0.091 C 
HETATM    2  C8  UNL     1      33.505  -6.286   5.616  1.00  0.00    -0.024 C 
HETATM    3 BR1  UNL     1      34.460  -7.919   5.505  1.00  0.00     0.010 Br
ENDROOT
BRANCH   1   4
HETATM    4  C6  UNL     1      32.118  -4.027   5.766  1.00  0.00     0.135 C 
BRANCH   4   5
HETATM    5  C4  UNL     1      32.385  -3.143   4.576  1.00  0.00     0.119 C 
HETATM    6  C3  UNL     1      31.660  -1.880   4.607  1.00  0.00     0.252 C 
HETATM    7  N1  UNL     1      32.565  -0.923   5.121  1.00  0.00    -0.315 N 
HETATM    8  O1  UNL     1      30.484  -1.683   4.255  1.00  0.00    -0.270 OA
HETATM    9  C2  UNL     1      33.752  -1.386   5.162  1.00  0.00     0.076 C 
ATOM     10  H1  UNL     1      32.302   0.017   5.419  1.00  0.00     0.170 HD
HETATM   11  C1  UNL     1      34.929  -0.593   5.664  1.00  0.00     0.089 C 
HETATM   12  N2  UNL     1      33.765  -2.704   4.677  1.00  0.00    -0.362 N 
ATOM     13  H2  UNL     1      34.592  -3.252   4.440  1.00  0.00     0.162 HD
HETATM   14  C5  UNL     1      32.260  -3.879   3.266  1.00  0.00     0.050 C 
ENDBRANCH   4   5
ENDBRANCH   1   4
TORSDOF 2
ENDMDL
