MODEL 1
REMARK VINA RESULT: -7.877972846      0.000      0.000
REMARK  13 active torsions:
REMARK  status: ('A' for Active; 'I' for Inactive)
REMARK    1  A    between atoms: C2_2  and  O1_3 
REMARK    2  A    between atoms: O1_3  and  C3_4 
REMARK    3  A    between atoms: C3_4  and  C4_6 
REMARK    4  A    between atoms: N1_10  and  C8_11 
REMARK    5  A    between atoms: C8_11  and  O3_12 
REMARK    6  A    between atoms: C8_11  and  C9_14 
REMARK    7  A    between atoms: C9_14  and  C10_15 
REMARK    8  A    between atoms: C10_15  and  C11_16 
REMARK    9  A    between atoms: C11_16  and  O4_17 
REMARK   10  A    between atoms: N2_19  and  O5_21 
REMARK   11  A    between atoms: N3_26  and  C15_27 
REMARK   12  A    between atoms: C15_27  and  C16_28 
REMARK   13  A    between atoms: C16_28  and  C18_30 
ROOT
HETATM    1  C9  UNL     1      35.389  37.658  22.144  1.00  0.00     0.033 C 
HETATM    2  C12 UNL     1      34.112  37.708  21.305  1.00  0.00     0.020 C 
HETATM    3  C13 UNL     1      34.138  38.645  20.162  1.00  0.00     0.021 C 
HETATM    4  C14 UNL     1      34.508  37.943  18.882  1.00  0.00     0.117 C 
HETATM    5  N3  UNL     1      35.871  37.518  18.809  1.00  0.00    -0.412 N 
HETATM    6  C19 UNL     1      36.665  37.864  19.944  1.00  0.00     0.118 C 
HETATM    7  C20 UNL     1      36.435  37.120  21.193  1.00  0.00     0.038 C 
ENDROOT
BRANCH   1   8
HETATM    8  C8  UNL     1      35.143  36.615  23.160  1.00  0.00     0.123 C 
BRANCH   8   9
HETATM    9  N1  UNL     1      34.041  35.745  23.310  1.00  0.00    -0.351 N 
HETATM   10  C4  UNL     1      33.088  35.818  24.408  1.00  0.00     0.185 C 
HETATM   11  C5  UNL     1      32.148  34.668  24.253  1.00  0.00     0.037 C 
HETATM   12  C6  UNL     1      32.353  34.079  22.910  1.00  0.00     0.022 C 
HETATM   13  C7  UNL     1      33.669  34.657  22.478  1.00  0.00     0.126 C 
BRANCH  10  14
HETATM   14  C3  UNL     1      32.342  37.103  24.396  1.00  0.00     0.281 C 
HETATM   15  O2  UNL     1      31.469  37.282  23.533  1.00  0.00    -0.263 OA
BRANCH  14  16
HETATM   16  O1  UNL     1      32.588  38.100  25.311  1.00  0.00    -0.320 OA
BRANCH  16  17
HETATM   17  C2  UNL     1      33.050  37.815  26.642  1.00  0.00     0.174 C 
HETATM   18  C1  UNL     1      31.820  37.492  27.464  1.00  0.00     0.034 C 
ENDBRANCH  16  17
ENDBRANCH  14  16
ENDBRANCH  10  14
ENDBRANCH   8   9
BRANCH   8  19
HETATM   19  O3  UNL     1      36.044  36.422  24.086  1.00  0.00    -0.349 OA
ATOM     20  H3  UNL     1      35.917  37.001  24.829  1.00  0.00     0.219 HD
ENDBRANCH   8  19
ENDBRANCH   1   8
BRANCH   1  21
HETATM   21  C10 UNL     1      35.796  38.975  22.655  1.00  0.00     0.104 C 
BRANCH  21  22
HETATM   22  C11 UNL     1      34.916  39.633  23.606  1.00  0.00     0.136 C 
HETATM   23  N2  UNL     1      33.769  40.144  23.366  1.00  0.00    -0.251 N 
ATOM     24  H2  UNL     1      33.421  40.091  22.409  1.00  0.00     0.196 HD
BRANCH  22  25
HETATM   25  O4  UNL     1      35.345  39.732  24.935  1.00  0.00    -0.348 OA
ATOM     26  H4  UNL     1      35.525  40.599  25.280  1.00  0.00     0.219 HD
ENDBRANCH  22  25
BRANCH  23  27
HETATM   27  O5  UNL     1      32.977  40.753  24.289  1.00  0.00    -0.288 OA
ATOM     28  H5  UNL     1      32.461  41.535  24.134  1.00  0.00     0.244 HD
ENDBRANCH  23  27
ENDBRANCH  21  22
ENDBRANCH   1  21
BRANCH   5  29
HETATM   29  C15 UNL     1      36.061  36.220  18.267  1.00  0.00     0.130 C 
BRANCH  29  30
HETATM   30  C16 UNL     1      35.736  36.046  16.822  1.00  0.00     0.107 C 
HETATM   31  C17 UNL     1      35.112  34.736  16.479  1.00  0.00     0.021 C 
BRANCH  30  32
HETATM   32  C18 UNL     1      37.009  36.193  16.000  1.00  0.00     0.392 C 
HETATM   33  F1  UNL     1      36.884  37.176  15.049  1.00  0.00    -0.171 F 
HETATM   34  F2  UNL     1      38.103  36.409  16.791  1.00  0.00    -0.171 F 
HETATM   35  F3  UNL     1      37.258  35.012  15.287  1.00  0.00    -0.171 F 
ENDBRANCH  30  32
ENDBRANCH  29  30
ENDBRANCH   5  29
TORSDOF 13
ENDMDL
MODEL 2
REMARK VINA RESULT: -7.839523135      1.066      1.310
REMARK  13 active torsions:
REMARK  status: ('A' for Active; 'I' for Inactive)
REMARK    1  A    between atoms: C2_2  and  O1_3 
REMARK    2  A    between atoms: O1_3  and  C3_4 
REMARK    3  A    between atoms: C3_4  and  C4_6 
REMARK    4  A    between atoms: N1_10  and  C8_11 
REMARK    5  A    between atoms: C8_11  and  O3_12 
REMARK    6  A    between atoms: C8_11  and  C9_14 
REMARK    7  A    between atoms: C9_14  and  C10_15 
REMARK    8  A    between atoms: C10_15  and  C11_16 
REMARK    9  A    between atoms: C11_16  and  O4_17 
REMARK   10  A    between atoms: N2_19  and  O5_21 
REMARK   11  A    between atoms: N3_26  and  C15_27 
REMARK   12  A    between atoms: C15_27  and  C16_28 
REMARK   13  A    between atoms: C16_28  and  C18_30 
ROOT
HETATM    1  C9  UNL     1      35.355  37.847  22.262  1.00  0.00     0.033 C 
HETATM    2  C12 UNL     1      34.090  37.858  21.404  1.00  0.00     0.020 C 
HETATM    3  C13 UNL     1      34.106  38.793  20.259  1.00  0.00     0.021 C 
HETATM    4  C14 UNL     1      34.515  38.099  18.987  1.00  0.00     0.117 C 
HETATM    5  N3  UNL     1      35.891  37.714  18.935  1.00  0.00    -0.412 N 
HETATM    6  C19 UNL     1      36.657  38.085  20.082  1.00  0.00     0.118 C 
HETATM    7  C20 UNL     1      36.430  37.338  21.329  1.00  0.00     0.038 C 
ENDROOT
BRANCH   1   8
HETATM    8  C8  UNL     1      35.124  36.799  23.277  1.00  0.00     0.123 C 
BRANCH   8   9
HETATM    9  N1  UNL     1      34.051  35.891  23.406  1.00  0.00    -0.351 N 
HETATM   10  C4  UNL     1      33.066  35.937  24.478  1.00  0.00     0.185 C 
HETATM   11  C5  UNL     1      32.174  34.752  24.309  1.00  0.00     0.037 C 
HETATM   12  C6  UNL     1      32.436  34.159  22.978  1.00  0.00     0.022 C 
HETATM   13  C7  UNL     1      33.742  34.782  22.576  1.00  0.00     0.126 C 
BRANCH  10  14
HETATM   14  C3  UNL     1      32.274  37.194  24.434  1.00  0.00     0.281 C 
HETATM   15  O2  UNL     1      31.412  37.329  23.551  1.00  0.00    -0.263 OA
BRANCH  14  16
HETATM   16  O1  UNL     1      32.466  38.211  25.339  1.00  0.00    -0.320 OA
BRANCH  16  17
HETATM   17  C2  UNL     1      32.999  37.973  26.651  1.00  0.00     0.174 C 
HETATM   18  C1  UNL     1      31.834  37.540  27.517  1.00  0.00     0.034 C 
ENDBRANCH  16  17
ENDBRANCH  14  16
ENDBRANCH  10  14
ENDBRANCH   8   9
BRANCH   8  19
HETATM   19  O3  UNL     1      36.010  36.643  24.224  1.00  0.00    -0.349 OA
ATOM     20  H3  UNL     1      36.895  36.617  23.880  1.00  0.00     0.219 HD
ENDBRANCH   8  19
ENDBRANCH   1   8
BRANCH   1  21
HETATM   21  C10 UNL     1      35.715  39.176  22.776  1.00  0.00     0.104 C 
BRANCH  21  22
HETATM   22  C11 UNL     1      34.778  39.832  23.673  1.00  0.00     0.136 C 
HETATM   23  N2  UNL     1      33.602  40.243  23.390  1.00  0.00    -0.251 N 
ATOM     24  H2  UNL     1      33.270  40.101  22.435  1.00  0.00     0.196 HD
BRANCH  22  25
HETATM   25  O4  UNL     1      35.182  40.050  24.996  1.00  0.00    -0.348 OA
ATOM     26  H4  UNL     1      34.514  40.275  25.633  1.00  0.00     0.219 HD
ENDBRANCH  22  25
BRANCH  23  27
HETATM   27  O5  UNL     1      32.757  40.854  24.263  1.00  0.00    -0.288 OA
ATOM     28  H5  UNL     1      32.804  41.768  24.519  1.00  0.00     0.244 HD
ENDBRANCH  23  27
ENDBRANCH  21  22
ENDBRANCH   1  21
BRANCH   5  29
HETATM   29  C15 UNL     1      36.126  36.420  18.400  1.00  0.00     0.130 C 
BRANCH  29  30
HETATM   30  C16 UNL     1      34.933  35.544  18.224  1.00  0.00     0.107 C 
HETATM   31  C17 UNL     1      34.932  34.320  19.074  1.00  0.00     0.021 C 
BRANCH  30  32
HETATM   32  C18 UNL     1      34.839  35.109  16.768  1.00  0.00     0.392 C 
HETATM   33  F1  UNL     1      35.773  35.748  15.990  1.00  0.00    -0.171 F 
HETATM   34  F2  UNL     1      34.933  33.752  16.635  1.00  0.00    -0.171 F 
HETATM   35  F3  UNL     1      33.595  35.478  16.237  1.00  0.00    -0.171 F 
ENDBRANCH  30  32
ENDBRANCH  29  30
ENDBRANCH   5  29
TORSDOF 13
ENDMDL
MODEL 3
REMARK VINA RESULT: -7.661935388      1.366      1.849
REMARK  13 active torsions:
REMARK  status: ('A' for Active; 'I' for Inactive)
REMARK    1  A    between atoms: C2_2  and  O1_3 
REMARK    2  A    between atoms: O1_3  and  C3_4 
REMARK    3  A    between atoms: C3_4  and  C4_6 
REMARK    4  A    between atoms: N1_10  and  C8_11 
REMARK    5  A    between atoms: C8_11  and  O3_12 
REMARK    6  A    between atoms: C8_11  and  C9_14 
REMARK    7  A    between atoms: C9_14  and  C10_15 
REMARK    8  A    between atoms: C10_15  and  C11_16 
REMARK    9  A    between atoms: C11_16  and  O4_17 
REMARK   10  A    between atoms: N2_19  and  O5_21 
REMARK   11  A    between atoms: N3_26  and  C15_27 
REMARK   12  A    between atoms: C15_27  and  C16_28 
REMARK   13  A    between atoms: C16_28  and  C18_30 
ROOT
HETATM    1  C9  UNL     1      35.197  37.480  22.272  1.00  0.00     0.033 C 
HETATM    2  C12 UNL     1      34.037  37.817  21.336  1.00  0.00     0.020 C 
HETATM    3  C13 UNL     1      34.327  38.839  20.307  1.00  0.00     0.021 C 
HETATM    4  C14 UNL     1      34.712  38.207  18.996  1.00  0.00     0.117 C 
HETATM    5  N3  UNL     1      35.993  37.571  18.996  1.00  0.00    -0.412 N 
HETATM    6  C19 UNL     1      36.710  37.674  20.226  1.00  0.00     0.118 C 
HETATM    7  C20 UNL     1      36.238  36.866  21.363  1.00  0.00     0.038 C 
ENDROOT
BRANCH   1   8
HETATM    8  C8  UNL     1      34.688  36.402  23.144  1.00  0.00     0.123 C 
BRANCH   8   9
HETATM    9  N1  UNL     1      33.563  36.388  23.997  1.00  0.00    -0.351 N 
HETATM   10  C4  UNL     1      33.582  35.890  25.365  1.00  0.00     0.185 C 
HETATM   11  C5  UNL     1      32.182  35.957  25.878  1.00  0.00     0.037 C 
HETATM   12  C6  UNL     1      31.378  36.762  24.931  1.00  0.00     0.022 C 
HETATM   13  C7  UNL     1      32.240  36.811  23.703  1.00  0.00     0.126 C 
BRANCH  10  14
HETATM   14  C3  UNL     1      34.489  36.696  26.224  1.00  0.00     0.281 C 
HETATM   15  O2  UNL     1      35.369  36.114  26.878  1.00  0.00    -0.263 OA
BRANCH  14  16
HETATM   16  O1  UNL     1      34.384  38.064  26.318  1.00  0.00    -0.320 OA
BRANCH  16  17
HETATM   17  C2  UNL     1      34.892  38.792  27.447  1.00  0.00     0.174 C 
HETATM   18  C1  UNL     1      35.914  39.769  26.906  1.00  0.00     0.034 C 
ENDBRANCH  16  17
ENDBRANCH  14  16
ENDBRANCH  10  14
ENDBRANCH   8   9
BRANCH   8  19
HETATM   19  O3  UNL     1      35.335  35.267  23.174  1.00  0.00    -0.349 OA
ATOM     20  H3  UNL     1      35.931  35.219  23.913  1.00  0.00     0.219 HD
ENDBRANCH   8  19
ENDBRANCH   1   8
BRANCH   1  21
HETATM   21  C10 UNL     1      35.750  38.657  22.955  1.00  0.00     0.104 C 
BRANCH  21  22
HETATM   22  C11 UNL     1      34.832  39.728  23.306  1.00  0.00     0.136 C 
HETATM   23  N2  UNL     1      33.781  39.636  24.027  1.00  0.00    -0.251 N 
ATOM     24  H2  UNL     1      33.548  38.717  24.405  1.00  0.00     0.196 HD
BRANCH  22  25
HETATM   25  O4  UNL     1      35.106  41.011  22.814  1.00  0.00    -0.348 OA
ATOM     26  H4  UNL     1      34.947  41.750  23.390  1.00  0.00     0.219 HD
ENDBRANCH  22  25
BRANCH  23  27
HETATM   27  O5  UNL     1      32.949  40.668  24.330  1.00  0.00    -0.288 OA
ATOM     28  H5  UNL     1      32.804  41.014  25.202  1.00  0.00     0.244 HD
ENDBRANCH  23  27
ENDBRANCH  21  22
ENDBRANCH   1  21
BRANCH   5  29
HETATM   29  C15 UNL     1      36.032  36.315  18.335  1.00  0.00     0.130 C 
BRANCH  29  30
HETATM   30  C16 UNL     1      35.800  36.328  16.862  1.00  0.00     0.107 C 
HETATM   31  C17 UNL     1      35.123  35.112  16.329  1.00  0.00     0.021 C 
BRANCH  30  32
HETATM   32  C18 UNL     1      37.135  36.479  16.146  1.00  0.00     0.392 C 
HETATM   33  F1  UNL     1      37.117  37.528  15.260  1.00  0.00    -0.171 F 
HETATM   34  F2  UNL     1      38.175  36.595  17.026  1.00  0.00    -0.171 F 
HETATM   35  F3  UNL     1      37.394  35.340  15.370  1.00  0.00    -0.171 F 
ENDBRANCH  30  32
ENDBRANCH  29  30
ENDBRANCH   5  29
TORSDOF 13
ENDMDL
MODEL 4
REMARK VINA RESULT: -7.625545982      1.558      2.144
REMARK  13 active torsions:
REMARK  status: ('A' for Active; 'I' for Inactive)
REMARK    1  A    between atoms: C2_2  and  O1_3 
REMARK    2  A    between atoms: O1_3  and  C3_4 
REMARK    3  A    between atoms: C3_4  and  C4_6 
REMARK    4  A    between atoms: N1_10  and  C8_11 
REMARK    5  A    between atoms: C8_11  and  O3_12 
REMARK    6  A    between atoms: C8_11  and  C9_14 
REMARK    7  A    between atoms: C9_14  and  C10_15 
REMARK    8  A    between atoms: C10_15  and  C11_16 
REMARK    9  A    between atoms: C11_16  and  O4_17 
REMARK   10  A    between atoms: N2_19  and  O5_21 
REMARK   11  A    between atoms: N3_26  and  C15_27 
REMARK   12  A    between atoms: C15_27  and  C16_28 
REMARK   13  A    between atoms: C16_28  and  C18_30 
ROOT
HETATM    1  C9  UNL     1      34.142  38.078  22.815  1.00  0.00     0.033 C 
HETATM    2  C12 UNL     1      33.608  38.873  21.623  1.00  0.00     0.020 C 
HETATM    3  C13 UNL     1      34.633  39.553  20.802  1.00  0.00     0.021 C 
HETATM    4  C14 UNL     1      35.017  38.726  19.604  1.00  0.00     0.117 C 
HETATM    5  N3  UNL     1      35.770  37.550  19.909  1.00  0.00    -0.412 N 
HETATM    6  C19 UNL     1      36.066  37.374  21.295  1.00  0.00     0.118 C 
HETATM    7  C20 UNL     1      34.964  36.976  22.186  1.00  0.00     0.038 C 
ENDROOT
BRANCH   1   8
HETATM    8  C8  UNL     1      32.952  37.445  23.420  1.00  0.00     0.123 C 
BRANCH   8   9
HETATM    9  N1  UNL     1      32.810  36.167  24.001  1.00  0.00    -0.351 N 
HETATM   10  C4  UNL     1      33.326  35.804  25.313  1.00  0.00     0.185 C 
HETATM   11  C5  UNL     1      33.058  34.348  25.507  1.00  0.00     0.037 C 
HETATM   12  C6  UNL     1      32.126  33.903  24.446  1.00  0.00     0.022 C 
HETATM   13  C7  UNL     1      32.189  35.018  23.443  1.00  0.00     0.126 C 
BRANCH  10  14
HETATM   14  C3  UNL     1      32.680  36.599  26.390  1.00  0.00     0.281 C 
HETATM   15  O2  UNL     1      31.533  37.037  26.207  1.00  0.00    -0.263 OA
BRANCH  14  16
HETATM   16  O1  UNL     1      33.312  36.865  27.583  1.00  0.00    -0.320 OA
BRANCH  16  17
HETATM   17  C2  UNL     1      32.642  36.732  28.846  1.00  0.00     0.174 C 
HETATM   18  C1  UNL     1      32.546  35.247  29.127  1.00  0.00     0.034 C 
ENDBRANCH  16  17
ENDBRANCH  14  16
ENDBRANCH  10  14
ENDBRANCH   8   9
BRANCH   8  19
HETATM   19  O3  UNL     1      31.834  38.120  23.448  1.00  0.00    -0.349 OA
ATOM     20  H3  UNL     1      31.850  38.857  22.849  1.00  0.00     0.219 HD
ENDBRANCH   8  19
ENDBRANCH   1   8
BRANCH   1  21
HETATM   21  C10 UNL     1      34.976  38.882  23.719  1.00  0.00     0.104 C 
BRANCH  21  22
HETATM   22  C11 UNL     1      34.367  39.371  24.945  1.00  0.00     0.136 C 
HETATM   23  N2  UNL     1      34.752  39.138  26.141  1.00  0.00    -0.251 N 
ATOM     24  H2  UNL     1      35.574  38.546  26.264  1.00  0.00     0.196 HD
BRANCH  22  25
HETATM   25  O4  UNL     1      33.236  40.190  24.832  1.00  0.00    -0.348 OA
ATOM     26  H4  UNL     1      32.445  39.917  25.281  1.00  0.00     0.219 HD
ENDBRANCH  22  25
BRANCH  23  27
HETATM   27  O5  UNL     1      34.150  39.617  27.262  1.00  0.00    -0.288 OA
ATOM     28  H5  UNL     1      34.073  40.536  27.490  1.00  0.00     0.244 HD
ENDBRANCH  23  27
ENDBRANCH  21  22
ENDBRANCH   1  21
BRANCH   5  29
HETATM   29  C15 UNL     1      35.382  36.391  19.186  1.00  0.00     0.130 C 
BRANCH  29  30
HETATM   30  C16 UNL     1      35.114  36.572  17.730  1.00  0.00     0.107 C 
HETATM   31  C17 UNL     1      34.079  35.656  17.171  1.00  0.00     0.021 C 
BRANCH  30  32
HETATM   32  C18 UNL     1      36.405  36.359  16.952  1.00  0.00     0.392 C 
HETATM   33  F1  UNL     1      37.465  36.117  17.790  1.00  0.00    -0.171 F 
HETATM   34  F2  UNL     1      36.279  35.369  16.018  1.00  0.00    -0.171 F 
HETATM   35  F3  UNL     1      36.741  37.528  16.253  1.00  0.00    -0.171 F 
ENDBRANCH  30  32
ENDBRANCH  29  30
ENDBRANCH   5  29
TORSDOF 13
ENDMDL
MODEL 5
REMARK VINA RESULT: -7.605171063      1.236      1.664
REMARK  13 active torsions:
REMARK  status: ('A' for Active; 'I' for Inactive)
REMARK    1  A    between atoms: C2_2  and  O1_3 
REMARK    2  A    between atoms: O1_3  and  C3_4 
REMARK    3  A    between atoms: C3_4  and  C4_6 
REMARK    4  A    between atoms: N1_10  and  C8_11 
REMARK    5  A    between atoms: C8_11  and  O3_12 
REMARK    6  A    between atoms: C8_11  and  C9_14 
REMARK    7  A    between atoms: C9_14  and  C10_15 
REMARK    8  A    between atoms: C10_15  and  C11_16 
REMARK    9  A    between atoms: C11_16  and  O4_17 
REMARK   10  A    between atoms: N2_19  and  O5_21 
REMARK   11  A    between atoms: N3_26  and  C15_27 
REMARK   12  A    between atoms: C15_27  and  C16_28 
REMARK   13  A    between atoms: C16_28  and  C18_30 
ROOT
HETATM    1  C9  UNL     1      35.525  37.414  22.743  1.00  0.00     0.033 C 
HETATM    2  C12 UNL     1      34.150  37.797  22.195  1.00  0.00     0.020 C 
HETATM    3  C13 UNL     1      34.146  38.879  21.188  1.00  0.00     0.021 C 
HETATM    4  C14 UNL     1      34.138  38.328  19.787  1.00  0.00     0.117 C 
HETATM    5  N3  UNL     1      35.360  37.701  19.387  1.00  0.00    -0.412 N 
HETATM    6  C19 UNL     1      36.397  37.737  20.367  1.00  0.00     0.118 C 
HETATM    7  C20 UNL     1      36.260  36.861  21.542  1.00  0.00     0.038 C 
ENDROOT
BRANCH   1   8
HETATM    8  C8  UNL     1      35.273  36.283  23.659  1.00  0.00     0.123 C 
BRANCH   8   9
HETATM    9  N1  UNL     1      34.114  35.492  23.818  1.00  0.00    -0.351 N 
HETATM   10  C4  UNL     1      33.480  35.222  25.100  1.00  0.00     0.185 C 
HETATM   11  C5  UNL     1      32.358  34.271  24.846  1.00  0.00     0.037 C 
HETATM   12  C6  UNL     1      32.132  34.200  23.384  1.00  0.00     0.022 C 
HETATM   13  C7  UNL     1      33.381  34.808  22.814  1.00  0.00     0.126 C 
BRANCH  10  14
HETATM   14  C3  UNL     1      32.972  36.469  25.730  1.00  0.00     0.281 C 
HETATM   15  O2  UNL     1      33.682  37.052  26.564  1.00  0.00    -0.263 OA
BRANCH  14  16
HETATM   16  O1  UNL     1      31.742  36.997  25.416  1.00  0.00    -0.320 OA
BRANCH  16  17
HETATM   17  C2  UNL     1      31.589  38.051  24.452  1.00  0.00     0.174 C 
HETATM   18  C1  UNL     1      30.610  37.545  23.413  1.00  0.00     0.034 C 
ENDBRANCH  16  17
ENDBRANCH  14  16
ENDBRANCH  10  14
ENDBRANCH   8   9
BRANCH   8  19
HETATM   19  O3  UNL     1      36.228  35.914  24.471  1.00  0.00    -0.349 OA
ATOM     20  H3  UNL     1      36.502  35.019  24.311  1.00  0.00     0.219 HD
ENDBRANCH   8  19
ENDBRANCH   1   8
BRANCH   1  21
HETATM   21  C10 UNL     1      36.260  38.553  23.309  1.00  0.00     0.104 C 
BRANCH  21  22
HETATM   22  C11 UNL     1      35.687  39.221  24.466  1.00  0.00     0.136 C 
HETATM   23  N2  UNL     1      35.833  38.896  25.693  1.00  0.00    -0.251 N 
ATOM     24  H2  UNL     1      36.413  38.081  25.898  1.00  0.00     0.196 HD
BRANCH  22  25
HETATM   25  O4  UNL     1      34.883  40.345  24.240  1.00  0.00    -0.348 OA
ATOM     26  H4  UNL     1      35.245  41.052  23.719  1.00  0.00     0.219 HD
ENDBRANCH  22  25
BRANCH  23  27
HETATM   27  O5  UNL     1      35.276  39.551  26.746  1.00  0.00    -0.288 OA
ATOM     28  H5  UNL     1      35.443  39.355  27.661  1.00  0.00     0.244 HD
ENDBRANCH  23  27
ENDBRANCH  21  22
ENDBRANCH   1  21
BRANCH   5  29
HETATM   29  C15 UNL     1      35.198  36.486  18.670  1.00  0.00     0.130 C 
BRANCH  29  30
HETATM   30  C16 UNL     1      35.058  36.598  17.190  1.00  0.00     0.107 C 
HETATM   31  C17 UNL     1      34.050  35.677  16.590  1.00  0.00     0.021 C 
BRANCH  30  32
HETATM   32  C18 UNL     1      36.404  36.316  16.537  1.00  0.00     0.392 C 
HETATM   33  F1  UNL     1      36.757  37.310  15.658  1.00  0.00    -0.171 F 
HETATM   34  F2  UNL     1      37.387  36.107  17.465  1.00  0.00    -0.171 F 
HETATM   35  F3  UNL     1      36.328  35.147  15.766  1.00  0.00    -0.171 F 
ENDBRANCH  30  32
ENDBRANCH  29  30
ENDBRANCH   5  29
TORSDOF 13
ENDMDL
