MODEL 1
REMARK VINA RESULT: -7.687252587      0.000      0.000
REMARK  8 active torsions:
REMARK  status: ('A' for Active; 'I' for Inactive)
REMARK    1  A    between atoms: C2_2  and  S1_4 
REMARK    2  A    between atoms: S1_4  and  C4_7 
REMARK    3  A    between atoms: C5_9  and  N1_10 
REMARK       I    between atoms: N1_10  and  C6_12 
REMARK    4  A    between atoms: C6_12  and  C7_14 
REMARK    5  A    between atoms: C7_14  and  N2_15 
REMARK    6  A    between atoms: N2_15  and  C9_17 
REMARK    7  A    between atoms: C9_17  and  C10_18 
REMARK    8  A    between atoms: C16_27  and  C17_28 
ROOT
HETATM    1  N1  UNL     1      36.375  36.912  21.301  1.00  0.00    -0.317 N 
ATOM      2  H1  UNL     1      37.138  37.589  21.321  1.00  0.00     0.169 HD
HETATM    3  C6  UNL     1      36.313  35.951  20.276  1.00  0.00     0.261 C 
HETATM    4  O3  UNL     1      35.363  35.123  20.249  1.00  0.00    -0.267 OA
ENDROOT
BRANCH   1   5
HETATM    5  C5  UNL     1      35.350  36.939  22.334  1.00  0.00     0.079 A 
HETATM    6  S2  UNL     1      34.864  35.680  23.369  1.00  0.00    -0.060 SA
HETATM    7  C4  UNL     1      33.639  36.513  24.258  1.00  0.00     0.117 A 
HETATM    8  C16 UNL     1      33.660  37.750  23.701  1.00  0.00     0.079 A 
HETATM    9  C15 UNL     1      34.546  37.978  22.704  1.00  0.00     0.055 A 
BRANCH   7  10
HETATM   10  S1  UNL     1      32.658  35.781  25.519  1.00  0.00     0.186 S 
HETATM   11  O1  UNL     1      32.947  34.282  25.459  1.00  0.00    -0.222 OA
HETATM   12  O2  UNL     1      31.211  35.935  25.241  1.00  0.00    -0.222 OA
BRANCH  10  13
HETATM   13  C2  UNL     1      33.101  36.319  27.131  1.00  0.00     0.106 C 
HETATM   14  C1  UNL     1      34.440  36.975  27.254  1.00  0.00     0.026 C 
HETATM   15  C3  UNL     1      31.983  37.201  27.676  1.00  0.00     0.026 C 
ENDBRANCH  10  13
ENDBRANCH   7  10
BRANCH   8  16
HETATM   16  C17 UNL     1      32.677  38.832  24.116  1.00  0.00     0.419 C 
HETATM   17  F1  UNL     1      32.779  39.197  25.414  1.00  0.00    -0.166 F 
HETATM   18  F2  UNL     1      32.897  40.008  23.382  1.00  0.00    -0.166 F 
HETATM   19  F3  UNL     1      31.377  38.463  23.734  1.00  0.00    -0.166 F 
ENDBRANCH   8  16
ENDBRANCH   1   5
BRANCH   3  20
HETATM   20  C7  UNL     1      37.366  35.919  19.219  1.00  0.00     0.164 C 
BRANCH  20  21
HETATM   21  N2  UNL     1      37.254  36.919  18.238  1.00  0.00    -0.369 N 
HETATM   22  C8  UNL     1      38.470  37.529  17.830  1.00  0.00     0.154 C 
BRANCH  21  23
HETATM   23  C9  UNL     1      36.110  37.079  17.466  1.00  0.00     0.069 C 
BRANCH  23  24
HETATM   24  C10 UNL     1      35.470  35.875  16.907  1.00  0.00     0.050 C 
HETATM   25  C11 UNL     1      33.942  35.879  17.014  1.00  0.00     0.013 C 
HETATM   26  C12 UNL     1      33.314  35.847  15.653  1.00  0.00     0.028 C 
HETATM   27  C13 UNL     1      33.758  34.637  14.849  1.00  0.00     0.232 C 
HETATM   28  N3  UNL     1      35.186  34.372  15.012  1.00  0.00    -0.074 N 
HETATM   29  C14 UNL     1      35.841  35.609  15.468  1.00  0.00     0.242 C 
ATOM     30  H32 UNL     1      35.370  33.582  15.629  1.00  0.00     0.277 HD
ATOM     31  H31 UNL     1      35.612  33.992  14.167  1.00  0.00     0.277 HD
ENDBRANCH  23  24
ENDBRANCH  21  23
ENDBRANCH  20  21
ENDBRANCH   3  20
TORSDOF 8
ENDMDL
MODEL 2
REMARK VINA RESULT: -7.642039460      2.314      2.780
REMARK  8 active torsions:
REMARK  status: ('A' for Active; 'I' for Inactive)
REMARK    1  A    between atoms: C2_2  and  S1_4 
REMARK    2  A    between atoms: S1_4  and  C4_7 
REMARK    3  A    between atoms: C5_9  and  N1_10 
REMARK       I    between atoms: N1_10  and  C6_12 
REMARK    4  A    between atoms: C6_12  and  C7_14 
REMARK    5  A    between atoms: C7_14  and  N2_15 
REMARK    6  A    between atoms: N2_15  and  C9_17 
REMARK    7  A    between atoms: C9_17  and  C10_18 
REMARK    8  A    between atoms: C16_27  and  C17_28 
ROOT
HETATM    1  N1  UNL     1      36.746  37.254  20.788  1.00  0.00    -0.317 N 
ATOM      2  H1  UNL     1      37.437  37.956  20.522  1.00  0.00     0.169 HD
HETATM    3  C6  UNL     1      36.528  36.135  19.964  1.00  0.00     0.261 C 
HETATM    4  O3  UNL     1      35.667  35.274  20.290  1.00  0.00    -0.267 OA
ENDROOT
BRANCH   1   5
HETATM    5  C5  UNL     1      35.985  37.409  22.018  1.00  0.00     0.079 A 
HETATM    6  S2  UNL     1      34.961  38.691  22.469  1.00  0.00    -0.060 SA
HETATM    7  C4  UNL     1      34.469  38.116  24.022  1.00  0.00     0.117 A 
HETATM    8  C16 UNL     1      35.135  36.938  24.125  1.00  0.00     0.079 A 
HETATM    9  C15 UNL     1      35.921  36.565  23.089  1.00  0.00     0.055 A 
BRANCH   7  10
HETATM   10  S1  UNL     1      33.396  38.987  25.107  1.00  0.00     0.186 S 
HETATM   11  O1  UNL     1      33.059  40.300  24.402  1.00  0.00    -0.222 OA
HETATM   12  O2  UNL     1      34.080  39.358  26.367  1.00  0.00    -0.222 OA
BRANCH  10  13
HETATM   13  C2  UNL     1      31.874  38.153  25.380  1.00  0.00     0.106 C 
HETATM   14  C1  UNL     1      31.456  37.192  24.313  1.00  0.00     0.026 C 
HETATM   15  C3  UNL     1      31.919  37.494  26.754  1.00  0.00     0.026 C 
ENDBRANCH  10  13
ENDBRANCH   7  10
BRANCH   8  16
HETATM   16  C17 UNL     1      35.073  36.091  25.386  1.00  0.00     0.419 C 
HETATM   17  F1  UNL     1      33.903  35.434  25.548  1.00  0.00    -0.166 F 
HETATM   18  F2  UNL     1      36.059  35.091  25.358  1.00  0.00    -0.166 F 
HETATM   19  F3  UNL     1      35.444  36.867  26.495  1.00  0.00    -0.166 F 
ENDBRANCH   8  16
ENDBRANCH   1   5
BRANCH   3  20
HETATM   20  C7  UNL     1      37.311  35.972  18.704  1.00  0.00     0.164 C 
BRANCH  20  21
HETATM   21  N2  UNL     1      36.996  36.889  17.686  1.00  0.00    -0.369 N 
HETATM   22  C8  UNL     1      38.097  37.406  16.952  1.00  0.00     0.154 C 
BRANCH  21  23
HETATM   23  C9  UNL     1      35.707  37.033  17.188  1.00  0.00     0.069 C 
BRANCH  23  24
HETATM   24  C10 UNL     1      34.997  35.828  16.726  1.00  0.00     0.050 C 
HETATM   25  C11 UNL     1      33.492  36.031  16.530  1.00  0.00     0.013 C 
HETATM   26  C12 UNL     1      33.108  35.810  15.098  1.00  0.00     0.028 C 
HETATM   27  C13 UNL     1      33.495  34.424  14.612  1.00  0.00     0.232 C 
HETATM   28  N3  UNL     1      34.817  34.030  15.093  1.00  0.00    -0.074 N 
HETATM   29  C14 UNL     1      35.564  35.246  15.453  1.00  0.00     0.242 C 
ATOM     30  H32 UNL     1      34.771  33.358  15.858  1.00  0.00     0.277 HD
ATOM     31  H31 UNL     1      35.319  33.446  14.424  1.00  0.00     0.277 HD
ENDBRANCH  23  24
ENDBRANCH  21  23
ENDBRANCH  20  21
ENDBRANCH   3  20
TORSDOF 8
ENDMDL
MODEL 3
REMARK VINA RESULT: -7.636108910      1.635      1.871
REMARK  8 active torsions:
REMARK  status: ('A' for Active; 'I' for Inactive)
REMARK    1  A    between atoms: C2_2  and  S1_4 
REMARK    2  A    between atoms: S1_4  and  C4_7 
REMARK    3  A    between atoms: C5_9  and  N1_10 
REMARK       I    between atoms: N1_10  and  C6_12 
REMARK    4  A    between atoms: C6_12  and  C7_14 
REMARK    5  A    between atoms: C7_14  and  N2_15 
REMARK    6  A    between atoms: N2_15  and  C9_17 
REMARK    7  A    between atoms: C9_17  and  C10_18 
REMARK    8  A    between atoms: C16_27  and  C17_28 
ROOT
HETATM    1  N1  UNL     1      35.547  35.500  21.600  1.00  0.00    -0.317 N 
ATOM      2  H1  UNL     1      35.511  34.508  21.366  1.00  0.00     0.169 HD
HETATM    3  C6  UNL     1      36.235  36.396  20.763  1.00  0.00     0.261 C 
HETATM    4  O3  UNL     1      36.287  37.620  21.060  1.00  0.00    -0.267 OA
ENDROOT
BRANCH   1   5
HETATM    5  C5  UNL     1      34.886  35.990  22.800  1.00  0.00     0.079 A 
HETATM    6  S2  UNL     1      35.512  36.096  24.379  1.00  0.00    -0.060 SA
HETATM    7  C4  UNL     1      34.132  36.760  25.177  1.00  0.00     0.117 A 
HETATM    8  C16 UNL     1      33.231  36.869  24.168  1.00  0.00     0.079 A 
HETATM    9  C15 UNL     1      33.616  36.474  22.933  1.00  0.00     0.055 A 
BRANCH   7  10
HETATM   10  S1  UNL     1      34.055  37.111  26.898  1.00  0.00     0.186 S 
HETATM   11  O1  UNL     1      35.187  36.312  27.541  1.00  0.00    -0.222 OA
HETATM   12  O2  UNL     1      32.799  36.607  27.500  1.00  0.00    -0.222 OA
BRANCH  10  13
HETATM   13  C2  UNL     1      34.355  38.802  27.265  1.00  0.00     0.106 C 
HETATM   14  C1  UNL     1      35.130  39.070  28.516  1.00  0.00     0.026 C 
HETATM   15  C3  UNL     1      34.994  39.460  26.047  1.00  0.00     0.026 C 
ENDBRANCH  10  13
ENDBRANCH   7  10
BRANCH   8  16
HETATM   16  C17 UNL     1      31.808  37.345  24.412  1.00  0.00     0.419 C 
HETATM   17  F1  UNL     1      31.726  38.475  25.150  1.00  0.00    -0.166 F 
HETATM   18  F2  UNL     1      31.173  37.649  23.197  1.00  0.00    -0.166 F 
HETATM   19  F3  UNL     1      31.035  36.286  24.913  1.00  0.00    -0.166 F 
ENDBRANCH   8  16
ENDBRANCH   1   5
BRANCH   3  20
HETATM   20  C7  UNL     1      36.910  35.896  19.529  1.00  0.00     0.164 C 
BRANCH  20  21
HETATM   21  N2  UNL     1      37.107  36.862  18.526  1.00  0.00    -0.369 N 
HETATM   22  C8  UNL     1      38.417  37.403  18.432  1.00  0.00     0.154 C 
BRANCH  21  23
HETATM   23  C9  UNL     1      36.211  37.040  17.480  1.00  0.00     0.069 C 
BRANCH  23  24
HETATM   24  C10 UNL     1      35.516  35.856  16.945  1.00  0.00     0.050 C 
HETATM   25  C11 UNL     1      33.990  35.928  17.060  1.00  0.00     0.013 C 
HETATM   26  C12 UNL     1      33.354  35.900  15.703  1.00  0.00     0.028 C 
HETATM   27  C13 UNL     1      33.740  34.659  14.917  1.00  0.00     0.232 C 
HETATM   28  N3  UNL     1      35.156  34.335  15.077  1.00  0.00    -0.074 N 
HETATM   29  C14 UNL     1      35.867  35.550  15.509  1.00  0.00     0.242 C 
ATOM     30  H32 UNL     1      35.309  33.548  15.706  1.00  0.00     0.277 HD
ATOM     31  H31 UNL     1      35.561  33.923  14.237  1.00  0.00     0.277 HD
ENDBRANCH  23  24
ENDBRANCH  21  23
ENDBRANCH  20  21
ENDBRANCH   3  20
TORSDOF 8
ENDMDL
MODEL 4
REMARK VINA RESULT: -7.474512559      1.633      1.930
REMARK  8 active torsions:
REMARK  status: ('A' for Active; 'I' for Inactive)
REMARK    1  A    between atoms: C2_2  and  S1_4 
REMARK    2  A    between atoms: S1_4  and  C4_7 
REMARK    3  A    between atoms: C5_9  and  N1_10 
REMARK       I    between atoms: N1_10  and  C6_12 
REMARK    4  A    between atoms: C6_12  and  C7_14 
REMARK    5  A    between atoms: C7_14  and  N2_15 
REMARK    6  A    between atoms: N2_15  and  C9_17 
REMARK    7  A    between atoms: C9_17  and  C10_18 
REMARK    8  A    between atoms: C16_27  and  C17_28 
ROOT
HETATM    1  N1  UNL     1      35.828  36.951  22.678  1.00  0.00    -0.317 N 
ATOM      2  H1  UNL     1      36.493  37.707  22.837  1.00  0.00     0.169 HD
HETATM    3  C6  UNL     1      35.762  36.323  21.421  1.00  0.00     0.261 C 
HETATM    4  O3  UNL     1      34.931  35.396  21.225  1.00  0.00    -0.267 OA
ENDROOT
BRANCH   1   5
HETATM    5  C5  UNL     1      34.945  36.520  23.751  1.00  0.00     0.079 A 
HETATM    6  S2  UNL     1      35.171  35.242  24.853  1.00  0.00    -0.060 SA
HETATM    7  C4  UNL     1      33.710  35.402  25.761  1.00  0.00     0.117 A 
HETATM    8  C16 UNL     1      33.101  36.454  25.158  1.00  0.00     0.079 A 
HETATM    9  C15 UNL     1      33.736  37.039  24.117  1.00  0.00     0.055 A 
BRANCH   7  10
HETATM   10  S1  UNL     1      33.249  34.347  27.089  1.00  0.00     0.186 S 
HETATM   11  O1  UNL     1      34.172  33.133  27.003  1.00  0.00    -0.222 OA
HETATM   12  O2  UNL     1      31.870  33.831  26.921  1.00  0.00    -0.222 OA
BRANCH  10  13
HETATM   13  C2  UNL     1      33.514  35.075  28.665  1.00  0.00     0.106 C 
HETATM   14  C1  UNL     1      34.303  36.346  28.673  1.00  0.00     0.026 C 
HETATM   15  C3  UNL     1      32.166  35.237  29.361  1.00  0.00     0.026 C 
ENDBRANCH  10  13
ENDBRANCH   7  10
BRANCH   8  16
HETATM   16  C17 UNL     1      31.717  36.924  25.575  1.00  0.00     0.419 C 
HETATM   17  F1  UNL     1      31.627  37.278  26.876  1.00  0.00    -0.166 F 
HETATM   18  F2  UNL     1      31.346  38.069  24.852  1.00  0.00    -0.166 F 
HETATM   19  F3  UNL     1      30.757  35.979  25.179  1.00  0.00    -0.166 F 
ENDBRANCH   8  16
ENDBRANCH   1   5
BRANCH   3  20
HETATM   20  C7  UNL     1      36.670  36.761  20.321  1.00  0.00     0.164 C 
BRANCH  20  21
HETATM   21  N2  UNL     1      36.027  37.352  19.219  1.00  0.00    -0.369 N 
HETATM   22  C8  UNL     1      35.222  38.487  19.503  1.00  0.00     0.154 C 
BRANCH  21  23
HETATM   23  C9  UNL     1      36.401  37.083  17.908  1.00  0.00     0.069 C 
BRANCH  23  24
HETATM   24  C10 UNL     1      35.848  35.884  17.254  1.00  0.00     0.050 C 
HETATM   25  C11 UNL     1      34.344  35.696  17.473  1.00  0.00     0.013 C 
HETATM   26  C12 UNL     1      33.608  35.746  16.168  1.00  0.00     0.028 C 
HETATM   27  C13 UNL     1      34.109  34.696  15.191  1.00  0.00     0.232 C 
HETATM   28  N3  UNL     1      35.565  34.584  15.214  1.00  0.00    -0.074 N 
HETATM   29  C14 UNL     1      36.120  35.829  15.770  1.00  0.00     0.242 C 
ATOM     30  H32 UNL     1      35.886  33.755  15.714  1.00  0.00     0.277 HD
ATOM     31  H31 UNL     1      35.955  34.355  14.301  1.00  0.00     0.277 HD
ENDBRANCH  23  24
ENDBRANCH  21  23
ENDBRANCH  20  21
ENDBRANCH   3  20
TORSDOF 8
ENDMDL
MODEL 5
REMARK VINA RESULT: -7.457302557      1.485      1.770
REMARK  8 active torsions:
REMARK  status: ('A' for Active; 'I' for Inactive)
REMARK    1  A    between atoms: C2_2  and  S1_4 
REMARK    2  A    between atoms: S1_4  and  C4_7 
REMARK    3  A    between atoms: C5_9  and  N1_10 
REMARK       I    between atoms: N1_10  and  C6_12 
REMARK    4  A    between atoms: C6_12  and  C7_14 
REMARK    5  A    between atoms: C7_14  and  N2_15 
REMARK    6  A    between atoms: N2_15  and  C9_17 
REMARK    7  A    between atoms: C9_17  and  C10_18 
REMARK    8  A    between atoms: C16_27  and  C17_28 
ROOT
HETATM    1  N1  UNL     1      35.886  35.596  21.778  1.00  0.00    -0.317 N 
ATOM      2  H1  UNL     1      36.128  34.607  21.717  1.00  0.00     0.169 HD
HETATM    3  C6  UNL     1      36.194  36.464  20.716  1.00  0.00     0.261 C 
HETATM    4  O3  UNL     1      35.903  37.687  20.799  1.00  0.00    -0.267 OA
ENDROOT
BRANCH   1   5
HETATM    5  C5  UNL     1      35.220  36.111  22.966  1.00  0.00     0.079 A 
HETATM    6  S2  UNL     1      33.746  35.606  23.650  1.00  0.00    -0.060 SA
HETATM    7  C4  UNL     1      33.680  36.692  24.991  1.00  0.00     0.117 A 
HETATM    8  C16 UNL     1      34.821  37.413  24.844  1.00  0.00     0.079 A 
HETATM    9  C15 UNL     1      35.624  37.115  23.798  1.00  0.00     0.055 A 
BRANCH   7  10
HETATM   10  S1  UNL     1      32.361  36.756  26.151  1.00  0.00     0.186 S 
HETATM   11  O1  UNL     1      31.231  35.923  25.549  1.00  0.00    -0.222 OA
HETATM   12  O2  UNL     1      31.830  38.131  26.297  1.00  0.00    -0.222 OA
BRANCH  10  13
HETATM   13  C2  UNL     1      32.769  36.018  27.692  1.00  0.00     0.106 C 
HETATM   14  C1  UNL     1      34.063  35.270  27.735  1.00  0.00     0.026 C 
HETATM   15  C3  UNL     1      32.691  37.085  28.779  1.00  0.00     0.026 C 
ENDBRANCH  10  13
ENDBRANCH   7  10
BRANCH   8  16
HETATM   16  C17 UNL     1      35.162  38.570  25.769  1.00  0.00     0.419 C 
HETATM   17  F1  UNL     1      35.275  38.217  27.069  1.00  0.00    -0.166 F 
HETATM   18  F2  UNL     1      36.405  39.126  25.426  1.00  0.00    -0.166 F 
HETATM   19  F3  UNL     1      34.271  39.631  25.547  1.00  0.00    -0.166 F 
ENDBRANCH   8  16
ENDBRANCH   1   5
BRANCH   3  20
HETATM   20  C7  UNL     1      36.873  35.937  19.495  1.00  0.00     0.164 C 
BRANCH  20  21
HETATM   21  N2  UNL     1      37.103  36.888  18.486  1.00  0.00    -0.369 N 
HETATM   22  C8  UNL     1      38.413  37.435  18.433  1.00  0.00     0.154 C 
BRANCH  21  23
HETATM   23  C9  UNL     1      36.247  37.043  17.403  1.00  0.00     0.069 C 
BRANCH  23  24
HETATM   24  C10 UNL     1      35.529  35.859  16.902  1.00  0.00     0.050 C 
HETATM   25  C11 UNL     1      34.006  35.950  17.045  1.00  0.00     0.013 C 
HETATM   26  C12 UNL     1      33.344  35.906  15.701  1.00  0.00     0.028 C 
HETATM   27  C13 UNL     1      33.702  34.646  14.930  1.00  0.00     0.232 C 
HETATM   28  N3  UNL     1      35.117  34.310  15.069  1.00  0.00    -0.074 N 
HETATM   29  C14 UNL     1      35.849  35.523  15.465  1.00  0.00     0.242 C 
ATOM     30  H32 UNL     1      35.273  33.532  15.709  1.00  0.00     0.277 HD
ATOM     31  H31 UNL     1      35.500  33.878  14.228  1.00  0.00     0.277 HD
ENDBRANCH  23  24
ENDBRANCH  21  23
ENDBRANCH  20  21
ENDBRANCH   3  20
TORSDOF 8
ENDMDL
