MODEL 1
REMARK VINA RESULT: -9.308377505      0.000      0.000
REMARK  8 active torsions:
REMARK  status: ('A' for Active; 'I' for Inactive)
REMARK    1  A    between atoms: C2_2  and  N1_3 
REMARK    2  A    between atoms: C2_2  and  C18_29 
REMARK    3  A    between atoms: N1_3  and  C3_5 
REMARK    4  A    between atoms: N2_7  and  C5_8 
REMARK    5  A    between atoms: C7_10  and  O1_11 
REMARK    6  A    between atoms: O1_11  and  C8_12 
REMARK    7  A    between atoms: C18_29  and  O2_30 
REMARK    8  A    between atoms: C18_29  and  C19_32 
ROOT
HETATM    1  C5  UNL     1      34.826  38.983  20.605  1.00  0.00     0.228 C 
HETATM    2  C6  UNL     1      35.609  38.858  21.878  1.00  0.00     0.068 C 
HETATM    3  C7  UNL     1      34.894  40.155  22.310  1.00  0.00     0.135 C 
HETATM    4  C16 UNL     1      34.885  40.478  20.803  1.00  0.00     0.068 C 
ENDROOT
BRANCH   3   5
HETATM    5  O1  UNL     1      33.650  39.815  22.825  1.00  0.00    -0.327 OA
BRANCH   5   6
HETATM    6  C8  UNL     1      33.328  39.260  24.022  1.00  0.00     0.200 A 
HETATM    7  N3  UNL     1      34.125  39.433  25.088  1.00  0.00    -0.335 N 
HETATM    8  C9  UNL     1      33.794  38.873  26.283  1.00  0.00     0.034 A 
ATOM      9  H3  UNL     1      34.979  39.984  25.001  1.00  0.00     0.168 HD
HETATM   10  C10 UNL     1      32.660  38.121  26.459  1.00  0.00     0.040 A 
HETATM   11  C15 UNL     1      34.696  39.069  27.476  1.00  0.00     0.065 C 
HETATM   12  N4  UNL     1      31.855  37.951  25.366  1.00  0.00    -0.331 N 
HETATM   13  C12 UNL     1      32.247  37.487  27.736  1.00  0.00     0.138 C 
HETATM   14  C11 UNL     1      32.187  38.509  24.182  1.00  0.00     0.240 A 
ATOM     15  H4  UNL     1      31.000  37.400  25.447  1.00  0.00     0.168 HD
HETATM   16  F1  UNL     1      31.321  38.282  23.153  1.00  0.00    -0.181 F 
HETATM   17  C13 UNL     1      33.364  37.397  28.717  1.00  0.00     0.249 C 
HETATM   18  F2  UNL     1      33.405  36.074  29.173  1.00  0.00    -0.206 F 
HETATM   19  F3  UNL     1      33.176  38.170  29.848  1.00  0.00    -0.206 F 
HETATM   20  C14 UNL     1      34.728  37.704  28.155  1.00  0.00     0.085 C 
ENDBRANCH   5   6
ENDBRANCH   3   5
BRANCH   1  21
HETATM   21  N2  UNL     1      35.344  38.408  19.441  1.00  0.00     0.097 N 
HETATM   22  C4  UNL     1      34.526  37.352  18.787  1.00  0.00     0.299 C 
HETATM   23  C3  UNL     1      35.822  36.950  18.152  1.00  0.00     0.133 C 
HETATM   24  C17 UNL     1      36.344  37.381  19.547  1.00  0.00     0.299 C 
BRANCH  23  25
HETATM   25  N1  UNL     1      36.106  35.635  17.788  1.00  0.00    -0.407 N 
ATOM     26  H1  UNL     1      36.459  34.948  18.455  1.00  0.00     0.154 HD
BRANCH  25  27
HETATM   27  C2  UNL     1      35.868  35.320  16.425  1.00  0.00     0.102 C 
HETATM   28  C1  UNL     1      36.227  36.415  15.459  1.00  0.00     0.034 C 
BRANCH  27  29
HETATM   29  C18 UNL     1      34.438  34.805  16.208  1.00  0.00     0.144 C 
BRANCH  29  30
HETATM   30  O2  UNL     1      34.496  33.415  16.367  1.00  0.00    -0.393 OA
ATOM     31  H2  UNL     1      34.264  33.043  15.524  1.00  0.00     0.210 HD
ENDBRANCH  29  30
BRANCH  29  32
HETATM   32  C19 UNL     1      34.106  35.017  14.736  1.00  0.00     0.016 C 
HETATM   33  C20 UNL     1      33.483  33.806  14.076  1.00  0.00     0.007 C 
HETATM   34  C21 UNL     1      32.401  34.685  13.476  1.00  0.00     0.001 C 
HETATM   35  C22 UNL     1      32.747  35.700  14.543  1.00  0.00     0.007 C 
ENDBRANCH  29  32
ENDBRANCH  27  29
ENDBRANCH  25  27
ENDBRANCH  23  25
ENDBRANCH   1  21
TORSDOF 8
ENDMDL
MODEL 2
REMARK VINA RESULT: -9.041052259      1.472      1.952
REMARK  8 active torsions:
REMARK  status: ('A' for Active; 'I' for Inactive)
REMARK    1  A    between atoms: C2_2  and  N1_3 
REMARK    2  A    between atoms: C2_2  and  C18_29 
REMARK    3  A    between atoms: N1_3  and  C3_5 
REMARK    4  A    between atoms: N2_7  and  C5_8 
REMARK    5  A    between atoms: C7_10  and  O1_11 
REMARK    6  A    between atoms: O1_11  and  C8_12 
REMARK    7  A    between atoms: C18_29  and  O2_30 
REMARK    8  A    between atoms: C18_29  and  C19_32 
ROOT
HETATM    1  C5  UNL     1      35.276  39.082  20.662  1.00  0.00     0.228 C 
HETATM    2  C6  UNL     1      35.198  40.579  20.677  1.00  0.00     0.068 C 
HETATM    3  C7  UNL     1      34.124  40.399  21.769  1.00  0.00     0.135 C 
HETATM    4  C16 UNL     1      33.815  39.077  21.038  1.00  0.00     0.068 C 
ENDROOT
BRANCH   3   5
HETATM    5  O1  UNL     1      34.767  40.236  22.989  1.00  0.00    -0.327 OA
BRANCH   5   6
HETATM    6  C8  UNL     1      34.614  39.268  23.928  1.00  0.00     0.200 A 
HETATM    7  N3  UNL     1      33.415  39.049  24.490  1.00  0.00    -0.335 N 
HETATM    8  C9  UNL     1      33.271  38.076  25.430  1.00  0.00     0.034 A 
ATOM      9  H3  UNL     1      32.611  39.613  24.212  1.00  0.00     0.168 HD
HETATM   10  C10 UNL     1      34.315  37.288  25.844  1.00  0.00     0.040 A 
HETATM   11  C15 UNL     1      31.921  37.838  26.059  1.00  0.00     0.065 C 
HETATM   12  N4  UNL     1      35.532  37.519  25.266  1.00  0.00    -0.331 N 
HETATM   13  C12 UNL     1      34.219  36.212  26.864  1.00  0.00     0.138 C 
HETATM   14  C11 UNL     1      35.671  38.486  24.333  1.00  0.00     0.240 A 
ATOM     15  H4  UNL     1      36.339  36.959  25.540  1.00  0.00     0.168 HD
HETATM   16  F1  UNL     1      36.923  38.639  23.815  1.00  0.00    -0.181 F 
HETATM   17  C13 UNL     1      32.987  36.319  27.693  1.00  0.00     0.249 C 
HETATM   18  F2  UNL     1      33.386  36.248  29.033  1.00  0.00    -0.206 F 
HETATM   19  F3  UNL     1      32.103  35.271  27.516  1.00  0.00    -0.206 F 
HETATM   20  C14 UNL     1      32.227  37.611  27.536  1.00  0.00     0.085 C 
ENDBRANCH   5   6
ENDBRANCH   3   5
BRANCH   1  21
HETATM   21  N2  UNL     1      35.702  38.446  19.493  1.00  0.00     0.097 N 
HETATM   22  C4  UNL     1      34.752  37.493  18.859  1.00  0.00     0.299 C 
HETATM   23  C3  UNL     1      35.980  36.936  18.204  1.00  0.00     0.133 C 
HETATM   24  C17 UNL     1      36.574  37.306  19.588  1.00  0.00     0.299 C 
BRANCH  23  25
HETATM   25  N1  UNL     1      36.098  35.595  17.843  1.00  0.00    -0.407 N 
ATOM     26  H1  UNL     1      36.341  34.867  18.516  1.00  0.00     0.154 HD
BRANCH  25  27
HETATM   27  C2  UNL     1      35.858  35.315  16.473  1.00  0.00     0.102 C 
HETATM   28  C1  UNL     1      36.237  36.425  15.531  1.00  0.00     0.034 C 
BRANCH  27  29
HETATM   29  C18 UNL     1      34.419  34.829  16.243  1.00  0.00     0.144 C 
BRANCH  29  30
HETATM   30  O2  UNL     1      34.448  33.438  16.400  1.00  0.00    -0.393 OA
ATOM     31  H2  UNL     1      34.253  33.072  15.544  1.00  0.00     0.210 HD
ENDBRANCH  29  30
BRANCH  29  32
HETATM   32  C19 UNL     1      34.105  35.050  14.768  1.00  0.00     0.016 C 
HETATM   33  C20 UNL     1      33.505  33.838  14.089  1.00  0.00     0.007 C 
HETATM   34  C21 UNL     1      32.421  34.709  13.482  1.00  0.00     0.001 C 
HETATM   35  C22 UNL     1      32.740  35.718  14.563  1.00  0.00     0.007 C 
ENDBRANCH  29  32
ENDBRANCH  27  29
ENDBRANCH  25  27
ENDBRANCH  23  25
ENDBRANCH   1  21
TORSDOF 8
ENDMDL
MODEL 3
REMARK VINA RESULT: -8.828719817      4.991      9.095
REMARK  8 active torsions:
REMARK  status: ('A' for Active; 'I' for Inactive)
REMARK    1  A    between atoms: C2_2  and  N1_3 
REMARK    2  A    between atoms: C2_2  and  C18_29 
REMARK    3  A    between atoms: N1_3  and  C3_5 
REMARK    4  A    between atoms: N2_7  and  C5_8 
REMARK    5  A    between atoms: C7_10  and  O1_11 
REMARK    6  A    between atoms: O1_11  and  C8_12 
REMARK    7  A    between atoms: C18_29  and  O2_30 
REMARK    8  A    between atoms: C18_29  and  C19_32 
ROOT
HETATM    1  C5  UNL     1      34.121  36.854  23.771  1.00  0.00     0.228 C 
HETATM    2  C6  UNL     1      34.846  38.058  24.293  1.00  0.00     0.068 C 
HETATM    3  C7  UNL     1      35.864  37.791  23.165  1.00  0.00     0.135 C 
HETATM    4  C16 UNL     1      35.468  36.314  23.358  1.00  0.00     0.068 C 
ENDROOT
BRANCH   3   5
HETATM    5  O1  UNL     1      35.379  38.361  21.996  1.00  0.00    -0.327 OA
BRANCH   5   6
HETATM    6  C8  UNL     1      35.648  38.050  20.703  1.00  0.00     0.200 A 
HETATM    7  N3  UNL     1      36.849  37.560  20.356  1.00  0.00    -0.335 N 
HETATM    8  C9  UNL     1      37.109  37.250  19.057  1.00  0.00     0.034 A 
ATOM      9  H3  UNL     1      37.566  37.420  21.068  1.00  0.00     0.168 HD
HETATM   10  C10 UNL     1      36.184  37.419  18.057  1.00  0.00     0.040 A 
HETATM   11  C15 UNL     1      38.461  36.703  18.675  1.00  0.00     0.065 C 
HETATM   12  N4  UNL     1      34.964  37.918  18.421  1.00  0.00    -0.331 N 
HETATM   13  C12 UNL     1      36.410  37.099  16.625  1.00  0.00     0.138 C 
HETATM   14  C11 UNL     1      34.710  38.224  19.711  1.00  0.00     0.240 A 
ATOM     15  H4  UNL     1      34.243  38.061  17.713  1.00  0.00     0.168 HD
HETATM   16  F1  UNL     1      33.465  38.716  19.973  1.00  0.00    -0.181 F 
HETATM   17  C13 UNL     1      37.853  36.954  16.292  1.00  0.00     0.249 C 
HETATM   18  F2  UNL     1      38.100  37.756  15.171  1.00  0.00    -0.206 F 
HETATM   19  F3  UNL     1      38.213  35.674  15.914  1.00  0.00    -0.206 F 
HETATM   20  C14 UNL     1      38.802  37.414  17.369  1.00  0.00     0.085 C 
ENDBRANCH   5   6
ENDBRANCH   3   5
BRANCH   1  21
HETATM   21  N2  UNL     1      33.313  36.127  24.649  1.00  0.00     0.097 N 
HETATM   22  C4  UNL     1      33.167  34.670  24.384  1.00  0.00     0.299 C 
HETATM   23  C3  UNL     1      31.926  34.795  25.215  1.00  0.00     0.133 C 
HETATM   24  C17 UNL     1      31.885  36.164  24.487  1.00  0.00     0.299 C 
BRANCH  23  25
HETATM   25  N1  UNL     1      30.809  33.984  25.025  1.00  0.00    -0.407 N 
ATOM     26  H1  UNL     1      30.204  34.069  24.207  1.00  0.00     0.154 HD
BRANCH  25  27
HETATM   27  C2  UNL     1      30.572  33.031  26.050  1.00  0.00     0.102 C 
HETATM   28  C1  UNL     1      31.378  33.245  27.301  1.00  0.00     0.034 C 
BRANCH  27  29
HETATM   29  C18 UNL     1      30.698  31.594  25.522  1.00  0.00     0.144 C 
BRANCH  29  30
HETATM   30  O2  UNL     1      32.065  31.292  25.538  1.00  0.00    -0.393 OA
ATOM     31  H2  UNL     1      32.451  31.775  24.816  1.00  0.00     0.210 HD
ENDBRANCH  29  30
BRANCH  29  32
HETATM   32  C19 UNL     1      30.323  31.628  24.045  1.00  0.00     0.016 C 
HETATM   33  C20 UNL     1      31.392  31.062  23.136  1.00  0.00     0.007 C 
HETATM   34  C21 UNL     1      30.345  30.232  22.416  1.00  0.00     0.001 C 
HETATM   35  C22 UNL     1      29.473  30.418  23.638  1.00  0.00     0.007 C 
ENDBRANCH  29  32
ENDBRANCH  27  29
ENDBRANCH  25  27
ENDBRANCH  23  25
ENDBRANCH   1  21
TORSDOF 8
ENDMDL
MODEL 4
REMARK VINA RESULT: -8.585270348      2.591      3.048
REMARK  8 active torsions:
REMARK  status: ('A' for Active; 'I' for Inactive)
REMARK    1  A    between atoms: C2_2  and  N1_3 
REMARK    2  A    between atoms: C2_2  and  C18_29 
REMARK    3  A    between atoms: N1_3  and  C3_5 
REMARK    4  A    between atoms: N2_7  and  C5_8 
REMARK    5  A    between atoms: C7_10  and  O1_11 
REMARK    6  A    between atoms: O1_11  and  C8_12 
REMARK    7  A    between atoms: C18_29  and  O2_30 
REMARK    8  A    between atoms: C18_29  and  C19_32 
ROOT
HETATM    1  C5  UNL     1      35.758  37.235  22.089  1.00  0.00     0.228 C 
HETATM    2  C6  UNL     1      36.208  38.423  22.884  1.00  0.00     0.068 C 
HETATM    3  C7  UNL     1      35.048  38.080  23.841  1.00  0.00     0.135 C 
HETATM    4  C16 UNL     1      34.360  37.535  22.573  1.00  0.00     0.068 C 
ENDROOT
BRANCH   3   5
HETATM    5  O1  UNL     1      35.483  37.096  24.718  1.00  0.00    -0.327 OA
BRANCH   5   6
HETATM    6  C8  UNL     1      34.767  36.186  25.426  1.00  0.00     0.200 A 
HETATM    7  N3  UNL     1      33.823  36.588  26.291  1.00  0.00    -0.335 N 
HETATM    8  C9  UNL     1      33.109  35.669  26.997  1.00  0.00     0.034 A 
ATOM      9  H3  UNL     1      33.641  37.584  26.420  1.00  0.00     0.168 HD
HETATM   10  C10 UNL     1      33.312  34.318  26.867  1.00  0.00     0.040 A 
HETATM   11  C15 UNL     1      32.053  36.129  27.969  1.00  0.00     0.065 C 
HETATM   12  N4  UNL     1      34.276  33.919  25.984  1.00  0.00    -0.331 N 
HETATM   13  C12 UNL     1      32.565  33.270  27.608  1.00  0.00     0.138 C 
HETATM   14  C11 UNL     1      34.981  34.834  25.285  1.00  0.00     0.240 A 
ATOM     15  H4  UNL     1      34.463  32.925  25.851  1.00  0.00     0.168 HD
HETATM   16  F1  UNL     1      35.919  34.337  24.429  1.00  0.00    -0.181 F 
HETATM   17  C13 UNL     1      31.853  33.809  28.799  1.00  0.00     0.249 C 
HETATM   18  F2  UNL     1      32.193  32.995  29.886  1.00  0.00    -0.206 F 
HETATM   19  F3  UNL     1      30.475  33.738  28.704  1.00  0.00    -0.206 F 
HETATM   20  C14 UNL     1      32.229  35.218  29.180  1.00  0.00     0.085 C 
ENDBRANCH   5   6
ENDBRANCH   3   5
BRANCH   1  21
HETATM   21  N2  UNL     1      36.034  37.202  20.720  1.00  0.00     0.097 N 
HETATM   22  C4  UNL     1      35.176  38.038  19.837  1.00  0.00     0.299 C 
HETATM   23  C3  UNL     1      35.646  37.114  18.755  1.00  0.00     0.133 C 
HETATM   24  C17 UNL     1      35.548  36.105  19.929  1.00  0.00     0.299 C 
BRANCH  23  25
HETATM   25  N1  UNL     1      34.871  36.808  17.638  1.00  0.00    -0.407 N 
ATOM     26  H1  UNL     1      34.013  37.313  17.413  1.00  0.00     0.154 HD
BRANCH  25  27
HETATM   27  C2  UNL     1      35.361  35.745  16.836  1.00  0.00     0.102 C 
HETATM   28  C1  UNL     1      36.231  36.177  15.687  1.00  0.00     0.034 C 
BRANCH  27  29
HETATM   29  C18 UNL     1      34.227  34.814  16.382  1.00  0.00     0.144 C 
BRANCH  29  30
HETATM   30  O2  UNL     1      34.729  33.511  16.483  1.00  0.00    -0.393 OA
ATOM     31  H2  UNL     1      33.982  32.932  16.383  1.00  0.00     0.210 HD
ENDBRANCH  29  30
BRANCH  29  32
HETATM   32  C19 UNL     1      34.032  35.044  14.888  1.00  0.00     0.016 C 
HETATM   33  C20 UNL     1      33.459  33.847  14.162  1.00  0.00     0.007 C 
HETATM   34  C21 UNL     1      32.445  34.743  13.476  1.00  0.00     0.001 C 
HETATM   35  C22 UNL     1      32.702  35.744  14.581  1.00  0.00     0.007 C 
ENDBRANCH  29  32
ENDBRANCH  27  29
ENDBRANCH  25  27
ENDBRANCH  23  25
ENDBRANCH   1  21
TORSDOF 8
ENDMDL
MODEL 5
REMARK VINA RESULT: -8.568546489      4.101     11.307
REMARK  8 active torsions:
REMARK  status: ('A' for Active; 'I' for Inactive)
REMARK    1  A    between atoms: C2_2  and  N1_3 
REMARK    2  A    between atoms: C2_2  and  C18_29 
REMARK    3  A    between atoms: N1_3  and  C3_5 
REMARK    4  A    between atoms: N2_7  and  C5_8 
REMARK    5  A    between atoms: C7_10  and  O1_11 
REMARK    6  A    between atoms: O1_11  and  C8_12 
REMARK    7  A    between atoms: C18_29  and  O2_30 
REMARK    8  A    between atoms: C18_29  and  C19_32 
ROOT
HETATM    1  C5  UNL     1      35.353  38.493  24.641  1.00  0.00     0.228 C 
HETATM    2  C6  UNL     1      35.324  37.162  23.952  1.00  0.00     0.068 C 
HETATM    3  C7  UNL     1      34.367  37.832  22.945  1.00  0.00     0.135 C 
HETATM    4  C16 UNL     1      33.940  38.694  24.150  1.00  0.00     0.068 C 
ENDROOT
BRANCH   3   5
HETATM    5  O1  UNL     1      35.130  38.510  22.003  1.00  0.00    -0.327 OA
BRANCH   5   6
HETATM    6  C8  UNL     1      35.450  38.160  20.732  1.00  0.00     0.200 A 
HETATM    7  N3  UNL     1      36.663  37.662  20.448  1.00  0.00    -0.335 N 
HETATM    8  C9  UNL     1      36.975  37.313  19.171  1.00  0.00     0.034 A 
ATOM      9  H3  UNL     1      37.352  37.544  21.192  1.00  0.00     0.168 HD
HETATM   10  C10 UNL     1      36.091  37.450  18.130  1.00  0.00     0.040 A 
HETATM   11  C15 UNL     1      38.342  36.757  18.859  1.00  0.00     0.065 C 
HETATM   12  N4  UNL     1      34.858  37.958  18.429  1.00  0.00    -0.331 N 
HETATM   13  C12 UNL     1      36.374  37.087  16.718  1.00  0.00     0.138 C 
HETATM   14  C11 UNL     1      34.552  38.303  19.699  1.00  0.00     0.240 A 
ATOM     15  H4  UNL     1      34.165  38.079  17.690  1.00  0.00     0.168 HD
HETATM   16  F1  UNL     1      33.297  38.800  19.896  1.00  0.00    -0.181 F 
HETATM   17  C13 UNL     1      37.830  36.935  16.447  1.00  0.00     0.249 C 
HETATM   18  F2  UNL     1      38.120  37.703  15.313  1.00  0.00    -0.206 F 
HETATM   19  F3  UNL     1      38.204  35.644  16.123  1.00  0.00    -0.206 F 
HETATM   20  C14 UNL     1      38.734  37.428  17.547  1.00  0.00     0.085 C 
ENDBRANCH   5   6
ENDBRANCH   3   5
BRANCH   1  21
HETATM   21  N2  UNL     1      35.633  38.532  26.009  1.00  0.00     0.097 N 
HETATM   22  C4  UNL     1      34.476  38.693  26.931  1.00  0.00     0.299 C 
HETATM   23  C3  UNL     1      35.509  39.169  27.906  1.00  0.00     0.133 C 
HETATM   24  C17 UNL     1      36.101  39.757  26.598  1.00  0.00     0.299 C 
BRANCH  23  25
HETATM   25  N1  UNL     1      35.229  40.099  28.905  1.00  0.00    -0.407 N 
ATOM     26  H1  UNL     1      34.470  40.776  28.824  1.00  0.00     0.154 HD
BRANCH  25  27
HETATM   27  C2  UNL     1      36.075  40.037  30.043  1.00  0.00     0.102 C 
HETATM   28  C1  UNL     1      35.441  39.424  31.261  1.00  0.00     0.034 C 
BRANCH  27  29
HETATM   29  C18 UNL     1      36.710  41.402  30.347  1.00  0.00     0.144 C 
BRANCH  29  30
HETATM   30  O2  UNL     1      35.972  42.345  29.622  1.00  0.00    -0.393 OA
ATOM     31  H2  UNL     1      36.608  42.887  29.170  1.00  0.00     0.210 HD
ENDBRANCH  29  30
BRANCH  29  32
HETATM   32  C19 UNL     1      38.090  41.405  29.701  1.00  0.00     0.016 C 
HETATM   33  C20 UNL     1      38.166  42.239  28.441  1.00  0.00     0.007 C 
HETATM   34  C21 UNL     1      39.437  42.897  28.949  1.00  0.00     0.001 C 
HETATM   35  C22 UNL     1      39.019  42.449  30.332  1.00  0.00     0.007 C 
ENDBRANCH  29  32
ENDBRANCH  27  29
ENDBRANCH  25  27
ENDBRANCH  23  25
ENDBRANCH   1  21
TORSDOF 8
ENDMDL
