MODEL 1
REMARK VINA RESULT: -9.486324875      0.000      0.000
REMARK  9 active torsions:
REMARK  status: ('A' for Active; 'I' for Inactive)
REMARK    1  A    between atoms: C5_8  and  N2_9 
REMARK    2  A    between atoms: N2_9  and  C6_11 
REMARK    3  A    between atoms: C6_11  and  C7_12 
REMARK    4  A    between atoms: C7_12  and  C8_13 
REMARK    5  A    between atoms: N3_16  and  C11_17 
REMARK    6  A    between atoms: C11_17  and  C12_18 
REMARK    7  A    between atoms: C12_18  and  C13_19 
REMARK    8  A    between atoms: C13_19  and  C14_20 
REMARK    9  A    between atoms: C19_25  and  C20_26 
ROOT
HETATM    1  C8  UNL     1      34.878  37.855  23.792  1.00  0.00     0.127 C 
HETATM    2  C9  UNL     1      35.592  39.199  23.800  1.00  0.00     0.062 C 
HETATM    3  C10 UNL     1      35.481  39.882  22.482  1.00  0.00     0.277 C 
HETATM    4  N3  UNL     1      34.077  40.090  22.047  1.00  0.00     0.111 N 
HETATM    5  C21 UNL     1      33.297  39.261  22.967  1.00  0.00     0.440 C 
HETATM    6  O2  UNL     1      33.733  37.972  22.947  1.00  0.00    -0.357 OA
ENDROOT
BRANCH   1   7
HETATM    7  C7  UNL     1      35.801  36.888  23.085  1.00  0.00     0.052 C 
BRANCH   7   8
HETATM    8  C6  UNL     1      35.246  35.469  23.139  1.00  0.00     0.140 C 
BRANCH   8   9
HETATM    9  N2  UNL     1      34.207  35.482  24.157  1.00  0.00    -0.225 N 
ATOM     10  H2  UNL     1      34.214  36.199  24.883  1.00  0.00     0.177 HD
BRANCH   9  11
HETATM   11  C5  UNL     1      33.288  34.601  24.143  1.00  0.00     0.696 A 
HETATM   12  N1  UNL     1      32.815  33.986  25.267  1.00  0.00    -0.172 N 
HETATM   13  C4  UNL     1      31.845  33.133  24.900  1.00  0.00     0.161 A 
ATOM     14  H1  UNL     1      33.142  34.147  26.219  1.00  0.00     0.186 HD
HETATM   15  C3  UNL     1      31.043  32.272  25.620  1.00  0.00     0.058 A 
HETATM   16  N5  UNL     1      31.691  33.193  23.565  1.00  0.00    -0.162 N 
HETATM   17  C2  UNL     1      30.098  31.485  24.987  1.00  0.00     0.080 A 
HETATM   18  C1  UNL     1      30.008  31.609  23.620  1.00  0.00     0.261 A 
HETATM   19  O1  UNL     1      29.146  30.898  23.005  1.00  0.00    -0.267 OA
HETATM   20  N6  UNL     1      30.790  32.446  22.930  1.00  0.00    -0.243 N 
ATOM     21  H6  UNL     1      30.697  32.513  21.917  1.00  0.00     0.192 HD
HETATM   22  N4  UNL     1      32.562  34.073  23.136  1.00  0.00    -0.109 N 
ATOM     23  H4  UNL     1      32.678  34.328  22.156  1.00  0.00     0.208 HD
ENDBRANCH   9  11
ENDBRANCH   8   9
ENDBRANCH   7   8
ENDBRANCH   1   7
BRANCH   4  24
HETATM   24  C11 UNL     1      34.016  39.636  20.719  1.00  0.00     0.275 C 
BRANCH  24  25
HETATM   25  C12 UNL     1      35.182  39.165  19.972  1.00  0.00     0.031 C 
BRANCH  25  26
HETATM   26  C13 UNL     1      35.182  37.772  19.464  1.00  0.00     0.007 C 
BRANCH  26  27
HETATM   27  C14 UNL     1      36.292  37.202  18.673  1.00  0.00    -0.002 C 
HETATM   28  C15 UNL     1      36.665  35.884  19.414  1.00  0.00     0.005 C 
HETATM   29  C16 UNL     1      35.489  34.951  19.417  1.00  0.00     0.000 C 
HETATM   30  C17 UNL     1      34.818  34.829  18.093  1.00  0.00     0.001 C 
HETATM   31  C18 UNL     1      35.675  35.366  17.022  1.00  0.00     0.014 C 
HETATM   32  C19 UNL     1      36.002  36.842  17.242  1.00  0.00     0.097 C 
BRANCH  32  33
HETATM   33  C20 UNL     1      37.215  37.038  16.317  1.00  0.00     0.391 C 
HETATM   34  F1  UNL     1      37.545  35.718  15.933  1.00  0.00    -0.171 F 
HETATM   35  F2  UNL     1      36.998  37.717  15.185  1.00  0.00    -0.171 F 
HETATM   36  F3  UNL     1      38.261  37.544  17.075  1.00  0.00    -0.171 F 
ENDBRANCH  32  33
ENDBRANCH  26  27
ENDBRANCH  25  26
ENDBRANCH  24  25
ENDBRANCH   4  24
TORSDOF 9
ENDMDL
MODEL 2
REMARK VINA RESULT: -9.455456023      2.085      2.682
REMARK  9 active torsions:
REMARK  status: ('A' for Active; 'I' for Inactive)
REMARK    1  A    between atoms: C5_8  and  N2_9 
REMARK    2  A    between atoms: N2_9  and  C6_11 
REMARK    3  A    between atoms: C6_11  and  C7_12 
REMARK    4  A    between atoms: C7_12  and  C8_13 
REMARK    5  A    between atoms: N3_16  and  C11_17 
REMARK    6  A    between atoms: C11_17  and  C12_18 
REMARK    7  A    between atoms: C12_18  and  C13_19 
REMARK    8  A    between atoms: C13_19  and  C14_20 
REMARK    9  A    between atoms: C19_25  and  C20_26 
ROOT
HETATM    1  C8  UNL     1      34.122  37.940  23.811  1.00  0.00     0.127 C 
HETATM    2  C9  UNL     1      34.785  36.680  23.276  1.00  0.00     0.062 C 
HETATM    3  C10 UNL     1      35.196  36.843  21.854  1.00  0.00     0.277 C 
HETATM    4  N3  UNL     1      36.110  37.992  21.638  1.00  0.00     0.111 N 
HETATM    5  C21 UNL     1      36.039  38.740  22.894  1.00  0.00     0.440 C 
HETATM    6  O2  UNL     1      34.751  39.064  23.193  1.00  0.00    -0.357 OA
ENDROOT
BRANCH   1   7
HETATM    7  C7  UNL     1      32.705  37.933  23.281  1.00  0.00     0.052 C 
BRANCH   7   8
HETATM    8  C6  UNL     1      31.705  37.693  24.407  1.00  0.00     0.140 C 
BRANCH   8   9
HETATM    9  N2  UNL     1      31.143  36.372  24.170  1.00  0.00    -0.225 N 
ATOM     10  H2  UNL     1      30.484  36.229  23.405  1.00  0.00     0.177 HD
BRANCH   9  11
HETATM   11  C5  UNL     1      31.473  35.395  24.917  1.00  0.00     0.696 A 
HETATM   12  N1  UNL     1      30.574  34.640  25.614  1.00  0.00    -0.172 N 
HETATM   13  C4  UNL     1      31.251  33.689  26.277  1.00  0.00     0.161 A 
ATOM     14  H1  UNL     1      29.563  34.775  25.628  1.00  0.00     0.186 HD
HETATM   15  C3  UNL     1      30.845  32.674  27.118  1.00  0.00     0.058 A 
HETATM   16  N5  UNL     1      32.564  33.824  26.016  1.00  0.00    -0.162 N 
HETATM   17  C2  UNL     1      31.765  31.809  27.684  1.00  0.00     0.080 A 
HETATM   18  C1  UNL     1      33.087  32.019  27.364  1.00  0.00     0.261 A 
HETATM   19  O1  UNL     1      33.960  31.240  27.868  1.00  0.00    -0.267 OA
HETATM   20  N6  UNL     1      33.470  33.007  26.547  1.00  0.00    -0.243 N 
ATOM     21  H6  UNL     1      34.459  33.134  26.331  1.00  0.00     0.192 HD
HETATM   22  N4  UNL     1      32.672  34.847  25.205  1.00  0.00    -0.109 N 
ATOM     23  H4  UNL     1      33.558  35.190  24.834  1.00  0.00     0.208 HD
ENDBRANCH   9  11
ENDBRANCH   8   9
ENDBRANCH   7   8
ENDBRANCH   1   7
BRANCH   4  24
HETATM   24  C11 UNL     1      35.581  38.704  20.548  1.00  0.00     0.275 C 
BRANCH  24  25
HETATM   25  C12 UNL     1      34.527  38.182  19.679  1.00  0.00     0.031 C 
BRANCH  25  26
HETATM   26  C13 UNL     1      34.896  37.719  18.319  1.00  0.00     0.007 C 
BRANCH  26  27
HETATM   27  C14 UNL     1      36.174  37.043  18.016  1.00  0.00    -0.002 C 
HETATM   28  C15 UNL     1      35.925  35.550  18.387  1.00  0.00     0.005 C 
HETATM   29  C16 UNL     1      34.821  34.992  17.538  1.00  0.00     0.000 C 
HETATM   30  C17 UNL     1      34.947  35.329  16.093  1.00  0.00     0.001 C 
HETATM   31  C18 UNL     1      36.302  35.820  15.788  1.00  0.00     0.014 C 
HETATM   32  C19 UNL     1      36.646  37.074  16.589  1.00  0.00     0.097 C 
BRANCH  32  33
HETATM   33  C20 UNL     1      38.179  37.118  16.465  1.00  0.00     0.391 C 
HETATM   34  F1  UNL     1      38.504  35.816  16.021  1.00  0.00    -0.171 F 
HETATM   35  F2  UNL     1      38.680  37.963  15.558  1.00  0.00    -0.171 F 
HETATM   36  F3  UNL     1      38.711  37.288  17.735  1.00  0.00    -0.171 F 
ENDBRANCH  32  33
ENDBRANCH  26  27
ENDBRANCH  25  26
ENDBRANCH  24  25
ENDBRANCH   4  24
TORSDOF 9
ENDMDL
MODEL 3
REMARK VINA RESULT: -9.327061348      1.930      2.445
REMARK  9 active torsions:
REMARK  status: ('A' for Active; 'I' for Inactive)
REMARK    1  A    between atoms: C5_8  and  N2_9 
REMARK    2  A    between atoms: N2_9  and  C6_11 
REMARK    3  A    between atoms: C6_11  and  C7_12 
REMARK    4  A    between atoms: C7_12  and  C8_13 
REMARK    5  A    between atoms: N3_16  and  C11_17 
REMARK    6  A    between atoms: C11_17  and  C12_18 
REMARK    7  A    between atoms: C12_18  and  C13_19 
REMARK    8  A    between atoms: C13_19  and  C14_20 
REMARK    9  A    between atoms: C19_25  and  C20_26 
ROOT
HETATM    1  C8  UNL     1      34.734  39.948  24.346  1.00  0.00     0.127 C 
HETATM    2  C9  UNL     1      35.530  38.675  24.095  1.00  0.00     0.062 C 
HETATM    3  C10 UNL     1      35.215  38.088  22.764  1.00  0.00     0.277 C 
HETATM    4  N3  UNL     1      35.450  39.028  21.640  1.00  0.00     0.111 N 
HETATM    5  C21 UNL     1      35.636  40.323  22.296  1.00  0.00     0.440 C 
HETATM    6  O2  UNL     1      34.575  40.619  23.096  1.00  0.00    -0.357 OA
ENDROOT
BRANCH   1   7
HETATM    7  C7  UNL     1      33.343  39.506  24.743  1.00  0.00     0.052 C 
BRANCH   7   8
HETATM    8  C6  UNL     1      33.394  38.552  25.931  1.00  0.00     0.140 C 
BRANCH   8   9
HETATM    9  N2  UNL     1      32.081  37.929  26.003  1.00  0.00    -0.225 N 
ATOM     10  H2  UNL     1      31.297  38.438  26.413  1.00  0.00     0.177 HD
BRANCH   9  11
HETATM   11  C5  UNL     1      31.908  36.750  25.555  1.00  0.00     0.696 A 
HETATM   12  N1  UNL     1      31.491  35.703  26.325  1.00  0.00    -0.172 N 
HETATM   13  C4  UNL     1      31.395  34.617  25.540  1.00  0.00     0.161 A 
ATOM     14  H1  UNL     1      31.288  35.739  27.324  1.00  0.00     0.186 HD
HETATM   15  C3  UNL     1      31.025  33.314  25.797  1.00  0.00     0.058 A 
HETATM   16  N5  UNL     1      31.743  34.954  24.284  1.00  0.00    -0.162 N 
HETATM   17  C2  UNL     1      31.009  32.368  24.788  1.00  0.00     0.080 A 
HETATM   18  C1  UNL     1      31.379  32.797  23.534  1.00  0.00     0.261 A 
HETATM   19  O1  UNL     1      31.374  31.951  22.581  1.00  0.00    -0.267 OA
HETATM   20  N6  UNL     1      31.737  34.064  23.295  1.00  0.00    -0.243 N 
ATOM     21  H6  UNL     1      32.006  34.348  22.352  1.00  0.00     0.192 HD
HETATM   22  N4  UNL     1      32.046  36.228  24.318  1.00  0.00    -0.109 N 
ATOM     23  H4  UNL     1      32.349  36.763  23.505  1.00  0.00     0.208 HD
ENDBRANCH   9  11
ENDBRANCH   8   9
ENDBRANCH   7   8
ENDBRANCH   1   7
BRANCH   4  24
HETATM   24  C11 UNL     1      34.290  38.980  20.849  1.00  0.00     0.275 C 
BRANCH  24  25
HETATM   25  C12 UNL     1      34.242  38.364  19.523  1.00  0.00     0.031 C 
BRANCH  25  26
HETATM   26  C13 UNL     1      35.517  38.140  18.800  1.00  0.00     0.007 C 
BRANCH  26  27
HETATM   27  C14 UNL     1      35.682  37.108  17.756  1.00  0.00    -0.002 C 
HETATM   28  C15 UNL     1      37.022  36.399  18.114  1.00  0.00     0.005 C 
HETATM   29  C16 UNL     1      36.914  35.763  19.469  1.00  0.00     0.000 C 
HETATM   30  C17 UNL     1      35.654  34.995  19.672  1.00  0.00     0.001 C 
HETATM   31  C18 UNL     1      34.983  34.744  18.385  1.00  0.00     0.014 C 
HETATM   32  C19 UNL     1      34.623  36.044  17.668  1.00  0.00     0.097 C 
BRANCH  32  33
HETATM   33  C20 UNL     1      34.383  35.555  16.229  1.00  0.00     0.391 C 
HETATM   34  F1  UNL     1      34.633  34.167  16.314  1.00  0.00    -0.171 F 
HETATM   35  F2  UNL     1      33.139  35.686  15.756  1.00  0.00    -0.171 F 
HETATM   36  F3  UNL     1      35.349  36.122  15.412  1.00  0.00    -0.171 F 
ENDBRANCH  32  33
ENDBRANCH  26  27
ENDBRANCH  25  26
ENDBRANCH  24  25
ENDBRANCH   4  24
TORSDOF 9
ENDMDL
MODEL 4
REMARK VINA RESULT: -9.302262187      1.750      2.180
REMARK  9 active torsions:
REMARK  status: ('A' for Active; 'I' for Inactive)
REMARK    1  A    between atoms: C5_8  and  N2_9 
REMARK    2  A    between atoms: N2_9  and  C6_11 
REMARK    3  A    between atoms: C6_11  and  C7_12 
REMARK    4  A    between atoms: C7_12  and  C8_13 
REMARK    5  A    between atoms: N3_16  and  C11_17 
REMARK    6  A    between atoms: C11_17  and  C12_18 
REMARK    7  A    between atoms: C12_18  and  C13_19 
REMARK    8  A    between atoms: C13_19  and  C14_20 
REMARK    9  A    between atoms: C19_25  and  C20_26 
ROOT
HETATM    1  C8  UNL     1      35.192  39.052  24.778  1.00  0.00     0.127 C 
HETATM    2  C9  UNL     1      35.350  37.544  24.651  1.00  0.00     0.062 C 
HETATM    3  C10 UNL     1      34.982  37.070  23.289  1.00  0.00     0.277 C 
HETATM    4  N3  UNL     1      35.763  37.725  22.210  1.00  0.00     0.111 N 
HETATM    5  C21 UNL     1      36.428  38.841  22.885  1.00  0.00     0.440 C 
HETATM    6  O2  UNL     1      35.521  39.635  23.517  1.00  0.00    -0.357 OA
ENDROOT
BRANCH   1   7
HETATM    7  C7  UNL     1      33.713  39.309  24.964  1.00  0.00     0.052 C 
BRANCH   7   8
HETATM    8  C6  UNL     1      33.183  38.572  26.189  1.00  0.00     0.140 C 
BRANCH   8   9
HETATM    9  N2  UNL     1      31.875  38.056  25.813  1.00  0.00    -0.225 N 
ATOM     10  H2  UNL     1      31.056  38.662  25.863  1.00  0.00     0.177 HD
BRANCH   9  11
HETATM   11  C5  UNL     1      31.752  36.851  25.423  1.00  0.00     0.696 A 
HETATM   12  N1  UNL     1      31.465  35.811  26.260  1.00  0.00    -0.172 N 
HETATM   13  C4  UNL     1      31.388  34.690  25.525  1.00  0.00     0.161 A 
ATOM     14  H1  UNL     1      31.332  35.876  27.270  1.00  0.00     0.186 HD
HETATM   15  C3  UNL     1      31.127  33.377  25.857  1.00  0.00     0.058 A 
HETATM   16  N5  UNL     1      31.621  34.996  24.235  1.00  0.00    -0.162 N 
HETATM   17  C2  UNL     1      31.104  32.390  24.887  1.00  0.00     0.080 A 
HETATM   18  C1  UNL     1      31.353  32.790  23.594  1.00  0.00     0.261 A 
HETATM   19  O1  UNL     1      31.338  31.906  22.676  1.00  0.00    -0.267 OA
HETATM   20  N6  UNL     1      31.605  34.067  23.283  1.00  0.00    -0.243 N 
ATOM     21  H6  UNL     1      31.785  34.328  22.313  1.00  0.00     0.192 HD
HETATM   22  N4  UNL     1      31.836  36.288  24.199  1.00  0.00    -0.109 N 
ATOM     23  H4  UNL     1      32.044  36.807  23.347  1.00  0.00     0.208 HD
ENDBRANCH   9  11
ENDBRANCH   8   9
ENDBRANCH   7   8
ENDBRANCH   1   7
BRANCH   4  24
HETATM   24  C11 UNL     1      34.823  38.147  21.256  1.00  0.00     0.275 C 
BRANCH  24  25
HETATM   25  C12 UNL     1      35.189  38.678  19.943  1.00  0.00     0.031 C 
BRANCH  25  26
HETATM   26  C13 UNL     1      35.195  37.755  18.782  1.00  0.00     0.007 C 
BRANCH  26  27
HETATM   27  C14 UNL     1      36.410  37.059  18.311  1.00  0.00    -0.002 C 
HETATM   28  C15 UNL     1      36.199  35.574  18.732  1.00  0.00     0.005 C 
HETATM   29  C16 UNL     1      34.980  35.021  18.053  1.00  0.00     0.000 C 
HETATM   30  C17 UNL     1      34.905  35.341  16.601  1.00  0.00     0.001 C 
HETATM   31  C18 UNL     1      36.210  35.811  16.102  1.00  0.00     0.014 C 
HETATM   32  C19 UNL     1      36.677  37.069  16.831  1.00  0.00     0.097 C 
BRANCH  32  33
HETATM   33  C20 UNL     1      38.178  37.091  16.493  1.00  0.00     0.391 C 
HETATM   34  F1  UNL     1      38.413  35.794  15.985  1.00  0.00    -0.171 F 
HETATM   35  F2  UNL     1      38.561  37.946  15.539  1.00  0.00    -0.171 F 
HETATM   36  F3  UNL     1      38.886  37.229  17.678  1.00  0.00    -0.171 F 
ENDBRANCH  32  33
ENDBRANCH  26  27
ENDBRANCH  25  26
ENDBRANCH  24  25
ENDBRANCH   4  24
TORSDOF 9
ENDMDL
MODEL 5
REMARK VINA RESULT: -9.279958659      1.516      1.922
REMARK  9 active torsions:
REMARK  status: ('A' for Active; 'I' for Inactive)
REMARK    1  A    between atoms: C5_8  and  N2_9 
REMARK    2  A    between atoms: N2_9  and  C6_11 
REMARK    3  A    between atoms: C6_11  and  C7_12 
REMARK    4  A    between atoms: C7_12  and  C8_13 
REMARK    5  A    between atoms: N3_16  and  C11_17 
REMARK    6  A    between atoms: C11_17  and  C12_18 
REMARK    7  A    between atoms: C12_18  and  C13_19 
REMARK    8  A    between atoms: C13_19  and  C14_20 
REMARK    9  A    between atoms: C19_25  and  C20_26 
ROOT
HETATM    1  C8  UNL     1      34.885  37.936  24.867  1.00  0.00     0.127 C 
HETATM    2  C9  UNL     1      35.272  36.578  24.299  1.00  0.00     0.062 C 
HETATM    3  C10 UNL     1      35.038  36.516  22.830  1.00  0.00     0.277 C 
HETATM    4  N3  UNL     1      35.761  37.572  22.077  1.00  0.00     0.111 N 
HETATM    5  C21 UNL     1      36.222  38.493  23.118  1.00  0.00     0.440 C 
HETATM    6  O2  UNL     1      35.180  38.925  23.880  1.00  0.00    -0.357 OA
ENDROOT
BRANCH   1   7
HETATM    7  C7  UNL     1      33.377  37.931  24.991  1.00  0.00     0.052 C 
BRANCH   7   8
HETATM    8  C6  UNL     1      32.925  36.960  26.077  1.00  0.00     0.140 C 
BRANCH   8   9
HETATM    9  N2  UNL     1      31.629  36.456  25.650  1.00  0.00    -0.225 N 
ATOM     10  H2  UNL     1      30.802  37.049  25.724  1.00  0.00     0.177 HD
BRANCH   9  11
HETATM   11  C5  UNL     1      31.524  35.275  25.186  1.00  0.00     0.696 A 
HETATM   12  N1  UNL     1      30.879  34.262  25.836  1.00  0.00    -0.172 N 
HETATM   13  C4  UNL     1      30.939  33.165  25.064  1.00  0.00     0.161 A 
ATOM     14  H1  UNL     1      30.430  34.328  26.749  1.00  0.00     0.186 HD
HETATM   15  C3  UNL     1      30.459  31.883  25.232  1.00  0.00     0.058 A 
HETATM   16  N5  UNL     1      31.610  33.460  23.935  1.00  0.00    -0.162 N 
HETATM   17  C2  UNL     1      30.659  30.916  24.263  1.00  0.00     0.080 A 
HETATM   18  C1  UNL     1      31.355  31.303  23.140  1.00  0.00     0.261 A 
HETATM   19  O1  UNL     1      31.556  30.437  22.227  1.00  0.00    -0.267 OA
HETATM   20  N6  UNL     1      31.817  32.549  22.987  1.00  0.00    -0.243 N 
ATOM     21  H6  UNL     1      32.329  32.802  22.142  1.00  0.00     0.192 HD
HETATM   22  N4  UNL     1      31.949  34.722  24.031  1.00  0.00    -0.109 N 
ATOM     23  H4  UNL     1      32.474  35.226  23.317  1.00  0.00     0.208 HD
ENDBRANCH   9  11
ENDBRANCH   8   9
ENDBRANCH   7   8
ENDBRANCH   1   7
BRANCH   4  24
HETATM   24  C11 UNL     1      34.812  38.151  21.219  1.00  0.00     0.275 C 
BRANCH  24  25
HETATM   25  C12 UNL     1      35.139  38.682  19.896  1.00  0.00     0.031 C 
BRANCH  25  26
HETATM   26  C13 UNL     1      35.158  37.750  18.743  1.00  0.00     0.007 C 
BRANCH  26  27
HETATM   27  C14 UNL     1      36.380  37.060  18.284  1.00  0.00    -0.002 C 
HETATM   28  C15 UNL     1      36.185  35.579  18.728  1.00  0.00     0.005 C 
HETATM   29  C16 UNL     1      34.973  35.003  18.057  1.00  0.00     0.000 C 
HETATM   30  C17 UNL     1      34.896  35.299  16.599  1.00  0.00     0.001 C 
HETATM   31  C18 UNL     1      36.196  35.775  16.095  1.00  0.00     0.014 C 
HETATM   32  C19 UNL     1      36.649  37.049  16.804  1.00  0.00     0.097 C 
BRANCH  32  33
HETATM   33  C20 UNL     1      38.150  37.082  16.467  1.00  0.00     0.391 C 
HETATM   34  F1  UNL     1      38.398  35.782  15.972  1.00  0.00    -0.171 F 
HETATM   35  F2  UNL     1      38.525  37.931  15.504  1.00  0.00    -0.171 F 
HETATM   36  F3  UNL     1      38.856  37.239  17.651  1.00  0.00    -0.171 F 
ENDBRANCH  32  33
ENDBRANCH  26  27
ENDBRANCH  25  26
ENDBRANCH  24  25
ENDBRANCH   4  24
TORSDOF 9
ENDMDL
