MODEL 1
REMARK VINA RESULT: -8.194818821      0.000      0.000
REMARK  5 active torsions:
REMARK  status: ('A' for Active; 'I' for Inactive)
REMARK    1  A    between atoms: C1_4  and  O1_5 
REMARK    2  A    between atoms: C1_4  and  C2_7 
REMARK    3  A    between atoms: C6_13  and  C7_14 
REMARK    4  A    between atoms: C11_18  and  O2_19 
REMARK    5  A    between atoms: C12_21  and  O3_22 
ROOT
HETATM    1  C2  UNL     1      14.826  16.220  22.752  1.00  0.00     0.037 A 
HETATM    2  C3  UNL     1      15.917  16.706  23.459  1.00  0.00     0.019 A 
HETATM    3  C4  UNL     1      17.002  17.194  22.741  1.00  0.00     0.018 A 
HETATM    4  C5  UNL     1      17.035  17.215  21.374  1.00  0.00     0.088 A 
HETATM    5  N2  UNL     1      15.966  16.739  20.744  1.00  0.00    -0.368 N 
ATOM      6  H2  UNL     1      15.969  16.749  19.724  1.00  0.00     0.165 HD
HETATM    7  C6  UNL     1      14.862  16.238  21.375  1.00  0.00     0.030 A 
ENDROOT
BRANCH   7   8
HETATM    8  C7  UNL     1      13.780  15.632  20.561  1.00  0.00     0.068 C 
HETATM    9  C8  UNL     1      13.253  16.769  19.647  1.00  0.00     0.013 C 
HETATM   10  C9  UNL     1      12.487  16.198  18.481  1.00  0.00     0.004 C 
HETATM   11  C10 UNL     1      13.622  15.779  17.535  1.00  0.00     0.034 C 
HETATM   12  C11 UNL     1      14.250  14.628  18.211  1.00  0.00     0.147 C 
HETATM   13  C12 UNL     1      14.477  14.607  19.661  1.00  0.00     0.156 C 
BRANCH  12  14
HETATM   14  O2  UNL     1      15.471  14.423  17.509  1.00  0.00    -0.393 OA
ATOM     15  H2  UNL     1      15.973  15.215  17.664  1.00  0.00     0.210 HD
ENDBRANCH  12  14
BRANCH  13  16
HETATM   16  O3  UNL     1      14.078  13.332  20.113  1.00  0.00    -0.392 OA
ATOM     17  H3  UNL     1      13.822  12.836  19.345  1.00  0.00     0.210 HD
ENDBRANCH  13  16
ENDBRANCH   7   8
BRANCH   1  18
HETATM   18  C1  UNL     1      13.688  15.718  23.523  1.00  0.00     0.145 C 
HETATM   19  N1  UNL     1      13.751  14.534  24.040  1.00  0.00    -0.379 N 
ATOM     20  H12 UNL     1      12.958  14.185  24.577  1.00  0.00     0.158 HD
ATOM     21  H11 UNL     1      14.625  14.042  23.853  1.00  0.00     0.158 HD
BRANCH  18  22
HETATM   22  O1  UNL     1      12.494  16.391  23.779  1.00  0.00    -0.346 OA
ATOM     23  H1  UNL     1      12.602  17.309  23.996  1.00  0.00     0.219 HD
ENDBRANCH  18  22
ENDBRANCH   1  18
TORSDOF 5
ENDMDL
MODEL 2
REMARK VINA RESULT: -7.435511508      1.779      2.174
REMARK  5 active torsions:
REMARK  status: ('A' for Active; 'I' for Inactive)
REMARK    1  A    between atoms: C1_4  and  O1_5 
REMARK    2  A    between atoms: C1_4  and  C2_7 
REMARK    3  A    between atoms: C6_13  and  C7_14 
REMARK    4  A    between atoms: C11_18  and  O2_19 
REMARK    5  A    between atoms: C12_21  and  O3_22 
ROOT
HETATM    1  C2  UNL     1      16.637  17.113  21.869  1.00  0.00     0.037 A 
HETATM    2  C3  UNL     1      17.978  17.464  21.786  1.00  0.00     0.019 A 
HETATM    3  C4  UNL     1      18.567  17.522  20.529  1.00  0.00     0.018 A 
HETATM    4  C5  UNL     1      17.881  17.249  19.378  1.00  0.00     0.088 A 
HETATM    5  N2  UNL     1      16.600  16.920  19.510  1.00  0.00    -0.368 N 
ATOM      6  H2  UNL     1      16.070  16.717  18.662  1.00  0.00     0.165 HD
HETATM    7  C6  UNL     1      15.948  16.836  20.708  1.00  0.00     0.030 A 
ENDROOT
BRANCH   7   8
HETATM    8  C7  UNL     1      14.548  16.348  20.733  1.00  0.00     0.068 C 
HETATM    9  C8  UNL     1      13.904  16.846  19.413  1.00  0.00     0.013 C 
HETATM   10  C9  UNL     1      12.656  16.059  19.102  1.00  0.00     0.004 C 
HETATM   11  C10 UNL     1      13.238  14.775  18.494  1.00  0.00     0.034 C 
HETATM   12  C11 UNL     1      13.878  14.091  19.634  1.00  0.00     0.147 C 
HETATM   13  C12 UNL     1      14.649  14.822  20.646  1.00  0.00     0.156 C 
BRANCH  12  14
HETATM   14  O2  UNL     1      14.669  13.068  19.040  1.00  0.00    -0.393 OA
ATOM     15  H2  UNL     1      14.844  13.382  18.160  1.00  0.00     0.210 HD
ENDBRANCH  12  14
BRANCH  13  16
HETATM   16  O3  UNL     1      14.252  14.316  21.901  1.00  0.00    -0.392 OA
ATOM     17  H3  UNL     1      13.305  14.242  21.879  1.00  0.00     0.210 HD
ENDBRANCH  13  16
ENDBRANCH   7   8
BRANCH   1  18
HETATM   18  C1  UNL     1      16.030  17.066  23.199  1.00  0.00     0.145 C 
HETATM   19  N1  UNL     1      15.789  18.175  23.820  1.00  0.00    -0.379 N 
ATOM     20  H12 UNL     1      15.366  18.143  24.747  1.00  0.00     0.158 HD
ATOM     21  H11 UNL     1      16.058  19.012  23.301  1.00  0.00     0.158 HD
BRANCH  18  22
HETATM   22  O1  UNL     1      15.663  15.923  23.907  1.00  0.00    -0.346 OA
ATOM     23  H1  UNL     1      16.312  15.230  23.892  1.00  0.00     0.219 HD
ENDBRANCH  18  22
ENDBRANCH   1  18
TORSDOF 5
ENDMDL
MODEL 3
REMARK VINA RESULT: -7.360259177      2.176      2.886
REMARK  5 active torsions:
REMARK  status: ('A' for Active; 'I' for Inactive)
REMARK    1  A    between atoms: C1_4  and  O1_5 
REMARK    2  A    between atoms: C1_4  and  C2_7 
REMARK    3  A    between atoms: C6_13  and  C7_14 
REMARK    4  A    between atoms: C11_18  and  O2_19 
REMARK    5  A    between atoms: C12_21  and  O3_22 
ROOT
HETATM    1  C2  UNL     1      13.900  15.438  22.822  1.00  0.00     0.037 A 
HETATM    2  C3  UNL     1      13.807  14.339  23.665  1.00  0.00     0.019 A 
HETATM    3  C4  UNL     1      14.055  13.079  23.135  1.00  0.00     0.018 A 
HETATM    4  C5  UNL     1      14.386  12.881  21.823  1.00  0.00     0.088 A 
HETATM    5  N2  UNL     1      14.464  13.965  21.056  1.00  0.00    -0.368 N 
ATOM      6  H2  UNL     1      14.713  13.839  20.075  1.00  0.00     0.165 HD
HETATM    7  C6  UNL     1      14.231  15.237  21.499  1.00  0.00     0.030 A 
ENDROOT
BRANCH   7   8
HETATM    8  C7  UNL     1      14.238  16.352  20.521  1.00  0.00     0.068 C 
HETATM    9  C8  UNL     1      15.393  16.040  19.534  1.00  0.00     0.013 C 
HETATM   10  C9  UNL     1      15.227  16.828  18.260  1.00  0.00     0.004 C 
HETATM   11  C10 UNL     1      14.178  15.994  17.510  1.00  0.00     0.034 C 
HETATM   12  C11 UNL     1      12.936  16.198  18.279  1.00  0.00     0.147 C 
HETATM   13  C12 UNL     1      12.924  16.218  19.746  1.00  0.00     0.156 C 
BRANCH  12  14
HETATM   14  O2  UNL     1      12.041  15.209  17.782  1.00  0.00    -0.393 OA
ATOM     15  H2  UNL     1      12.372  15.000  16.916  1.00  0.00     0.210 HD
ENDBRANCH  12  14
BRANCH  13  16
HETATM   16  O3  UNL     1      12.114  17.308  20.128  1.00  0.00    -0.392 OA
ATOM     17  H3  UNL     1      11.217  17.067  19.928  1.00  0.00     0.210 HD
ENDBRANCH  13  16
ENDBRANCH   7   8
BRANCH   1  18
HETATM   18  C1  UNL     1      13.646  16.758  23.398  1.00  0.00     0.145 C 
HETATM   19  N1  UNL     1      14.615  17.388  23.980  1.00  0.00    -0.379 N 
ATOM     20  H12 UNL     1      14.438  18.308  24.382  1.00  0.00     0.158 HD
ATOM     21  H11 UNL     1      15.501  16.882  23.982  1.00  0.00     0.158 HD
BRANCH  18  22
HETATM   22  O1  UNL     1      12.435  17.449  23.396  1.00  0.00    -0.346 OA
ATOM     23  H1  UNL     1      12.525  18.392  23.334  1.00  0.00     0.219 HD
ENDBRANCH  18  22
ENDBRANCH   1  18
TORSDOF 5
ENDMDL
MODEL 4
REMARK VINA RESULT: -7.221823358      1.067      1.102
REMARK  5 active torsions:
REMARK  status: ('A' for Active; 'I' for Inactive)
REMARK    1  A    between atoms: C1_4  and  O1_5 
REMARK    2  A    between atoms: C1_4  and  C2_7 
REMARK    3  A    between atoms: C6_13  and  C7_14 
REMARK    4  A    between atoms: C11_18  and  O2_19 
REMARK    5  A    between atoms: C12_21  and  O3_22 
ROOT
HETATM    1  C2  UNL     1      14.963  16.214  22.368  1.00  0.00     0.037 A 
HETATM    2  C3  UNL     1      16.057  16.676  23.088  1.00  0.00     0.019 A 
HETATM    3  C4  UNL     1      17.143  17.181  22.384  1.00  0.00     0.018 A 
HETATM    4  C5  UNL     1      17.175  17.241  21.018  1.00  0.00     0.088 A 
HETATM    5  N2  UNL     1      16.104  16.788  20.375  1.00  0.00    -0.368 N 
ATOM      6  H2  UNL     1      16.107  16.828  19.355  1.00  0.00     0.165 HD
HETATM    7  C6  UNL     1      14.999  16.272  20.991  1.00  0.00     0.030 A 
ENDROOT
BRANCH   7   8
HETATM    8  C7  UNL     1      13.915  15.694  20.160  1.00  0.00     0.068 C 
HETATM    9  C8  UNL     1      12.997  16.884  19.776  1.00  0.00     0.013 C 
HETATM   10  C9  UNL     1      12.137  16.529  18.591  1.00  0.00     0.004 C 
HETATM   11  C10 UNL     1      13.113  16.728  17.423  1.00  0.00     0.034 C 
HETATM   12  C11 UNL     1      14.082  15.624  17.569  1.00  0.00     0.147 C 
HETATM   13  C12 UNL     1      14.600  15.212  18.879  1.00  0.00     0.156 C 
BRANCH  12  14
HETATM   14  O2  UNL     1      15.148  15.966  16.690  1.00  0.00    -0.393 OA
ATOM     15  H2  UNL     1      15.819  16.328  17.258  1.00  0.00     0.210 HD
ENDBRANCH  12  14
BRANCH  13  16
HETATM   16  O3  UNL     1      14.563  13.803  18.903  1.00  0.00    -0.392 OA
ATOM     17  H3  UNL     1      15.367  13.514  19.317  1.00  0.00     0.210 HD
ENDBRANCH  13  16
ENDBRANCH   7   8
BRANCH   1  18
HETATM   18  C1  UNL     1      13.824  15.694  23.124  1.00  0.00     0.145 C 
HETATM   19  N1  UNL     1      12.904  16.514  23.517  1.00  0.00    -0.379 N 
ATOM     20  H12 UNL     1      12.110  16.151  24.045  1.00  0.00     0.158 HD
ATOM     21  H11 UNL     1      13.067  17.485  23.252  1.00  0.00     0.158 HD
BRANCH  18  22
HETATM   22  O1  UNL     1      13.601  14.367  23.488  1.00  0.00    -0.346 OA
ATOM     23  H1  UNL     1      14.372  13.814  23.436  1.00  0.00     0.219 HD
ENDBRANCH  18  22
ENDBRANCH   1  18
TORSDOF 5
ENDMDL
MODEL 5
REMARK VINA RESULT: -6.830610991      3.581      5.050
REMARK  5 active torsions:
REMARK  status: ('A' for Active; 'I' for Inactive)
REMARK    1  A    between atoms: C1_4  and  O1_5 
REMARK    2  A    between atoms: C1_4  and  C2_7 
REMARK    3  A    between atoms: C6_13  and  C7_14 
REMARK    4  A    between atoms: C11_18  and  O2_19 
REMARK    5  A    between atoms: C12_21  and  O3_22 
ROOT
HETATM    1  C2  UNL     1      14.084  16.241  17.977  1.00  0.00     0.037 A 
HETATM    2  C3  UNL     1      14.784  16.228  19.176  1.00  0.00     0.019 A 
HETATM    3  C4  UNL     1      16.101  16.670  19.173  1.00  0.00     0.018 A 
HETATM    4  C5  UNL     1      16.730  17.115  18.043  1.00  0.00     0.088 A 
HETATM    5  N2  UNL     1      16.017  17.109  16.921  1.00  0.00    -0.368 N 
ATOM      6  H2  UNL     1      16.467  17.440  16.068  1.00  0.00     0.165 HD
HETATM    7  C6  UNL     1      14.720  16.687  16.838  1.00  0.00     0.030 A 
ENDROOT
BRANCH   7   8
HETATM    8  C7  UNL     1      14.068  16.621  15.508  1.00  0.00     0.068 C 
HETATM    9  C8  UNL     1      13.924  18.091  15.035  1.00  0.00     0.013 C 
HETATM   10  C9  UNL     1      13.701  18.150  13.546  1.00  0.00     0.004 C 
HETATM   11  C10 UNL     1      15.129  17.973  13.008  1.00  0.00     0.034 C 
HETATM   12  C11 UNL     1      15.461  16.569  13.316  1.00  0.00     0.147 C 
HETATM   13  C12 UNL     1      15.089  15.942  14.590  1.00  0.00     0.156 C 
BRANCH  12  14
HETATM   14  O2  UNL     1      16.864  16.477  13.101  1.00  0.00    -0.393 OA
ATOM     15  H2  UNL     1      17.232  16.356  13.969  1.00  0.00     0.210 HD
ENDBRANCH  12  14
BRANCH  13  16
HETATM   16  O3  UNL     1      14.571  14.668  14.278  1.00  0.00    -0.392 OA
ATOM     17  H3  UNL     1      14.341  14.683  13.356  1.00  0.00     0.210 HD
ENDBRANCH  13  16
ENDBRANCH   7   8
BRANCH   1  18
HETATM   18  C1  UNL     1      12.695  15.782  17.999  1.00  0.00     0.145 C 
HETATM   19  N1  UNL     1      12.453  14.518  18.136  1.00  0.00    -0.379 N 
ATOM     20  H12 UNL     1      11.485  14.198  18.151  1.00  0.00     0.158 HD
ATOM     21  H11 UNL     1      13.288  13.939  18.219  1.00  0.00     0.158 HD
BRANCH  18  22
HETATM   22  O1  UNL     1      11.554  16.574  17.884  1.00  0.00    -0.346 OA
ATOM     23  H1  UNL     1      11.723  17.462  17.593  1.00  0.00     0.219 HD
ENDBRANCH  18  22
ENDBRANCH   1  18
TORSDOF 5
ENDMDL
