MODEL 1
REMARK VINA RESULT: -7.577101533      0.000      0.000
REMARK  6 active torsions:
REMARK  status: ('A' for Active; 'I' for Inactive)
REMARK    1  A    between atoms: N1_1  and  C1_5 
REMARK    2  A    between atoms: C3_7  and  N2_8 
REMARK    3  A    between atoms: C3_7  and  C4_12 
REMARK    4  A    between atoms: C8_16  and  C9_17 
REMARK    5  A    between atoms: C9_17  and  O1_18 
REMARK    6  A    between atoms: N3_20  and  O2_22 
ROOT
HETATM    1  C4  UNL     1      14.767  15.713  19.959  1.00  0.00    -0.011 A 
HETATM    2  C5  UNL     1      15.990  16.313  19.950  1.00  0.00     0.010 A 
HETATM    3  C6  UNL     1      16.532  16.926  21.086  1.00  0.00     0.002 A 
HETATM    4  C7  UNL     1      15.748  16.885  22.216  1.00  0.00     0.016 A 
HETATM    5  C8  UNL     1      14.508  16.296  22.290  1.00  0.00     0.017 A 
HETATM    6  C10 UNL     1      14.041  15.715  21.137  1.00  0.00     0.026 A 
ENDROOT
BRANCH   1   7
HETATM    7  C3  UNL     1      14.171  15.024  18.796  1.00  0.00     0.203 C 
HETATM    8  C2  UNL     1      12.798  15.508  18.398  1.00  0.00     0.099 C 
HETATM    9  C1  UNL     1      13.335  16.675  17.585  1.00  0.00     0.250 C 
HETATM   10  S1  UNL     1      14.899  15.790  17.289  1.00  0.00    -0.093 SA
BRANCH   9  11
HETATM   11  N1  UNL     1      12.630  16.945  16.353  1.00  0.00    -0.066 N 
ATOM     12  H13 UNL     1      12.491  16.080  15.832  1.00  0.00     0.275 HD
ATOM     13  H12 UNL     1      11.660  17.194  16.551  1.00  0.00     0.275 HD
ATOM     14  H11 UNL     1      13.056  17.651  15.752  1.00  0.00     0.275 HD
ENDBRANCH   9  11
BRANCH   7  15
HETATM   15  N2  UNL     1      14.376  13.613  18.852  1.00  0.00    -0.057 N 
ATOM     16  H23 UNL     1      15.087  13.402  19.553  1.00  0.00     0.276 HD
ATOM     17  H22 UNL     1      13.559  13.169  19.270  1.00  0.00     0.276 HD
ATOM     18  H21 UNL     1      14.609  13.139  17.979  1.00  0.00     0.276 HD
ENDBRANCH   7  15
ENDBRANCH   1   7
BRANCH   5  19
HETATM   19  C9  UNL     1      13.715  16.253  23.509  1.00  0.00     0.170 C 
HETATM   20  N3  UNL     1      13.409  17.397  24.047  1.00  0.00    -0.247 N 
ATOM     21  H3  UNL     1      13.733  18.252  23.597  1.00  0.00     0.196 HD
BRANCH  19  22
HETATM   22  O1  UNL     1      13.333  15.027  24.031  1.00  0.00    -0.344 OA
ATOM     23  H1  UNL     1      12.469  14.930  24.412  1.00  0.00     0.219 HD
ENDBRANCH  19  22
BRANCH  20  24
HETATM   24  O2  UNL     1      12.668  17.497  25.194  1.00  0.00    -0.288 OA
ATOM     25  H2  UNL     1      12.056  18.207  25.347  1.00  0.00     0.244 HD
ENDBRANCH  20  24
ENDBRANCH   5  19
TORSDOF 6
ENDMDL
MODEL 2
REMARK VINA RESULT: -7.431084782      1.007      1.052
REMARK  6 active torsions:
REMARK  status: ('A' for Active; 'I' for Inactive)
REMARK    1  A    between atoms: N1_1  and  C1_5 
REMARK    2  A    between atoms: C3_7  and  N2_8 
REMARK    3  A    between atoms: C3_7  and  C4_12 
REMARK    4  A    between atoms: C8_16  and  C9_17 
REMARK    5  A    between atoms: C9_17  and  O1_18 
REMARK    6  A    between atoms: N3_20  and  O2_22 
ROOT
HETATM    1  C4  UNL     1      14.545  15.982  19.207  1.00  0.00    -0.011 A 
HETATM    2  C5  UNL     1      15.820  16.413  18.998  1.00  0.00     0.010 A 
HETATM    3  C6  UNL     1      16.639  16.860  20.041  1.00  0.00     0.002 A 
HETATM    4  C7  UNL     1      16.073  16.838  21.295  1.00  0.00     0.016 A 
HETATM    5  C8  UNL     1      14.795  16.415  21.571  1.00  0.00     0.017 A 
HETATM    6  C10 UNL     1      14.049  15.991  20.499  1.00  0.00     0.026 A 
ENDROOT
BRANCH   1   7
HETATM    7  C3  UNL     1      13.656  15.467  18.145  1.00  0.00     0.203 C 
HETATM    8  C2  UNL     1      12.456  16.330  17.838  1.00  0.00     0.099 C 
HETATM    9  C1  UNL     1      13.229  17.254  16.914  1.00  0.00     0.250 C 
HETATM   10  S1  UNL     1      14.422  15.931  16.536  1.00  0.00    -0.093 SA
BRANCH   9  11
HETATM   11  N1  UNL     1      12.516  17.686  15.733  1.00  0.00    -0.066 N 
ATOM     12  H13 UNL     1      12.385  18.697  15.753  1.00  0.00     0.275 HD
ATOM     13  H12 UNL     1      13.113  17.597  14.911  1.00  0.00     0.275 HD
ATOM     14  H11 UNL     1      11.623  17.221  15.569  1.00  0.00     0.275 HD
ENDBRANCH   9  11
BRANCH   7  15
HETATM   15  N2  UNL     1      13.438  14.063  18.268  1.00  0.00    -0.057 N 
ATOM     16  H23 UNL     1      14.018  13.695  19.023  1.00  0.00     0.276 HD
ATOM     17  H22 UNL     1      12.505  13.897  18.647  1.00  0.00     0.276 HD
ATOM     18  H21 UNL     1      13.569  13.494  17.431  1.00  0.00     0.276 HD
ENDBRANCH   7  15
ENDBRANCH   1   7
BRANCH   5  19
HETATM   19  C9  UNL     1      14.236  16.386  22.914  1.00  0.00     0.170 C 
HETATM   20  N3  UNL     1      13.026  16.841  23.053  1.00  0.00    -0.247 N 
ATOM     21  H3  UNL     1      12.536  17.190  22.229  1.00  0.00     0.196 HD
BRANCH  19  22
HETATM   22  O1  UNL     1      14.999  15.889  23.960  1.00  0.00    -0.344 OA
ATOM     23  H1  UNL     1      14.566  15.548  24.733  1.00  0.00     0.219 HD
ENDBRANCH  19  22
BRANCH  20  24
HETATM   24  O2  UNL     1      12.383  16.871  24.261  1.00  0.00    -0.288 OA
ATOM     25  H2  UNL     1      12.096  17.680  24.668  1.00  0.00     0.244 HD
ENDBRANCH  20  24
ENDBRANCH   5  19
TORSDOF 6
ENDMDL
MODEL 3
REMARK VINA RESULT: -7.294265687      1.382      1.664
REMARK  6 active torsions:
REMARK  status: ('A' for Active; 'I' for Inactive)
REMARK    1  A    between atoms: N1_1  and  C1_5 
REMARK    2  A    between atoms: C3_7  and  N2_8 
REMARK    3  A    between atoms: C3_7  and  C4_12 
REMARK    4  A    between atoms: C8_16  and  C9_17 
REMARK    5  A    between atoms: C9_17  and  O1_18 
REMARK    6  A    between atoms: N3_20  and  O2_22 
ROOT
HETATM    1  C4  UNL     1      15.353  16.071  19.202  1.00  0.00    -0.011 A 
HETATM    2  C5  UNL     1      16.510  16.646  18.770  1.00  0.00     0.010 A 
HETATM    3  C6  UNL     1      17.411  17.262  19.646  1.00  0.00     0.002 A 
HETATM    4  C7  UNL     1      17.053  17.252  20.974  1.00  0.00     0.016 A 
HETATM    5  C8  UNL     1      15.903  16.690  21.472  1.00  0.00     0.017 A 
HETATM    6  C10 UNL     1      15.065  16.104  20.555  1.00  0.00     0.026 A 
ENDROOT
BRANCH   1   7
HETATM    7  C3  UNL     1      14.389  15.379  18.322  1.00  0.00     0.203 C 
HETATM    8  C2  UNL     1      13.011  15.992  18.270  1.00  0.00     0.099 C 
HETATM    9  C1  UNL     1      13.401  17.030  17.231  1.00  0.00     0.250 C 
HETATM   10  S1  UNL     1      14.727  15.950  16.604  1.00  0.00    -0.093 SA
BRANCH   9  11
HETATM   11  N1  UNL     1      12.404  17.297  16.220  1.00  0.00    -0.066 N 
ATOM     12  H13 UNL     1      11.487  17.407  16.652  1.00  0.00     0.275 HD
ATOM     13  H12 UNL     1      12.535  18.234  15.837  1.00  0.00     0.275 HD
ATOM     14  H11 UNL     1      12.355  16.614  15.464  1.00  0.00     0.275 HD
ENDBRANCH   9  11
BRANCH   7  15
HETATM   15  N2  UNL     1      14.469  13.961  18.457  1.00  0.00    -0.057 N 
ATOM     16  H23 UNL     1      13.527  13.568  18.467  1.00  0.00     0.276 HD
ATOM     17  H22 UNL     1      14.834  13.558  17.595  1.00  0.00     0.276 HD
ATOM     18  H21 UNL     1      14.996  13.597  19.251  1.00  0.00     0.276 HD
ENDBRANCH   7  15
ENDBRANCH   1   7
BRANCH   5  19
HETATM   19  C9  UNL     1      15.566  16.680  22.888  1.00  0.00     0.170 C 
HETATM   20  N3  UNL     1      14.613  15.875  23.255  1.00  0.00    -0.247 N 
ATOM     21  H3  UNL     1      14.157  15.300  22.547  1.00  0.00     0.196 HD
BRANCH  19  22
HETATM   22  O1  UNL     1      16.256  17.509  23.759  1.00  0.00    -0.344 OA
ATOM     23  H1  UNL     1      17.057  17.929  23.468  1.00  0.00     0.219 HD
ENDBRANCH  19  22
BRANCH  20  24
HETATM   24  O2  UNL     1      14.199  15.769  24.556  1.00  0.00    -0.288 OA
ATOM     25  H2  UNL     1      13.727  15.011  24.882  1.00  0.00     0.244 HD
ENDBRANCH  20  24
ENDBRANCH   5  19
TORSDOF 6
ENDMDL
MODEL 4
REMARK VINA RESULT: -7.261912426      1.394      1.587
REMARK  6 active torsions:
REMARK  status: ('A' for Active; 'I' for Inactive)
REMARK    1  A    between atoms: N1_1  and  C1_5 
REMARK    2  A    between atoms: C3_7  and  N2_8 
REMARK    3  A    between atoms: C3_7  and  C4_12 
REMARK    4  A    between atoms: C8_16  and  C9_17 
REMARK    5  A    between atoms: C9_17  and  O1_18 
REMARK    6  A    between atoms: N3_20  and  O2_22 
ROOT
HETATM    1  C4  UNL     1      14.108  16.452  19.793  1.00  0.00    -0.011 A 
HETATM    2  C5  UNL     1      15.464  16.556  19.714  1.00  0.00     0.010 A 
HETATM    3  C6  UNL     1      16.279  16.595  20.851  1.00  0.00     0.002 A 
HETATM    4  C7  UNL     1      15.622  16.523  22.058  1.00  0.00     0.016 A 
HETATM    5  C8  UNL     1      14.260  16.418  22.205  1.00  0.00     0.017 A 
HETATM    6  C10 UNL     1      13.523  16.385  21.046  1.00  0.00     0.026 A 
ENDROOT
BRANCH   1   7
HETATM    7  C3  UNL     1      13.210  16.371  18.622  1.00  0.00     0.203 C 
HETATM    8  C2  UNL     1      13.799  16.870  17.326  1.00  0.00     0.099 C 
HETATM    9  C1  UNL     1      14.510  15.561  17.026  1.00  0.00     0.250 C 
HETATM   10  S1  UNL     1      13.287  14.636  18.009  1.00  0.00    -0.093 SA
BRANCH   9  11
HETATM   11  N1  UNL     1      14.499  15.156  15.640  1.00  0.00    -0.066 N 
ATOM     12  H13 UNL     1      14.477  15.977  15.035  1.00  0.00     0.275 HD
ATOM     13  H12 UNL     1      15.406  14.767  15.381  1.00  0.00     0.275 HD
ATOM     14  H11 UNL     1      13.755  14.509  15.379  1.00  0.00     0.275 HD
ENDBRANCH   9  11
BRANCH   7  15
HETATM   15  N2  UNL     1      11.883  16.786  18.940  1.00  0.00    -0.057 N 
ATOM     16  H23 UNL     1      11.535  16.236  19.726  1.00  0.00     0.276 HD
ATOM     17  H22 UNL     1      11.910  17.717  19.356  1.00  0.00     0.276 HD
ATOM     18  H21 UNL     1      11.196  16.773  18.186  1.00  0.00     0.276 HD
ENDBRANCH   7  15
ENDBRANCH   1   7
BRANCH   5  19
HETATM   19  C9  UNL     1      13.600  16.324  23.498  1.00  0.00     0.170 C 
HETATM   20  N3  UNL     1      13.299  17.445  24.084  1.00  0.00    -0.247 N 
ATOM     21  H3  UNL     1      13.536  18.320  23.616  1.00  0.00     0.196 HD
BRANCH  19  22
HETATM   22  O1  UNL     1      13.330  15.074  24.036  1.00  0.00    -0.344 OA
ATOM     23  H1  UNL     1      12.572  14.961  24.597  1.00  0.00     0.219 HD
ENDBRANCH  19  22
BRANCH  20  24
HETATM   24  O2  UNL     1      12.678  17.497  25.302  1.00  0.00    -0.288 OA
ATOM     25  H2  UNL     1      11.865  17.969  25.442  1.00  0.00     0.244 HD
ENDBRANCH  20  24
ENDBRANCH   5  19
TORSDOF 6
ENDMDL
MODEL 5
REMARK VINA RESULT: -7.204062437      2.718      3.101
REMARK  6 active torsions:
REMARK  status: ('A' for Active; 'I' for Inactive)
REMARK    1  A    between atoms: N1_1  and  C1_5 
REMARK    2  A    between atoms: C3_7  and  N2_8 
REMARK    3  A    between atoms: C3_7  and  C4_12 
REMARK    4  A    between atoms: C8_16  and  C9_17 
REMARK    5  A    between atoms: C9_17  and  O1_18 
REMARK    6  A    between atoms: N3_20  and  O2_22 
ROOT
HETATM    1  C4  UNL     1      14.834  16.534  19.323  1.00  0.00    -0.011 A 
HETATM    2  C5  UNL     1      15.710  16.725  18.297  1.00  0.00     0.010 A 
HETATM    3  C6  UNL     1      17.059  17.032  18.512  1.00  0.00     0.002 A 
HETATM    4  C7  UNL     1      17.445  17.130  19.829  1.00  0.00     0.016 A 
HETATM    5  C8  UNL     1      16.612  16.949  20.907  1.00  0.00     0.017 A 
HETATM    6  C10 UNL     1      15.302  16.650  20.620  1.00  0.00     0.026 A 
ENDROOT
BRANCH   1   7
HETATM    7  C3  UNL     1      13.412  16.173  19.146  1.00  0.00     0.203 C 
HETATM    8  C2  UNL     1      12.847  16.445  17.773  1.00  0.00     0.099 C 
HETATM    9  C1  UNL     1      13.377  15.147  17.187  1.00  0.00     0.250 C 
HETATM   10  S1  UNL     1      13.356  14.360  18.829  1.00  0.00    -0.093 SA
BRANCH   9  11
HETATM   11  N1  UNL     1      12.489  14.480  16.262  1.00  0.00    -0.066 N 
ATOM     12  H13 UNL     1      11.578  14.937  16.259  1.00  0.00     0.275 HD
ATOM     13  H12 UNL     1      12.783  14.660  15.302  1.00  0.00     0.275 HD
ATOM     14  H11 UNL     1      12.377  13.477  16.411  1.00  0.00     0.275 HD
ENDBRANCH   9  11
BRANCH   7  15
HETATM   15  N2  UNL     1      12.622  16.562  20.268  1.00  0.00    -0.057 N 
ATOM     16  H23 UNL     1      13.037  17.385  20.705  1.00  0.00     0.276 HD
ATOM     17  H22 UNL     1      11.736  16.946  19.940  1.00  0.00     0.276 HD
ATOM     18  H21 UNL     1      12.441  15.855  20.980  1.00  0.00     0.276 HD
ENDBRANCH   7  15
ENDBRANCH   1   7
BRANCH   5  19
HETATM   19  C9  UNL     1      17.060  17.040  22.288  1.00  0.00     0.170 C 
HETATM   20  N3  UNL     1      18.321  17.295  22.478  1.00  0.00    -0.247 N 
ATOM     21  H3  UNL     1      18.923  17.416  21.664  1.00  0.00     0.196 HD
BRANCH  19  22
HETATM   22  O1  UNL     1      16.146  16.854  23.314  1.00  0.00    -0.344 OA
ATOM     23  H1  UNL     1      15.649  16.046  23.356  1.00  0.00     0.219 HD
ENDBRANCH  19  22
BRANCH  20  24
HETATM   24  O2  UNL     1      18.871  17.406  23.726  1.00  0.00    -0.288 OA
ATOM     25  H2  UNL     1      18.385  17.207  24.518  1.00  0.00     0.244 HD
ENDBRANCH  20  24
ENDBRANCH   5  19
TORSDOF 6
ENDMDL
