MODEL 1
REMARK VINA RESULT: -7.069253054      0.000      0.000
REMARK  6 active torsions:
REMARK  status: ('A' for Active; 'I' for Inactive)
REMARK    1  A    between atoms: O1_1  and  C1_3 
REMARK    2  A    between atoms: C1_3  and  C2_4 
REMARK    3  A    between atoms: C2_4  and  N1_5 
REMARK    4  A    between atoms: C3_6  and  O2_7 
REMARK    5  A    between atoms: C6_11  and  O3_12 
REMARK    6  A    between atoms: C9_16  and  O4_17 
ROOT
HETATM    1  N1  UNL     1      17.338  17.262  20.068  1.00  0.00    -0.306 N 
HETATM    2  C3  UNL     1      16.493  16.939  19.067  1.00  0.00     0.151 A 
HETATM    3  C4  UNL     1      15.277  16.556  19.602  1.00  0.00     0.008 A 
HETATM    4  C5  UNL     1      15.415  16.660  20.974  1.00  0.00     0.008 A 
HETATM    5  C6  UNL     1      16.687  17.094  21.235  1.00  0.00     0.151 A 
HETATM    6  C7  UNL     1      14.134  16.262  21.638  1.00  0.00     0.026 C 
HETATM    7  C8  UNL     1      14.179  14.771  21.882  1.00  0.00     0.041 C 
HETATM    8  C9  UNL     1      14.562  14.057  20.618  1.00  0.00     0.119 C 
HETATM    9  C10 UNL     1      13.903  14.589  19.391  1.00  0.00     0.041 C 
HETATM   10  C11 UNL     1      13.901  16.087  19.324  1.00  0.00     0.026 C 
HETATM   11  C12 UNL     1      13.133  16.595  20.537  1.00  0.00     0.019 C 
ENDROOT
BRANCH   1  12
HETATM   12  C2  UNL     1      18.704  17.708  19.869  1.00  0.00     0.159 C 
BRANCH  12  13
HETATM   13  C1  UNL     1      19.570  16.946  20.853  1.00  0.00     0.184 C 
BRANCH  13  14
HETATM   14  O1  UNL     1      20.711  16.544  20.133  1.00  0.00    -0.399 OA
ATOM     15  H1  UNL     1      20.755  15.599  20.221  1.00  0.00     0.209 HD
ENDBRANCH  13  14
ENDBRANCH  12  13
ENDBRANCH   1  12
BRANCH   2  16
HETATM   16  O2  UNL     1      16.753  16.968  17.701  1.00  0.00    -0.345 OA
ATOM     17  H2  UNL     1      16.293  17.468  17.037  1.00  0.00     0.219 HD
ENDBRANCH   2  16
BRANCH   5  18
HETATM   18  O3  UNL     1      17.285  17.345  22.477  1.00  0.00    -0.345 OA
ATOM     19  H3  UNL     1      17.556  18.215  22.749  1.00  0.00     0.219 HD
ENDBRANCH   5  18
BRANCH   8  20
HETATM   20  O4  UNL     1      14.216  12.694  20.727  1.00  0.00    -0.396 OA
ATOM     21  H4  UNL     1      13.427  12.610  21.249  1.00  0.00     0.210 HD
ENDBRANCH   8  20
TORSDOF 6
ENDMDL
MODEL 2
REMARK VINA RESULT: -6.886269461      3.247      4.775
REMARK  6 active torsions:
REMARK  status: ('A' for Active; 'I' for Inactive)
REMARK    1  A    between atoms: O1_1  and  C1_3 
REMARK    2  A    between atoms: C1_3  and  C2_4 
REMARK    3  A    between atoms: C2_4  and  N1_5 
REMARK    4  A    between atoms: C3_6  and  O2_7 
REMARK    5  A    between atoms: C6_11  and  O3_12 
REMARK    6  A    between atoms: C9_16  and  O4_17 
ROOT
HETATM    1  N1  UNL     1      13.038  16.435  21.683  1.00  0.00    -0.306 N 
HETATM    2  C3  UNL     1      14.073  15.743  21.165  1.00  0.00     0.151 A 
HETATM    3  C4  UNL     1      14.148  15.982  19.806  1.00  0.00     0.008 A 
HETATM    4  C5  UNL     1      13.111  16.850  19.514  1.00  0.00     0.008 A 
HETATM    5  C6  UNL     1      12.445  17.113  20.681  1.00  0.00     0.151 A 
HETATM    6  C7  UNL     1      13.117  17.164  18.051  1.00  0.00     0.026 C 
HETATM    7  C8  UNL     1      12.269  16.130  17.348  1.00  0.00     0.041 C 
HETATM    8  C9  UNL     1      12.689  14.752  17.768  1.00  0.00     0.119 C 
HETATM    9  C10 UNL     1      14.166  14.563  17.858  1.00  0.00     0.041 C 
HETATM   10  C11 UNL     1      14.865  15.701  18.542  1.00  0.00     0.026 C 
HETATM   11  C12 UNL     1      14.594  16.957  17.727  1.00  0.00     0.019 C 
ENDROOT
BRANCH   1  12
HETATM   12  C2  UNL     1      12.666  16.417  23.085  1.00  0.00     0.159 C 
BRANCH  12  13
HETATM   13  C1  UNL     1      13.685  17.261  23.828  1.00  0.00     0.184 C 
BRANCH  13  14
HETATM   14  O1  UNL     1      13.004  17.805  24.933  1.00  0.00    -0.399 OA
ATOM     15  H1  UNL     1      13.627  18.374  25.369  1.00  0.00     0.209 HD
ENDBRANCH  13  14
ENDBRANCH  12  13
ENDBRANCH   1  12
BRANCH   2  16
HETATM   16  O2  UNL     1      14.956  14.910  21.846  1.00  0.00    -0.345 OA
ATOM     17  H2  UNL     1      15.304  14.076  21.552  1.00  0.00     0.219 HD
ENDBRANCH   2  16
BRANCH   5  18
HETATM   18  O3  UNL     1      11.329  17.935  20.881  1.00  0.00    -0.345 OA
ATOM     19  H3  UNL     1      11.036  18.201  21.746  1.00  0.00     0.219 HD
ENDBRANCH   5  18
BRANCH   8  20
HETATM   20  O4  UNL     1      12.199  13.809  16.840  1.00  0.00    -0.396 OA
ATOM     21  H4  UNL     1      12.491  12.940  17.089  1.00  0.00     0.210 HD
ENDBRANCH   8  20
TORSDOF 6
ENDMDL
MODEL 3
REMARK VINA RESULT: -6.764797800      1.815      2.084
REMARK  6 active torsions:
REMARK  status: ('A' for Active; 'I' for Inactive)
REMARK    1  A    between atoms: O1_1  and  C1_3 
REMARK    2  A    between atoms: C1_3  and  C2_4 
REMARK    3  A    between atoms: C2_4  and  N1_5 
REMARK    4  A    between atoms: C3_6  and  O2_7 
REMARK    5  A    between atoms: C6_11  and  O3_12 
REMARK    6  A    between atoms: C9_16  and  O4_17 
ROOT
HETATM    1  N1  UNL     1      16.564  17.093  17.587  1.00  0.00    -0.306 N 
HETATM    2  C3  UNL     1      15.343  16.759  17.120  1.00  0.00     0.151 A 
HETATM    3  C4  UNL     1      14.507  16.481  18.185  1.00  0.00     0.008 A 
HETATM    4  C5  UNL     1      15.271  16.658  19.325  1.00  0.00     0.008 A 
HETATM    5  C6  UNL     1      16.527  17.033  18.932  1.00  0.00     0.151 A 
HETATM    6  C7  UNL     1      14.438  16.375  20.536  1.00  0.00     0.026 C 
HETATM    7  C8  UNL     1      14.556  14.902  20.849  1.00  0.00     0.041 C 
HETATM    8  C9  UNL     1      14.290  14.092  19.613  1.00  0.00     0.119 C 
HETATM    9  C10 UNL     1      13.148  14.586  18.792  1.00  0.00     0.041 C 
HETATM   10  C11 UNL     1      13.150  16.076  18.615  1.00  0.00     0.026 C 
HETATM   11  C12 UNL     1      13.047  16.699  20.000  1.00  0.00     0.019 C 
ENDROOT
BRANCH   1  12
HETATM   12  C2  UNL     1      17.690  17.447  16.744  1.00  0.00     0.159 C 
BRANCH  12  13
HETATM   13  C1  UNL     1      18.790  17.954  17.657  1.00  0.00     0.184 C 
BRANCH  13  14
HETATM   14  O1  UNL     1      19.800  16.974  17.627  1.00  0.00    -0.399 OA
ATOM     15  H1  UNL     1      19.407  16.184  17.980  1.00  0.00     0.209 HD
ENDBRANCH  13  14
ENDBRANCH  12  13
ENDBRANCH   1  12
BRANCH   2  16
HETATM   16  O2  UNL     1      14.938  16.692  15.791  1.00  0.00    -0.345 OA
ATOM     17  H2  UNL     1      14.899  15.920  15.239  1.00  0.00     0.219 HD
ENDBRANCH   2  16
BRANCH   5  18
HETATM   18  O3  UNL     1      17.640  17.323  19.732  1.00  0.00    -0.345 OA
ATOM     19  H3  UNL     1      18.196  16.647  20.103  1.00  0.00     0.219 HD
ENDBRANCH   5  18
BRANCH   8  20
HETATM   20  O4  UNL     1      14.003  12.760  19.978  1.00  0.00    -0.396 OA
ATOM     21  H4  UNL     1      14.003  12.686  20.925  1.00  0.00     0.210 HD
ENDBRANCH   8  20
TORSDOF 6
ENDMDL
MODEL 4
REMARK VINA RESULT: -6.755066882      1.985      3.449
REMARK  6 active torsions:
REMARK  status: ('A' for Active; 'I' for Inactive)
REMARK    1  A    between atoms: O1_1  and  C1_3 
REMARK    2  A    between atoms: C1_3  and  C2_4 
REMARK    3  A    between atoms: C2_4  and  N1_5 
REMARK    4  A    between atoms: C3_6  and  O2_7 
REMARK    5  A    between atoms: C6_11  and  O3_12 
REMARK    6  A    between atoms: C9_16  and  O4_17 
ROOT
HETATM    1  N1  UNL     1      16.174  16.975  21.456  1.00  0.00    -0.306 N 
HETATM    2  C3  UNL     1      15.023  16.280  21.567  1.00  0.00     0.151 A 
HETATM    3  C4  UNL     1      14.701  15.732  20.339  1.00  0.00     0.008 A 
HETATM    4  C5  UNL     1      15.705  16.124  19.472  1.00  0.00     0.008 A 
HETATM    5  C6  UNL     1      16.596  16.885  20.180  1.00  0.00     0.151 A 
HETATM    6  C7  UNL     1      15.434  15.570  18.109  1.00  0.00     0.026 C 
HETATM    7  C8  UNL     1      14.584  16.569  17.360  1.00  0.00     0.041 C 
HETATM    8  C9  UNL     1      13.404  16.968  18.199  1.00  0.00     0.119 C 
HETATM    9  C10 UNL     1      12.756  15.835  18.921  1.00  0.00     0.041 C 
HETATM   10  C11 UNL     1      13.742  14.909  19.570  1.00  0.00     0.026 C 
HETATM   11  C12 UNL     1      14.618  14.332  18.467  1.00  0.00     0.019 C 
ENDROOT
BRANCH   1  12
HETATM   12  C2  UNL     1      16.806  17.683  22.553  1.00  0.00     0.159 C 
BRANCH  12  13
HETATM   13  C1  UNL     1      17.785  16.722  23.200  1.00  0.00     0.184 C 
BRANCH  13  14
HETATM   14  O1  UNL     1      18.858  17.511  23.654  1.00  0.00    -0.399 OA
ATOM     15  H1  UNL     1      19.325  16.977  24.287  1.00  0.00     0.209 HD
ENDBRANCH  13  14
ENDBRANCH  12  13
ENDBRANCH   1  12
BRANCH   2  16
HETATM   16  O2  UNL     1      14.247  16.109  22.709  1.00  0.00    -0.345 OA
ATOM     17  H2  UNL     1      14.278  15.386  23.324  1.00  0.00     0.219 HD
ENDBRANCH   2  16
BRANCH   5  18
HETATM   18  O3  UNL     1      17.770  17.500  19.727  1.00  0.00    -0.345 OA
ATOM     19  H3  UNL     1      18.501  17.009  19.370  1.00  0.00     0.219 HD
ENDBRANCH   5  18
BRANCH   8  20
HETATM   20  O4  UNL     1      12.423  17.561  17.376  1.00  0.00    -0.396 OA
ATOM     21  H4  UNL     1      12.087  18.341  17.800  1.00  0.00     0.210 HD
ENDBRANCH   8  20
TORSDOF 6
ENDMDL
MODEL 5
REMARK VINA RESULT: -6.688018905      2.965      4.142
REMARK  6 active torsions:
REMARK  status: ('A' for Active; 'I' for Inactive)
REMARK    1  A    between atoms: O1_1  and  C1_3 
REMARK    2  A    between atoms: C1_3  and  C2_4 
REMARK    3  A    between atoms: C2_4  and  N1_5 
REMARK    4  A    between atoms: C3_6  and  O2_7 
REMARK    5  A    between atoms: C6_11  and  O3_12 
REMARK    6  A    between atoms: C9_16  and  O4_17 
ROOT
HETATM    1  N1  UNL     1      15.393  16.880  15.734  1.00  0.00    -0.306 N 
HETATM    2  C3  UNL     1      14.121  16.434  15.786  1.00  0.00     0.151 A 
HETATM    3  C4  UNL     1      13.739  16.297  17.108  1.00  0.00     0.008 A 
HETATM    4  C5  UNL     1      14.835  16.679  17.862  1.00  0.00     0.008 A 
HETATM    5  C6  UNL     1      15.835  17.032  16.997  1.00  0.00     0.151 A 
HETATM    6  C7  UNL     1      14.506  16.561  19.317  1.00  0.00     0.026 C 
HETATM    7  C8  UNL     1      14.858  15.161  19.763  1.00  0.00     0.041 C 
HETATM    8  C9  UNL     1      14.250  14.158  18.827  1.00  0.00     0.119 C 
HETATM    9  C10 UNL     1      12.853  14.476  18.413  1.00  0.00     0.041 C 
HETATM   10  C11 UNL     1      12.660  15.918  18.047  1.00  0.00     0.026 C 
HETATM   11  C12 UNL     1      12.993  16.748  19.279  1.00  0.00     0.019 C 
ENDROOT
BRANCH   1  12
HETATM   12  C2  UNL     1      16.116  17.135  14.502  1.00  0.00     0.159 C 
BRANCH  12  13
HETATM   13  C1  UNL     1      16.026  18.625  14.232  1.00  0.00     0.184 C 
BRANCH  13  14
HETATM   14  O1  UNL     1      17.247  19.171  14.669  1.00  0.00    -0.399 OA
ATOM     15  H1  UNL     1      17.037  20.023  15.033  1.00  0.00     0.209 HD
ENDBRANCH  13  14
ENDBRANCH  12  13
ENDBRANCH   1  12
BRANCH   2  16
HETATM   16  O2  UNL     1      13.284  16.143  14.714  1.00  0.00    -0.345 OA
ATOM     17  H2  UNL     1      12.372  15.876  14.750  1.00  0.00     0.219 HD
ENDBRANCH   2  16
BRANCH   5  18
HETATM   18  O3  UNL     1      17.127  17.483  17.296  1.00  0.00    -0.345 OA
ATOM     19  H3  UNL     1      17.810  16.906  17.618  1.00  0.00     0.219 HD
ENDBRANCH   5  18
BRANCH   8  20
HETATM   20  O4  UNL     1      14.229  12.891  19.447  1.00  0.00    -0.396 OA
ATOM     21  H4  UNL     1      13.669  12.306  18.950  1.00  0.00     0.210 HD
ENDBRANCH   8  20
TORSDOF 6
ENDMDL
