MODEL 1
REMARK VINA RESULT: -7.913944361      0.000      0.000
REMARK  4 active torsions:
REMARK  status: ('A' for Active; 'I' for Inactive)
REMARK    1  A    between atoms: N2_9  and  C8_10 
REMARK    2  A    between atoms: C10_12  and  O1_13 
REMARK    3  A    between atoms: C11_15  and  C12_16 
REMARK    4  A    between atoms: C12_16  and  O2_17 
ROOT
HETATM    1  N1  UNL     1      14.160  16.135  22.082  1.00  0.00    -0.100 NA
HETATM    2  C1  UNL     1      15.419  16.567  21.592  1.00  0.00     0.074 A 
HETATM    3  C2  UNL     1      16.343  16.940  22.545  1.00  0.00     0.029 A 
HETATM    4  C3  UNL     1      17.586  17.371  22.137  1.00  0.00     0.003 A 
HETATM    5  C4  UNL     1      17.850  17.409  20.779  1.00  0.00     0.014 A 
HETATM    6  C5  UNL     1      16.911  17.031  19.842  1.00  0.00    -0.006 A 
HETATM    7  C6  UNL     1      16.958  16.991  18.465  1.00  0.00     0.031 A 
HETATM    8  C7  UNL     1      15.723  16.529  18.067  1.00  0.00     0.092 A 
HETATM    9  N2  UNL     1      14.926  16.286  19.133  1.00  0.00    -0.350 N 
HETATM   10  C14 UNL     1      15.640  16.589  20.232  1.00  0.00     0.069 A 
ENDROOT
BRANCH   9  11
HETATM   11  C8  UNL     1      13.568  15.797  19.126  1.00  0.00     0.092 C 
HETATM   12  C9  UNL     1      12.608  16.914  18.788  1.00  0.00     0.057 C 
HETATM   13  C10 UNL     1      12.195  16.737  17.347  1.00  0.00     0.126 C 
HETATM   14  C11 UNL     1      13.191  15.722  16.817  1.00  0.00     0.040 C 
HETATM   15  C13 UNL     1      13.354  14.820  17.996  1.00  0.00     0.035 C 
BRANCH  13  16
HETATM   16  O1  UNL     1      12.238  17.945  16.695  1.00  0.00    -0.395 OA
ATOM     17  H1  UNL     1      11.518  18.007  16.079  1.00  0.00     0.210 HD
ENDBRANCH  13  16
BRANCH  14  18
HETATM   18  C12 UNL     1      12.669  15.018  15.591  1.00  0.00     0.171 C 
BRANCH  18  19
HETATM   19  O2  UNL     1      11.373  15.519  15.367  1.00  0.00    -0.400 OA
ATOM     20  H2  UNL     1      11.452  16.465  15.344  1.00  0.00     0.209 HD
ENDBRANCH  18  19
ENDBRANCH  14  18
ENDBRANCH   9  11
TORSDOF 4
ENDMDL
MODEL 2
REMARK VINA RESULT: -7.602395565      3.593      4.876
REMARK  4 active torsions:
REMARK  status: ('A' for Active; 'I' for Inactive)
REMARK    1  A    between atoms: N2_9  and  C8_10 
REMARK    2  A    between atoms: C10_12  and  O1_13 
REMARK    3  A    between atoms: C11_15  and  C12_16 
REMARK    4  A    between atoms: C12_16  and  O2_17 
ROOT
HETATM    1  N1  UNL     1      15.604  16.043  17.824  1.00  0.00    -0.100 NA
HETATM    2  C1  UNL     1      16.689  16.700  18.461  1.00  0.00     0.074 A 
HETATM    3  C2  UNL     1      17.659  17.212  17.628  1.00  0.00     0.029 A 
HETATM    4  C3  UNL     1      18.741  17.862  18.182  1.00  0.00     0.003 A 
HETATM    5  C4  UNL     1      18.800  17.969  19.561  1.00  0.00     0.014 A 
HETATM    6  C5  UNL     1      17.817  17.449  20.376  1.00  0.00    -0.006 A 
HETATM    7  C6  UNL     1      17.678  17.441  21.748  1.00  0.00     0.031 A 
HETATM    8  C7  UNL     1      16.497  16.777  21.994  1.00  0.00     0.092 A 
HETATM    9  N2  UNL     1      15.911  16.380  20.841  1.00  0.00    -0.350 N 
HETATM   10  C14 UNL     1      16.709  16.785  19.837  1.00  0.00     0.069 A 
ENDROOT
BRANCH   9  11
HETATM   11  C8  UNL     1      14.670  15.659  20.684  1.00  0.00     0.092 C 
HETATM   12  C9  UNL     1      14.559  14.569  21.725  1.00  0.00     0.057 C 
HETATM   13  C10 UNL     1      13.611  15.057  22.794  1.00  0.00     0.126 C 
HETATM   14  C11 UNL     1      13.476  16.539  22.495  1.00  0.00     0.040 C 
HETATM   15  C13 UNL     1      13.489  16.545  21.003  1.00  0.00     0.035 C 
BRANCH  13  16
HETATM   16  O1  UNL     1      14.129  14.790  24.037  1.00  0.00    -0.395 OA
ATOM     17  H1  UNL     1      15.033  14.509  23.958  1.00  0.00     0.210 HD
ENDBRANCH  13  16
BRANCH  14  18
HETATM   18  C12 UNL     1      12.213  17.112  23.086  1.00  0.00     0.171 C 
BRANCH  18  19
HETATM   19  O2  UNL     1      12.512  17.438  24.422  1.00  0.00    -0.400 OA
ATOM     20  H2  UNL     1      13.051  16.731  24.756  1.00  0.00     0.209 HD
ENDBRANCH  18  19
ENDBRANCH  14  18
ENDBRANCH   9  11
TORSDOF 4
ENDMDL
MODEL 3
REMARK VINA RESULT: -7.581998303      1.408      2.685
REMARK  4 active torsions:
REMARK  status: ('A' for Active; 'I' for Inactive)
REMARK    1  A    between atoms: N2_9  and  C8_10 
REMARK    2  A    between atoms: C10_12  and  O1_13 
REMARK    3  A    between atoms: C11_15  and  C12_16 
REMARK    4  A    between atoms: C12_16  and  O2_17 
ROOT
HETATM    1  N1  UNL     1      17.665  17.006  19.465  1.00  0.00    -0.100 NA
HETATM    2  C1  UNL     1      17.066  16.988  20.751  1.00  0.00     0.074 A 
HETATM    3  C2  UNL     1      17.776  17.606  21.757  1.00  0.00     0.029 A 
HETATM    4  C3  UNL     1      17.252  17.624  23.032  1.00  0.00     0.003 A 
HETATM    5  C4  UNL     1      16.027  17.015  23.241  1.00  0.00     0.014 A 
HETATM    6  C5  UNL     1      15.333  16.402  22.219  1.00  0.00    -0.006 A 
HETATM    7  C6  UNL     1      14.120  15.746  22.204  1.00  0.00     0.031 A 
HETATM    8  C7  UNL     1      13.937  15.341  20.900  1.00  0.00     0.092 A 
HETATM    9  N2  UNL     1      14.978  15.717  20.122  1.00  0.00    -0.350 N 
HETATM   10  C14 UNL     1      15.844  16.370  20.916  1.00  0.00     0.069 A 
ENDROOT
BRANCH   9  11
HETATM   11  C8  UNL     1      15.154  15.479  18.709  1.00  0.00     0.092 C 
HETATM   12  C9  UNL     1      14.217  14.393  18.237  1.00  0.00     0.057 C 
HETATM   13  C10 UNL     1      13.071  15.063  17.516  1.00  0.00     0.126 C 
HETATM   14  C11 UNL     1      13.226  16.525  17.892  1.00  0.00     0.040 C 
HETATM   15  C13 UNL     1      14.711  16.675  17.902  1.00  0.00     0.035 C 
BRANCH  13  16
HETATM   16  O1  UNL     1      11.879  14.513  17.916  1.00  0.00    -0.395 OA
ATOM     17  H1  UNL     1      11.367  14.260  17.157  1.00  0.00     0.210 HD
ENDBRANCH  13  16
BRANCH  14  18
HETATM   18  C12 UNL     1      12.538  17.430  16.902  1.00  0.00     0.171 C 
BRANCH  18  19
HETATM   19  O2  UNL     1      11.476  16.685  16.355  1.00  0.00    -0.400 OA
ATOM     20  H2  UNL     1      11.143  17.191  15.624  1.00  0.00     0.209 HD
ENDBRANCH  18  19
ENDBRANCH  14  18
ENDBRANCH   9  11
TORSDOF 4
ENDMDL
MODEL 4
REMARK VINA RESULT: -7.244299228      1.782      3.294
REMARK  4 active torsions:
REMARK  status: ('A' for Active; 'I' for Inactive)
REMARK    1  A    between atoms: N2_9  and  C8_10 
REMARK    2  A    between atoms: C10_12  and  O1_13 
REMARK    3  A    between atoms: C11_15  and  C12_16 
REMARK    4  A    between atoms: C12_16  and  O2_17 
ROOT
HETATM    1  N1  UNL     1      16.945  17.210  16.946  1.00  0.00    -0.100 NA
HETATM    2  C1  UNL     1      16.389  16.945  18.224  1.00  0.00     0.074 A 
HETATM    3  C2  UNL     1      17.207  17.198  19.303  1.00  0.00     0.029 A 
HETATM    4  C3  UNL     1      16.730  16.961  20.574  1.00  0.00     0.003 A 
HETATM    5  C4  UNL     1      15.440  16.476  20.706  1.00  0.00     0.014 A 
HETATM    6  C5  UNL     1      14.638  16.230  19.612  1.00  0.00    -0.006 A 
HETATM    7  C6  UNL     1      13.348  15.754  19.513  1.00  0.00     0.031 A 
HETATM    8  C7  UNL     1      13.071  15.714  18.165  1.00  0.00     0.092 A 
HETATM    9  N2  UNL     1      14.129  16.142  17.437  1.00  0.00    -0.350 N 
HETATM   10  C14 UNL     1      15.100  16.462  18.310  1.00  0.00     0.069 A 
ENDROOT
BRANCH   9  11
HETATM   11  C8  UNL     1      14.228  16.245  16.001  1.00  0.00     0.092 C 
HETATM   12  C9  UNL     1      13.022  15.616  15.343  1.00  0.00     0.057 C 
HETATM   13  C10 UNL     1      12.109  16.735  14.903  1.00  0.00     0.126 C 
HETATM   14  C11 UNL     1      12.668  17.949  15.623  1.00  0.00     0.040 C 
HETATM   15  C13 UNL     1      14.135  17.685  15.557  1.00  0.00     0.035 C 
BRANCH  13  16
HETATM   16  O1  UNL     1      10.811  16.441  15.242  1.00  0.00    -0.395 OA
ATOM     17  H1  UNL     1      10.276  17.224  15.186  1.00  0.00     0.210 HD
ENDBRANCH  13  16
BRANCH  14  18
HETATM   18  C12 UNL     1      12.258  19.233  14.948  1.00  0.00     0.171 C 
BRANCH  18  19
HETATM   19  O2  UNL     1      11.169  18.914  14.115  1.00  0.00    -0.400 OA
ATOM     20  H2  UNL     1      10.941  19.712  13.654  1.00  0.00     0.209 HD
ENDBRANCH  18  19
ENDBRANCH  14  18
ENDBRANCH   9  11
TORSDOF 4
ENDMDL
MODEL 5
REMARK VINA RESULT: -7.072722439      3.118      5.478
REMARK  4 active torsions:
REMARK  status: ('A' for Active; 'I' for Inactive)
REMARK    1  A    between atoms: N2_9  and  C8_10 
REMARK    2  A    between atoms: C10_12  and  O1_13 
REMARK    3  A    between atoms: C11_15  and  C12_16 
REMARK    4  A    between atoms: C12_16  and  O2_17 
ROOT
HETATM    1  N1  UNL     1      11.438  16.898  15.655  1.00  0.00    -0.100 NA
HETATM    2  C1  UNL     1      12.722  17.281  15.190  1.00  0.00     0.074 A 
HETATM    3  C2  UNL     1      12.775  17.793  13.912  1.00  0.00     0.029 A 
HETATM    4  C3  UNL     1      13.992  18.183  13.398  1.00  0.00     0.003 A 
HETATM    5  C4  UNL     1      15.113  18.041  14.198  1.00  0.00     0.014 A 
HETATM    6  C5  UNL     1      15.038  17.526  15.475  1.00  0.00    -0.006 A 
HETATM    7  C6  UNL     1      16.008  17.300  16.428  1.00  0.00     0.031 A 
HETATM    8  C7  UNL     1      15.345  16.770  17.512  1.00  0.00     0.092 A 
HETATM    9  N2  UNL     1      14.018  16.662  17.266  1.00  0.00    -0.350 N 
HETATM   10  C14 UNL     1      13.813  17.122  16.019  1.00  0.00     0.069 A 
ENDROOT
BRANCH   9  11
HETATM   11  C8  UNL     1      12.996  16.156  18.150  1.00  0.00     0.092 C 
HETATM   12  C9  UNL     1      12.963  14.646  18.107  1.00  0.00     0.057 C 
HETATM   13  C10 UNL     1      13.649  14.141  19.355  1.00  0.00     0.126 C 
HETATM   14  C11 UNL     1      14.342  15.377  19.899  1.00  0.00     0.040 C 
HETATM   15  C13 UNL     1      13.341  16.440  19.592  1.00  0.00     0.035 C 
BRANCH  13  16
HETATM   16  O1  UNL     1      14.510  13.120  19.036  1.00  0.00    -0.395 OA
ATOM     17  H1  UNL     1      15.047  12.902  19.788  1.00  0.00     0.210 HD
ENDBRANCH  13  16
BRANCH  14  18
HETATM   18  C12 UNL     1      14.642  15.243  21.371  1.00  0.00     0.171 C 
BRANCH  18  19
HETATM   19  O2  UNL     1      14.211  13.957  21.748  1.00  0.00    -0.400 OA
ATOM     20  H2  UNL     1      13.621  13.660  21.065  1.00  0.00     0.209 HD
ENDBRANCH  18  19
ENDBRANCH  14  18
ENDBRANCH   9  11
TORSDOF 4
ENDMDL
