MODEL 1
REMARK VINA RESULT: -7.201865761      0.000      0.000
REMARK  6 active torsions:
REMARK  status: ('A' for Active; 'I' for Inactive)
REMARK    1  A    between atoms: O1_1  and  N1_3 
REMARK    2  A    between atoms: C1_5  and  O2_6 
REMARK    3  A    between atoms: C1_5  and  C2_8 
REMARK    4  A    between atoms: C2_8  and  O3_9 
REMARK    5  A    between atoms: C2_8  and  N2_11 
REMARK    6  A    between atoms: N2_11  and  C3_13 
ROOT
HETATM    1  N2  UNL     1      14.851  15.072  21.785  1.00  0.00    -0.338 N 
ATOM      2  H2  UNL     1      15.203  14.193  22.163  1.00  0.00     0.164 HD
ENDROOT
BRANCH   1   3
HETATM    3  C2  UNL     1      14.995  16.344  22.511  1.00  0.00     0.297 C 
BRANCH   3   4
HETATM    4  C1  UNL     1      13.960  16.357  23.552  1.00  0.00     0.185 C 
HETATM    5  N1  UNL     1      13.647  17.464  24.115  1.00  0.00    -0.247 N 
ATOM      6  H1  UNL     1      14.142  18.302  23.807  1.00  0.00     0.196 HD
BRANCH   5   7
HETATM    7  O1  UNL     1      12.715  17.613  25.082  1.00  0.00    -0.288 OA
ATOM      8  H1  UNL     1      12.401  18.444  25.420  1.00  0.00     0.244 HD
ENDBRANCH   5   7
BRANCH   4   9
HETATM    9  O2  UNL     1      13.328  15.192  23.924  1.00  0.00    -0.345 OA
ATOM     10  H2  UNL     1      12.735  14.760  23.320  1.00  0.00     0.219 HD
ENDBRANCH   4   9
ENDBRANCH   3   4
BRANCH   3  11
HETATM   11  O3  UNL     1      16.279  16.440  23.077  1.00  0.00    -0.369 OA
ATOM     12  H3  UNL     1      16.890  15.866  22.631  1.00  0.00     0.212 HD
ENDBRANCH   3  11
ENDBRANCH   1   3
BRANCH   1  13
HETATM   13  C3  UNL     1      14.246  15.135  20.626  1.00  0.00     0.147 A 
HETATM   14  N3  UNL     1      13.664  16.183  20.048  1.00  0.00    -0.339 N 
HETATM   15  C4  UNL     1      13.112  16.033  18.880  1.00  0.00     0.024 A 
ATOM     16  H3  UNL     1      13.653  17.090  20.514  1.00  0.00     0.168 HD
HETATM   17  C5  UNL     1      13.161  14.786  18.303  1.00  0.00     0.009 A 
HETATM   18  C9  UNL     1      12.386  17.051  18.001  1.00  0.00     0.058 C 
HETATM   19  S1  UNL     1      14.007  13.890  19.486  1.00  0.00    -0.057 SA
HETATM   20  C6  UNL     1      12.544  14.522  16.948  1.00  0.00     0.048 C 
HETATM   21  C7  UNL     1      12.721  15.665  16.014  1.00  0.00     0.006 C 
HETATM   22  C8  UNL     1      13.117  16.948  16.663  1.00  0.00     0.006 C 
ENDBRANCH   1  13
TORSDOF 6
ENDMDL
MODEL 2
REMARK VINA RESULT: -7.141067827      1.188      1.593
REMARK  6 active torsions:
REMARK  status: ('A' for Active; 'I' for Inactive)
REMARK    1  A    between atoms: O1_1  and  N1_3 
REMARK    2  A    between atoms: C1_5  and  O2_6 
REMARK    3  A    between atoms: C1_5  and  C2_8 
REMARK    4  A    between atoms: C2_8  and  O3_9 
REMARK    5  A    between atoms: C2_8  and  N2_11 
REMARK    6  A    between atoms: N2_11  and  C3_13 
ROOT
HETATM    1  N2  UNL     1      15.155  15.934  22.309  1.00  0.00    -0.338 N 
ATOM      2  H2  UNL     1      16.160  16.105  22.321  1.00  0.00     0.164 HD
ENDROOT
BRANCH   1   3
HETATM    3  C2  UNL     1      14.360  15.885  23.546  1.00  0.00     0.297 C 
BRANCH   3   4
HETATM    4  C1  UNL     1      14.293  17.259  24.061  1.00  0.00     0.185 C 
HETATM    5  N1  UNL     1      15.341  17.995  24.027  1.00  0.00    -0.247 N 
ATOM      6  H1  UNL     1      16.189  17.584  23.637  1.00  0.00     0.196 HD
BRANCH   5   7
HETATM    7  O1  UNL     1      15.414  19.272  24.467  1.00  0.00    -0.288 OA
ATOM      8  H1  UNL     1      15.782  20.000  23.981  1.00  0.00     0.244 HD
ENDBRANCH   5   7
BRANCH   4   9
HETATM    9  O2  UNL     1      13.118  17.756  24.576  1.00  0.00    -0.345 OA
ATOM     10  H2  UNL     1      12.370  17.894  24.006  1.00  0.00     0.219 HD
ENDBRANCH   4   9
ENDBRANCH   3   4
BRANCH   3  11
HETATM   11  O3  UNL     1      13.073  15.385  23.281  1.00  0.00    -0.369 OA
ATOM     12  H3  UNL     1      13.011  14.466  23.515  1.00  0.00     0.212 HD
ENDBRANCH   3  11
ENDBRANCH   1   3
BRANCH   1  13
HETATM   13  C3  UNL     1      14.497  15.744  21.193  1.00  0.00     0.147 A 
HETATM   14  N3  UNL     1      13.758  16.612  20.507  1.00  0.00    -0.339 N 
HETATM   15  C4  UNL     1      13.181  16.219  19.409  1.00  0.00     0.024 A 
ATOM     16  H3  UNL     1      13.646  17.570  20.836  1.00  0.00     0.168 HD
HETATM   17  C5  UNL     1      13.371  14.915  19.016  1.00  0.00     0.009 A 
HETATM   18  C9  UNL     1      12.290  16.993  18.439  1.00  0.00     0.058 C 
HETATM   19  S1  UNL     1      14.378  14.322  20.261  1.00  0.00    -0.057 SA
HETATM   20  C6  UNL     1      12.738  14.375  17.755  1.00  0.00     0.048 C 
HETATM   21  C7  UNL     1      12.721  15.376  16.656  1.00  0.00     0.006 C 
HETATM   22  C8  UNL     1      12.970  16.782  17.087  1.00  0.00     0.006 C 
ENDBRANCH   1  13
TORSDOF 6
ENDMDL
MODEL 3
REMARK VINA RESULT: -7.073018006      1.157      1.499
REMARK  6 active torsions:
REMARK  status: ('A' for Active; 'I' for Inactive)
REMARK    1  A    between atoms: O1_1  and  N1_3 
REMARK    2  A    between atoms: C1_5  and  O2_6 
REMARK    3  A    between atoms: C1_5  and  C2_8 
REMARK    4  A    between atoms: C2_8  and  O3_9 
REMARK    5  A    between atoms: C2_8  and  N2_11 
REMARK    6  A    between atoms: N2_11  and  C3_13 
ROOT
HETATM    1  N2  UNL     1      15.090  15.361  21.896  1.00  0.00    -0.338 N 
ATOM      2  H2  UNL     1      15.195  14.404  22.230  1.00  0.00     0.164 HD
ENDROOT
BRANCH   1   3
HETATM    3  C2  UNL     1      15.214  16.518  22.797  1.00  0.00     0.297 C 
BRANCH   3   4
HETATM    4  C1  UNL     1      14.030  16.507  23.666  1.00  0.00     0.185 C 
HETATM    5  N1  UNL     1      13.714  17.567  24.311  1.00  0.00    -0.247 N 
ATOM      6  H1  UNL     1      14.310  18.385  24.189  1.00  0.00     0.196 HD
BRANCH   5   7
HETATM    7  O1  UNL     1      12.653  17.689  25.141  1.00  0.00    -0.288 OA
ATOM      8  H1  UNL     1      12.067  16.984  25.391  1.00  0.00     0.244 HD
ENDBRANCH   5   7
BRANCH   4   9
HETATM    9  O2  UNL     1      13.264  15.370  23.788  1.00  0.00    -0.345 OA
ATOM     10  H2  UNL     1      13.504  14.701  24.418  1.00  0.00     0.219 HD
ENDBRANCH   4   9
ENDBRANCH   3   4
BRANCH   3  11
HETATM   11  O3  UNL     1      16.394  16.423  23.555  1.00  0.00    -0.369 OA
ATOM     12  H3  UNL     1      16.637  17.269  23.912  1.00  0.00     0.212 HD
ENDBRANCH   3  11
ENDBRANCH   1   3
BRANCH   1  13
HETATM   13  C3  UNL     1      14.838  15.633  20.640  1.00  0.00     0.147 A 
HETATM   14  N3  UNL     1      13.794  15.263  19.904  1.00  0.00    -0.339 N 
HETATM   15  C4  UNL     1      13.733  15.643  18.660  1.00  0.00     0.024 A 
ATOM     16  H3  UNL     1      13.053  14.691  20.307  1.00  0.00     0.168 HD
HETATM   17  C5  UNL     1      14.763  16.412  18.174  1.00  0.00     0.009 A 
HETATM   18  C9  UNL     1      12.666  15.366  17.602  1.00  0.00     0.058 C 
HETATM   19  S1  UNL     1      15.771  16.548  19.546  1.00  0.00    -0.057 SA
HETATM   20  C6  UNL     1      14.774  16.897  16.742  1.00  0.00     0.048 C 
HETATM   21  C7  UNL     1      13.417  17.267  16.260  1.00  0.00     0.006 C 
HETATM   22  C8  UNL     1      12.294  16.761  17.102  1.00  0.00     0.006 C 
ENDBRANCH   1  13
TORSDOF 6
ENDMDL
MODEL 4
REMARK VINA RESULT: -7.038825677      1.653      2.119
REMARK  6 active torsions:
REMARK  status: ('A' for Active; 'I' for Inactive)
REMARK    1  A    between atoms: O1_1  and  N1_3 
REMARK    2  A    between atoms: C1_5  and  O2_6 
REMARK    3  A    between atoms: C1_5  and  C2_8 
REMARK    4  A    between atoms: C2_8  and  O3_9 
REMARK    5  A    between atoms: C2_8  and  N2_11 
REMARK    6  A    between atoms: N2_11  and  C3_13 
ROOT
HETATM    1  N2  UNL     1      12.813  16.591  22.129  1.00  0.00    -0.338 N 
ATOM      2  H2  UNL     1      11.870  16.886  22.383  1.00  0.00     0.164 HD
ENDROOT
BRANCH   1   3
HETATM    3  C2  UNL     1      13.820  16.247  23.145  1.00  0.00     0.297 C 
BRANCH   3   4
HETATM    4  C1  UNL     1      13.968  17.423  24.011  1.00  0.00     0.185 C 
HETATM    5  N1  UNL     1      15.049  18.108  23.962  1.00  0.00    -0.247 N 
ATOM      6  H1  UNL     1      15.771  17.798  23.312  1.00  0.00     0.196 HD
BRANCH   5   7
HETATM    7  O1  UNL     1      15.311  19.209  24.703  1.00  0.00    -0.288 OA
ATOM      8  H1  UNL     1      15.127  20.103  24.441  1.00  0.00     0.244 HD
ENDBRANCH   5   7
BRANCH   4   9
HETATM    9  O2  UNL     1      12.956  17.792  24.868  1.00  0.00    -0.345 OA
ATOM     10  H2  UNL     1      12.298  17.158  25.127  1.00  0.00     0.219 HD
ENDBRANCH   4   9
ENDBRANCH   3   4
BRANCH   3  11
HETATM   11  O3  UNL     1      13.404  15.127  23.886  1.00  0.00    -0.369 OA
ATOM     12  H3  UNL     1      12.552  15.277  24.279  1.00  0.00     0.212 HD
ENDBRANCH   3  11
ENDBRANCH   1   3
BRANCH   1  13
HETATM   13  C3  UNL     1      13.196  16.496  20.881  1.00  0.00     0.147 A 
HETATM   14  N3  UNL     1      12.455  16.546  19.778  1.00  0.00    -0.339 N 
HETATM   15  C4  UNL     1      13.037  16.430  18.620  1.00  0.00     0.024 A 
ATOM     16  H3  UNL     1      11.445  16.674  19.839  1.00  0.00     0.168 HD
HETATM   17  C5  UNL     1      14.401  16.261  18.603  1.00  0.00     0.009 A 
HETATM   18  C9  UNL     1      12.438  16.451  17.215  1.00  0.00     0.058 C 
HETATM   19  S1  UNL     1      14.773  16.278  20.271  1.00  0.00    -0.057 SA
HETATM   20  C6  UNL     1      15.159  16.118  17.304  1.00  0.00     0.048 C 
HETATM   21  C7  UNL     1      14.610  16.987  16.230  1.00  0.00     0.006 C 
HETATM   22  C8  UNL     1      13.248  17.531  16.500  1.00  0.00     0.006 C 
ENDBRANCH   1  13
TORSDOF 6
ENDMDL
MODEL 5
REMARK VINA RESULT: -6.987766969      1.643      1.769
REMARK  6 active torsions:
REMARK  status: ('A' for Active; 'I' for Inactive)
REMARK    1  A    between atoms: O1_1  and  N1_3 
REMARK    2  A    between atoms: C1_5  and  O2_6 
REMARK    3  A    between atoms: C1_5  and  C2_8 
REMARK    4  A    between atoms: C2_8  and  O3_9 
REMARK    5  A    between atoms: C2_8  and  N2_11 
REMARK    6  A    between atoms: N2_11  and  C3_13 
ROOT
HETATM    1  N2  UNL     1      15.310  16.580  21.777  1.00  0.00    -0.338 N 
ATOM      2  H2  UNL     1      16.001  17.240  22.134  1.00  0.00     0.164 HD
ENDROOT
BRANCH   1   3
HETATM    3  C2  UNL     1      14.617  15.627  22.658  1.00  0.00     0.297 C 
BRANCH   3   4
HETATM    4  C1  UNL     1      13.519  16.362  23.299  1.00  0.00     0.185 C 
HETATM    5  N1  UNL     1      13.751  17.038  24.362  1.00  0.00    -0.247 N 
ATOM      6  H1  UNL     1      14.705  17.033  24.721  1.00  0.00     0.196 HD
BRANCH   5   7
HETATM    7  O1  UNL     1      12.833  17.757  25.047  1.00  0.00    -0.288 OA
ATOM      8  H1  UNL     1      12.849  17.920  25.982  1.00  0.00     0.244 HD
ENDBRANCH   5   7
BRANCH   4   9
HETATM    9  O2  UNL     1      12.251  16.330  22.765  1.00  0.00    -0.345 OA
ATOM     10  H2  UNL     1      11.975  15.588  22.240  1.00  0.00     0.219 HD
ENDBRANCH   4   9
ENDBRANCH   3   4
BRANCH   3  11
HETATM   11  O3  UNL     1      14.126  14.541  21.913  1.00  0.00    -0.369 OA
ATOM     12  H3  UNL     1      13.974  13.787  22.471  1.00  0.00     0.212 HD
ENDBRANCH   3  11
ENDBRANCH   1   3
BRANCH   1  13
HETATM   13  C3  UNL     1      14.987  16.533  20.509  1.00  0.00     0.147 A 
HETATM   14  N3  UNL     1      13.776  16.513  19.960  1.00  0.00    -0.339 N 
HETATM   15  C4  UNL     1      13.671  16.464  18.664  1.00  0.00     0.024 A 
ATOM     16  H3  UNL     1      12.941  16.535  20.546  1.00  0.00     0.168 HD
HETATM   17  C5  UNL     1      14.832  16.437  17.928  1.00  0.00     0.009 A 
HETATM   18  C9  UNL     1      12.424  16.431  17.782  1.00  0.00     0.058 C 
HETATM   19  S1  UNL     1      16.020  16.482  19.154  1.00  0.00    -0.057 SA
HETATM   20  C6  UNL     1      14.803  16.380  16.418  1.00  0.00     0.048 C 
HETATM   21  C7  UNL     1      13.701  17.194  15.842  1.00  0.00     0.006 C 
HETATM   22  C8  UNL     1      12.643  17.593  16.815  1.00  0.00     0.006 C 
ENDBRANCH   1  13
TORSDOF 6
ENDMDL
