MODEL 1
REMARK VINA RESULT: -7.715529131      0.000      0.000
REMARK  10 active torsions:
REMARK  status: ('A' for Active; 'I' for Inactive)
REMARK    1  A    between atoms: C2_2  and  C3_3 
REMARK    2  A    between atoms: C3_3  and  C4_4 
REMARK    3  A    between atoms: C5_9  and  N3_10 
REMARK    4  A    between atoms: N3_10  and  C7_12 
REMARK    5  A    between atoms: C7_12  and  C8_13 
REMARK    6  A    between atoms: C8_13  and  C9_14 
REMARK    7  A    between atoms: C9_14  and  C10_15 
REMARK    8  A    between atoms: C10_15  and  C11_16 
REMARK    9  A    between atoms: C18_34  and  O2_35 
REMARK   10  A    between atoms: C19_37  and  C20_38 
ROOT
HETATM    1  C4  UNL     1      -9.913  47.639  24.705  1.00  0.00     0.042 A 
HETATM    2  N1  UNL     1      -8.852  46.846  24.353  1.00  0.00    -0.302 N 
ATOM      3  H1  UNL     1      -8.475  46.203  25.049  1.00  0.00     0.186 HD
HETATM    4  N2  UNL     1      -8.319  46.871  23.209  1.00  0.00    -0.285 N 
ATOM      5  H2  UNL     1      -7.533  46.243  23.035  1.00  0.00     0.188 HD
HETATM    6  C5  UNL     1      -8.740  47.714  22.150  1.00  0.00     0.130 A 
HETATM    7  C12 UNL     1      -9.751  48.520  22.443  1.00  0.00     0.043 A 
HETATM    8  C13 UNL     1     -10.357  48.473  23.747  1.00  0.00     0.071 A 
HETATM    9  C14 UNL     1     -11.467  49.237  23.967  1.00  0.00     0.259 A 
HETATM   10  O1  UNL     1     -12.038  49.241  25.071  1.00  0.00    -0.267 OA
HETATM   11  N8  UNL     1     -11.983  50.012  23.021  1.00  0.00    -0.321 N 
ATOM     12  H8  UNL     1     -12.819  50.557  23.228  1.00  0.00     0.169 HD
HETATM   13  C15 UNL     1     -11.429  50.096  21.794  1.00  0.00     0.059 A 
HETATM   14  C16 UNL     1     -11.934  50.986  20.902  1.00  0.00     0.000 A 
HETATM   15  C17 UNL     1     -13.152  51.739  21.247  1.00  0.00     0.054 C 
HETATM   16  C18 UNL     1     -11.308  51.169  19.701  1.00  0.00     0.091 A 
HETATM   17  C19 UNL     1     -10.183  50.472  19.396  1.00  0.00     0.092 A 
HETATM   18  C24 UNL     1      -9.643  49.542  20.301  1.00  0.00     0.202 A 
HETATM   19  O3  UNL     1      -8.544  49.024  19.844  1.00  0.00    -0.286 OA
HETATM   20  C25 UNL     1     -10.289  49.353  21.483  1.00  0.00     0.058 A 
ENDROOT
BRANCH   6  21
HETATM   21  N3  UNL     1      -8.183  47.185  21.014  1.00  0.00    -0.370 N 
HETATM   22  C6  UNL     1      -8.742  46.178  20.087  1.00  0.00     0.151 C 
BRANCH  21  23
HETATM   23  C7  UNL     1      -6.718  47.354  20.804  1.00  0.00     0.124 C 
BRANCH  23  24
HETATM   24  C8  UNL     1      -6.259  46.367  19.805  1.00  0.00     0.020 C 
BRANCH  24  25
HETATM   25  C9  UNL     1      -5.258  47.131  18.918  1.00  0.00     0.009 C 
BRANCH  25  26
HETATM   26  C10 UNL     1      -5.774  48.476  18.560  1.00  0.00     0.079 C 
BRANCH  26  27
HETATM   27  C11 UNL     1      -5.943  48.575  17.088  1.00  0.00     0.112 A 
HETATM   28  N4  UNL     1      -6.822  48.004  16.275  1.00  0.00    -0.272 N 
HETATM   29  N5  UNL     1      -6.553  48.407  15.049  1.00  0.00    -0.227 N 
ATOM     30  H4  UNL     1      -7.570  47.368  16.549  1.00  0.00     0.190 HD
HETATM   31  N6  UNL     1      -5.534  49.216  15.056  1.00  0.00    -0.227 N 
ATOM     32  H5  UNL     1      -7.069  48.126  14.215  1.00  0.00     0.210 HD
HETATM   33  N7  UNL     1      -5.138  49.335  16.309  1.00  0.00    -0.272 N 
ATOM     34  H6  UNL     1      -5.118  49.672  14.244  1.00  0.00     0.210 HD
ATOM     35  H7  UNL     1      -4.356  49.904  16.635  1.00  0.00     0.190 HD
ENDBRANCH  26  27
ENDBRANCH  25  26
ENDBRANCH  24  25
ENDBRANCH  23  24
ENDBRANCH  21  23
ENDBRANCH   6  21
BRANCH   1  36
HETATM   36  C3  UNL     1     -10.514  47.460  26.017  1.00  0.00     0.059 C 
BRANCH  36  37
HETATM   37  C2  UNL     1     -10.973  46.059  26.355  1.00  0.00     0.002 C 
HETATM   38  C1  UNL     1     -12.119  45.649  25.395  1.00  0.00     0.005 C 
ENDBRANCH  36  37
ENDBRANCH   1  36
BRANCH  17  39
HETATM   39  C20 UNL     1      -9.509  50.663  18.114  1.00  0.00     0.114 C 
HETATM   40  N9  UNL     1      -8.604  51.489  17.888  1.00  0.00    -0.376 N 
HETATM   41  C21 UNL     1      -7.938  51.687  16.649  1.00  0.00     0.123 C 
ATOM     42  H9  UNL     1      -8.313  52.080  18.667  1.00  0.00     0.161 HD
HETATM   43  C22 UNL     1      -8.607  51.112  15.454  1.00  0.00     0.039 C 
HETATM   44  C23 UNL     1      -9.867  50.355  15.691  1.00  0.00     0.123 C 
HETATM   45  N10 UNL     1      -9.965  49.832  17.037  1.00  0.00    -0.376 N 
ATOM     46  H10 UNL     1     -10.346  48.903  17.214  1.00  0.00     0.161 HD
ENDBRANCH  17  39
BRANCH  16  47
HETATM   47  O2  UNL     1     -11.839  52.076  18.795  1.00  0.00    -0.359 OA
ATOM     48  H2  UNL     1     -11.376  52.242  17.982  1.00  0.00     0.217 HD
ENDBRANCH  16  47
TORSDOF 10
ENDMDL
MODEL 2
REMARK VINA RESULT: -7.291399615      2.825      6.019
REMARK  10 active torsions:
REMARK  status: ('A' for Active; 'I' for Inactive)
REMARK    1  A    between atoms: C2_2  and  C3_3 
REMARK    2  A    between atoms: C3_3  and  C4_4 
REMARK    3  A    between atoms: C5_9  and  N3_10 
REMARK    4  A    between atoms: N3_10  and  C7_12 
REMARK    5  A    between atoms: C7_12  and  C8_13 
REMARK    6  A    between atoms: C8_13  and  C9_14 
REMARK    7  A    between atoms: C9_14  and  C10_15 
REMARK    8  A    between atoms: C10_15  and  C11_16 
REMARK    9  A    between atoms: C18_34  and  O2_35 
REMARK   10  A    between atoms: C19_37  and  C20_38 
ROOT
HETATM    1  C4  UNL     1      -9.679  48.042  21.596  1.00  0.00     0.042 A 
HETATM    2  N1  UNL     1     -10.803  48.820  21.485  1.00  0.00    -0.302 N 
ATOM      3  H1  UNL     1     -11.518  48.744  22.207  1.00  0.00     0.186 HD
HETATM    4  N2  UNL     1     -10.996  49.625  20.532  1.00  0.00    -0.285 N 
ATOM      5  H2  UNL     1     -11.862  50.164  20.531  1.00  0.00     0.188 HD
HETATM    6  C5  UNL     1     -10.089  49.829  19.463  1.00  0.00     0.130 A 
HETATM    7  C12 UNL     1      -8.991  49.086  19.508  1.00  0.00     0.043 A 
HETATM    8  C13 UNL     1      -8.778  48.180  20.606  1.00  0.00     0.071 A 
HETATM    9  C14 UNL     1      -7.585  47.521  20.671  1.00  0.00     0.259 A 
HETATM   10  O1  UNL     1      -7.337  46.726  21.594  1.00  0.00    -0.267 OA
HETATM   11  N8  UNL     1      -6.639  47.692  19.756  1.00  0.00    -0.321 N 
ATOM     12  H8  UNL     1      -5.758  47.186  19.852  1.00  0.00     0.169 HD
HETATM   13  C15 UNL     1      -6.812  48.517  18.703  1.00  0.00     0.059 A 
HETATM   14  C16 UNL     1      -5.855  48.568  17.742  1.00  0.00     0.000 A 
HETATM   15  C17 UNL     1      -4.597  47.828  17.937  1.00  0.00     0.054 C 
HETATM   16  C18 UNL     1      -6.073  49.306  16.611  1.00  0.00     0.091 A 
HETATM   17  C19 UNL     1      -7.238  49.980  16.441  1.00  0.00     0.092 A 
HETATM   18  C24 UNL     1      -8.243  49.946  17.423  1.00  0.00     0.202 A 
HETATM   19  O3  UNL     1      -9.293  50.610  17.047  1.00  0.00    -0.286 OA
HETATM   20  C25 UNL     1      -8.004  49.226  18.554  1.00  0.00     0.058 A 
ENDROOT
BRANCH   6  21
HETATM   21  N3  UNL     1     -10.471  51.007  18.874  1.00  0.00    -0.370 N 
HETATM   22  C6  UNL     1     -10.191  52.393  19.302  1.00  0.00     0.151 C 
BRANCH  21  23
HETATM   23  C7  UNL     1     -11.568  50.966  17.867  1.00  0.00     0.124 C 
BRANCH  23  24
HETATM   24  C8  UNL     1     -12.661  51.856  18.312  1.00  0.00     0.020 C 
BRANCH  24  25
HETATM   25  C9  UNL     1     -13.956  51.066  18.044  1.00  0.00     0.009 C 
BRANCH  25  26
HETATM   26  C10 UNL     1     -13.700  49.603  18.035  1.00  0.00     0.079 C 
BRANCH  26  27
HETATM   27  C11 UNL     1     -14.312  48.994  16.827  1.00  0.00     0.112 A 
HETATM   28  N4  UNL     1     -15.502  48.437  16.643  1.00  0.00    -0.272 N 
HETATM   29  N5  UNL     1     -15.568  48.040  15.387  1.00  0.00    -0.227 N 
ATOM     30  H4  UNL     1     -16.234  48.335  17.346  1.00  0.00     0.190 HD
HETATM   31  N6  UNL     1     -14.460  48.325  14.768  1.00  0.00    -0.227 N 
ATOM     32  H5  UNL     1     -16.371  47.575  14.963  1.00  0.00     0.210 HD
HETATM   33  N7  UNL     1     -13.666  48.917  15.639  1.00  0.00    -0.272 N 
ATOM     34  H6  UNL     1     -14.246  48.128  13.791  1.00  0.00     0.210 HD
ATOM     35  H7  UNL     1     -12.723  49.258  15.451  1.00  0.00     0.190 HD
ENDBRANCH  26  27
ENDBRANCH  25  26
ENDBRANCH  24  25
ENDBRANCH  23  24
ENDBRANCH  21  23
ENDBRANCH   6  21
BRANCH   1  36
HETATM   36  C3  UNL     1      -9.512  47.222  22.784  1.00  0.00     0.059 C 
BRANCH  36  37
HETATM   37  C2  UNL     1      -9.577  47.947  24.110  1.00  0.00     0.002 C 
HETATM   38  C1  UNL     1      -9.588  46.910  25.262  1.00  0.00     0.005 C 
ENDBRANCH  36  37
ENDBRANCH   1  36
BRANCH  17  39
HETATM   39  C20 UNL     1      -7.477  50.770  15.234  1.00  0.00     0.114 C 
HETATM   40  N9  UNL     1      -7.858  50.318  14.137  1.00  0.00    -0.376 N 
HETATM   41  C21 UNL     1      -8.095  51.071  12.957  1.00  0.00     0.123 C 
ATOM     42  H9  UNL     1      -8.015  49.312  14.082  1.00  0.00     0.161 HD
HETATM   43  C22 UNL     1      -7.514  52.437  12.931  1.00  0.00     0.039 C 
HETATM   44  C23 UNL     1      -6.795  52.883  14.156  1.00  0.00     0.123 C 
HETATM   45  N10 UNL     1      -7.219  52.177  15.346  1.00  0.00    -0.376 N 
ATOM     46  H10 UNL     1      -7.331  52.664  16.235  1.00  0.00     0.161 HD
ENDBRANCH  17  39
BRANCH  16  47
HETATM   47  O2  UNL     1      -5.083  49.356  15.639  1.00  0.00    -0.359 OA
ATOM     48  H2  UNL     1      -4.909  48.582  15.117  1.00  0.00     0.217 HD
ENDBRANCH  16  47
TORSDOF 10
ENDMDL
MODEL 3
REMARK VINA RESULT: -7.261313326      1.327      6.051
REMARK  10 active torsions:
REMARK  status: ('A' for Active; 'I' for Inactive)
REMARK    1  A    between atoms: C2_2  and  C3_3 
REMARK    2  A    between atoms: C3_3  and  C4_4 
REMARK    3  A    between atoms: C5_9  and  N3_10 
REMARK    4  A    between atoms: N3_10  and  C7_12 
REMARK    5  A    between atoms: C7_12  and  C8_13 
REMARK    6  A    between atoms: C8_13  and  C9_14 
REMARK    7  A    between atoms: C9_14  and  C10_15 
REMARK    8  A    between atoms: C10_15  and  C11_16 
REMARK    9  A    between atoms: C18_34  and  O2_35 
REMARK   10  A    between atoms: C19_37  and  C20_38 
ROOT
HETATM    1  C4  UNL     1     -10.035  50.641  18.183  1.00  0.00     0.042 A 
HETATM    2  N1  UNL     1      -9.064  49.710  17.917  1.00  0.00    -0.302 N 
ATOM      3  H1  UNL     1      -8.620  49.721  16.999  1.00  0.00     0.186 HD
HETATM    4  N2  UNL     1      -8.692  48.839  18.752  1.00  0.00    -0.285 N 
ATOM      5  H2  UNL     1      -7.961  48.187  18.467  1.00  0.00     0.188 HD
HETATM    6  C5  UNL     1      -9.224  48.709  20.059  1.00  0.00     0.130 A 
HETATM    7  C12 UNL     1     -10.184  49.572  20.363  1.00  0.00     0.043 A 
HETATM    8  C13 UNL     1     -10.590  50.566  19.406  1.00  0.00     0.071 A 
HETATM    9  C14 UNL     1     -11.499  51.504  19.802  1.00  0.00     0.259 A 
HETATM   10  O1  UNL     1     -11.890  52.391  19.023  1.00  0.00    -0.267 OA
HETATM   11  N8  UNL     1     -12.010  51.512  21.027  1.00  0.00    -0.321 N 
ATOM     12  H8  UNL     1     -12.678  52.240  21.281  1.00  0.00     0.169 HD
HETATM   13  C15 UNL     1     -11.667  50.584  21.943  1.00  0.00     0.059 A 
HETATM   14  C16 UNL     1     -12.303  50.576  23.143  1.00  0.00     0.000 A 
HETATM   15  C17 UNL     1     -13.249  51.658  23.464  1.00  0.00     0.054 C 
HETATM   16  C18 UNL     1     -12.053  49.568  24.032  1.00  0.00     0.091 A 
HETATM   17  C19 UNL     1     -11.182  48.575  23.724  1.00  0.00     0.092 A 
HETATM   18  C24 UNL     1     -10.509  48.562  22.490  1.00  0.00     0.202 A 
HETATM   19  O3  UNL     1      -9.764  47.506  22.369  1.00  0.00    -0.286 OA
HETATM   20  C25 UNL     1     -10.749  49.583  21.623  1.00  0.00     0.058 A 
ENDROOT
BRANCH   6  21
HETATM   21  N3  UNL     1      -8.326  47.933  20.747  1.00  0.00    -0.370 N 
HETATM   22  C6  UNL     1      -7.290  48.348  21.716  1.00  0.00     0.151 C 
BRANCH  21  23
HETATM   23  C7  UNL     1      -8.092  46.541  20.272  1.00  0.00     0.124 C 
BRANCH  23  24
HETATM   24  C8  UNL     1      -6.651  46.232  20.384  1.00  0.00     0.020 C 
BRANCH  24  25
HETATM   25  C9  UNL     1      -6.111  46.306  18.943  1.00  0.00     0.009 C 
BRANCH  25  26
HETATM   26  C10 UNL     1      -5.205  47.469  18.768  1.00  0.00     0.079 C 
BRANCH  26  27
HETATM   27  C11 UNL     1      -5.479  48.128  17.465  1.00  0.00     0.112 A 
HETATM   28  N4  UNL     1      -5.006  49.252  16.945  1.00  0.00    -0.272 N 
HETATM   29  N5  UNL     1      -5.562  49.410  15.759  1.00  0.00    -0.227 N 
ATOM     30  H4  UNL     1      -4.335  49.882  17.383  1.00  0.00     0.190 HD
HETATM   31  N6  UNL     1      -6.371  48.422  15.509  1.00  0.00    -0.227 N 
ATOM     32  H5  UNL     1      -5.383  50.192  15.130  1.00  0.00     0.210 HD
HETATM   33  N7  UNL     1      -6.338  47.615  16.552  1.00  0.00    -0.272 N 
ATOM     34  H6  UNL     1      -6.928  48.296  14.664  1.00  0.00     0.210 HD
ATOM     35  H7  UNL     1      -6.869  46.750  16.653  1.00  0.00     0.190 HD
ENDBRANCH  26  27
ENDBRANCH  25  26
ENDBRANCH  24  25
ENDBRANCH  23  24
ENDBRANCH  21  23
ENDBRANCH   6  21
BRANCH   1  36
HETATM   36  C3  UNL     1     -10.317  51.660  17.185  1.00  0.00     0.059 C 
BRANCH  36  37
HETATM   37  C2  UNL     1      -9.129  52.451  16.685  1.00  0.00     0.002 C 
HETATM   38  C1  UNL     1      -8.618  53.379  17.817  1.00  0.00     0.005 C 
ENDBRANCH  36  37
ENDBRANCH   1  36
BRANCH  17  39
HETATM   39  C20 UNL     1     -10.911  47.495  24.670  1.00  0.00     0.114 C 
HETATM   40  N9  UNL     1     -11.678  46.545  24.923  1.00  0.00    -0.376 N 
HETATM   41  C21 UNL     1     -11.431  45.489  25.839  1.00  0.00     0.123 C 
ATOM     42  H9  UNL     1     -12.568  46.525  24.425  1.00  0.00     0.161 HD
HETATM   43  C22 UNL     1     -10.337  45.720  26.816  1.00  0.00     0.039 C 
HETATM   44  C23 UNL     1      -9.593  47.004  26.699  1.00  0.00     0.123 C 
HETATM   45  N10 UNL     1      -9.661  47.574  25.370  1.00  0.00    -0.376 N 
ATOM     46  H10 UNL     1      -8.847  48.017  24.945  1.00  0.00     0.161 HD
ENDBRANCH  17  39
BRANCH  16  47
HETATM   47  O2  UNL     1     -12.704  49.576  25.259  1.00  0.00    -0.359 OA
ATOM     48  H2  UNL     1     -13.528  49.112  25.347  1.00  0.00     0.217 HD
ENDBRANCH  16  47
TORSDOF 10
ENDMDL
MODEL 4
REMARK VINA RESULT: -7.139895762      1.937      8.392
REMARK  10 active torsions:
REMARK  status: ('A' for Active; 'I' for Inactive)
REMARK    1  A    between atoms: C2_2  and  C3_3 
REMARK    2  A    between atoms: C3_3  and  C4_4 
REMARK    3  A    between atoms: C5_9  and  N3_10 
REMARK    4  A    between atoms: N3_10  and  C7_12 
REMARK    5  A    between atoms: C7_12  and  C8_13 
REMARK    6  A    between atoms: C8_13  and  C9_14 
REMARK    7  A    between atoms: C9_14  and  C10_15 
REMARK    8  A    between atoms: C10_15  and  C11_16 
REMARK    9  A    between atoms: C18_34  and  O2_35 
REMARK   10  A    between atoms: C19_37  and  C20_38 
ROOT
HETATM    1  C4  UNL     1      -8.104  50.600  16.312  1.00  0.00     0.042 A 
HETATM    2  N1  UNL     1      -9.124  51.496  16.503  1.00  0.00    -0.302 N 
ATOM      3  H1  UNL     1      -9.314  52.176  15.767  1.00  0.00     0.186 HD
HETATM    4  N2  UNL     1      -9.839  51.521  17.542  1.00  0.00    -0.285 N 
ATOM      5  H2  UNL     1     -10.577  52.223  17.597  1.00  0.00     0.188 HD
HETATM    6  C5  UNL     1      -9.683  50.637  18.640  1.00  0.00     0.130 A 
HETATM    7  C12 UNL     1      -8.695  49.761  18.518  1.00  0.00     0.043 A 
HETATM    8  C13 UNL     1      -7.895  49.736  17.323  1.00  0.00     0.071 A 
HETATM    9  C14 UNL     1      -6.965  48.745  17.193  1.00  0.00     0.259 A 
HETATM   10  O1  UNL     1      -6.243  48.667  16.185  1.00  0.00    -0.267 OA
HETATM   11  N8  UNL     1      -6.785  47.826  18.134  1.00  0.00    -0.321 N 
ATOM     12  H8  UNL     1      -6.086  47.098  17.988  1.00  0.00     0.169 HD
HETATM   13  C15 UNL     1      -7.503  47.831  19.276  1.00  0.00     0.059 A 
HETATM   14  C16 UNL     1      -7.200  46.933  20.248  1.00  0.00     0.000 A 
HETATM   15  C17 UNL     1      -6.191  45.894  19.981  1.00  0.00     0.054 C 
HETATM   16  C18 UNL     1      -7.836  47.006  21.456  1.00  0.00     0.091 A 
HETATM   17  C19 UNL     1      -8.762  47.970  21.692  1.00  0.00     0.092 A 
HETATM   18  C24 UNL     1      -9.095  48.909  20.700  1.00  0.00     0.202 A 
HETATM   19  O3  UNL     1      -9.958  49.773  21.140  1.00  0.00    -0.286 OA
HETATM   20  C25 UNL     1      -8.471  48.811  19.495  1.00  0.00     0.058 A 
ENDROOT
BRANCH   6  21
HETATM   21  N3  UNL     1     -10.846  50.736  19.361  1.00  0.00    -0.370 N 
HETATM   22  C6  UNL     1     -12.069  49.912  19.268  1.00  0.00     0.151 C 
BRANCH  21  23
HETATM   23  C7  UNL     1     -11.101  51.994  20.115  1.00  0.00     0.124 C 
BRANCH  23  24
HETATM   24  C8  UNL     1     -12.557  52.239  20.161  1.00  0.00     0.020 C 
BRANCH  24  25
HETATM   25  C9  UNL     1     -12.811  52.894  21.532  1.00  0.00     0.009 C 
BRANCH  25  26
HETATM   26  C10 UNL     1     -11.877  52.367  22.559  1.00  0.00     0.079 C 
BRANCH  26  27
HETATM   27  C11 UNL     1     -12.522  51.253  23.301  1.00  0.00     0.112 A 
HETATM   28  N4  UNL     1     -12.726  49.987  22.960  1.00  0.00    -0.272 N 
HETATM   29  N5  UNL     1     -13.346  49.398  23.964  1.00  0.00    -0.227 N 
ATOM     30  H4  UNL     1     -12.454  49.549  22.081  1.00  0.00     0.190 HD
HETATM   31  N6  UNL     1     -13.541  50.247  24.930  1.00  0.00    -0.227 N 
ATOM     32  H5  UNL     1     -13.631  48.419  23.980  1.00  0.00     0.210 HD
HETATM   33  N7  UNL     1     -13.040  51.404  24.543  1.00  0.00    -0.272 N 
ATOM     34  H6  UNL     1     -13.998  50.054  25.822  1.00  0.00     0.210 HD
ATOM     35  H7  UNL     1     -13.042  52.267  25.087  1.00  0.00     0.190 HD
ENDBRANCH  26  27
ENDBRANCH  25  26
ENDBRANCH  24  25
ENDBRANCH  23  24
ENDBRANCH  21  23
ENDBRANCH   6  21
BRANCH   1  36
HETATM   36  C3  UNL     1      -7.407  50.595  15.037  1.00  0.00     0.059 C 
BRANCH  36  37
HETATM   37  C2  UNL     1      -6.688  51.872  14.665  1.00  0.00     0.002 C 
HETATM   38  C1  UNL     1      -5.351  51.954  15.445  1.00  0.00     0.005 C 
ENDBRANCH  36  37
ENDBRANCH   1  36
BRANCH  17  39
HETATM   39  C20 UNL     1      -9.445  48.053  22.981  1.00  0.00     0.114 C 
HETATM   40  N9  UNL     1      -9.312  48.971  23.813  1.00  0.00    -0.376 N 
HETATM   41  C21 UNL     1      -9.967  49.067  25.068  1.00  0.00     0.123 C 
ATOM     42  H9  UNL     1      -8.671  49.726  23.569  1.00  0.00     0.161 HD
HETATM   43  C22 UNL     1     -10.586  47.815  25.575  1.00  0.00     0.039 C 
HETATM   44  C23 UNL     1     -10.493  46.619  24.695  1.00  0.00     0.123 C 
HETATM   45  N10 UNL     1     -10.317  46.959  23.299  1.00  0.00    -0.376 N 
ATOM     46  H10 UNL     1     -10.797  46.437  22.565  1.00  0.00     0.161 HD
ENDBRANCH  17  39
BRANCH  16  47
HETATM   47  O2  UNL     1      -7.523  46.077  22.439  1.00  0.00    -0.359 OA
ATOM     48  H2  UNL     1      -7.850  45.189  22.355  1.00  0.00     0.217 HD
ENDBRANCH  16  47
TORSDOF 10
ENDMDL
MODEL 5
REMARK VINA RESULT: -6.977930058      1.522      6.044
REMARK  10 active torsions:
REMARK  status: ('A' for Active; 'I' for Inactive)
REMARK    1  A    between atoms: C2_2  and  C3_3 
REMARK    2  A    between atoms: C3_3  and  C4_4 
REMARK    3  A    between atoms: C5_9  and  N3_10 
REMARK    4  A    between atoms: N3_10  and  C7_12 
REMARK    5  A    between atoms: C7_12  and  C8_13 
REMARK    6  A    between atoms: C8_13  and  C9_14 
REMARK    7  A    between atoms: C9_14  and  C10_15 
REMARK    8  A    between atoms: C10_15  and  C11_16 
REMARK    9  A    between atoms: C18_34  and  O2_35 
REMARK   10  A    between atoms: C19_37  and  C20_38 
ROOT
HETATM    1  C4  UNL     1     -10.579  50.763  18.623  1.00  0.00     0.042 A 
HETATM    2  N1  UNL     1      -9.578  49.891  18.279  1.00  0.00    -0.302 N 
ATOM      3  H1  UNL     1      -9.176  49.960  17.344  1.00  0.00     0.186 HD
HETATM    4  N2  UNL     1      -9.130  49.008  19.060  1.00  0.00    -0.285 N 
ATOM      5  H2  UNL     1      -8.383  48.403  18.718  1.00  0.00     0.188 HD
HETATM    6  C5  UNL     1      -9.596  48.800  20.382  1.00  0.00     0.130 A 
HETATM    7  C12 UNL     1     -10.581  49.603  20.762  1.00  0.00     0.043 A 
HETATM    8  C13 UNL     1     -11.075  50.614  19.865  1.00  0.00     0.071 A 
HETATM    9  C14 UNL     1     -12.008  51.490  20.337  1.00  0.00     0.259 A 
HETATM   10  O1  UNL     1     -12.475  52.387  19.614  1.00  0.00    -0.267 OA
HETATM   11  N8  UNL     1     -12.464  51.426  21.582  1.00  0.00    -0.321 N 
ATOM     12  H8  UNL     1     -13.153  52.109  21.895  1.00  0.00     0.169 HD
HETATM   13  C15 UNL     1     -12.038  50.479  22.444  1.00  0.00     0.059 A 
HETATM   14  C16 UNL     1     -12.619  50.394  23.668  1.00  0.00     0.000 A 
HETATM   15  C17 UNL     1     -13.600  51.415  24.074  1.00  0.00     0.054 C 
HETATM   16  C18 UNL     1     -12.284  49.365  24.504  1.00  0.00     0.091 A 
HETATM   17  C19 UNL     1     -11.381  48.428  24.118  1.00  0.00     0.092 A 
HETATM   18  C24 UNL     1     -10.764  48.496  22.857  1.00  0.00     0.202 A 
HETATM   19  O3  UNL     1      -9.977  47.483  22.662  1.00  0.00    -0.286 OA
HETATM   20  C25 UNL     1     -11.089  49.538  22.044  1.00  0.00     0.058 A 
ENDROOT
BRANCH   6  21
HETATM   21  N3  UNL     1      -8.634  48.042  20.999  1.00  0.00    -0.370 N 
HETATM   22  C6  UNL     1      -7.507  48.482  21.847  1.00  0.00     0.151 C 
BRANCH  21  23
HETATM   23  C7  UNL     1      -8.447  46.637  20.543  1.00  0.00     0.124 C 
BRANCH  23  24
HETATM   24  C8  UNL     1      -7.022  46.271  20.687  1.00  0.00     0.020 C 
BRANCH  24  25
HETATM   25  C9  UNL     1      -6.473  46.227  19.248  1.00  0.00     0.009 C 
BRANCH  25  26
HETATM   26  C10 UNL     1      -5.413  47.247  19.047  1.00  0.00     0.079 C 
BRANCH  26  27
HETATM   27  C11 UNL     1      -5.588  47.899  17.724  1.00  0.00     0.112 A 
HETATM   28  N4  UNL     1      -6.270  47.519  16.652  1.00  0.00    -0.272 N 
HETATM   29  N5  UNL     1      -6.108  48.444  15.726  1.00  0.00    -0.227 N 
ATOM     30  H4  UNL     1      -6.819  46.665  16.560  1.00  0.00     0.190 HD
HETATM   31  N6  UNL     1      -5.347  49.399  16.174  1.00  0.00    -0.227 N 
ATOM     32  H5  UNL     1      -6.520  48.415  14.793  1.00  0.00     0.210 HD
HETATM   33  N7  UNL     1      -5.011  49.084  17.411  1.00  0.00    -0.272 N 
ATOM     34  H6  UNL     1      -5.062  50.236  15.665  1.00  0.00     0.210 HD
ATOM     35  H7  UNL     1      -4.417  49.639  18.027  1.00  0.00     0.190 HD
ENDBRANCH  26  27
ENDBRANCH  25  26
ENDBRANCH  24  25
ENDBRANCH  23  24
ENDBRANCH  21  23
ENDBRANCH   6  21
BRANCH   1  36
HETATM   36  C3  UNL     1     -10.952  51.805  17.682  1.00  0.00     0.059 C 
BRANCH  36  37
HETATM   37  C2  UNL     1     -11.483  51.338  16.345  1.00  0.00     0.002 C 
HETATM   38  C1  UNL     1     -12.778  50.516  16.567  1.00  0.00     0.005 C 
ENDBRANCH  36  37
ENDBRANCH   1  36
BRANCH  17  39
HETATM   39  C20 UNL     1     -11.019  47.326  25.007  1.00  0.00     0.114 C 
HETATM   40  N9  UNL     1     -11.730  46.333  25.256  1.00  0.00    -0.376 N 
HETATM   41  C21 UNL     1     -11.394  45.255  26.115  1.00  0.00     0.123 C 
ATOM     42  H9  UNL     1     -12.641  46.291  24.798  1.00  0.00     0.161 HD
HETATM   43  C22 UNL     1     -10.267  45.498  27.051  1.00  0.00     0.039 C 
HETATM   44  C23 UNL     1      -9.587  46.818  26.952  1.00  0.00     0.123 C 
HETATM   45  N10 UNL     1      -9.743  47.435  25.652  1.00  0.00    -0.376 N 
ATOM     46  H10 UNL     1      -8.970  47.932  25.209  1.00  0.00     0.161 HD
ENDBRANCH  17  39
BRANCH  16  47
HETATM   47  O2  UNL     1     -12.879  49.294  25.756  1.00  0.00    -0.359 OA
ATOM     48  H2  UNL     1     -13.607  48.697  25.888  1.00  0.00     0.217 HD
ENDBRANCH  16  47
TORSDOF 10
ENDMDL
