MODEL 1
REMARK VINA RESULT: -6.916890940      0.000      0.000
REMARK  12 active torsions:
REMARK  status: ('A' for Active; 'I' for Inactive)
REMARK    1  A    between atoms: C2_2  and  C3_3 
REMARK    2  A    between atoms: C3_3  and  C4_4 
REMARK    3  A    between atoms: C4_4  and  O1_5 
REMARK    4  A    between atoms: C4_4  and  C5_7 
REMARK    5  A    between atoms: C5_7  and  C6_8 
REMARK    6  A    between atoms: C5_7  and  S1_12 
REMARK    7  A    between atoms: S1_12  and  C10_15 
REMARK    8  A    between atoms: C11_18  and  C12_19 
REMARK    9  A    between atoms: C12_19  and  C13_21 
REMARK   10  A    between atoms: C13_21  and  S2_22 
REMARK   11  A    between atoms: S2_22  and  C14_23 
REMARK   12  A    between atoms: C17_28  and  O5_29 
ROOT
HETATM    1  C10 UNL     1      -9.696  49.107  18.221  1.00  0.00     0.204 A 
HETATM    2  N1  UNL     1      -8.771  48.134  18.308  1.00  0.00    -0.328 N 
ATOM      3  H1  UNL     1      -8.343  47.651  17.517  1.00  0.00     0.168 HD
HETATM    4  C11 UNL     1      -8.500  47.901  19.595  1.00  0.00     0.103 A 
HETATM    5  C21 UNL     1      -9.284  48.756  20.334  1.00  0.00     0.038 A 
HETATM    6  C22 UNL     1      -9.326  48.859  21.835  1.00  0.00     0.070 C 
HETATM    7  N6  UNL     1      -9.994  49.469  19.452  1.00  0.00    -0.335 N 
ATOM      8  H6  UNL     1     -10.670  50.192  19.699  1.00  0.00     0.168 HD
ENDROOT
BRANCH   4   9
HETATM    9  C12 UNL     1      -7.555  46.927  20.154  1.00  0.00     0.187 C 
HETATM   10  O4  UNL     1      -8.002  45.882  20.657  1.00  0.00    -0.290 OA
BRANCH   9  11
HETATM   11  C13 UNL     1      -6.090  47.161  20.132  1.00  0.00     0.166 C 
BRANCH  11  12
HETATM   12  S2  UNL     1      -5.391  46.963  18.504  1.00  0.00    -0.102 SA
BRANCH  12  13
HETATM   13  C14 UNL     1      -5.465  48.464  17.587  1.00  0.00     0.106 A 
HETATM   14  N2  UNL     1      -4.815  49.587  17.885  1.00  0.00    -0.334 N 
HETATM   15  C15 UNL     1      -5.105  50.547  17.011  1.00  0.00     0.126 A 
ATOM     16  H2  UNL     1      -4.181  49.695  18.676  1.00  0.00     0.168 HD
HETATM   17  C16 UNL     1      -6.006  50.001  16.088  1.00  0.00     0.088 A 
HETATM   18  N5  UNL     1      -4.664  51.813  16.958  1.00  0.00    -0.333 N 
HETATM   19  C17 UNL     1      -6.243  48.684  16.440  1.00  0.00     0.117 A 
HETATM   20  C18 UNL     1      -6.440  50.850  15.080  1.00  0.00     0.116 A 
HETATM   21  N3  UNL     1      -7.243  50.458  14.209  1.00  0.00    -0.385 N 
HETATM   22  N4  UNL     1      -5.967  52.129  15.062  1.00  0.00    -0.338 N 
ATOM     23  H32 UNL     1      -7.596  49.501  14.222  1.00  0.00     0.157 HD
ATOM     24  H31 UNL     1      -7.561  51.082  13.468  1.00  0.00     0.157 HD
HETATM   25  C19 UNL     1      -5.119  52.577  15.964  1.00  0.00     0.185 A 
ATOM     26  H4  UNL     1      -6.280  52.760  14.325  1.00  0.00     0.168 HD
HETATM   27  C20 UNL     1      -3.740  52.305  17.939  1.00  0.00     0.158 C 
BRANCH  19  28
HETATM   28  O5  UNL     1      -7.047  47.790  15.826  1.00  0.00    -0.357 OA
ATOM     29  H5  UNL     1      -7.695  47.231  16.239  1.00  0.00     0.217 HD
ENDBRANCH  19  28
ENDBRANCH  12  13
ENDBRANCH  11  12
ENDBRANCH   9  11
ENDBRANCH   4   9
BRANCH   1  30
HETATM   30  S1  UNL     1     -10.266  49.669  16.707  1.00  0.00     0.214 S 
HETATM   31  O2  UNL     1      -9.634  51.036  16.400  1.00  0.00    -0.219 OA
HETATM   32  O3  UNL     1      -9.682  48.807  15.570  1.00  0.00    -0.219 OA
BRANCH  30  33
HETATM   33  C5  UNL     1     -11.970  49.782  16.461  1.00  0.00     0.152 C 
BRANCH  33  34
HETATM   34  C4  UNL     1     -12.418  49.929  15.022  1.00  0.00     0.137 C 
BRANCH  34  35
HETATM   35  C3  UNL     1     -11.649  50.983  14.261  1.00  0.00     0.033 C 
BRANCH  35  36
HETATM   36  C2  UNL     1     -12.458  52.158  13.818  1.00  0.00    -0.002 C 
HETATM   37  C1  UNL     1     -12.040  53.425  14.493  1.00  0.00     0.005 C 
ENDBRANCH  35  36
ENDBRANCH  34  35
BRANCH  34  38
HETATM   38  O1  UNL     1     -12.228  48.727  14.329  1.00  0.00    -0.394 OA
ATOM     39  H1  UNL     1     -12.333  48.032  14.968  1.00  0.00     0.210 HD
ENDBRANCH  34  38
ENDBRANCH  33  34
BRANCH  33  40
HETATM   40  C6  UNL     1     -12.786  50.592  17.412  1.00  0.00    -0.032 C 
HETATM   41  C7  UNL     1     -13.206  49.736  18.591  1.00  0.00     0.016 C 
HETATM   42  C8  UNL     1     -14.118  50.924  16.705  1.00  0.00     0.016 C 
HETATM   43  C9  UNL     1     -12.252  51.881  17.880  1.00  0.00     0.016 C 
ENDBRANCH  33  40
ENDBRANCH  30  33
ENDBRANCH   1  30
TORSDOF 12
ENDMDL
MODEL 2
REMARK VINA RESULT: -6.786808846      1.383      2.085
REMARK  12 active torsions:
REMARK  status: ('A' for Active; 'I' for Inactive)
REMARK    1  A    between atoms: C2_2  and  C3_3 
REMARK    2  A    between atoms: C3_3  and  C4_4 
REMARK    3  A    between atoms: C4_4  and  O1_5 
REMARK    4  A    between atoms: C4_4  and  C5_7 
REMARK    5  A    between atoms: C5_7  and  C6_8 
REMARK    6  A    between atoms: C5_7  and  S1_12 
REMARK    7  A    between atoms: S1_12  and  C10_15 
REMARK    8  A    between atoms: C11_18  and  C12_19 
REMARK    9  A    between atoms: C12_19  and  C13_21 
REMARK   10  A    between atoms: C13_21  and  S2_22 
REMARK   11  A    between atoms: S2_22  and  C14_23 
REMARK   12  A    between atoms: C17_28  and  O5_29 
ROOT
HETATM    1  C10 UNL     1     -10.002  49.140  17.824  1.00  0.00     0.204 A 
HETATM    2  N1  UNL     1      -9.071  48.183  17.992  1.00  0.00    -0.328 N 
ATOM      3  H1  UNL     1      -8.617  47.661  17.243  1.00  0.00     0.168 HD
HETATM    4  C11 UNL     1      -8.836  48.027  19.298  1.00  0.00     0.103 A 
HETATM    5  C21 UNL     1      -9.648  48.915  19.965  1.00  0.00     0.038 A 
HETATM    6  C22 UNL     1      -9.734  49.102  21.455  1.00  0.00     0.070 C 
HETATM    7  N6  UNL     1     -10.338  49.569  19.024  1.00  0.00    -0.335 N 
ATOM      8  H6  UNL     1     -11.027  50.298  19.209  1.00  0.00     0.168 HD
ENDROOT
BRANCH   4   9
HETATM    9  C12 UNL     1      -7.899  47.095  19.938  1.00  0.00     0.187 C 
HETATM   10  O4  UNL     1      -8.317  45.981  20.297  1.00  0.00    -0.290 OA
BRANCH   9  11
HETATM   11  C13 UNL     1      -6.477  47.453  20.163  1.00  0.00     0.166 C 
BRANCH  11  12
HETATM   12  S2  UNL     1      -5.471  47.205  18.712  1.00  0.00    -0.102 SA
BRANCH  12  13
HETATM   13  C14 UNL     1      -5.484  48.626  17.673  1.00  0.00     0.106 A 
HETATM   14  N2  UNL     1      -4.847  49.769  17.916  1.00  0.00    -0.334 N 
HETATM   15  C15 UNL     1      -5.080  50.655  16.952  1.00  0.00     0.126 A 
ATOM     16  H2  UNL     1      -4.260  49.942  18.731  1.00  0.00     0.168 HD
HETATM   17  C16 UNL     1      -5.928  50.035  16.024  1.00  0.00     0.088 A 
HETATM   18  N5  UNL     1      -4.630  51.913  16.821  1.00  0.00    -0.333 N 
HETATM   19  C17 UNL     1      -6.192  48.751  16.467  1.00  0.00     0.117 A 
HETATM   20  C18 UNL     1      -6.297  50.800  14.926  1.00  0.00     0.116 A 
HETATM   21  N3  UNL     1      -7.050  50.338  14.044  1.00  0.00    -0.385 N 
HETATM   22  N4  UNL     1      -5.817  52.073  14.833  1.00  0.00    -0.338 N 
ATOM     23  H32 UNL     1      -7.408  49.386  14.114  1.00  0.00     0.157 HD
ATOM     24  H31 UNL     1      -7.320  50.900  13.237  1.00  0.00     0.157 HD
HETATM   25  C19 UNL     1      -5.022  52.593  15.743  1.00  0.00     0.185 A 
ATOM     26  H4  UNL     1      -6.084  52.641  14.029  1.00  0.00     0.168 HD
HETATM   27  C20 UNL     1      -3.764  52.483  17.812  1.00  0.00     0.158 C 
BRANCH  19  28
HETATM   28  O5  UNL     1      -6.963  47.811  15.882  1.00  0.00    -0.357 OA
ATOM     29  H5  UNL     1      -7.853  47.920  15.568  1.00  0.00     0.217 HD
ENDBRANCH  19  28
ENDBRANCH  12  13
ENDBRANCH  11  12
ENDBRANCH   9  11
ENDBRANCH   4   9
BRANCH   1  30
HETATM   30  S1  UNL     1     -10.533  49.611  16.265  1.00  0.00     0.214 S 
HETATM   31  O2  UNL     1      -9.474  49.213  15.224  1.00  0.00    -0.219 OA
HETATM   32  O3  UNL     1     -11.726  48.737  15.828  1.00  0.00    -0.219 OA
BRANCH  30  33
HETATM   33  C5  UNL     1     -10.966  51.261  16.008  1.00  0.00     0.152 C 
BRANCH  33  34
HETATM   34  C4  UNL     1      -9.828  52.257  16.084  1.00  0.00     0.137 C 
BRANCH  34  35
HETATM   35  C3  UNL     1      -8.846  51.961  17.193  1.00  0.00     0.033 C 
BRANCH  35  36
HETATM   36  C2  UNL     1      -8.173  53.160  17.778  1.00  0.00    -0.002 C 
HETATM   37  C1  UNL     1      -9.123  54.039  18.524  1.00  0.00     0.005 C 
ENDBRANCH  35  36
ENDBRANCH  34  35
BRANCH  34  38
HETATM   38  O1  UNL     1      -9.091  52.246  14.893  1.00  0.00    -0.394 OA
ATOM     39  H1  UNL     1      -9.199  53.105  14.504  1.00  0.00     0.210 HD
ENDBRANCH  34  38
ENDBRANCH  33  34
BRANCH  33  40
HETATM   40  C6  UNL     1     -12.234  51.776  16.599  1.00  0.00    -0.032 C 
HETATM   41  C7  UNL     1     -13.407  51.406  15.712  1.00  0.00     0.016 C 
HETATM   42  C8  UNL     1     -12.184  53.318  16.518  1.00  0.00     0.016 C 
HETATM   43  C9  UNL     1     -12.537  51.462  18.004  1.00  0.00     0.016 C 
ENDBRANCH  33  40
ENDBRANCH  30  33
ENDBRANCH   1  30
TORSDOF 12
ENDMDL
MODEL 3
REMARK VINA RESULT: -6.497500358      4.406      8.616
REMARK  12 active torsions:
REMARK  status: ('A' for Active; 'I' for Inactive)
REMARK    1  A    between atoms: C2_2  and  C3_3 
REMARK    2  A    between atoms: C3_3  and  C4_4 
REMARK    3  A    between atoms: C4_4  and  O1_5 
REMARK    4  A    between atoms: C4_4  and  C5_7 
REMARK    5  A    between atoms: C5_7  and  C6_8 
REMARK    6  A    between atoms: C5_7  and  S1_12 
REMARK    7  A    between atoms: S1_12  and  C10_15 
REMARK    8  A    between atoms: C11_18  and  C12_19 
REMARK    9  A    between atoms: C12_19  and  C13_21 
REMARK   10  A    between atoms: C13_21  and  S2_22 
REMARK   11  A    between atoms: S2_22  and  C14_23 
REMARK   12  A    between atoms: C17_28  and  O5_29 
ROOT
HETATM    1  C10 UNL     1      -7.789  48.380  18.354  1.00  0.00     0.204 A 
HETATM    2  N1  UNL     1      -8.937  48.240  19.044  1.00  0.00    -0.328 N 
ATOM      3  H1  UNL     1      -9.875  48.365  18.664  1.00  0.00     0.168 HD
HETATM    4  C11 UNL     1      -8.650  47.910  20.306  1.00  0.00     0.103 A 
HETATM    5  C21 UNL     1      -7.280  47.844  20.406  1.00  0.00     0.038 A 
HETATM    6  C22 UNL     1      -6.488  47.508  21.641  1.00  0.00     0.070 C 
HETATM    7  N6  UNL     1      -6.802  48.137  19.191  1.00  0.00    -0.335 N 
ATOM      8  H6  UNL     1      -5.812  48.169  18.948  1.00  0.00     0.168 HD
ENDROOT
BRANCH   4   9
HETATM    9  C12 UNL     1      -9.590  47.660  21.406  1.00  0.00     0.187 C 
HETATM   10  O4  UNL     1      -9.680  46.508  21.864  1.00  0.00    -0.290 OA
BRANCH   9  11
HETATM   11  C13 UNL     1     -10.427  48.743  21.977  1.00  0.00     0.166 C 
BRANCH  11  12
HETATM   12  S2  UNL     1     -10.043  49.075  23.687  1.00  0.00    -0.102 SA
BRANCH  12  13
HETATM   13  C14 UNL     1     -11.215  48.322  24.764  1.00  0.00     0.106 A 
HETATM   14  N2  UNL     1     -12.092  48.968  25.528  1.00  0.00    -0.334 N 
HETATM   15  C15 UNL     1     -12.816  48.114  26.245  1.00  0.00     0.126 A 
ATOM     16  H2  UNL     1     -12.196  49.982  25.558  1.00  0.00     0.168 HD
HETATM   17  C16 UNL     1     -12.368  46.826  25.919  1.00  0.00     0.088 A 
HETATM   18  N5  UNL     1     -13.796  48.357  27.129  1.00  0.00    -0.333 N 
HETATM   19  C17 UNL     1     -11.356  46.943  24.983  1.00  0.00     0.117 A 
HETATM   20  C18 UNL     1     -13.002  45.776  26.567  1.00  0.00     0.116 A 
HETATM   21  N3  UNL     1     -12.676  44.592  26.345  1.00  0.00    -0.385 N 
HETATM   22  N4  UNL     1     -13.993  46.067  27.457  1.00  0.00    -0.338 N 
ATOM     23  H32 UNL     1     -11.935  44.374  25.679  1.00  0.00     0.157 HD
ATOM     24  H31 UNL     1     -13.142  43.820  26.822  1.00  0.00     0.157 HD
HETATM   25  C19 UNL     1     -14.364  47.303  27.717  1.00  0.00     0.185 A 
ATOM     26  H4  UNL     1     -14.464  45.301  27.938  1.00  0.00     0.168 HD
HETATM   27  C20 UNL     1     -14.202  49.703  27.414  1.00  0.00     0.158 C 
BRANCH  19  28
HETATM   28  O5  UNL     1     -10.645  45.956  24.399  1.00  0.00    -0.357 OA
ATOM     29  H5  UNL     1     -10.922  45.409  23.673  1.00  0.00     0.217 HD
ENDBRANCH  19  28
ENDBRANCH  12  13
ENDBRANCH  11  12
ENDBRANCH   9  11
ENDBRANCH   4   9
BRANCH   1  30
HETATM   30  S1  UNL     1      -7.788  48.785  16.690  1.00  0.00     0.214 S 
HETATM   31  O2  UNL     1      -6.901  47.792  15.923  1.00  0.00    -0.219 OA
HETATM   32  O3  UNL     1      -9.171  48.490  16.074  1.00  0.00    -0.219 OA
BRANCH  30  33
HETATM   33  C5  UNL     1      -7.340  50.388  16.236  1.00  0.00     0.152 C 
BRANCH  33  34
HETATM   34  C4  UNL     1      -5.863  50.708  16.329  1.00  0.00     0.137 C 
BRANCH  34  35
HETATM   35  C3  UNL     1      -5.249  50.322  17.654  1.00  0.00     0.033 C 
BRANCH  35  36
HETATM   36  C2  UNL     1      -4.693  51.459  18.447  1.00  0.00    -0.002 C 
HETATM   37  C1  UNL     1      -3.878  52.392  17.611  1.00  0.00     0.005 C 
ENDBRANCH  35  36
ENDBRANCH  34  35
BRANCH  34  38
HETATM   38  O1  UNL     1      -5.151  50.007  15.347  1.00  0.00    -0.394 OA
ATOM     39  H1  UNL     1      -4.590  50.643  14.919  1.00  0.00     0.210 HD
ENDBRANCH  34  38
ENDBRANCH  33  34
BRANCH  33  40
HETATM   40  C6  UNL     1      -8.211  51.526  16.647  1.00  0.00    -0.032 C 
HETATM   41  C7  UNL     1      -9.396  51.637  15.708  1.00  0.00     0.016 C 
HETATM   42  C8  UNL     1      -7.418  52.827  16.391  1.00  0.00     0.016 C 
HETATM   43  C9  UNL     1      -8.659  51.603  18.047  1.00  0.00     0.016 C 
ENDBRANCH  33  40
ENDBRANCH  30  33
ENDBRANCH   1  30
TORSDOF 12
ENDMDL
MODEL 4
REMARK VINA RESULT: -6.489480605      3.731      7.657
REMARK  12 active torsions:
REMARK  status: ('A' for Active; 'I' for Inactive)
REMARK    1  A    between atoms: C2_2  and  C3_3 
REMARK    2  A    between atoms: C3_3  and  C4_4 
REMARK    3  A    between atoms: C4_4  and  O1_5 
REMARK    4  A    between atoms: C4_4  and  C5_7 
REMARK    5  A    between atoms: C5_7  and  C6_8 
REMARK    6  A    between atoms: C5_7  and  S1_12 
REMARK    7  A    between atoms: S1_12  and  C10_15 
REMARK    8  A    between atoms: C11_18  and  C12_19 
REMARK    9  A    between atoms: C12_19  and  C13_21 
REMARK   10  A    between atoms: C13_21  and  S2_22 
REMARK   11  A    between atoms: S2_22  and  C14_23 
REMARK   12  A    between atoms: C17_28  and  O5_29 
ROOT
HETATM    1  C10 UNL     1      -8.518  49.055  17.870  1.00  0.00     0.204 A 
HETATM    2  N1  UNL     1      -7.778  48.486  18.839  1.00  0.00    -0.328 N 
ATOM      3  H1  UNL     1      -6.874  48.034  18.705  1.00  0.00     0.168 HD
HETATM    4  C11 UNL     1      -8.417  48.609  20.005  1.00  0.00     0.103 A 
HETATM    5  C21 UNL     1      -9.593  49.275  19.755  1.00  0.00     0.038 A 
HETATM    6  C22 UNL     1     -10.646  49.643  20.765  1.00  0.00     0.070 C 
HETATM    7  N6  UNL     1      -9.608  49.525  18.441  1.00  0.00    -0.335 N 
ATOM      8  H6  UNL     1     -10.359  50.012  17.950  1.00  0.00     0.168 HD
ENDROOT
BRANCH   4   9
HETATM    9  C12 UNL     1      -7.980  48.135  21.325  1.00  0.00     0.187 C 
HETATM   10  O4  UNL     1      -7.346  48.914  22.059  1.00  0.00    -0.290 OA
BRANCH   9  11
HETATM   11  C13 UNL     1      -8.275  46.760  21.796  1.00  0.00     0.166 C 
BRANCH  11  12
HETATM   12  S2  UNL     1      -9.881  46.629  22.560  1.00  0.00    -0.102 SA
BRANCH  12  13
HETATM   13  C14 UNL     1      -9.976  47.603  24.024  1.00  0.00     0.106 A 
HETATM   14  N2  UNL     1     -10.284  48.896  24.075  1.00  0.00    -0.334 N 
HETATM   15  C15 UNL     1     -10.243  49.343  25.327  1.00  0.00     0.126 A 
ATOM     16  H2  UNL     1     -10.521  49.467  23.264  1.00  0.00     0.168 HD
HETATM   17  C16 UNL     1      -9.880  48.258  26.136  1.00  0.00     0.088 A 
HETATM   18  N5  UNL     1     -10.485  50.575  25.802  1.00  0.00    -0.333 N 
HETATM   19  C17 UNL     1      -9.708  47.151  25.325  1.00  0.00     0.117 A 
HETATM   20  C18 UNL     1      -9.779  48.516  27.496  1.00  0.00     0.116 A 
HETATM   21  N3  UNL     1      -9.462  47.615  28.299  1.00  0.00    -0.385 N 
HETATM   22  N4  UNL     1     -10.034  49.781  27.936  1.00  0.00    -0.338 N 
ATOM     23  H32 UNL     1      -9.271  46.669  27.970  1.00  0.00     0.157 HD
ATOM     24  H31 UNL     1      -9.388  47.805  29.299  1.00  0.00     0.157 HD
HETATM   25  C19 UNL     1     -10.371  50.756  27.118  1.00  0.00     0.185 A 
ATOM     26  H4  UNL     1      -9.962  49.979  28.934  1.00  0.00     0.168 HD
HETATM   27  C20 UNL     1     -10.853  51.640  24.913  1.00  0.00     0.158 C 
BRANCH  19  28
HETATM   28  O5  UNL     1      -9.356  45.900  25.689  1.00  0.00    -0.357 OA
ATOM     29  H5  UNL     1      -9.574  45.462  26.504  1.00  0.00     0.217 HD
ENDBRANCH  19  28
ENDBRANCH  12  13
ENDBRANCH  11  12
ENDBRANCH   9  11
ENDBRANCH   4   9
BRANCH   1  30
HETATM   30  S1  UNL     1      -7.987  49.093  16.242  1.00  0.00     0.214 S 
HETATM   31  O2  UNL     1      -7.155  47.835  15.948  1.00  0.00    -0.219 OA
HETATM   32  O3  UNL     1      -9.184  48.890  15.292  1.00  0.00    -0.219 OA
BRANCH  30  33
HETATM   33  C5  UNL     1      -7.109  50.474  15.697  1.00  0.00     0.152 C 
BRANCH  33  34
HETATM   34  C4  UNL     1      -5.614  50.441  15.941  1.00  0.00     0.137 C 
BRANCH  34  35
HETATM   35  C3  UNL     1      -5.248  50.098  17.366  1.00  0.00     0.033 C 
BRANCH  35  36
HETATM   36  C2  UNL     1      -4.693  51.231  18.165  1.00  0.00    -0.002 C 
HETATM   37  C1  UNL     1      -3.952  52.215  17.319  1.00  0.00     0.005 C 
ENDBRANCH  35  36
ENDBRANCH  34  35
BRANCH  34  38
HETATM   38  O1  UNL     1      -5.012  49.466  15.135  1.00  0.00    -0.394 OA
ATOM     39  H1  UNL     1      -5.472  48.654  15.310  1.00  0.00     0.210 HD
ENDBRANCH  34  38
ENDBRANCH  33  34
BRANCH  33  40
HETATM   40  C6  UNL     1      -7.701  51.829  15.887  1.00  0.00    -0.032 C 
HETATM   41  C7  UNL     1      -8.989  51.947  15.096  1.00  0.00     0.016 C 
HETATM   42  C8  UNL     1      -6.756  52.843  15.205  1.00  0.00     0.016 C 
HETATM   43  C9  UNL     1      -7.896  52.328  17.258  1.00  0.00     0.016 C 
ENDBRANCH  33  40
ENDBRANCH  30  33
ENDBRANCH   1  30
TORSDOF 12
ENDMDL
MODEL 5
REMARK VINA RESULT: -6.482633321      1.038      2.251
REMARK  12 active torsions:
REMARK  status: ('A' for Active; 'I' for Inactive)
REMARK    1  A    between atoms: C2_2  and  C3_3 
REMARK    2  A    between atoms: C3_3  and  C4_4 
REMARK    3  A    between atoms: C4_4  and  O1_5 
REMARK    4  A    between atoms: C4_4  and  C5_7 
REMARK    5  A    between atoms: C5_7  and  C6_8 
REMARK    6  A    between atoms: C5_7  and  S1_12 
REMARK    7  A    between atoms: S1_12  and  C10_15 
REMARK    8  A    between atoms: C11_18  and  C12_19 
REMARK    9  A    between atoms: C12_19  and  C13_21 
REMARK   10  A    between atoms: C13_21  and  S2_22 
REMARK   11  A    between atoms: S2_22  and  C14_23 
REMARK   12  A    between atoms: C17_28  and  O5_29 
ROOT
HETATM    1  C10 UNL     1      -9.810  49.048  18.317  1.00  0.00     0.204 A 
HETATM    2  N1  UNL     1      -8.848  48.108  18.336  1.00  0.00    -0.328 N 
ATOM      3  H1  UNL     1      -8.462  47.639  17.517  1.00  0.00     0.168 HD
HETATM    4  C11 UNL     1      -8.478  47.888  19.601  1.00  0.00     0.103 A 
HETATM    5  C21 UNL     1      -9.235  48.717  20.394  1.00  0.00     0.038 A 
HETATM    6  C22 UNL     1      -9.173  48.823  21.894  1.00  0.00     0.070 C 
HETATM    7  N6  UNL     1     -10.031  49.403  19.566  1.00  0.00    -0.335 N 
ATOM      8  H6  UNL     1     -10.712  50.103  19.860  1.00  0.00     0.168 HD
ENDROOT
BRANCH   4   9
HETATM    9  C12 UNL     1      -7.461  46.948  20.091  1.00  0.00     0.187 C 
HETATM   10  O4  UNL     1      -7.835  45.871  20.587  1.00  0.00    -0.290 OA
BRANCH   9  11
HETATM   11  C13 UNL     1      -6.013  47.254  20.006  1.00  0.00     0.166 C 
BRANCH  11  12
HETATM   12  S2  UNL     1      -5.368  47.062  18.355  1.00  0.00    -0.102 SA
BRANCH  12  13
HETATM   13  C14 UNL     1      -5.423  48.580  17.465  1.00  0.00     0.106 A 
HETATM   14  N2  UNL     1      -4.765  49.691  17.785  1.00  0.00    -0.334 N 
HETATM   15  C15 UNL     1      -5.041  50.669  16.928  1.00  0.00     0.126 A 
ATOM     16  H2  UNL     1      -4.133  49.779  18.581  1.00  0.00     0.168 HD
HETATM   17  C16 UNL     1      -5.942  50.148  15.991  1.00  0.00     0.088 A 
HETATM   18  N5  UNL     1      -4.587  51.932  16.900  1.00  0.00    -0.333 N 
HETATM   19  C17 UNL     1      -6.193  48.827  16.318  1.00  0.00     0.117 A 
HETATM   20  C18 UNL     1      -6.362  51.020  14.996  1.00  0.00     0.116 A 
HETATM   21  N3  UNL     1      -7.165  50.651  14.114  1.00  0.00    -0.385 N 
HETATM   22  N4  UNL     1      -5.877  52.294  15.003  1.00  0.00    -0.338 N 
ATOM     23  H32 UNL     1      -7.527  49.698  14.108  1.00  0.00     0.157 HD
ATOM     24  H31 UNL     1      -7.473  51.291  13.383  1.00  0.00     0.157 HD
HETATM   25  C19 UNL     1      -5.030  52.718  15.917  1.00  0.00     0.185 A 
ATOM     26  H4  UNL     1      -6.181  52.941  14.276  1.00  0.00     0.168 HD
HETATM   27  C20 UNL     1      -3.664  52.398  17.894  1.00  0.00     0.158 C 
BRANCH  19  28
HETATM   28  O5  UNL     1      -7.002  47.953  15.684  1.00  0.00    -0.357 OA
ATOM     29  H5  UNL     1      -7.926  48.067  15.494  1.00  0.00     0.217 HD
ENDBRANCH  19  28
ENDBRANCH  12  13
ENDBRANCH  11  12
ENDBRANCH   9  11
ENDBRANCH   4   9
BRANCH   1  30
HETATM   30  S1  UNL     1     -10.507  49.587  16.847  1.00  0.00     0.214 S 
HETATM   31  O2  UNL     1      -9.424  49.635  15.757  1.00  0.00    -0.219 OA
HETATM   32  O3  UNL     1     -11.452  48.507  16.284  1.00  0.00    -0.219 OA
BRANCH  30  33
HETATM   33  C5  UNL     1     -11.358  51.088  16.844  1.00  0.00     0.152 C 
BRANCH  33  34
HETATM   34  C4  UNL     1     -12.488  51.203  17.846  1.00  0.00     0.137 C 
BRANCH  34  35
HETATM   35  C3  UNL     1     -13.289  49.932  17.994  1.00  0.00     0.033 C 
BRANCH  35  36
HETATM   36  C2  UNL     1     -14.606  49.929  17.289  1.00  0.00    -0.002 C 
HETATM   37  C1  UNL     1     -14.880  48.632  16.598  1.00  0.00     0.005 C 
ENDBRANCH  35  36
ENDBRANCH  34  35
BRANCH  34  38
HETATM   38  O1  UNL     1     -11.981  51.499  19.118  1.00  0.00    -0.394 OA
ATOM     39  H1  UNL     1     -11.645  52.386  19.072  1.00  0.00     0.210 HD
ENDBRANCH  34  38
ENDBRANCH  33  34
BRANCH  33  40
HETATM   40  C6  UNL     1     -11.665  51.742  15.540  1.00  0.00    -0.032 C 
HETATM   41  C7  UNL     1     -10.442  52.478  15.029  1.00  0.00     0.016 C 
HETATM   42  C8  UNL     1     -12.682  52.871  15.821  1.00  0.00     0.016 C 
HETATM   43  C9  UNL     1     -12.259  50.931  14.465  1.00  0.00     0.016 C 
ENDBRANCH  33  40
ENDBRANCH  30  33
ENDBRANCH   1  30
TORSDOF 12
ENDMDL
