MODEL 1
REMARK VINA RESULT: -6.405546137      0.000      0.000
REMARK  15 active torsions:
REMARK  status: ('A' for Active; 'I' for Inactive)
REMARK    1  A    between atoms: O1_2  and  C2_3 
REMARK    2  A    between atoms: C2_3  and  C3_5 
REMARK    3  A    between atoms: C3_5  and  N1_7 
REMARK    4  A    between atoms: N1_7  and  C5_9 
REMARK    5  A    between atoms: C6_12  and  N3_13 
REMARK    6  A    between atoms: C8_21  and  N6_22 
REMARK    7  A    between atoms: N6_22  and  C9_24 
REMARK    8  A    between atoms: C9_24  and  C10_26 
REMARK    9  A    between atoms: C10_26  and  C11_27 
REMARK   10  A    between atoms: C11_27  and  C12_28 
REMARK   11  A    between atoms: C12_28  and  C13_29 
REMARK   12  A    between atoms: C14_32  and  C15_33 
REMARK   13  A    between atoms: C15_33  and  O3_34 
REMARK   14  A    between atoms: C15_33  and  O4_36 
REMARK   15  A    between atoms: O4_36  and  C16_37 
ROOT
HETATM    1  C5  UNL     1      -8.960  47.193  21.479  1.00  0.00     0.714 A 
HETATM    2  N2  UNL     1      -7.910  46.390  21.266  1.00  0.00    -0.021 N 
ATOM      3  H2  UNL     1      -7.684  45.630  21.909  1.00  0.00     0.203 HD
HETATM    4  C6  UNL     1      -7.162  46.622  20.171  1.00  0.00     0.705 A 
HETATM    5  N4  UNL     1      -7.443  47.609  19.322  1.00  0.00    -0.021 N 
ATOM      6  H4  UNL     1      -6.853  47.757  18.503  1.00  0.00     0.203 HD
HETATM    7  C7  UNL     1      -8.513  48.424  19.541  1.00  0.00     0.719 A 
HETATM    8  N5  UNL     1      -9.022  49.466  18.879  1.00  0.00    -0.174 N 
ATOM      9  H5  UNL     1      -8.645  49.850  18.012  1.00  0.00     0.186 HD
HETATM   10  C8  UNL     1     -10.131  49.944  19.538  1.00  0.00     0.139 A 
HETATM   11  C21 UNL     1     -10.260  49.140  20.625  1.00  0.00     0.183 A 
HETATM   12  N8  UNL     1      -9.262  48.204  20.624  1.00  0.00     0.017 N 
ENDROOT
BRANCH  10  13
HETATM   13  N6  UNL     1     -10.882  51.040  19.079  1.00  0.00    -0.335 N 
ATOM     14  H6  UNL     1     -10.347  51.886  18.886  1.00  0.00     0.168 HD
BRANCH  13  15
HETATM   15  C9  UNL     1     -12.256  51.135  18.850  1.00  0.00     0.079 C 
HETATM   16  S1  UNL     1     -13.102  52.452  19.240  1.00  0.00    -0.065 SA
BRANCH  15  17
HETATM   17  C10 UNL     1     -12.996  49.981  18.220  1.00  0.00     0.070 C 
BRANCH  17  18
HETATM   18  C11 UNL     1     -12.844  49.998  16.735  1.00  0.00     0.013 C 
BRANCH  18  19
HETATM   19  C12 UNL     1     -11.934  48.981  16.153  1.00  0.00     0.065 C 
BRANCH  19  20
HETATM   20  C13 UNL     1     -10.677  49.561  15.613  1.00  0.00     0.051 A 
HETATM   21  N7  UNL     1      -9.444  49.145  15.898  1.00  0.00    -0.353 N 
HETATM   22  C14 UNL     1      -8.430  49.716  15.347  1.00  0.00     0.071 A 
ATOM     23  H7  UNL     1      -9.303  48.375  16.552  1.00  0.00     0.166 HD
HETATM   24  C20 UNL     1      -8.665  50.747  14.474  1.00  0.00     0.081 A 
HETATM   25  S2  UNL     1     -10.380  50.825  14.509  1.00  0.00    -0.086 SA
BRANCH  22  26
HETATM   26  C15 UNL     1      -7.004  49.277  15.633  1.00  0.00     0.309 C 
BRANCH  26  27
HETATM   27  O3  UNL     1      -7.036  47.868  15.566  1.00  0.00    -0.366 OA
ATOM     28  H3  UNL     1      -7.286  47.586  16.438  1.00  0.00     0.213 HD
ENDBRANCH  26  27
BRANCH  26  29
HETATM   29  O4  UNL     1      -6.725  49.727  16.898  1.00  0.00    -0.346 OA
BRANCH  29  30
HETATM   30  C16 UNL     1      -5.937  50.817  17.010  1.00  0.00     0.053 C 
HETATM   31  C17 UNL     1      -6.698  52.017  17.529  1.00  0.00     0.045 C 
HETATM   32  C18 UNL     1      -4.864  50.508  18.064  1.00  0.00     0.045 C 
HETATM   33  C19 UNL     1      -5.203  51.226  15.766  1.00  0.00     0.045 C 
ENDBRANCH  29  30
ENDBRANCH  26  29
ENDBRANCH  22  26
ENDBRANCH  19  20
ENDBRANCH  18  19
ENDBRANCH  17  18
ENDBRANCH  15  17
ENDBRANCH  13  15
ENDBRANCH  10  13
BRANCH   1  34
HETATM   34  N1  UNL     1      -9.718  47.042  22.488  1.00  0.00    -0.211 N 
ATOM     35  H1  UNL     1     -10.659  46.681  22.338  1.00  0.00     0.178 HD
BRANCH  34  36
HETATM   36  C3  UNL     1      -9.315  47.355  23.829  1.00  0.00     0.195 C 
HETATM   37  C4  UNL     1      -9.656  48.799  24.163  1.00  0.00     0.043 C 
BRANCH  36  38
HETATM   38  C2  UNL     1      -9.961  46.421  24.785  1.00  0.00     0.281 C 
HETATM   39  O2  UNL     1     -11.029  45.854  24.452  1.00  0.00    -0.263 OA
BRANCH  38  40
HETATM   40  O1  UNL     1      -9.402  46.169  26.035  1.00  0.00    -0.325 OA
HETATM   41  C1  UNL     1     -10.264  46.098  27.157  1.00  0.00     0.213 C 
ENDBRANCH  38  40
ENDBRANCH  36  38
ENDBRANCH  34  36
ENDBRANCH   1  34
BRANCH   4  42
HETATM   42  N3  UNL     1      -6.148  45.819  20.000  1.00  0.00    -0.234 N 
ATOM     43  H32 UNL     1      -5.199  46.068  20.279  1.00  0.00     0.174 HD
ATOM     44  H31 UNL     1      -6.366  44.921  19.569  1.00  0.00     0.174 HD
ENDBRANCH   4  42
TORSDOF 15
ENDMDL
MODEL 2
REMARK VINA RESULT: -6.376372077      4.041      9.932
REMARK  15 active torsions:
REMARK  status: ('A' for Active; 'I' for Inactive)
REMARK    1  A    between atoms: O1_2  and  C2_3 
REMARK    2  A    between atoms: C2_3  and  C3_5 
REMARK    3  A    between atoms: C3_5  and  N1_7 
REMARK    4  A    between atoms: N1_7  and  C5_9 
REMARK    5  A    between atoms: C6_12  and  N3_13 
REMARK    6  A    between atoms: C8_21  and  N6_22 
REMARK    7  A    between atoms: N6_22  and  C9_24 
REMARK    8  A    between atoms: C9_24  and  C10_26 
REMARK    9  A    between atoms: C10_26  and  C11_27 
REMARK   10  A    between atoms: C11_27  and  C12_28 
REMARK   11  A    between atoms: C12_28  and  C13_29 
REMARK   12  A    between atoms: C14_32  and  C15_33 
REMARK   13  A    between atoms: C15_33  and  O3_34 
REMARK   14  A    between atoms: C15_33  and  O4_36 
REMARK   15  A    between atoms: O4_36  and  C16_37 
ROOT
HETATM    1  C5  UNL     1      -7.740  47.963  19.257  1.00  0.00     0.714 A 
HETATM    2  N2  UNL     1      -6.894  47.475  18.341  1.00  0.00    -0.021 N 
ATOM      3  H2  UNL     1      -6.865  47.851  17.393  1.00  0.00     0.203 HD
HETATM    4  C6  UNL     1      -6.083  46.469  18.718  1.00  0.00     0.705 A 
HETATM    5  N4  UNL     1      -6.110  45.967  19.952  1.00  0.00    -0.021 N 
ATOM      6  H4  UNL     1      -5.482  45.203  20.202  1.00  0.00     0.203 HD
HETATM    7  C7  UNL     1      -6.971  46.466  20.881  1.00  0.00     0.719 A 
HETATM    8  N5  UNL     1      -7.212  46.169  22.161  1.00  0.00    -0.174 N 
ATOM      9  H5  UNL     1      -6.734  45.442  22.694  1.00  0.00     0.186 HD
HETATM   10  C8  UNL     1      -8.201  46.987  22.654  1.00  0.00     0.139 A 
HETATM   11  C21 UNL     1      -8.541  47.788  21.611  1.00  0.00     0.183 A 
HETATM   12  N8  UNL     1      -7.781  47.465  20.519  1.00  0.00     0.017 N 
ENDROOT
BRANCH  10  13
HETATM   13  N6  UNL     1      -8.672  46.910  23.977  1.00  0.00    -0.335 N 
ATOM     14  H6  UNL     1      -8.047  46.447  24.637  1.00  0.00     0.168 HD
BRANCH  13  15
HETATM   15  C9  UNL     1      -9.873  47.376  24.515  1.00  0.00     0.079 C 
HETATM   16  S1  UNL     1      -9.997  48.827  25.207  1.00  0.00    -0.065 SA
BRANCH  15  17
HETATM   17  C10 UNL     1     -11.108  46.511  24.462  1.00  0.00     0.070 C 
BRANCH  17  18
HETATM   18  C11 UNL     1     -12.070  46.889  25.540  1.00  0.00     0.013 C 
BRANCH  18  19
HETATM   19  C12 UNL     1     -12.931  45.802  26.067  1.00  0.00     0.065 C 
BRANCH  19  20
HETATM   20  C13 UNL     1     -12.171  44.754  26.797  1.00  0.00     0.051 A 
HETATM   21  N7  UNL     1     -11.866  43.545  26.329  1.00  0.00    -0.353 N 
HETATM   22  C14 UNL     1     -11.181  42.730  27.051  1.00  0.00     0.071 A 
ATOM     23  H7  UNL     1     -12.176  43.265  25.398  1.00  0.00     0.166 HD
HETATM   24  C20 UNL     1     -10.784  43.147  28.296  1.00  0.00     0.081 A 
HETATM   25  S2  UNL     1     -11.446  44.731  28.340  1.00  0.00    -0.086 SA
BRANCH  22  26
HETATM   26  C15 UNL     1     -10.803  41.342  26.562  1.00  0.00     0.309 C 
BRANCH  26  27
HETATM   27  O3  UNL     1      -9.405  41.262  26.738  1.00  0.00    -0.366 OA
ATOM     28  H3  UNL     1      -9.216  40.331  26.783  1.00  0.00     0.213 HD
ENDBRANCH  26  27
BRANCH  26  29
HETATM   29  O4  UNL     1     -11.159  41.306  25.239  1.00  0.00    -0.346 OA
BRANCH  29  30
HETATM   30  C16 UNL     1     -11.956  40.293  24.838  1.00  0.00     0.053 C 
HETATM   31  C17 UNL     1     -13.305  40.786  24.363  1.00  0.00     0.045 C 
HETATM   32  C18 UNL     1     -11.293  39.635  23.620  1.00  0.00     0.045 C 
HETATM   33  C19 UNL     1     -12.180  39.199  25.840  1.00  0.00     0.045 C 
ENDBRANCH  29  30
ENDBRANCH  26  29
ENDBRANCH  22  26
ENDBRANCH  19  20
ENDBRANCH  18  19
ENDBRANCH  17  18
ENDBRANCH  15  17
ENDBRANCH  13  15
ENDBRANCH  10  13
BRANCH   1  34
HETATM   34  N1  UNL     1      -8.539  48.913  18.984  1.00  0.00    -0.211 N 
ATOM     35  H1  UNL     1      -8.520  49.747  19.572  1.00  0.00     0.178 HD
BRANCH  34  36
HETATM   36  C3  UNL     1      -9.467  48.872  17.891  1.00  0.00     0.195 C 
HETATM   37  C4  UNL     1     -10.689  49.722  18.199  1.00  0.00     0.043 C 
BRANCH  36  38
HETATM   38  C2  UNL     1      -8.803  49.327  16.643  1.00  0.00     0.281 C 
HETATM   39  O2  UNL     1      -8.834  50.546  16.349  1.00  0.00    -0.263 OA
BRANCH  38  40
HETATM   40  O1  UNL     1      -8.153  48.427  15.803  1.00  0.00    -0.325 OA
HETATM   41  C1  UNL     1      -6.998  48.865  15.110  1.00  0.00     0.213 C 
ENDBRANCH  38  40
ENDBRANCH  36  38
ENDBRANCH  34  36
ENDBRANCH   1  34
BRANCH   4  42
HETATM   42  N3  UNL     1      -5.275  46.021  17.797  1.00  0.00    -0.234 N 
ATOM     43  H32 UNL     1      -5.337  45.071  17.430  1.00  0.00     0.174 HD
ATOM     44  H31 UNL     1      -4.576  46.684  17.465  1.00  0.00     0.174 HD
ENDBRANCH   4  42
TORSDOF 15
ENDMDL
MODEL 3
REMARK VINA RESULT: -6.238232858      2.059      2.911
REMARK  15 active torsions:
REMARK  status: ('A' for Active; 'I' for Inactive)
REMARK    1  A    between atoms: O1_2  and  C2_3 
REMARK    2  A    between atoms: C2_3  and  C3_5 
REMARK    3  A    between atoms: C3_5  and  N1_7 
REMARK    4  A    between atoms: N1_7  and  C5_9 
REMARK    5  A    between atoms: C6_12  and  N3_13 
REMARK    6  A    between atoms: C8_21  and  N6_22 
REMARK    7  A    between atoms: N6_22  and  C9_24 
REMARK    8  A    between atoms: C9_24  and  C10_26 
REMARK    9  A    between atoms: C10_26  and  C11_27 
REMARK   10  A    between atoms: C11_27  and  C12_28 
REMARK   11  A    between atoms: C12_28  and  C13_29 
REMARK   12  A    between atoms: C14_32  and  C15_33 
REMARK   13  A    between atoms: C15_33  and  O3_34 
REMARK   14  A    between atoms: C15_33  and  O4_36 
REMARK   15  A    between atoms: O4_36  and  C16_37 
ROOT
HETATM    1  C5  UNL     1      -7.432  48.166  19.298  1.00  0.00     0.714 A 
HETATM    2  N2  UNL     1      -6.126  47.923  19.122  1.00  0.00    -0.021 N 
ATOM      3  H2  UNL     1      -5.508  47.752  19.915  1.00  0.00     0.203 HD
HETATM    4  C6  UNL     1      -5.661  47.911  17.859  1.00  0.00     0.705 A 
HETATM    5  N4  UNL     1      -6.456  48.131  16.813  1.00  0.00    -0.021 N 
ATOM      6  H4  UNL     1      -6.069  48.116  15.870  1.00  0.00     0.203 HD
HETATM    7  C7  UNL     1      -7.783  48.378  16.996  1.00  0.00     0.719 A 
HETATM    8  N5  UNL     1      -8.793  48.627  16.157  1.00  0.00    -0.174 N 
ATOM      9  H5  UNL     1      -8.713  48.674  15.141  1.00  0.00     0.186 HD
HETATM   10  C8  UNL     1      -9.957  48.810  16.867  1.00  0.00     0.139 A 
HETATM   11  C21 UNL     1      -9.597  48.659  18.167  1.00  0.00     0.183 A 
HETATM   12  N8  UNL     1      -8.257  48.393  18.244  1.00  0.00     0.017 N 
ENDROOT
BRANCH  10  13
HETATM   13  N6  UNL     1     -11.192  49.089  16.255  1.00  0.00    -0.335 N 
ATOM     14  H6  UNL     1     -11.300  48.733  15.305  1.00  0.00     0.168 HD
BRANCH  13  15
HETATM   15  C9  UNL     1     -12.292  49.784  16.763  1.00  0.00     0.079 C 
HETATM   16  S1  UNL     1     -13.740  49.093  16.929  1.00  0.00    -0.065 SA
BRANCH  15  17
HETATM   17  C10 UNL     1     -12.146  51.227  17.174  1.00  0.00     0.070 C 
BRANCH  17  18
HETATM   18  C11 UNL     1     -11.816  52.086  15.998  1.00  0.00     0.013 C 
BRANCH  18  19
HETATM   19  C12 UNL     1     -10.560  52.871  16.086  1.00  0.00     0.065 C 
BRANCH  19  20
HETATM   20  C13 UNL     1      -9.432  52.255  15.340  1.00  0.00     0.051 A 
HETATM   21  N7  UNL     1      -8.187  52.114  15.791  1.00  0.00    -0.353 N 
HETATM   22  C14 UNL     1      -7.298  51.541  15.056  1.00  0.00     0.071 A 
ATOM     23  H7  UNL     1      -7.937  52.459  16.718  1.00  0.00     0.166 HD
HETATM   24  C20 UNL     1      -7.678  51.091  13.817  1.00  0.00     0.081 A 
HETATM   25  S2  UNL     1      -9.335  51.538  13.797  1.00  0.00    -0.086 SA
BRANCH  22  26
HETATM   26  C15 UNL     1      -5.866  51.351  15.525  1.00  0.00     0.309 C 
BRANCH  26  27
HETATM   27  O3  UNL     1      -5.470  50.106  14.990  1.00  0.00    -0.366 OA
ATOM     28  H3  UNL     1      -6.274  49.606  14.910  1.00  0.00     0.213 HD
ENDBRANCH  26  27
BRANCH  26  29
HETATM   29  O4  UNL     1      -5.924  51.330  16.894  1.00  0.00    -0.346 OA
BRANCH  29  30
HETATM   30  C16 UNL     1      -5.033  52.089  17.566  1.00  0.00     0.053 C 
HETATM   31  C17 UNL     1      -3.924  52.592  16.668  1.00  0.00     0.045 C 
HETATM   32  C18 UNL     1      -5.771  53.338  18.065  1.00  0.00     0.045 C 
HETATM   33  C19 UNL     1      -4.410  51.454  18.774  1.00  0.00     0.045 C 
ENDBRANCH  29  30
ENDBRANCH  26  29
ENDBRANCH  22  26
ENDBRANCH  19  20
ENDBRANCH  18  19
ENDBRANCH  17  18
ENDBRANCH  15  17
ENDBRANCH  13  15
ENDBRANCH  10  13
BRANCH   1  34
HETATM   34  N1  UNL     1      -7.952  48.195  20.457  1.00  0.00    -0.211 N 
ATOM     35  H1  UNL     1      -8.055  49.098  20.920  1.00  0.00     0.178 HD
BRANCH  34  36
HETATM   36  C3  UNL     1      -8.400  47.021  21.148  1.00  0.00     0.195 C 
HETATM   37  C4  UNL     1      -7.344  46.548  22.135  1.00  0.00     0.043 C 
BRANCH  36  38
HETATM   38  C2  UNL     1      -9.686  47.297  21.839  1.00  0.00     0.281 C 
HETATM   39  O2  UNL     1     -10.302  48.356  21.572  1.00  0.00    -0.263 OA
BRANCH  38  40
HETATM   40  O1  UNL     1     -10.210  46.404  22.769  1.00  0.00    -0.325 OA
HETATM   41  C1  UNL     1     -10.442  46.864  24.088  1.00  0.00     0.213 C 
ENDBRANCH  38  40
ENDBRANCH  36  38
ENDBRANCH  34  36
ENDBRANCH   1  34
BRANCH   4  42
HETATM   42  N3  UNL     1      -4.385  47.671  17.731  1.00  0.00    -0.234 N 
ATOM     43  H32 UNL     1      -4.010  46.724  17.667  1.00  0.00     0.174 HD
ATOM     44  H31 UNL     1      -3.784  48.493  17.697  1.00  0.00     0.174 HD
ENDBRANCH   4  42
TORSDOF 15
ENDMDL
MODEL 4
REMARK VINA RESULT: -6.161947018      4.301     10.156
REMARK  15 active torsions:
REMARK  status: ('A' for Active; 'I' for Inactive)
REMARK    1  A    between atoms: O1_2  and  C2_3 
REMARK    2  A    between atoms: C2_3  and  C3_5 
REMARK    3  A    between atoms: C3_5  and  N1_7 
REMARK    4  A    between atoms: N1_7  and  C5_9 
REMARK    5  A    between atoms: C6_12  and  N3_13 
REMARK    6  A    between atoms: C8_21  and  N6_22 
REMARK    7  A    between atoms: N6_22  and  C9_24 
REMARK    8  A    between atoms: C9_24  and  C10_26 
REMARK    9  A    between atoms: C10_26  and  C11_27 
REMARK   10  A    between atoms: C11_27  and  C12_28 
REMARK   11  A    between atoms: C12_28  and  C13_29 
REMARK   12  A    between atoms: C14_32  and  C15_33 
REMARK   13  A    between atoms: C15_33  and  O3_34 
REMARK   14  A    between atoms: C15_33  and  O4_36 
REMARK   15  A    between atoms: O4_36  and  C16_37 
ROOT
HETATM    1  C5  UNL     1      -7.786  47.958  19.308  1.00  0.00     0.714 A 
HETATM    2  N2  UNL     1      -6.933  47.469  18.398  1.00  0.00    -0.021 N 
ATOM      3  H2  UNL     1      -6.900  47.842  17.449  1.00  0.00     0.203 HD
HETATM    4  C6  UNL     1      -6.121  46.467  18.784  1.00  0.00     0.705 A 
HETATM    5  N4  UNL     1      -6.153  45.969  20.019  1.00  0.00    -0.021 N 
ATOM      6  H4  UNL     1      -5.523  45.209  20.275  1.00  0.00     0.203 HD
HETATM    7  C7  UNL     1      -7.021  46.469  20.942  1.00  0.00     0.719 A 
HETATM    8  N5  UNL     1      -7.268  46.175  22.221  1.00  0.00    -0.174 N 
ATOM      9  H5  UNL     1      -6.790  45.453  22.759  1.00  0.00     0.186 HD
HETATM   10  C8  UNL     1      -8.263  46.993  22.706  1.00  0.00     0.139 A 
HETATM   11  C21 UNL     1      -8.599  47.788  21.658  1.00  0.00     0.183 A 
HETATM   12  N8  UNL     1      -7.832  47.463  20.572  1.00  0.00     0.017 N 
ENDROOT
BRANCH  10  13
HETATM   13  N6  UNL     1      -8.741  46.918  24.026  1.00  0.00    -0.335 N 
ATOM     14  H6  UNL     1      -8.228  46.287  24.642  1.00  0.00     0.168 HD
BRANCH  13  15
HETATM   15  C9  UNL     1      -9.817  47.585  24.615  1.00  0.00     0.079 C 
HETATM   16  S1  UNL     1      -9.896  49.194  24.680  1.00  0.00    -0.065 SA
BRANCH  15  17
HETATM   17  C10 UNL     1     -10.954  46.797  25.217  1.00  0.00     0.070 C 
BRANCH  17  18
HETATM   18  C11 UNL     1     -10.471  45.937  26.338  1.00  0.00     0.013 C 
BRANCH  18  19
HETATM   19  C12 UNL     1      -9.830  46.638  27.478  1.00  0.00     0.065 C 
BRANCH  19  20
HETATM   20  C13 UNL     1      -8.793  45.822  28.159  1.00  0.00     0.051 A 
HETATM   21  N7  UNL     1      -8.009  44.916  27.577  1.00  0.00    -0.353 N 
HETATM   22  C14 UNL     1      -7.129  44.285  28.272  1.00  0.00     0.071 A 
ATOM     23  H7  UNL     1      -8.107  44.721  26.580  1.00  0.00     0.166 HD
HETATM   24  C20 UNL     1      -7.031  44.578  29.609  1.00  0.00     0.081 A 
HETATM   25  S2  UNL     1      -8.250  45.775  29.775  1.00  0.00    -0.086 SA
BRANCH  22  26
HETATM   26  C15 UNL     1      -6.207  43.247  27.656  1.00  0.00     0.309 C 
BRANCH  26  27
HETATM   27  O3  UNL     1      -6.841  42.864  26.455  1.00  0.00    -0.366 OA
ATOM     28  H3  UNL     1      -6.735  41.921  26.411  1.00  0.00     0.213 HD
ENDBRANCH  26  27
BRANCH  26  29
HETATM   29  O4  UNL     1      -6.150  42.218  28.560  1.00  0.00    -0.346 OA
BRANCH  29  30
HETATM   30  C16 UNL     1      -4.966  41.589  28.712  1.00  0.00     0.053 C 
HETATM   31  C17 UNL     1      -3.795  42.515  28.464  1.00  0.00     0.045 C 
HETATM   32  C18 UNL     1      -4.857  41.153  30.179  1.00  0.00     0.045 C 
HETATM   33  C19 UNL     1      -4.771  40.352  27.886  1.00  0.00     0.045 C 
ENDBRANCH  29  30
ENDBRANCH  26  29
ENDBRANCH  22  26
ENDBRANCH  19  20
ENDBRANCH  18  19
ENDBRANCH  17  18
ENDBRANCH  15  17
ENDBRANCH  13  15
ENDBRANCH  10  13
BRANCH   1  34
HETATM   34  N1  UNL     1      -8.587  48.904  19.027  1.00  0.00    -0.211 N 
ATOM     35  H1  UNL     1      -8.586  49.732  19.622  1.00  0.00     0.178 HD
BRANCH  34  36
HETATM   36  C3  UNL     1      -9.492  48.865  17.915  1.00  0.00     0.195 C 
HETATM   37  C4  UNL     1     -10.716  49.722  18.195  1.00  0.00     0.043 C 
BRANCH  36  38
HETATM   38  C2  UNL     1      -8.800  49.315  16.680  1.00  0.00     0.281 C 
HETATM   39  O2  UNL     1      -8.803  50.536  16.393  1.00  0.00    -0.263 OA
BRANCH  38  40
HETATM   40  O1  UNL     1      -8.154  48.408  15.845  1.00  0.00    -0.325 OA
HETATM   41  C1  UNL     1      -6.987  48.832  15.164  1.00  0.00     0.213 C 
ENDBRANCH  38  40
ENDBRANCH  36  38
ENDBRANCH  34  36
ENDBRANCH   1  34
BRANCH   4  42
HETATM   42  N3  UNL     1      -5.306  46.019  17.868  1.00  0.00    -0.234 N 
ATOM     43  H32 UNL     1      -5.082  46.551  17.027  1.00  0.00     0.174 HD
ATOM     44  H31 UNL     1      -4.905  45.099  18.049  1.00  0.00     0.174 HD
ENDBRANCH   4  42
TORSDOF 15
ENDMDL
MODEL 5
REMARK VINA RESULT: -6.152052810      3.742      9.803
REMARK  15 active torsions:
REMARK  status: ('A' for Active; 'I' for Inactive)
REMARK    1  A    between atoms: O1_2  and  C2_3 
REMARK    2  A    between atoms: C2_3  and  C3_5 
REMARK    3  A    between atoms: C3_5  and  N1_7 
REMARK    4  A    between atoms: N1_7  and  C5_9 
REMARK    5  A    between atoms: C6_12  and  N3_13 
REMARK    6  A    between atoms: C8_21  and  N6_22 
REMARK    7  A    between atoms: N6_22  and  C9_24 
REMARK    8  A    between atoms: C9_24  and  C10_26 
REMARK    9  A    between atoms: C10_26  and  C11_27 
REMARK   10  A    between atoms: C11_27  and  C12_28 
REMARK   11  A    between atoms: C12_28  and  C13_29 
REMARK   12  A    between atoms: C14_32  and  C15_33 
REMARK   13  A    between atoms: C15_33  and  O3_34 
REMARK   14  A    between atoms: C15_33  and  O4_36 
REMARK   15  A    between atoms: O4_36  and  C16_37 
ROOT
HETATM    1  C5  UNL     1      -7.713  47.995  19.435  1.00  0.00     0.714 A 
HETATM    2  N2  UNL     1      -6.898  47.412  18.547  1.00  0.00    -0.021 N 
ATOM      3  H2  UNL     1      -6.817  47.763  17.592  1.00  0.00     0.203 HD
HETATM    4  C6  UNL     1      -6.189  46.346  18.961  1.00  0.00     0.705 A 
HETATM    5  N4  UNL     1      -6.284  45.876  20.204  1.00  0.00    -0.021 N 
ATOM      6  H4  UNL     1      -5.732  45.064  20.483  1.00  0.00     0.203 HD
HETATM    7  C7  UNL     1      -7.113  46.472  21.105  1.00  0.00     0.719 A 
HETATM    8  N5  UNL     1      -7.404  46.226  22.385  1.00  0.00    -0.174 N 
ATOM      9  H5  UNL     1      -7.004  45.471  22.943  1.00  0.00     0.186 HD
HETATM   10  C8  UNL     1      -8.325  47.141  22.841  1.00  0.00     0.139 A 
HETATM   11  C21 UNL     1      -8.570  47.945  21.775  1.00  0.00     0.183 A 
HETATM   12  N8  UNL     1      -7.823  47.531  20.706  1.00  0.00     0.017 N 
ENDROOT
BRANCH  10  13
HETATM   13  N6  UNL     1      -8.825  47.136  24.155  1.00  0.00    -0.335 N 
ATOM     14  H6  UNL     1      -8.290  46.583  24.824  1.00  0.00     0.168 HD
BRANCH  13  15
HETATM   15  C9  UNL     1      -9.951  47.779  24.674  1.00  0.00     0.079 C 
HETATM   16  S1  UNL     1      -9.906  49.310  25.179  1.00  0.00    -0.065 SA
BRANCH  15  17
HETATM   17  C10 UNL     1     -11.261  47.039  24.776  1.00  0.00     0.070 C 
BRANCH  17  18
HETATM   18  C11 UNL     1     -11.104  45.784  25.568  1.00  0.00     0.013 C 
BRANCH  18  19
HETATM   19  C12 UNL     1     -11.198  45.918  27.042  1.00  0.00     0.065 C 
BRANCH  19  20
HETATM   20  C13 UNL     1      -9.887  45.777  27.728  1.00  0.00     0.051 A 
HETATM   21  N7  UNL     1      -9.060  44.739  27.619  1.00  0.00    -0.353 N 
HETATM   22  C14 UNL     1      -7.937  44.744  28.249  1.00  0.00     0.071 A 
ATOM     23  H7  UNL     1      -9.316  43.941  27.038  1.00  0.00     0.166 HD
HETATM   24  C20 UNL     1      -7.633  45.837  29.019  1.00  0.00     0.081 A 
HETATM   25  S2  UNL     1      -9.026  46.810  28.776  1.00  0.00    -0.086 SA
BRANCH  22  26
HETATM   26  C15 UNL     1      -6.956  43.588  28.154  1.00  0.00     0.309 C 
BRANCH  26  27
HETATM   27  O3  UNL     1      -5.728  44.180  27.788  1.00  0.00    -0.366 OA
ATOM     28  H3  UNL     1      -5.274  43.513  27.287  1.00  0.00     0.213 HD
ENDBRANCH  26  27
BRANCH  26  29
HETATM   29  O4  UNL     1      -7.445  42.766  27.172  1.00  0.00    -0.346 OA
BRANCH  29  30
HETATM   30  C16 UNL     1      -7.388  41.435  27.390  1.00  0.00     0.053 C 
HETATM   31  C17 UNL     1      -8.615  40.721  26.867  1.00  0.00     0.045 C 
HETATM   32  C18 UNL     1      -6.203  40.883  26.586  1.00  0.00     0.045 C 
HETATM   33  C19 UNL     1      -7.168  41.013  28.813  1.00  0.00     0.045 C 
ENDBRANCH  29  30
ENDBRANCH  26  29
ENDBRANCH  22  26
ENDBRANCH  19  20
ENDBRANCH  18  19
ENDBRANCH  17  18
ENDBRANCH  15  17
ENDBRANCH  13  15
ENDBRANCH  10  13
BRANCH   1  34
HETATM   34  N1  UNL     1      -8.418  49.007  19.126  1.00  0.00    -0.211 N 
ATOM     35  H1  UNL     1      -8.158  49.915  19.512  1.00  0.00     0.178 HD
BRANCH  34  36
HETATM   36  C3  UNL     1      -9.560  48.936  18.262  1.00  0.00     0.195 C 
HETATM   37  C4  UNL     1     -10.670  49.843  18.772  1.00  0.00     0.043 C 
BRANCH  36  38
HETATM   38  C2  UNL     1      -9.173  49.300  16.875  1.00  0.00     0.281 C 
HETATM   39  O2  UNL     1      -9.489  50.430  16.433  1.00  0.00    -0.263 OA
BRANCH  38  40
HETATM   40  O1  UNL     1      -8.469  48.411  16.067  1.00  0.00    -0.325 OA
HETATM   41  C1  UNL     1      -7.307  48.877  15.405  1.00  0.00     0.213 C 
ENDBRANCH  38  40
ENDBRANCH  36  38
ENDBRANCH  34  36
ENDBRANCH   1  34
BRANCH   4  42
HETATM   42  N3  UNL     1      -5.407  45.807  18.066  1.00  0.00    -0.234 N 
ATOM     43  H32 UNL     1      -5.544  45.946  17.065  1.00  0.00     0.174 HD
ATOM     44  H31 UNL     1      -4.647  45.235  18.433  1.00  0.00     0.174 HD
ENDBRANCH   4  42
TORSDOF 15
ENDMDL
