MODEL 1
REMARK VINA RESULT: -6.835458956      0.000      0.000
REMARK  2 active torsions:
REMARK  status: ('A' for Active; 'I' for Inactive)
REMARK    1  A    between atoms: C3_3  and  C4_4 
REMARK    2  A    between atoms: N1_14  and  O1_16 
ROOT
HETATM    1  C4  UNL     1      72.413  49.141  10.303  1.00  0.00     0.123 C 
HETATM    2  C5  UNL     1      71.413  48.060  10.167  1.00  0.00     0.050 C 
HETATM    3  C6  UNL     1      70.003  48.504   9.709  1.00  0.00     0.015 C 
HETATM    4  C7  UNL     1      70.089  49.529   8.529  1.00  0.00    -0.018 C 
HETATM    5  C8  UNL     1      69.576  48.795   7.302  1.00  0.00     0.018 C 
HETATM    6  C9  UNL     1      69.141  50.677   8.780  1.00  0.00     0.018 C 
HETATM    7  C10 UNL     1      71.462  49.795   8.479  1.00  0.00     0.154 C 
HETATM    8  C11 UNL     1      72.439  50.567   7.810  1.00  0.00     0.008 C 
HETATM    9  C12 UNL     1      73.679  50.264   8.301  1.00  0.00     0.029 C 
HETATM   10  C13 UNL     1      73.573  49.225   9.371  1.00  0.00     0.070 C 
HETATM   11  N1  UNL     1      74.553  48.381   9.465  1.00  0.00    -0.270 N 
ATOM     12  H1  UNL     1      74.506  47.665  10.190  1.00  0.00     0.194 HD
HETATM   13  O2  UNL     1      71.650  50.236   9.827  1.00  0.00    -0.360 OA
ENDROOT
BRANCH   1  14
HETATM   14  C3  UNL     1      72.883  49.376  11.686  1.00  0.00     0.013 C 
HETATM   15  C2  UNL     1      72.199  49.956  12.628  1.00  0.00    -0.032 C 
HETATM   16  C1  UNL     1      72.786  50.130  13.977  1.00  0.00     0.036 C 
ENDBRANCH   1  14
BRANCH  11  17
HETATM   17  O1  UNL     1      75.637  48.399   8.652  1.00  0.00    -0.290 OA
ATOM     18  H1  UNL     1      76.081  47.614   8.351  1.00  0.00     0.244 HD
ENDBRANCH  11  17
TORSDOF 2
ENDMDL
MODEL 2
REMARK VINA RESULT: -6.633685807      3.509      5.532
REMARK  2 active torsions:
REMARK  status: ('A' for Active; 'I' for Inactive)
REMARK    1  A    between atoms: C3_3  and  C4_4 
REMARK    2  A    between atoms: N1_14  and  O1_16 
ROOT
HETATM    1  C4  UNL     1      68.626  51.990  10.464  1.00  0.00     0.123 C 
HETATM    2  C5  UNL     1      68.104  51.072   9.427  1.00  0.00     0.050 C 
HETATM    3  C6  UNL     1      69.163  50.451   8.486  1.00  0.00     0.015 C 
HETATM    4  C7  UNL     1      70.413  49.959   9.290  1.00  0.00    -0.018 C 
HETATM    5  C8  UNL     1      70.375  48.442   9.230  1.00  0.00     0.018 C 
HETATM    6  C9  UNL     1      71.676  50.393   8.584  1.00  0.00     0.018 C 
HETATM    7  C10 UNL     1      70.152  50.468  10.567  1.00  0.00     0.154 C 
HETATM    8  C11 UNL     1      70.684  50.567  11.873  1.00  0.00     0.008 C 
HETATM    9  C12 UNL     1      69.799  51.226  12.680  1.00  0.00     0.029 C 
HETATM   10  C13 UNL     1      68.580  51.613  11.905  1.00  0.00     0.070 C 
HETATM   11  N1  UNL     1      67.454  51.615  12.549  1.00  0.00    -0.270 N 
ATOM     12  H1  UNL     1      66.609  51.880  12.043  1.00  0.00     0.194 HD
HETATM   13  O2  UNL     1      70.016  51.852  10.230  1.00  0.00    -0.360 OA
ENDROOT
BRANCH   1  14
HETATM   14  C3  UNL     1      68.194  53.397  10.315  1.00  0.00     0.013 C 
HETATM   15  C2  UNL     1      68.814  54.309   9.624  1.00  0.00    -0.032 C 
HETATM   16  C1  UNL     1      68.275  55.686   9.554  1.00  0.00     0.036 C 
ENDBRANCH   1  14
BRANCH  11  17
HETATM   17  O1  UNL     1      67.340  51.284  13.858  1.00  0.00    -0.290 OA
ATOM     18  H1  UNL     1      67.675  51.820  14.567  1.00  0.00     0.244 HD
ENDBRANCH  11  17
TORSDOF 2
ENDMDL
MODEL 3
REMARK VINA RESULT: -6.466174632      3.536      5.155
REMARK  2 active torsions:
REMARK  status: ('A' for Active; 'I' for Inactive)
REMARK    1  A    between atoms: C3_3  and  C4_4 
REMARK    2  A    between atoms: N1_14  and  O1_16 
ROOT
HETATM    1  C4  UNL     1      69.284  51.529  11.004  1.00  0.00     0.123 C 
HETATM    2  C5  UNL     1      69.972  51.680   9.704  1.00  0.00     0.050 C 
HETATM    3  C6  UNL     1      70.252  50.366   8.936  1.00  0.00     0.015 C 
HETATM    4  C7  UNL     1      69.003  49.421   8.961  1.00  0.00    -0.018 C 
HETATM    5  C8  UNL     1      68.464  49.407   7.541  1.00  0.00     0.018 C 
HETATM    6  C9  UNL     1      69.438  48.011   9.278  1.00  0.00     0.018 C 
HETATM    7  C10 UNL     1      68.162  50.081   9.864  1.00  0.00     0.154 C 
HETATM    8  C11 UNL     1      66.910  49.989  10.514  1.00  0.00     0.008 C 
HETATM    9  C12 UNL     1      66.714  51.096  11.292  1.00  0.00     0.029 C 
HETATM   10  C13 UNL     1      67.888  52.017  11.186  1.00  0.00     0.070 C 
HETATM   11  N1  UNL     1      67.641  53.288  11.266  1.00  0.00    -0.270 N 
ATOM     12  H1  UNL     1      68.426  53.937  11.201  1.00  0.00     0.194 HD
HETATM   13  O2  UNL     1      69.043  50.133  10.989  1.00  0.00    -0.360 OA
ENDROOT
BRANCH   1  14
HETATM   14  C3  UNL     1      70.093  51.921  12.179  1.00  0.00     0.013 C 
HETATM   15  C2  UNL     1      70.958  51.164  12.787  1.00  0.00    -0.032 C 
HETATM   16  C1  UNL     1      71.707  51.679  13.957  1.00  0.00     0.036 C 
ENDBRANCH   1  14
BRANCH  11  17
HETATM   17  O1  UNL     1      66.398  53.801  11.430  1.00  0.00    -0.290 OA
ATOM     18  H1  UNL     1      65.712  53.368  11.924  1.00  0.00     0.244 HD
ENDBRANCH  11  17
TORSDOF 2
ENDMDL
MODEL 4
REMARK VINA RESULT: -6.461831918      3.491      5.669
REMARK  2 active torsions:
REMARK  status: ('A' for Active; 'I' for Inactive)
REMARK    1  A    between atoms: C3_3  and  C4_4 
REMARK    2  A    between atoms: N1_14  and  O1_16 
ROOT
HETATM    1  C4  UNL     1      67.711  50.335   9.304  1.00  0.00     0.123 C 
HETATM    2  C5  UNL     1      68.632  51.477   9.112  1.00  0.00     0.050 C 
HETATM    3  C6  UNL     1      69.908  51.464   9.987  1.00  0.00     0.015 C 
HETATM    4  C7  UNL     1      70.557  50.039  10.017  1.00  0.00    -0.018 C 
HETATM    5  C8  UNL     1      71.850  50.154   9.228  1.00  0.00     0.018 C 
HETATM    6  C9  UNL     1      70.940  49.684  11.434  1.00  0.00     0.018 C 
HETATM    7  C10 UNL     1      69.584  49.266   9.374  1.00  0.00     0.154 C 
HETATM    8  C11 UNL     1      69.270  47.945   8.980  1.00  0.00     0.008 C 
HETATM    9  C12 UNL     1      68.077  47.937   8.312  1.00  0.00     0.029 C 
HETATM   10  C13 UNL     1      67.521  49.322   8.228  1.00  0.00     0.070 C 
HETATM   11  N1  UNL     1      66.844  49.616   7.161  1.00  0.00    -0.270 N 
ATOM     12  H1  UNL     1      66.451  50.554   7.083  1.00  0.00     0.194 HD
HETATM   13  O2  UNL     1      68.470  49.565  10.220  1.00  0.00    -0.360 OA
ENDROOT
BRANCH   1  14
HETATM   14  C3  UNL     1      66.393  50.696   9.872  1.00  0.00     0.013 C 
HETATM   15  C2  UNL     1      65.651  49.923  10.609  1.00  0.00    -0.032 C 
HETATM   16  C1  UNL     1      64.346  50.407  11.117  1.00  0.00     0.036 C 
ENDBRANCH   1  14
BRANCH  11  17
HETATM   17  O1  UNL     1      66.633  48.746   6.145  1.00  0.00    -0.290 OA
ATOM     18  H1  UNL     1      66.381  49.013   5.268  1.00  0.00     0.244 HD
ENDBRANCH  11  17
TORSDOF 2
ENDMDL
MODEL 5
REMARK VINA RESULT: -6.418167606      2.512      4.270
REMARK  2 active torsions:
REMARK  status: ('A' for Active; 'I' for Inactive)
REMARK    1  A    between atoms: C3_3  and  C4_4 
REMARK    2  A    between atoms: N1_14  and  O1_16 
ROOT
HETATM    1  C4  UNL     1      71.422  49.931   8.457  1.00  0.00     0.123 C 
HETATM    2  C5  UNL     1      72.411  50.781   7.757  1.00  0.00     0.050 C 
HETATM    3  C6  UNL     1      73.869  50.262   7.769  1.00  0.00     0.015 C 
HETATM    4  C7  UNL     1      73.925  48.728   7.463  1.00  0.00    -0.018 C 
HETATM    5  C8  UNL     1      74.548  48.601   6.084  1.00  0.00     0.018 C 
HETATM    6  C9  UNL     1      74.863  48.049   8.432  1.00  0.00     0.018 C 
HETATM    7  C10 UNL     1      72.569  48.380   7.491  1.00  0.00     0.154 C 
HETATM    8  C11 UNL     1      71.682  47.286   7.369  1.00  0.00     0.008 C 
HETATM    9  C12 UNL     1      70.392  47.727   7.482  1.00  0.00     0.029 C 
HETATM   10  C13 UNL     1      70.368  49.207   7.693  1.00  0.00     0.070 C 
HETATM   11  N1  UNL     1      69.367  49.853   7.180  1.00  0.00    -0.270 N 
ATOM     12  H1  UNL     1      69.325  50.864   7.315  1.00  0.00     0.194 HD
HETATM   13  O2  UNL     1      72.251  48.837   8.808  1.00  0.00    -0.360 OA
ENDROOT
BRANCH   1  14
HETATM   14  C3  UNL     1      70.816  50.551   9.656  1.00  0.00     0.013 C 
HETATM   15  C2  UNL     1      70.887  50.082  10.867  1.00  0.00    -0.032 C 
HETATM   16  C1  UNL     1      70.234  50.802  11.984  1.00  0.00     0.036 C 
ENDBRANCH   1  14
BRANCH  11  17
HETATM   17  O1  UNL     1      68.374  49.260   6.475  1.00  0.00    -0.290 OA
ATOM     18  H1  UNL     1      68.448  48.394   6.090  1.00  0.00     0.244 HD
ENDBRANCH  11  17
TORSDOF 2
ENDMDL
