MODEL 1
REMARK VINA RESULT: -6.744006234      0.000      0.000
REMARK  2 active torsions:
REMARK  status: ('A' for Active; 'I' for Inactive)
REMARK       I    between atoms: C2_2  and  N1_4 
REMARK    1  A    between atoms: C3_6  and  C4_7 
REMARK    2  A    between atoms: N2_9  and  O2_11 
ROOT
HETATM    1  C4  UNL     1      69.859  51.245  11.365  1.00  0.00     0.079 C 
HETATM    2  C5  UNL     1      70.707  51.347  12.581  1.00  0.00     0.020 C 
HETATM    3  N2  UNL     1      70.193  51.753  13.687  1.00  0.00    -0.277 N 
ATOM      4  H2  UNL     1      69.205  52.004  13.729  1.00  0.00     0.193 HD
HETATM    5  C6  UNL     1      72.141  50.983  12.517  1.00  0.00     0.064 C 
HETATM    6  C7  UNL     1      72.279  49.541  12.031  1.00  0.00    -0.042 C 
HETATM    7  C8  UNL     1      72.607  48.698  13.260  1.00  0.00     0.015 C 
HETATM    8  C9  UNL     1      73.416  49.383  11.059  1.00  0.00     0.015 C 
HETATM    9  C10 UNL     1      70.969  49.015  11.499  1.00  0.00     0.018 C 
HETATM   10  C11 UNL     1      70.248  49.987  10.619  1.00  0.00    -0.034 C 
HETATM   11  C12 UNL     1      71.029  50.381   9.401  1.00  0.00     0.016 C 
HETATM   12  C13 UNL     1      68.996  49.254  10.117  1.00  0.00     0.016 C 
ENDROOT
BRANCH   1  13
HETATM   13  C3  UNL     1      68.422  51.275  11.680  1.00  0.00     0.075 C 
HETATM   14  N1  UNL     1      67.626  52.055  11.062  1.00  0.00    -0.340 N 
HETATM   15  C2  UNL     1      68.063  52.940  10.038  1.00  0.00     0.217 C 
ATOM     16  H1  UNL     1      66.637  52.044  11.311  1.00  0.00     0.167 HD
HETATM   17  C1  UNL     1      68.323  54.384  10.268  1.00  0.00     0.117 C 
HETATM   18  O1  UNL     1      68.258  52.529   8.843  1.00  0.00    -0.274 OA
ENDBRANCH   1  13
BRANCH   3  19
HETATM   19  O2  UNL     1      70.972  51.847  14.806  1.00  0.00    -0.290 OA
ATOM     20  H2  UNL     1      70.678  52.369  15.544  1.00  0.00     0.244 HD
ENDBRANCH   3  19
TORSDOF 2
ENDMDL
MODEL 2
REMARK VINA RESULT: -6.503264430      2.946      4.408
REMARK  2 active torsions:
REMARK  status: ('A' for Active; 'I' for Inactive)
REMARK       I    between atoms: C2_2  and  N1_4 
REMARK    1  A    between atoms: C3_6  and  C4_7 
REMARK    2  A    between atoms: N2_9  and  O2_11 
ROOT
HETATM    1  C4  UNL     1      67.576  50.211  10.320  1.00  0.00     0.079 C 
HETATM    2  C5  UNL     1      68.496  49.199   9.737  1.00  0.00     0.020 C 
HETATM    3  N2  UNL     1      68.185  48.612   8.637  1.00  0.00    -0.277 N 
ATOM      4  H2  UNL     1      67.310  48.840   8.165  1.00  0.00     0.193 HD
HETATM    5  C6  UNL     1      69.765  48.870  10.423  1.00  0.00     0.064 C 
HETATM    6  C7  UNL     1      70.596  50.141  10.595  1.00  0.00    -0.042 C 
HETATM    7  C8  UNL     1      71.700  50.083   9.543  1.00  0.00     0.015 C 
HETATM    8  C9  UNL     1      71.260  50.199  11.944  1.00  0.00     0.015 C 
HETATM    9  C10 UNL     1      69.784  51.372  10.283  1.00  0.00     0.018 C 
HETATM   10  C11 UNL     1      68.409  51.347  10.874  1.00  0.00    -0.034 C 
HETATM   11  C12 UNL     1      68.405  51.250  12.370  1.00  0.00     0.016 C 
HETATM   12  C13 UNL     1      67.772  52.699  10.520  1.00  0.00     0.016 C 
ENDROOT
BRANCH   1  13
HETATM   13  C3  UNL     1      66.577  50.685   9.349  1.00  0.00     0.075 C 
HETATM   14  N1  UNL     1      65.328  50.566   9.574  1.00  0.00    -0.340 N 
HETATM   15  C2  UNL     1      64.818  49.975  10.763  1.00  0.00     0.217 C 
ATOM     16  H1  UNL     1      64.669  50.908   8.875  1.00  0.00     0.167 HD
HETATM   17  C1  UNL     1      64.342  48.569  10.832  1.00  0.00     0.117 C 
HETATM   18  O1  UNL     1      64.741  50.636  11.854  1.00  0.00    -0.274 OA
ENDBRANCH   1  13
BRANCH   3  19
HETATM   19  O2  UNL     1      69.030  47.681   8.099  1.00  0.00    -0.290 OA
ATOM     20  H2  UNL     1      68.970  47.465   7.176  1.00  0.00     0.244 HD
ENDBRANCH   3  19
TORSDOF 2
ENDMDL
MODEL 3
REMARK VINA RESULT: -6.490911574      3.650      5.608
REMARK  2 active torsions:
REMARK  status: ('A' for Active; 'I' for Inactive)
REMARK       I    between atoms: C2_2  and  N1_4 
REMARK    1  A    between atoms: C3_6  and  C4_7 
REMARK    2  A    between atoms: N2_9  and  O2_11 
ROOT
HETATM    1  C4  UNL     1      72.778  49.086   9.046  1.00  0.00     0.079 C 
HETATM    2  C5  UNL     1      72.524  49.060  10.511  1.00  0.00     0.020 C 
HETATM    3  N2  UNL     1      73.488  49.288  11.330  1.00  0.00    -0.277 N 
ATOM      4  H2  UNL     1      74.424  49.485  10.977  1.00  0.00     0.193 HD
HETATM    5  C6  UNL     1      71.165  48.772  11.022  1.00  0.00     0.064 C 
HETATM    6  C7  UNL     1      70.178  49.786  10.444  1.00  0.00    -0.042 C 
HETATM    7  C8  UNL     1      69.874  50.780  11.561  1.00  0.00     0.015 C 
HETATM    8  C9  UNL     1      68.878  49.140  10.048  1.00  0.00     0.015 C 
HETATM    9  C10 UNL     1      70.805  50.586   9.330  1.00  0.00     0.018 C 
HETATM   10  C11 UNL     1      71.600  49.755   8.372  1.00  0.00    -0.034 C 
HETATM   11  C12 UNL     1      70.789  48.700   7.681  1.00  0.00     0.016 C 
HETATM   12  C13 UNL     1      72.086  50.718   7.280  1.00  0.00     0.016 C 
ENDROOT
BRANCH   1  13
HETATM   13  C3  UNL     1      74.051  49.743   8.710  1.00  0.00     0.075 C 
HETATM   14  N1  UNL     1      74.980  49.114   8.106  1.00  0.00    -0.340 N 
HETATM   15  C2  UNL     1      74.856  47.751   7.719  1.00  0.00     0.217 C 
ATOM     16  H1  UNL     1      75.847  49.608   7.891  1.00  0.00     0.167 HD
HETATM   17  C1  UNL     1      75.439  46.629   8.498  1.00  0.00     0.117 C 
HETATM   18  O1  UNL     1      74.223  47.415   6.660  1.00  0.00    -0.274 OA
ENDBRANCH   1  13
BRANCH   3  19
HETATM   19  O2  UNL     1      73.256  49.264  12.677  1.00  0.00    -0.290 OA
ATOM     20  H2  UNL     1      72.430  48.932  13.009  1.00  0.00     0.244 HD
ENDBRANCH   3  19
TORSDOF 2
ENDMDL
MODEL 4
REMARK VINA RESULT: -6.444578718      2.820      3.805
REMARK  2 active torsions:
REMARK  status: ('A' for Active; 'I' for Inactive)
REMARK       I    between atoms: C2_2  and  N1_4 
REMARK    1  A    between atoms: C3_6  and  C4_7 
REMARK    2  A    between atoms: N2_9  and  O2_11 
ROOT
HETATM    1  C4  UNL     1      71.609  49.565   9.949  1.00  0.00     0.079 C 
HETATM    2  C5  UNL     1      72.722  48.765  10.524  1.00  0.00     0.020 C 
HETATM    3  N2  UNL     1      72.533  48.087  11.600  1.00  0.00    -0.277 N 
ATOM      4  H2  UNL     1      71.622  48.099  12.058  1.00  0.00     0.193 HD
HETATM    5  C6  UNL     1      74.044  48.750   9.858  1.00  0.00     0.064 C 
HETATM    6  C7  UNL     1      73.884  48.268   8.417  1.00  0.00    -0.042 C 
HETATM    7  C8  UNL     1      74.379  46.825   8.384  1.00  0.00     0.015 C 
HETATM    8  C9  UNL     1      74.736  49.060   7.463  1.00  0.00     0.015 C 
HETATM    9  C10 UNL     1      72.431  48.221   8.014  1.00  0.00     0.018 C 
HETATM   10  C11 UNL     1      71.654  49.426   8.443  1.00  0.00    -0.034 C 
HETATM   11  C12 UNL     1      72.174  50.708   7.865  1.00  0.00     0.016 C 
HETATM   12  C13 UNL     1      70.237  49.237   7.882  1.00  0.00     0.016 C 
ENDROOT
BRANCH   1  13
HETATM   13  C3  UNL     1      70.300  49.179  10.499  1.00  0.00     0.075 C 
HETATM   14  N1  UNL     1      69.642  49.966  11.255  1.00  0.00    -0.340 N 
HETATM   15  C2  UNL     1      70.119  51.255  11.617  1.00  0.00     0.217 C 
ATOM     16  H1  UNL     1      68.738  49.658  11.614  1.00  0.00     0.167 HD
HETATM   17  C1  UNL     1      70.776  51.543  12.918  1.00  0.00     0.117 C 
HETATM   18  O1  UNL     1      70.004  52.253  10.826  1.00  0.00    -0.274 OA
ENDBRANCH   1  13
BRANCH   3  19
HETATM   19  O2  UNL     1      73.556  47.351  12.130  1.00  0.00    -0.290 OA
ATOM     20  H2  UNL     1      74.025  47.672  12.891  1.00  0.00     0.244 HD
ENDBRANCH   3  19
TORSDOF 2
ENDMDL
MODEL 5
REMARK VINA RESULT: -6.404462448      2.580      4.179
REMARK  2 active torsions:
REMARK  status: ('A' for Active; 'I' for Inactive)
REMARK       I    between atoms: C2_2  and  N1_4 
REMARK    1  A    between atoms: C3_6  and  C4_7 
REMARK    2  A    between atoms: N2_9  and  O2_11 
ROOT
HETATM    1  C4  UNL     1      69.594  50.379   8.793  1.00  0.00     0.079 C 
HETATM    2  C5  UNL     1      69.319  51.705   9.407  1.00  0.00     0.020 C 
HETATM    3  N2  UNL     1      68.432  52.477   8.888  1.00  0.00    -0.277 N 
ATOM      4  H2  UNL     1      67.919  52.181   8.058  1.00  0.00     0.193 HD
HETATM    5  C6  UNL     1      70.065  52.132  10.611  1.00  0.00     0.064 C 
HETATM    6  C7  UNL     1      69.865  51.106  11.725  1.00  0.00    -0.042 C 
HETATM    7  C8  UNL     1      68.868  51.718  12.706  1.00  0.00     0.015 C 
HETATM    8  C9  UNL     1      71.139  50.844  12.482  1.00  0.00     0.015 C 
HETATM    9  C10 UNL     1      69.220  49.848  11.201  1.00  0.00     0.018 C 
HETATM   10  C11 UNL     1      69.799  49.374   9.906  1.00  0.00    -0.034 C 
HETATM   11  C12 UNL     1      71.261  49.052   9.988  1.00  0.00     0.016 C 
HETATM   12  C13 UNL     1      69.080  48.058   9.576  1.00  0.00     0.016 C 
ENDROOT
BRANCH   1  13
HETATM   13  C3  UNL     1      68.534  49.961   7.863  1.00  0.00     0.075 C 
HETATM   14  N1  UNL     1      68.811  49.488   6.712  1.00  0.00    -0.340 N 
HETATM   15  C2  UNL     1      70.147  49.331   6.252  1.00  0.00     0.217 C 
ATOM     16  H1  UNL     1      68.045  49.210   6.099  1.00  0.00     0.167 HD
HETATM   17  C1  UNL     1      70.810  50.297   5.338  1.00  0.00     0.117 C 
HETATM   18  O1  UNL     1      70.861  48.332   6.607  1.00  0.00    -0.274 OA
ENDBRANCH   1  13
BRANCH   3  19
HETATM   19  O2  UNL     1      68.177  53.696   9.452  1.00  0.00    -0.290 OA
ATOM     20  H2  UNL     1      67.612  53.757  10.213  1.00  0.00     0.244 HD
ENDBRANCH   3  19
TORSDOF 2
ENDMDL
