MODEL 1
REMARK VINA RESULT: -4.651994318      0.000      0.000
REMARK  3 active torsions:
REMARK  status: ('A' for Active; 'I' for Inactive)
REMARK       I    between atoms: N1_2  and  C2_4 
REMARK       I    between atoms: C2_4  and  N6_18 
REMARK       I    between atoms: N2_5  and  C3_7 
REMARK       I    between atoms: C3_7  and  N5_12 
REMARK    1  A    between atoms: N5_12  and  C5_14 
REMARK    2  A    between atoms: C5_14  and  C6_15 
REMARK    3  A    between atoms: N6_18  and  N7_20 
ROOT
HETATM    1  C1  UNL     1     -19.589  -4.535 -20.720  1.00  0.00     0.165 C 
HETATM    2  N1  UNL     1     -20.160  -3.253 -21.113  1.00  0.00    -0.229 N 
ATOM      3  H1  UNL     1     -20.488  -3.103 -22.067  1.00  0.00     0.177 HD
HETATM    4  C2  UNL     1     -20.254  -2.221 -20.153  1.00  0.00     0.711 C 
HETATM    5  N2  UNL     1     -21.378  -1.653 -19.958  1.00  0.00    -0.021 N 
ATOM      6  H2  UNL     1     -22.158  -1.988 -20.523  1.00  0.00     0.203 HD
HETATM    7  C3  UNL     1     -21.661  -0.619 -19.052  1.00  0.00     0.702 C 
HETATM    8  N3  UNL     1     -21.478  -0.788 -17.789  1.00  0.00    -0.126 N 
ATOM      9  H3  UNL     1     -21.126  -1.688 -17.464  1.00  0.00     0.197 HD
HETATM   10  C4  UNL     1     -21.740   0.202 -16.847  1.00  0.00     0.196 C 
HETATM   11  N4  UNL     1     -21.959   1.021 -16.041  1.00  0.00    -0.171 NA
HETATM   12  N5  UNL     1     -22.160   0.659 -19.466  1.00  0.00    -0.214 N 
ATOM     13  H5  UNL     1     -21.700   1.519 -19.168  1.00  0.00     0.178 HD
HETATM   14  N6  UNL     1     -19.107  -1.844 -19.437  1.00  0.00    -0.071 N 
ATOM     15  H6  UNL     1     -18.871  -2.316 -18.564  1.00  0.00     0.212 HD
ENDROOT
BRANCH  12  16
HETATM   16  C5  UNL     1     -23.325   0.701 -20.314  1.00  0.00     0.235 C 
BRANCH  16  17
HETATM   17  C6  UNL     1     -24.408   1.361 -19.551  1.00  0.00    -0.051 C 
HETATM   18  C7  UNL     1     -25.303   1.890 -18.941  1.00  0.00     0.107 C 
HETATM   19  F1  UNL     1     -26.303   2.497 -18.274  1.00  0.00    -0.144 F 
ENDBRANCH  16  17
ENDBRANCH  12  16
BRANCH  14  20
HETATM   20  N7  UNL     1     -18.296  -0.830 -19.920  1.00  0.00    -0.024 N 
HETATM   21  O1  UNL     1     -17.783  -0.888 -21.058  1.00  0.00    -0.516 OA
HETATM   22  O2  UNL     1     -18.046   0.264 -19.136  1.00  0.00    -0.516 OA
ENDBRANCH  14  20
TORSDOF 3
ENDMDL
MODEL 2
REMARK VINA RESULT: -4.202212990      3.465      5.471
REMARK  3 active torsions:
REMARK  status: ('A' for Active; 'I' for Inactive)
REMARK       I    between atoms: N1_2  and  C2_4 
REMARK       I    between atoms: C2_4  and  N6_18 
REMARK       I    between atoms: N2_5  and  C3_7 
REMARK       I    between atoms: C3_7  and  N5_12 
REMARK    1  A    between atoms: N5_12  and  C5_14 
REMARK    2  A    between atoms: C5_14  and  C6_15 
REMARK    3  A    between atoms: N6_18  and  N7_20 
ROOT
HETATM    1  C1  UNL     1     -24.063   1.687 -19.865  1.00  0.00     0.165 C 
HETATM    2  N1  UNL     1     -22.989   0.719 -19.676  1.00  0.00    -0.229 N 
ATOM      3  H1  UNL     1     -23.117  -0.255 -19.949  1.00  0.00     0.177 HD
HETATM    4  C2  UNL     1     -21.769   1.150 -19.110  1.00  0.00     0.711 C 
HETATM    5  N2  UNL     1     -20.679   0.905 -19.721  1.00  0.00    -0.021 N 
ATOM      6  H2  UNL     1     -20.758   0.398 -20.602  1.00  0.00     0.203 HD
HETATM    7  C3  UNL     1     -19.381   1.254 -19.316  1.00  0.00     0.702 C 
HETATM    8  N3  UNL     1     -19.058   2.489 -19.147  1.00  0.00    -0.126 N 
ATOM      9  H3  UNL     1     -19.765   3.204 -19.317  1.00  0.00     0.197 HD
HETATM   10  C4  UNL     1     -17.788   2.892 -18.746  1.00  0.00     0.196 C 
HETATM   11  N4  UNL     1     -16.725   3.248 -18.413  1.00  0.00    -0.171 NA
HETATM   12  N5  UNL     1     -18.358   0.281 -19.070  1.00  0.00    -0.214 N 
ATOM     13  H5  UNL     1     -17.839   0.281 -18.192  1.00  0.00     0.178 HD
HETATM   14  N6  UNL     1     -21.787   1.839 -17.887  1.00  0.00    -0.071 N 
ATOM     15  H6  UNL     1     -21.882   2.854 -17.873  1.00  0.00     0.212 HD
ENDROOT
BRANCH  12  16
HETATM   16  C5  UNL     1     -18.080  -0.698 -20.091  1.00  0.00     0.235 C 
BRANCH  16  17
HETATM   17  C6  UNL     1     -19.150  -1.718 -20.035  1.00  0.00    -0.051 C 
HETATM   18  C7  UNL     1     -20.012  -2.560 -20.003  1.00  0.00     0.107 C 
HETATM   19  F1  UNL     1     -20.986  -3.491 -19.983  1.00  0.00    -0.144 F 
ENDBRANCH  16  17
ENDBRANCH  12  16
BRANCH  14  20
HETATM   20  N7  UNL     1     -21.674   1.135 -16.699  1.00  0.00    -0.024 N 
HETATM   21  O1  UNL     1     -22.305   0.074 -16.505  1.00  0.00    -0.516 OA
HETATM   22  O2  UNL     1     -20.855   1.610 -15.710  1.00  0.00    -0.516 OA
ENDBRANCH  14  20
TORSDOF 3
ENDMDL
MODEL 3
REMARK VINA RESULT: -3.663102049      3.849      5.972
REMARK  3 active torsions:
REMARK  status: ('A' for Active; 'I' for Inactive)
REMARK       I    between atoms: N1_2  and  C2_4 
REMARK       I    between atoms: C2_4  and  N6_18 
REMARK       I    between atoms: N2_5  and  C3_7 
REMARK       I    between atoms: C3_7  and  N5_12 
REMARK    1  A    between atoms: N5_12  and  C5_14 
REMARK    2  A    between atoms: C5_14  and  C6_15 
REMARK    3  A    between atoms: N6_18  and  N7_20 
ROOT
HETATM    1  C1  UNL     1     -22.270   4.108 -19.912  1.00  0.00     0.165 C 
HETATM    2  N1  UNL     1     -22.386   2.747 -19.402  1.00  0.00    -0.229 N 
ATOM      3  H1  UNL     1     -23.300   2.304 -19.312  1.00  0.00     0.177 HD
HETATM    4  C2  UNL     1     -21.212   2.051 -19.036  1.00  0.00     0.711 C 
HETATM    5  N2  UNL     1     -20.994   0.897 -19.530  1.00  0.00    -0.021 N 
ATOM      6  H2  UNL     1     -21.699   0.540 -20.174  1.00  0.00     0.203 HD
HETATM    7  C3  UNL     1     -19.891   0.063 -19.285  1.00  0.00     0.702 C 
HETATM    8  N3  UNL     1     -18.698   0.457 -19.568  1.00  0.00    -0.126 N 
ATOM      9  H3  UNL     1     -18.575   1.385 -19.973  1.00  0.00     0.197 HD
HETATM   10  C4  UNL     1     -17.570  -0.326 -19.346  1.00  0.00     0.196 C 
HETATM   11  N4  UNL     1     -16.611  -0.973 -19.170  1.00  0.00    -0.171 NA
HETATM   12  N5  UNL     1     -20.021  -1.247 -18.721  1.00  0.00    -0.214 N 
ATOM     13  H5  UNL     1     -19.473  -1.519 -17.904  1.00  0.00     0.178 HD
HETATM   14  N6  UNL     1     -20.315   2.646 -18.135  1.00  0.00    -0.071 N 
ATOM     15  H6  UNL     1     -19.568   3.249 -18.481  1.00  0.00     0.212 HD
ENDROOT
BRANCH  12  16
HETATM   16  C5  UNL     1     -20.943  -2.172 -19.332  1.00  0.00     0.235 C 
BRANCH  16  17
HETATM   17  C6  UNL     1     -20.143  -3.188 -20.053  1.00  0.00    -0.051 C 
HETATM   18  C7  UNL     1     -19.491  -4.026 -20.623  1.00  0.00     0.107 C 
HETATM   19  F1  UNL     1     -18.745  -4.952 -21.253  1.00  0.00    -0.144 F 
ENDBRANCH  16  17
ENDBRANCH  12  16
BRANCH  14  20
HETATM   20  N7  UNL     1     -20.447   2.412 -16.776  1.00  0.00    -0.024 N 
HETATM   21  O1  UNL     1     -19.914   3.160 -15.928  1.00  0.00    -0.516 OA
HETATM   22  O2  UNL     1     -21.176   1.336 -16.346  1.00  0.00    -0.516 OA
ENDBRANCH  14  20
TORSDOF 3
ENDMDL
MODEL 4
REMARK VINA RESULT: -3.380168492      1.572      1.612
REMARK  3 active torsions:
REMARK  status: ('A' for Active; 'I' for Inactive)
REMARK       I    between atoms: N1_2  and  C2_4 
REMARK       I    between atoms: C2_4  and  N6_18 
REMARK       I    between atoms: N2_5  and  C3_7 
REMARK       I    between atoms: C3_7  and  N5_12 
REMARK    1  A    between atoms: N5_12  and  C5_14 
REMARK    2  A    between atoms: C5_14  and  C6_15 
REMARK    3  A    between atoms: N6_18  and  N7_20 
ROOT
HETATM    1  C1  UNL     1     -20.556  -3.651 -19.943  1.00  0.00     0.165 C 
HETATM    2  N1  UNL     1     -20.697  -2.318 -20.515  1.00  0.00    -0.229 N 
ATOM      3  H1  UNL     1     -21.073  -2.195 -21.455  1.00  0.00     0.177 HD
HETATM    4  C2  UNL     1     -20.306  -1.198 -19.748  1.00  0.00     0.711 C 
HETATM    5  N2  UNL     1     -21.131  -0.242 -19.578  1.00  0.00    -0.021 N 
ATOM      6  H2  UNL     1     -22.045  -0.349 -20.019  1.00  0.00     0.203 HD
HETATM    7  C3  UNL     1     -20.923   0.941 -18.851  1.00  0.00     0.702 C 
HETATM    8  N3  UNL     1     -20.649   0.897 -17.594  1.00  0.00    -0.126 N 
ATOM      9  H3  UNL     1     -20.589  -0.015 -17.141  1.00  0.00     0.197 HD
HETATM   10  C4  UNL     1     -20.431   2.036 -16.826  1.00  0.00     0.196 C 
HETATM   11  N4  UNL     1     -20.250   2.983 -16.164  1.00  0.00    -0.171 NA
HETATM   12  N5  UNL     1     -21.001   2.241 -19.449  1.00  0.00    -0.214 N 
ATOM     13  H5  UNL     1     -20.239   2.910 -19.340  1.00  0.00     0.178 HD
HETATM   14  N6  UNL     1     -19.018  -1.163 -19.192  1.00  0.00    -0.071 N 
ATOM     15  H6  UNL     1     -18.849  -1.561 -18.269  1.00  0.00     0.212 HD
ENDROOT
BRANCH  12  16
HETATM   16  C5  UNL     1     -22.179   2.581 -20.207  1.00  0.00     0.235 C 
BRANCH  16  17
HETATM   17  C6  UNL     1     -23.316   1.837 -19.621  1.00  0.00    -0.051 C 
HETATM   18  C7  UNL     1     -24.230   1.221 -19.131  1.00  0.00     0.107 C 
HETATM   19  F1  UNL     1     -25.247   0.517 -18.600  1.00  0.00    -0.144 F 
ENDBRANCH  16  17
ENDBRANCH  12  16
BRANCH  14  20
HETATM   20  N7  UNL     1     -17.977  -0.588 -19.903  1.00  0.00    -0.024 N 
HETATM   21  O1  UNL     1     -17.791  -0.841 -21.113  1.00  0.00    -0.516 OA
HETATM   22  O2  UNL     1     -17.127   0.278 -19.269  1.00  0.00    -0.516 OA
ENDBRANCH  14  20
TORSDOF 3
ENDMDL
MODEL 5
REMARK VINA RESULT: -3.297091762     10.674     11.704
REMARK  3 active torsions:
REMARK  status: ('A' for Active; 'I' for Inactive)
REMARK       I    between atoms: N1_2  and  C2_4 
REMARK       I    between atoms: C2_4  and  N6_18 
REMARK       I    between atoms: N2_5  and  C3_7 
REMARK       I    between atoms: C3_7  and  N5_12 
REMARK    1  A    between atoms: N5_12  and  C5_14 
REMARK    2  A    between atoms: C5_14  and  C6_15 
REMARK    3  A    between atoms: N6_18  and  N7_20 
ROOT
HETATM    1  C1  UNL     1     -14.541  -4.336 -25.917  1.00  0.00     0.165 C 
HETATM    2  N1  UNL     1     -13.600  -4.807 -24.908  1.00  0.00    -0.229 N 
ATOM      3  H1  UNL     1     -12.882  -4.183 -24.539  1.00  0.00     0.177 HD
HETATM    4  C2  UNL     1     -13.697  -6.138 -24.448  1.00  0.00     0.711 C 
HETATM    5  N2  UNL     1     -13.776  -6.360 -23.196  1.00  0.00    -0.021 N 
ATOM      6  H2  UNL     1     -13.763  -5.540 -22.590  1.00  0.00     0.203 HD
HETATM    7  C3  UNL     1     -13.879  -7.607 -22.558  1.00  0.00     0.702 C 
HETATM    8  N3  UNL     1     -14.875  -8.385 -22.802  1.00  0.00    -0.126 N 
ATOM      9  H3  UNL     1     -15.584  -8.075 -23.466  1.00  0.00     0.197 HD
HETATM   10  C4  UNL     1     -15.027  -9.631 -22.201  1.00  0.00     0.196 C 
HETATM   11  N4  UNL     1     -15.173 -10.679 -21.702  1.00  0.00    -0.171 NA
HETATM   12  N5  UNL     1     -12.906  -8.078 -21.618  1.00  0.00    -0.214 N 
ATOM     13  H5  UNL     1     -12.477  -8.997 -21.730  1.00  0.00     0.178 HD
HETATM   14  N6  UNL     1     -13.703  -7.188 -25.381  1.00  0.00    -0.071 N 
ATOM     15  H6  UNL     1     -14.583  -7.509 -25.783  1.00  0.00     0.212 HD
ENDROOT
BRANCH  12  16
HETATM   16  C5  UNL     1     -12.547  -7.226 -20.512  1.00  0.00     0.235 C 
BRANCH  16  17
HETATM   17  C6  UNL     1     -13.698  -7.195 -19.582  1.00  0.00    -0.051 C 
HETATM   18  C7  UNL     1     -14.635  -7.190 -18.824  1.00  0.00     0.107 C 
HETATM   19  F1  UNL     1     -15.696  -7.185 -17.994  1.00  0.00    -0.144 F 
ENDBRANCH  16  17
ENDBRANCH  12  16
BRANCH  14  20
HETATM   20  N7  UNL     1     -12.509  -7.784 -25.754  1.00  0.00    -0.024 N 
HETATM   21  O1  UNL     1     -11.417  -7.427 -25.261  1.00  0.00    -0.516 OA
HETATM   22  O2  UNL     1     -12.520  -8.786 -26.686  1.00  0.00    -0.516 OA
ENDBRANCH  14  20
TORSDOF 3
ENDMDL
