MODEL 1
REMARK VINA RESULT: -6.203973614      0.000      0.000
REMARK  4 active torsions:
REMARK  status: ('A' for Active; 'I' for Inactive)
REMARK    1  A    between atoms: N2_3  and  C2_5 
REMARK    2  A    between atoms: C3_7  and  O2_8 
REMARK    3  A    between atoms: O2_8  and  C4_9 
REMARK    4  A    between atoms: C4_9  and  N3_10 
ROOT
HETATM    1  C2  UNL     1     -20.984   1.741 -18.589  1.00  0.00     0.280 A 
HETATM    2  O1  UNL     1     -20.493   2.712 -19.588  1.00  0.00    -0.327 OA
HETATM    3  C3  UNL     1     -19.576   1.786 -18.829  1.00  0.00     0.313 A 
ENDROOT
BRANCH   3   4
HETATM    4  O2  UNL     1     -18.884   1.048 -19.748  1.00  0.00    -0.336 OA
BRANCH   4   5
HETATM    5  C4  UNL     1     -18.133   0.091 -19.090  1.00  0.00     0.315 C 
BRANCH   5   6
HETATM    6  N3  UNL     1     -18.634  -1.250 -19.312  1.00  0.00    -0.283 N 
HETATM    7  C5  UNL     1     -19.463  -2.052 -18.778  1.00  0.00     0.116 A 
HETATM    8  C6  UNL     1     -19.259  -3.141 -19.726  1.00  0.00     0.210 A 
HETATM    9 BR1  UNL     1     -20.742  -3.562 -20.877  1.00  0.00    -0.065 Br
HETATM   10  N4  UNL     1     -18.338  -2.186 -20.279  1.00  0.00    -0.116 NA
ENDBRANCH   5   6
ENDBRANCH   4   5
ENDBRANCH   3   4
BRANCH   1  11
HETATM   11  N2  UNL     1     -21.865   0.756 -19.168  1.00  0.00    -0.358 N 
HETATM   12  C1  UNL     1     -23.070   0.565 -18.771  1.00  0.00     0.187 C 
HETATM   13  N1  UNL     1     -23.830  -0.446 -19.440  1.00  0.00    -0.097 NA
ATOM     14  H2  UNL     1     -21.512   0.181 -19.933  1.00  0.00     0.162 HD
ENDBRANCH   1  11
TORSDOF 4
ENDMDL
MODEL 2
REMARK VINA RESULT: -6.096443270      1.307      1.502
REMARK  4 active torsions:
REMARK  status: ('A' for Active; 'I' for Inactive)
REMARK    1  A    between atoms: N2_3  and  C2_5 
REMARK    2  A    between atoms: C3_7  and  O2_8 
REMARK    3  A    between atoms: O2_8  and  C4_9 
REMARK    4  A    between atoms: C4_9  and  N3_10 
ROOT
HETATM    1  C2  UNL     1     -22.189   2.600 -18.812  1.00  0.00     0.280 A 
HETATM    2  O1  UNL     1     -21.584   3.732 -19.544  1.00  0.00    -0.327 OA
HETATM    3  C3  UNL     1     -20.764   2.673 -18.851  1.00  0.00     0.313 A 
ENDROOT
BRANCH   3   4
HETATM    4  O2  UNL     1     -19.945   2.108 -19.788  1.00  0.00    -0.336 OA
BRANCH   4   5
HETATM    5  C4  UNL     1     -19.040   1.274 -19.157  1.00  0.00     0.315 C 
BRANCH   5   6
HETATM    6  N3  UNL     1     -19.466  -0.111 -19.168  1.00  0.00    -0.283 N 
HETATM    7  C5  UNL     1     -20.478  -0.792 -18.814  1.00  0.00     0.116 A 
HETATM    8  C6  UNL     1     -19.952  -2.084 -19.238  1.00  0.00     0.210 A 
HETATM    9 BR1  UNL     1     -20.844  -2.926 -20.720  1.00  0.00    -0.065 Br
HETATM   10  N4  UNL     1     -18.841  -1.254 -19.617  1.00  0.00    -0.116 NA
ENDBRANCH   5   6
ENDBRANCH   4   5
ENDBRANCH   3   4
BRANCH   1  11
HETATM   11  N2  UNL     1     -22.973   1.747 -19.673  1.00  0.00    -0.358 N 
HETATM   12  C1  UNL     1     -24.253   1.678 -19.626  1.00  0.00     0.187 C 
HETATM   13  N1  UNL     1     -24.897   0.788 -20.543  1.00  0.00    -0.097 NA
ATOM     14  H2  UNL     1     -22.482   1.168 -20.355  1.00  0.00     0.162 HD
ENDBRANCH   1  11
TORSDOF 4
ENDMDL
MODEL 3
REMARK VINA RESULT: -5.977188640      1.425      1.599
REMARK  4 active torsions:
REMARK  status: ('A' for Active; 'I' for Inactive)
REMARK    1  A    between atoms: N2_3  and  C2_5 
REMARK    2  A    between atoms: C3_7  and  O2_8 
REMARK    3  A    between atoms: O2_8  and  C4_9 
REMARK    4  A    between atoms: C4_9  and  N3_10 
ROOT
HETATM    1  C2  UNL     1     -21.961   2.494 -18.642  1.00  0.00     0.280 A 
HETATM    2  O1  UNL     1     -21.663   3.584 -19.594  1.00  0.00    -0.327 OA
HETATM    3  C3  UNL     1     -20.602   2.920 -18.751  1.00  0.00     0.313 A 
ENDROOT
BRANCH   3   4
HETATM    4  O2  UNL     1     -19.658   2.415 -19.600  1.00  0.00    -0.336 OA
BRANCH   4   5
HETATM    5  C4  UNL     1     -18.879   1.497 -18.920  1.00  0.00     0.315 C 
BRANCH   5   6
HETATM    6  N3  UNL     1     -19.051   0.149 -19.422  1.00  0.00    -0.283 N 
HETATM    7  C5  UNL     1     -18.375  -0.717 -20.061  1.00  0.00     0.116 A 
HETATM    8  C6  UNL     1     -19.412  -1.742 -20.078  1.00  0.00     0.210 A 
HETATM    9 BR1  UNL     1     -19.063  -3.329 -19.049  1.00  0.00    -0.065 Br
HETATM   10  N4  UNL     1     -20.119  -0.719 -19.358  1.00  0.00    -0.116 NA
ENDBRANCH   5   6
ENDBRANCH   4   5
ENDBRANCH   3   4
BRANCH   1  11
HETATM   11  N2  UNL     1     -22.490   1.323 -19.298  1.00  0.00    -0.358 N 
HETATM   12  C1  UNL     1     -23.469   0.635 -18.835  1.00  0.00     0.187 C 
HETATM   13  N1  UNL     1     -23.889  -0.503 -19.594  1.00  0.00    -0.097 NA
ATOM     14  H2  UNL     1     -22.063   1.026 -20.175  1.00  0.00     0.162 HD
ENDBRANCH   1  11
TORSDOF 4
ENDMDL
MODEL 4
REMARK VINA RESULT: -5.817528342      1.206      1.365
REMARK  4 active torsions:
REMARK  status: ('A' for Active; 'I' for Inactive)
REMARK    1  A    between atoms: N2_3  and  C2_5 
REMARK    2  A    between atoms: C3_7  and  O2_8 
REMARK    3  A    between atoms: O2_8  and  C4_9 
REMARK    4  A    between atoms: C4_9  and  N3_10 
ROOT
HETATM    1  C2  UNL     1     -22.342   0.747 -17.755  1.00  0.00     0.280 A 
HETATM    2  O1  UNL     1     -21.888   2.144 -17.913  1.00  0.00    -0.327 OA
HETATM    3  C3  UNL     1     -20.964   0.962 -18.062  1.00  0.00     0.313 A 
ENDROOT
BRANCH   3   4
HETATM    4  O2  UNL     1     -20.410   1.027 -19.310  1.00  0.00    -0.336 OA
BRANCH   4   5
HETATM    5  C4  UNL     1     -19.143   0.473 -19.275  1.00  0.00     0.315 C 
BRANCH   5   6
HETATM    6  N3  UNL     1     -19.168  -0.968 -19.412  1.00  0.00    -0.283 N 
HETATM    7  C5  UNL     1     -19.738  -1.962 -18.862  1.00  0.00     0.116 A 
HETATM    8  C6  UNL     1     -19.119  -2.981 -19.702  1.00  0.00     0.210 A 
HETATM    9 BR1  UNL     1     -20.289  -3.930 -20.898  1.00  0.00    -0.065 Br
HETATM   10  N4  UNL     1     -18.510  -1.813 -20.280  1.00  0.00    -0.116 NA
ENDBRANCH   5   6
ENDBRANCH   4   5
ENDBRANCH   3   4
BRANCH   1  11
HETATM   11  N2  UNL     1     -23.335   0.379 -18.734  1.00  0.00    -0.358 N 
HETATM   12  C1  UNL     1     -23.991   1.233 -19.432  1.00  0.00     0.187 C 
HETATM   13  N1  UNL     1     -24.945   0.722 -20.368  1.00  0.00    -0.097 NA
ATOM     14  H2  UNL     1     -23.526  -0.613 -18.880  1.00  0.00     0.162 HD
ENDBRANCH   1  11
TORSDOF 4
ENDMDL
MODEL 5
REMARK VINA RESULT: -5.741066322      2.698      5.042
REMARK  4 active torsions:
REMARK  status: ('A' for Active; 'I' for Inactive)
REMARK    1  A    between atoms: N2_3  and  C2_5 
REMARK    2  A    between atoms: C3_7  and  O2_8 
REMARK    3  A    between atoms: O2_8  and  C4_9 
REMARK    4  A    between atoms: C4_9  and  N3_10 
ROOT
HETATM    1  C2  UNL     1     -18.678  -1.964 -20.250  1.00  0.00     0.280 A 
HETATM    2  O1  UNL     1     -18.700  -2.053 -18.775  1.00  0.00    -0.327 OA
HETATM    3  C3  UNL     1     -18.997  -0.777 -19.523  1.00  0.00     0.313 A 
ENDROOT
BRANCH   3   4
HETATM    4  O2  UNL     1     -20.246  -0.364 -19.151  1.00  0.00    -0.336 OA
BRANCH   4   5
HETATM    5  C4  UNL     1     -20.191   0.967 -18.777  1.00  0.00     0.315 C 
BRANCH   5   6
HETATM    6  N3  UNL     1     -21.507   1.559 -18.654  1.00  0.00    -0.283 N 
HETATM    7  C5  UNL     1     -22.212   2.434 -19.249  1.00  0.00     0.116 A 
HETATM    8  C6  UNL     1     -23.375   2.314 -18.379  1.00  0.00     0.210 A 
HETATM    9 BR1  UNL     1     -24.967   1.582 -19.174  1.00  0.00    -0.065 Br
HETATM   10  N4  UNL     1     -22.527   1.336 -17.754  1.00  0.00    -0.116 NA
ENDBRANCH   5   6
ENDBRANCH   4   5
ENDBRANCH   3   4
BRANCH   1  11
HETATM   11  N2  UNL     1     -19.664  -2.819 -20.865  1.00  0.00    -0.358 N 
HETATM   12  C1  UNL     1     -19.730  -4.084 -20.660  1.00  0.00     0.187 C 
HETATM   13  N1  UNL     1     -20.763  -4.806 -21.338  1.00  0.00    -0.097 NA
ATOM     14  H2  UNL     1     -20.344  -2.395 -21.497  1.00  0.00     0.162 HD
ENDBRANCH   1  11
TORSDOF 4
ENDMDL
