MODEL 1
REMARK VINA RESULT: -9.002454084      0.000      0.000
REMARK  4 active torsions:
REMARK  status: ('A' for Active; 'I' for Inactive)
REMARK    1  A    between atoms: N3_4  and  N4_6 
REMARK    2  A    between atoms: C2_8  and  C3_9 
REMARK    3  A    between atoms: N5_15  and  N6_16 
REMARK    4  A    between atoms: C8_18  and  O1_20 
ROOT
HETATM    1  C3  UNL     1     -21.020   0.581 -18.818  1.00  0.00     0.073 A 
HETATM    2  C4  UNL     1     -21.079   1.942 -18.661  1.00  0.00     0.036 A 
HETATM    3  C5  UNL     1     -19.949   2.770 -18.730  1.00  0.00     0.046 A 
HETATM    4  C6  UNL     1     -18.709   2.226 -18.961  1.00  0.00     0.133 A 
HETATM    5  F1  UNL     1     -17.600   2.999 -19.033  1.00  0.00    -0.205 F 
HETATM    6  C7  UNL     1     -18.672   0.860 -19.115  1.00  0.00     0.159 A 
HETATM    7  N5  UNL     1     -19.768   0.085 -19.046  1.00  0.00    -0.261 N 
ENDROOT
BRANCH   1   8
HETATM    8  C2  UNL     1     -22.151  -0.326 -18.758  1.00  0.00     0.138 C 
HETATM    9  N4  UNL     1     -23.239  -0.296 -19.369  1.00  0.00    -0.308 N 
ATOM     10  H4  UNL     1     -23.856  -1.071 -19.127  1.00  0.00     0.186 HD
BRANCH   9  11
HETATM   11  N3  UNL     1     -23.777   0.550 -20.291  1.00  0.00    -0.276 N 
HETATM   12  C1  UNL     1     -24.558   1.526 -20.026  1.00  0.00     0.215 C 
HETATM   13  N1  UNL     1     -24.915   1.781 -18.685  1.00  0.00    -0.065 NA
HETATM   14  N2  UNL     1     -25.064   2.349 -21.054  1.00  0.00    -0.065 NA
ATOM     15  H3  UNL     1     -23.538   0.392 -21.270  1.00  0.00     0.189 HD
ENDBRANCH   9  11
ENDBRANCH   1   8
BRANCH   7  16
HETATM   16  N6  UNL     1     -19.672  -1.318 -19.212  1.00  0.00    -0.261 N 
HETATM   17  C8  UNL     1     -18.764  -1.836 -19.976  1.00  0.00     0.244 C 
HETATM   18  N7  UNL     1     -17.839  -1.026 -20.672  1.00  0.00    -0.055 NA
ATOM     19  H6  UNL     1     -20.325  -1.929 -18.722  1.00  0.00     0.190 HD
BRANCH  17  20
HETATM   20  O1  UNL     1     -18.739  -3.215 -20.081  1.00  0.00    -0.334 OA
ATOM     21  H1  UNL     1     -18.781  -3.584 -20.955  1.00  0.00     0.220 HD
ENDBRANCH  17  20
ENDBRANCH   7  16
TORSDOF 4
ENDMDL
MODEL 2
REMARK VINA RESULT: -8.666541031      3.269      5.178
REMARK  4 active torsions:
REMARK  status: ('A' for Active; 'I' for Inactive)
REMARK    1  A    between atoms: N3_4  and  N4_6 
REMARK    2  A    between atoms: C2_8  and  C3_9 
REMARK    3  A    between atoms: N5_15  and  N6_16 
REMARK    4  A    between atoms: C8_18  and  O1_20 
ROOT
HETATM    1  C3  UNL     1     -20.215  -0.057 -19.233  1.00  0.00     0.073 A 
HETATM    2  C4  UNL     1     -21.420  -0.605 -18.876  1.00  0.00     0.036 A 
HETATM    3  C5  UNL     1     -22.524   0.163 -18.477  1.00  0.00     0.046 A 
HETATM    4  C6  UNL     1     -22.428   1.533 -18.430  1.00  0.00     0.133 A 
HETATM    5  F1  UNL     1     -23.475   2.302 -18.049  1.00  0.00    -0.205 F 
HETATM    6  C7  UNL     1     -21.212   2.062 -18.792  1.00  0.00     0.159 A 
HETATM    7  N5  UNL     1     -20.168   1.307 -19.171  1.00  0.00    -0.261 N 
ENDROOT
BRANCH   1   8
HETATM    8  C2  UNL     1     -19.041  -0.798 -19.653  1.00  0.00     0.138 C 
HETATM    9  N4  UNL     1     -18.951  -1.869 -20.289  1.00  0.00    -0.308 N 
ATOM     10  H4  UNL     1     -17.987  -2.162 -20.445  1.00  0.00     0.186 HD
BRANCH   9  11
HETATM   11  N3  UNL     1     -19.865  -2.728 -20.818  1.00  0.00    -0.276 N 
HETATM   12  C1  UNL     1     -19.747  -4.001 -20.850  1.00  0.00     0.215 C 
HETATM   13  N1  UNL     1     -18.594  -4.601 -20.303  1.00  0.00    -0.065 NA
HETATM   14  N2  UNL     1     -20.753  -4.807 -21.421  1.00  0.00    -0.065 NA
ATOM     15  H3  UNL     1     -20.711  -2.325 -21.221  1.00  0.00     0.189 HD
ENDBRANCH   9  11
ENDBRANCH   1   8
BRANCH   7  16
HETATM   16  N6  UNL     1     -18.936   1.906 -19.534  1.00  0.00    -0.261 N 
HETATM   17  C8  UNL     1     -18.354   2.755 -18.749  1.00  0.00     0.244 C 
HETATM   18  N7  UNL     1     -18.921   3.116 -17.505  1.00  0.00    -0.055 NA
ATOM     19  H6  UNL     1     -18.502   1.666 -20.425  1.00  0.00     0.190 HD
BRANCH  17  20
HETATM   20  O1  UNL     1     -17.155   3.293 -19.178  1.00  0.00    -0.334 OA
ATOM     21  H1  UNL     1     -16.610   3.715 -18.525  1.00  0.00     0.220 HD
ENDBRANCH  17  20
ENDBRANCH   7  16
TORSDOF 4
ENDMDL
MODEL 3
REMARK VINA RESULT: -8.556573867      1.224      1.538
REMARK  4 active torsions:
REMARK  status: ('A' for Active; 'I' for Inactive)
REMARK    1  A    between atoms: N3_4  and  N4_6 
REMARK    2  A    between atoms: C2_8  and  C3_9 
REMARK    3  A    between atoms: N5_15  and  N6_16 
REMARK    4  A    between atoms: C8_18  and  O1_20 
ROOT
HETATM    1  C3  UNL     1     -20.985   1.343 -17.829  1.00  0.00     0.073 A 
HETATM    2  C4  UNL     1     -20.428   2.491 -17.325  1.00  0.00     0.036 A 
HETATM    3  C5  UNL     1     -19.274   3.081 -17.859  1.00  0.00     0.046 A 
HETATM    4  C6  UNL     1     -18.644   2.509 -18.938  1.00  0.00     0.133 A 
HETATM    5  F1  UNL     1     -17.528   3.054 -19.476  1.00  0.00    -0.205 F 
HETATM    6  C7  UNL     1     -19.218   1.359 -19.427  1.00  0.00     0.159 A 
HETATM    7  N5  UNL     1     -20.326   0.811 -18.899  1.00  0.00    -0.261 N 
ENDROOT
BRANCH   1   8
HETATM    8  C2  UNL     1     -22.175   0.688 -17.319  1.00  0.00     0.138 C 
HETATM    9  N4  UNL     1     -23.368   0.801 -17.669  1.00  0.00    -0.308 N 
ATOM     10  H4  UNL     1     -24.001   0.213 -17.129  1.00  0.00     0.186 HD
BRANCH   9  11
HETATM   11  N3  UNL     1     -24.003   1.542 -18.619  1.00  0.00    -0.276 N 
HETATM   12  C1  UNL     1     -24.351   1.118 -19.773  1.00  0.00     0.215 C 
HETATM   13  N1  UNL     1     -24.074  -0.218 -20.130  1.00  0.00    -0.065 NA
HETATM   14  N2  UNL     1     -25.007   1.965 -20.689  1.00  0.00    -0.065 NA
ATOM     15  H3  UNL     1     -24.219   2.513 -18.391  1.00  0.00     0.189 HD
ENDBRANCH   9  11
ENDBRANCH   1   8
BRANCH   7  16
HETATM   16  N6  UNL     1     -20.874  -0.376 -19.444  1.00  0.00    -0.261 N 
HETATM   17  C8  UNL     1     -20.218  -1.491 -19.403  1.00  0.00     0.244 C 
HETATM   18  N7  UNL     1     -18.934  -1.568 -18.815  1.00  0.00    -0.055 NA
ATOM     19  H6  UNL     1     -21.798  -0.353 -19.875  1.00  0.00     0.190 HD
BRANCH  17  20
HETATM   20  O1  UNL     1     -20.826  -2.603 -19.957  1.00  0.00    -0.334 OA
ATOM     21  H1  UNL     1     -21.705  -2.809 -19.662  1.00  0.00     0.220 HD
ENDBRANCH  17  20
ENDBRANCH   7  16
TORSDOF 4
ENDMDL
MODEL 4
REMARK VINA RESULT: -8.444394506      3.320      5.445
REMARK  4 active torsions:
REMARK  status: ('A' for Active; 'I' for Inactive)
REMARK    1  A    between atoms: N3_4  and  N4_6 
REMARK    2  A    between atoms: C2_8  and  C3_9 
REMARK    3  A    between atoms: N5_15  and  N6_16 
REMARK    4  A    between atoms: C8_18  and  O1_20 
ROOT
HETATM    1  C3  UNL     1     -22.261   0.170 -18.782  1.00  0.00     0.073 A 
HETATM    2  C4  UNL     1     -23.314  -0.344 -19.495  1.00  0.00     0.036 A 
HETATM    3  C5  UNL     1     -24.534   0.329 -19.652  1.00  0.00     0.046 A 
HETATM    4  C6  UNL     1     -24.719   1.563 -19.076  1.00  0.00     0.133 A 
HETATM    5  F1  UNL     1     -25.885   2.238 -19.209  1.00  0.00    -0.205 F 
HETATM    6  C7  UNL     1     -23.651   2.060 -18.366  1.00  0.00     0.159 A 
HETATM    7  N5  UNL     1     -22.490   1.397 -18.229  1.00  0.00    -0.261 N 
ENDROOT
BRANCH   1   8
HETATM    8  C2  UNL     1     -20.978  -0.478 -18.586  1.00  0.00     0.138 C 
HETATM    9  N4  UNL     1     -20.527  -1.535 -19.074  1.00  0.00    -0.308 N 
ATOM     10  H4  UNL     1     -19.584  -1.753 -18.756  1.00  0.00     0.186 HD
BRANCH   9  11
HETATM   11  N3  UNL     1     -21.028  -2.458 -19.942  1.00  0.00    -0.276 N 
HETATM   12  C1  UNL     1     -20.346  -3.375 -20.514  1.00  0.00     0.215 C 
HETATM   13  N1  UNL     1     -18.963  -3.473 -20.253  1.00  0.00    -0.065 NA
HETATM   14  N2  UNL     1     -20.958  -4.288 -21.398  1.00  0.00    -0.065 NA
ATOM     15  H3  UNL     1     -22.025  -2.415 -20.151  1.00  0.00     0.189 HD
ENDBRANCH   9  11
ENDBRANCH   1   8
BRANCH   7  16
HETATM   16  N6  UNL     1     -21.423   1.957 -17.485  1.00  0.00    -0.261 N 
HETATM   17  C8  UNL     1     -20.616   2.815 -18.022  1.00  0.00     0.244 C 
HETATM   18  N7  UNL     1     -20.767   3.225 -19.367  1.00  0.00    -0.055 NA
ATOM     19  H6  UNL     1     -21.287   1.681 -16.513  1.00  0.00     0.190 HD
BRANCH  17  20
HETATM   20  O1  UNL     1     -19.601   3.313 -17.226  1.00  0.00    -0.334 OA
ATOM     21  H1  UNL     1     -19.796   4.083 -16.706  1.00  0.00     0.220 HD
ENDBRANCH  17  20
ENDBRANCH   7  16
TORSDOF 4
ENDMDL
MODEL 5
REMARK VINA RESULT: -8.120034277      2.761      5.004
REMARK  4 active torsions:
REMARK  status: ('A' for Active; 'I' for Inactive)
REMARK    1  A    between atoms: N3_4  and  N4_6 
REMARK    2  A    between atoms: C2_8  and  C3_9 
REMARK    3  A    between atoms: N5_15  and  N6_16 
REMARK    4  A    between atoms: C8_18  and  O1_20 
ROOT
HETATM    1  C3  UNL     1     -20.161  -0.446 -19.308  1.00  0.00     0.073 A 
HETATM    2  C4  UNL     1     -18.793  -0.535 -19.244  1.00  0.00     0.036 A 
HETATM    3  C5  UNL     1     -17.963   0.573 -19.020  1.00  0.00     0.046 A 
HETATM    4  C6  UNL     1     -18.511   1.822 -18.853  1.00  0.00     0.133 A 
HETATM    5  F1  UNL     1     -17.737   2.910 -18.636  1.00  0.00    -0.205 F 
HETATM    6  C7  UNL     1     -19.883   1.889 -18.921  1.00  0.00     0.159 A 
HETATM    7  N5  UNL     1     -20.659   0.813 -19.136  1.00  0.00    -0.261 N 
ENDROOT
BRANCH   1   8
HETATM    8  C2  UNL     1     -21.069  -1.554 -19.536  1.00  0.00     0.138 C 
HETATM    9  N4  UNL     1     -20.853  -2.684 -20.020  1.00  0.00    -0.308 N 
ATOM     10  H4  UNL     1     -21.688  -3.268 -20.063  1.00  0.00     0.186 HD
BRANCH   9  11
HETATM   11  N3  UNL     1     -19.740  -3.305 -20.502  1.00  0.00    -0.276 N 
HETATM   12  C1  UNL     1     -19.717  -4.469 -21.029  1.00  0.00     0.215 C 
HETATM   13  N1  UNL     1     -20.917  -5.202 -21.139  1.00  0.00    -0.065 NA
HETATM   14  N2  UNL     1     -18.511  -5.026 -21.501  1.00  0.00    -0.065 NA
ATOM     15  H3  UNL     1     -18.856  -2.800 -20.438  1.00  0.00     0.189 HD
ENDBRANCH   9  11
ENDBRANCH   1   8
BRANCH   7  16
HETATM   16  N6  UNL     1     -22.069   0.941 -19.197  1.00  0.00    -0.261 N 
HETATM   17  C8  UNL     1     -22.793   0.823 -18.130  1.00  0.00     0.244 C 
HETATM   18  N7  UNL     1     -22.209   0.564 -16.869  1.00  0.00    -0.055 NA
ATOM     19  H6  UNL     1     -22.520   1.127 -20.092  1.00  0.00     0.190 HD
BRANCH  17  20
HETATM   20  O1  UNL     1     -24.161   0.962 -18.277  1.00  0.00    -0.334 OA
ATOM     21  H1  UNL     1     -24.567   1.717 -17.868  1.00  0.00     0.220 HD
ENDBRANCH  17  20
ENDBRANCH   7  16
TORSDOF 4
ENDMDL
