MODEL 1
REMARK VINA RESULT: -6.174717811      0.000      0.000
REMARK  5 active torsions:
REMARK  status: ('A' for Active; 'I' for Inactive)
REMARK    1  A    between atoms: N1_2  and  S1_4 
REMARK    2  A    between atoms: S1_4  and  N2_7 
REMARK    3  A    between atoms: N2_7  and  C3_9 
REMARK    4  A    between atoms: C4_10  and  O3_11 
REMARK    5  A    between atoms: C5_13  and  O4_14 
ROOT
HETATM    1  C3  UNL     1     -20.232   0.493 -18.668  1.00  0.00     0.162 C 
HETATM    2  C4  UNL     1     -21.510   1.331 -18.559  1.00  0.00     0.176 C 
HETATM    3  C5  UNL     1     -20.642   2.413 -17.922  1.00  0.00     0.185 C 
HETATM    4  C6  UNL     1     -19.479   1.804 -18.692  1.00  0.00     0.227 C 
HETATM    5  F1  UNL     1     -19.458   2.314 -19.963  1.00  0.00    -0.244 F 
ENDROOT
BRANCH   1   6
HETATM    6  N2  UNL     1     -20.079  -0.214 -19.891  1.00  0.00    -0.296 N 
ATOM      7  H2  UNL     1     -20.598   0.018 -20.738  1.00  0.00     0.173 HD
BRANCH   6   8
HETATM    8  S1  UNL     1     -18.932  -1.502 -19.806  1.00  0.00     0.298 S 
HETATM    9  O1  UNL     1     -17.618  -1.116 -20.380  1.00  0.00    -0.188 OA
HETATM   10  O2  UNL     1     -18.705  -1.905 -18.370  1.00  0.00    -0.188 OA
BRANCH   8  11
HETATM   11  N1  UNL     1     -19.639  -2.848 -20.606  1.00  0.00    -0.202 NA
HETATM   12  C1  UNL     1     -19.194  -4.111 -20.114  1.00  0.00     0.130 C 
HETATM   13  C2  UNL     1     -21.072  -2.794 -20.651  1.00  0.00     0.130 C 
ENDBRANCH   8  11
ENDBRANCH   6   8
ENDBRANCH   1   6
BRANCH   2  14
HETATM   14  O3  UNL     1     -21.924   1.708 -19.826  1.00  0.00    -0.391 OA
ATOM     15  H3  UNL     1     -22.107   2.641 -19.835  1.00  0.00     0.210 HD
ENDBRANCH   2  14
BRANCH   3  16
HETATM   16  O4  UNL     1     -20.443   2.238 -16.562  1.00  0.00    -0.390 OA
ATOM     17  H4  UNL     1     -20.235   3.041 -16.100  1.00  0.00     0.210 HD
ENDBRANCH   3  16
TORSDOF 5
ENDMDL
MODEL 2
REMARK VINA RESULT: -6.059040672      1.187      1.336
REMARK  5 active torsions:
REMARK  status: ('A' for Active; 'I' for Inactive)
REMARK    1  A    between atoms: N1_2  and  S1_4 
REMARK    2  A    between atoms: S1_4  and  N2_7 
REMARK    3  A    between atoms: N2_7  and  C3_9 
REMARK    4  A    between atoms: C4_10  and  O3_11 
REMARK    5  A    between atoms: C5_13  and  O4_14 
ROOT
HETATM    1  C3  UNL     1     -20.947  -0.439 -18.630  1.00  0.00     0.162 C 
HETATM    2  C4  UNL     1     -22.449  -0.143 -18.700  1.00  0.00     0.176 C 
HETATM    3  C5  UNL     1     -22.219   0.844 -17.558  1.00  0.00     0.185 C 
HETATM    4  C6  UNL     1     -20.787   0.955 -18.065  1.00  0.00     0.227 C 
HETATM    5  F1  UNL     1     -20.734   1.872 -19.079  1.00  0.00    -0.244 F 
ENDROOT
BRANCH   1   6
HETATM    6  N2  UNL     1     -20.299  -0.564 -19.889  1.00  0.00    -0.296 N 
ATOM      7  H2  UNL     1     -20.557  -0.012 -20.706  1.00  0.00     0.173 HD
BRANCH   6   8
HETATM    8  S1  UNL     1     -19.035  -1.740 -19.901  1.00  0.00     0.298 S 
HETATM    9  O1  UNL     1     -17.767  -1.188 -20.444  1.00  0.00    -0.188 OA
HETATM   10  O2  UNL     1     -18.762  -2.227 -18.500  1.00  0.00    -0.188 OA
BRANCH   8  11
HETATM   11  N1  UNL     1     -19.616  -3.083 -20.802  1.00  0.00    -0.202 NA
HETATM   12  C1  UNL     1     -19.204  -4.347 -20.285  1.00  0.00     0.130 C 
HETATM   13  C2  UNL     1     -21.035  -3.055 -21.012  1.00  0.00     0.130 C 
ENDBRANCH   8  11
ENDBRANCH   6   8
ENDBRANCH   1   6
BRANCH   2  14
HETATM   14  O3  UNL     1     -22.733   0.521 -19.882  1.00  0.00    -0.391 OA
ATOM     15  H3  UNL     1     -22.061   1.172 -20.049  1.00  0.00     0.210 HD
ENDBRANCH   2  14
BRANCH   3  16
HETATM   16  O4  UNL     1     -22.225   0.255 -16.304  1.00  0.00    -0.390 OA
ATOM     17  H4  UNL     1     -23.008   0.440 -15.799  1.00  0.00     0.210 HD
ENDBRANCH   3  16
TORSDOF 5
ENDMDL
MODEL 3
REMARK VINA RESULT: -5.690284347      1.593      1.798
REMARK  5 active torsions:
REMARK  status: ('A' for Active; 'I' for Inactive)
REMARK    1  A    between atoms: N1_2  and  S1_4 
REMARK    2  A    between atoms: S1_4  and  N2_7 
REMARK    3  A    between atoms: N2_7  and  C3_9 
REMARK    4  A    between atoms: C4_10  and  O3_11 
REMARK    5  A    between atoms: C5_13  and  O4_14 
ROOT
HETATM    1  C3  UNL     1     -20.657   0.669 -18.934  1.00  0.00     0.162 C 
HETATM    2  C4  UNL     1     -21.698   1.737 -19.288  1.00  0.00     0.176 C 
HETATM    3  C5  UNL     1     -22.021   1.791 -17.797  1.00  0.00     0.185 C 
HETATM    4  C6  UNL     1     -20.597   1.308 -17.564  1.00  0.00     0.227 C 
HETATM    5  F1  UNL     1     -19.744   2.379 -17.580  1.00  0.00    -0.244 F 
ENDROOT
BRANCH   1   6
HETATM    6  N2  UNL     1     -19.417   0.789 -19.616  1.00  0.00    -0.296 N 
ATOM      7  H2  UNL     1     -19.101   1.656 -20.052  1.00  0.00     0.173 HD
BRANCH   6   8
HETATM    8  S1  UNL     1     -18.495  -0.670 -19.636  1.00  0.00     0.298 S 
HETATM    9  O1  UNL     1     -17.842  -0.898 -20.950  1.00  0.00    -0.188 OA
HETATM   10  O2  UNL     1     -17.412  -0.618 -18.587  1.00  0.00    -0.188 OA
BRANCH   8  11
HETATM   11  N1  UNL     1     -19.567  -1.939 -19.196  1.00  0.00    -0.202 NA
HETATM   12  C1  UNL     1     -20.276  -2.505 -20.297  1.00  0.00     0.130 C 
HETATM   13  C2  UNL     1     -18.941  -2.965 -18.411  1.00  0.00     0.130 C 
ENDBRANCH   8  11
ENDBRANCH   6   8
ENDBRANCH   1   6
BRANCH   2  14
HETATM   14  O3  UNL     1     -21.052   2.891 -19.699  1.00  0.00    -0.391 OA
ATOM     15  H3  UNL     1     -21.642   3.632 -19.611  1.00  0.00     0.210 HD
ENDBRANCH   2  14
BRANCH   3  16
HETATM   16  O4  UNL     1     -22.917   0.818 -17.386  1.00  0.00    -0.390 OA
ATOM     17  H4  UNL     1     -23.247   0.950 -16.505  1.00  0.00     0.210 HD
ENDBRANCH   3  16
TORSDOF 5
ENDMDL
MODEL 4
REMARK VINA RESULT: -5.686380390      3.645      4.688
REMARK  5 active torsions:
REMARK  status: ('A' for Active; 'I' for Inactive)
REMARK    1  A    between atoms: N1_2  and  S1_4 
REMARK    2  A    between atoms: S1_4  and  N2_7 
REMARK    3  A    between atoms: N2_7  and  C3_9 
REMARK    4  A    between atoms: C4_10  and  O3_11 
REMARK    5  A    between atoms: C5_13  and  O4_14 
ROOT
HETATM    1  C3  UNL     1     -23.020   1.750 -19.702  1.00  0.00     0.162 C 
HETATM    2  C4  UNL     1     -23.803   2.122 -18.438  1.00  0.00     0.176 C 
HETATM    3  C5  UNL     1     -25.027   1.520 -19.124  1.00  0.00     0.185 C 
HETATM    4  C6  UNL     1     -24.048   0.660 -19.911  1.00  0.00     0.227 C 
HETATM    5  F1  UNL     1     -23.720  -0.446 -19.174  1.00  0.00    -0.244 F 
ENDROOT
BRANCH   1   6
HETATM    6  N2  UNL     1     -21.729   1.205 -19.470  1.00  0.00    -0.296 N 
ATOM      7  H2  UNL     1     -21.491   0.232 -19.659  1.00  0.00     0.173 HD
BRANCH   6   8
HETATM    8  S1  UNL     1     -20.601   2.349 -18.837  1.00  0.00     0.298 S 
HETATM    9  O1  UNL     1     -20.960   3.744 -19.199  1.00  0.00    -0.188 OA
HETATM   10  O2  UNL     1     -20.558   2.262 -17.331  1.00  0.00    -0.188 OA
BRANCH   8  11
HETATM   11  N1  UNL     1     -19.050   1.889 -19.417  1.00  0.00    -0.202 NA
HETATM   12  C1  UNL     1     -17.979   2.662 -18.880  1.00  0.00     0.130 C 
HETATM   13  C2  UNL     1     -18.786   0.485 -19.278  1.00  0.00     0.130 C 
ENDBRANCH   8  11
ENDBRANCH   6   8
ENDBRANCH   1   6
BRANCH   2  14
HETATM   14  O3  UNL     1     -23.382   1.328 -17.384  1.00  0.00    -0.391 OA
ATOM     15  H3  UNL     1     -23.127   1.880 -16.654  1.00  0.00     0.210 HD
ENDBRANCH   2  14
BRANCH   3  16
HETATM   16  O4  UNL     1     -25.672   2.396 -19.981  1.00  0.00    -0.390 OA
ATOM     17  H4  UNL     1     -25.150   2.648 -20.733  1.00  0.00     0.210 HD
ENDBRANCH   3  16
TORSDOF 5
ENDMDL
MODEL 5
REMARK VINA RESULT: -5.552615720      2.498      5.019
REMARK  5 active torsions:
REMARK  status: ('A' for Active; 'I' for Inactive)
REMARK    1  A    between atoms: N1_2  and  S1_4 
REMARK    2  A    between atoms: S1_4  and  N2_7 
REMARK    3  A    between atoms: N2_7  and  C3_9 
REMARK    4  A    between atoms: C4_10  and  O3_11 
REMARK    5  A    between atoms: C5_13  and  O4_14 
ROOT
HETATM    1  C3  UNL     1     -19.867  -1.314 -18.950  1.00  0.00     0.162 C 
HETATM    2  C4  UNL     1     -18.459  -1.595 -19.488  1.00  0.00     0.176 C 
HETATM    3  C5  UNL     1     -18.868  -3.065 -19.539  1.00  0.00     0.185 C 
HETATM    4  C6  UNL     1     -20.300  -2.568 -19.677  1.00  0.00     0.227 C 
HETATM    5  F1  UNL     1     -20.559  -2.286 -20.991  1.00  0.00    -0.244 F 
ENDROOT
BRANCH   1   6
HETATM    6  N2  UNL     1     -20.496  -0.160 -19.489  1.00  0.00    -0.296 N 
ATOM      7  H2  UNL     1     -20.073   0.420 -20.213  1.00  0.00     0.173 HD
BRANCH   6   8
HETATM    8  S1  UNL     1     -22.046   0.165 -18.802  1.00  0.00     0.298 S 
HETATM    9  O1  UNL     1     -23.094  -0.743 -19.335  1.00  0.00    -0.188 OA
HETATM   10  O2  UNL     1     -22.001  -0.014 -17.304  1.00  0.00    -0.188 OA
BRANCH   8  11
HETATM   11  N1  UNL     1     -22.385   1.822 -19.105  1.00  0.00    -0.202 NA
HETATM   12  C1  UNL     1     -23.404   2.366 -18.269  1.00  0.00     0.130 C 
HETATM   13  C2  UNL     1     -21.215   2.653 -19.091  1.00  0.00     0.130 C 
ENDBRANCH   8  11
ENDBRANCH   6   8
ENDBRANCH   1   6
BRANCH   2  14
HETATM   14  O3  UNL     1     -18.339  -1.068 -20.763  1.00  0.00    -0.391 OA
ATOM     15  H3  UNL     1     -19.204  -0.899 -21.119  1.00  0.00     0.210 HD
ENDBRANCH   2  14
BRANCH   3  16
HETATM   16  O4  UNL     1     -18.718  -3.727 -18.332  1.00  0.00    -0.390 OA
ATOM     17  H4  UNL     1     -19.169  -4.562 -18.295  1.00  0.00     0.210 HD
ENDBRANCH   3  16
TORSDOF 5
ENDMDL
