MODEL 1
REMARK VINA RESULT: -4.877898960      0.000      0.000
REMARK  6 active torsions:
REMARK  status: ('A' for Active; 'I' for Inactive)
REMARK    1  A    between atoms: S1_2  and  C2_4 
REMARK    2  A    between atoms: C2_4  and  C3_5 
REMARK    3  A    between atoms: C4_7  and  C5_8 
REMARK    4  A    between atoms: C5_8  and  O2_9 
REMARK    5  A    between atoms: C6_11  and  O3_12 
REMARK    6  A    between atoms: C7_14  and  O4_15 
ROOT
HETATM    1  C3  UNL     1      18.546 -21.175 -26.461  1.00  0.00     0.163 C 
HETATM    2  O1  UNL     1      19.363 -20.423 -27.257  1.00  0.00    -0.372 OA
HETATM    3  C4  UNL     1      20.106 -19.576 -26.437  1.00  0.00     0.176 C 
HETATM    4  C6  UNL     1      20.433 -20.507 -25.274  1.00  0.00     0.180 C 
HETATM    5  C7  UNL     1      19.034 -21.098 -25.048  1.00  0.00     0.179 C 
ENDROOT
BRANCH   1   6
HETATM    6  C2  UNL     1      17.078 -20.845 -26.592  1.00  0.00     0.113 C 
BRANCH   6   7
HETATM    7  S1  UNL     1      16.324 -21.563 -27.994  1.00  0.00    -0.127 SA
HETATM    8  C1  UNL     1      16.775 -20.800 -29.507  1.00  0.00     0.096 C 
HETATM    9 CL1  UNL     1      14.295 -21.782 -27.805  1.00  0.00    -0.056 Cl
ENDBRANCH   6   7
ENDBRANCH   1   6
BRANCH   5  10
HETATM   10  O4  UNL     1      18.339 -20.126 -24.303  1.00  0.00    -0.390 OA
ATOM     11  H4  UNL     1      18.734 -19.265 -24.387  1.00  0.00     0.210 HD
ENDBRANCH   5  10
BRANCH   3  12
HETATM   12  C5  UNL     1      21.399 -19.156 -27.087  1.00  0.00     0.198 C 
BRANCH  12  13
HETATM   13  O2  UNL     1      22.340 -18.803 -26.141  1.00  0.00    -0.398 OA
ATOM     14  H2  UNL     1      22.620 -17.903 -26.256  1.00  0.00     0.209 HD
ENDBRANCH  12  13
ENDBRANCH   3  12
BRANCH   4  15
HETATM   15  O3  UNL     1      21.299 -21.470 -25.786  1.00  0.00    -0.390 OA
ATOM     16  H3  UNL     1      20.902 -22.310 -25.587  1.00  0.00     0.210 HD
ENDBRANCH   4  15
TORSDOF 6
ENDMDL
MODEL 2
REMARK VINA RESULT: -4.724880408      1.257      1.257
REMARK  6 active torsions:
REMARK  status: ('A' for Active; 'I' for Inactive)
REMARK    1  A    between atoms: S1_2  and  C2_4 
REMARK    2  A    between atoms: C2_4  and  C3_5 
REMARK    3  A    between atoms: C4_7  and  C5_8 
REMARK    4  A    between atoms: C5_8  and  O2_9 
REMARK    5  A    between atoms: C6_11  and  O3_12 
REMARK    6  A    between atoms: C7_14  and  O4_15 
ROOT
HETATM    1  C3  UNL     1      18.274 -21.116 -26.933  1.00  0.00     0.163 C 
HETATM    2  O1  UNL     1      19.320 -20.413 -27.461  1.00  0.00    -0.372 OA
HETATM    3  C4  UNL     1      19.948 -19.728 -26.423  1.00  0.00     0.176 C 
HETATM    4  C6  UNL     1      19.912 -20.776 -25.315  1.00  0.00     0.180 C 
HETATM    5  C7  UNL     1      18.444 -21.205 -25.449  1.00  0.00     0.179 C 
ENDROOT
BRANCH   1   6
HETATM    6  C2  UNL     1      16.913 -20.599 -27.337  1.00  0.00     0.113 C 
BRANCH   6   7
HETATM    7  S1  UNL     1      15.638 -21.780 -27.165  1.00  0.00    -0.127 SA
HETATM    8  C1  UNL     1      14.268 -21.497 -28.222  1.00  0.00     0.096 C 
HETATM    9 CL1  UNL     1      15.073 -22.091 -25.221  1.00  0.00    -0.056 Cl
ENDBRANCH   6   7
ENDBRANCH   1   6
BRANCH   5  10
HETATM   10  O4  UNL     1      17.707 -20.213 -24.774  1.00  0.00    -0.390 OA
ATOM     11  H4  UNL     1      17.947 -20.154 -23.857  1.00  0.00     0.210 HD
ENDBRANCH   5  10
BRANCH   3  12
HETATM   12  C5  UNL     1      21.389 -19.422 -26.742  1.00  0.00     0.198 C 
BRANCH  12  13
HETATM   13  O2  UNL     1      22.083 -19.057 -25.606  1.00  0.00    -0.398 OA
ATOM     14  H2  UNL     1      22.967 -18.783 -25.818  1.00  0.00     0.209 HD
ENDBRANCH  12  13
ENDBRANCH   3  12
BRANCH   4  15
HETATM   15  O3  UNL     1      20.764 -21.797 -25.727  1.00  0.00    -0.390 OA
ATOM     16  H3  UNL     1      20.365 -22.174 -26.502  1.00  0.00     0.210 HD
ENDBRANCH   4  15
TORSDOF 6
ENDMDL
MODEL 3
REMARK VINA RESULT: -4.713361201      3.312      5.183
REMARK  6 active torsions:
REMARK  status: ('A' for Active; 'I' for Inactive)
REMARK    1  A    between atoms: S1_2  and  C2_4 
REMARK    2  A    between atoms: C2_4  and  C3_5 
REMARK    3  A    between atoms: C4_7  and  C5_8 
REMARK    4  A    between atoms: C5_8  and  O2_9 
REMARK    5  A    between atoms: C6_11  and  O3_12 
REMARK    6  A    between atoms: C7_14  and  O4_15 
ROOT
HETATM    1  C3  UNL     1      18.091 -21.210 -27.667  1.00  0.00     0.163 C 
HETATM    2  O1  UNL     1      17.315 -21.268 -26.544  1.00  0.00    -0.372 OA
HETATM    3  C4  UNL     1      16.046 -20.793 -26.870  1.00  0.00     0.176 C 
HETATM    4  C6  UNL     1      15.847 -21.415 -28.249  1.00  0.00     0.180 C 
HETATM    5  C7  UNL     1      17.207 -21.055 -28.865  1.00  0.00     0.179 C 
ENDROOT
BRANCH   1   6
HETATM    6  C2  UNL     1      19.188 -20.173 -27.611  1.00  0.00     0.113 C 
BRANCH   6   7
HETATM    7  S1  UNL     1      20.199 -20.303 -26.193  1.00  0.00    -0.127 SA
HETATM    8  C1  UNL     1      21.685 -19.377 -26.300  1.00  0.00     0.096 C 
HETATM    9 CL1  UNL     1      20.525 -22.236 -25.599  1.00  0.00    -0.056 Cl
ENDBRANCH   6   7
ENDBRANCH   1   6
BRANCH   5  10
HETATM   10  O4  UNL     1      17.088 -19.709 -29.261  1.00  0.00    -0.390 OA
ATOM     11  H4  UNL     1      16.186 -19.470 -29.438  1.00  0.00     0.210 HD
ENDBRANCH   5  10
BRANCH   3  12
HETATM   12  C5  UNL     1      14.988 -21.339 -25.946  1.00  0.00     0.198 C 
BRANCH  12  13
HETATM   13  O2  UNL     1      15.553 -22.055 -24.911  1.00  0.00    -0.398 OA
ATOM     14  H2  UNL     1      15.025 -21.995 -24.124  1.00  0.00     0.209 HD
ENDBRANCH  12  13
ENDBRANCH   3  12
BRANCH   4  15
HETATM   15  O3  UNL     1      15.747 -22.788 -28.039  1.00  0.00    -0.390 OA
ATOM     16  H3  UNL     1      16.624 -23.134 -28.155  1.00  0.00     0.210 HD
ENDBRANCH   4  15
TORSDOF 6
ENDMDL
MODEL 4
REMARK VINA RESULT: -4.545348530      1.654      2.558
REMARK  6 active torsions:
REMARK  status: ('A' for Active; 'I' for Inactive)
REMARK    1  A    between atoms: S1_2  and  C2_4 
REMARK    2  A    between atoms: C2_4  and  C3_5 
REMARK    3  A    between atoms: C4_7  and  C5_8 
REMARK    4  A    between atoms: C5_8  and  O2_9 
REMARK    5  A    between atoms: C6_11  and  O3_12 
REMARK    6  A    between atoms: C7_14  and  O4_15 
ROOT
HETATM    1  C3  UNL     1      18.346 -20.567 -25.667  1.00  0.00     0.163 C 
HETATM    2  O1  UNL     1      19.516 -20.636 -24.966  1.00  0.00    -0.372 OA
HETATM    3  C4  UNL     1      20.552 -20.845 -25.875  1.00  0.00     0.176 C 
HETATM    4  C6  UNL     1      20.130 -19.926 -27.017  1.00  0.00     0.180 C 
HETATM    5  C7  UNL     1      18.654 -20.339 -27.114  1.00  0.00     0.179 C 
ENDROOT
BRANCH   1   6
HETATM    6  C2  UNL     1      17.419 -21.738 -25.444  1.00  0.00     0.113 C 
BRANCH   6   7
HETATM    7  S1  UNL     1      15.732 -21.347 -25.671  1.00  0.00    -0.127 SA
HETATM    8  C1  UNL     1      14.637 -22.449 -24.858  1.00  0.00     0.096 C 
HETATM    9 CL1  UNL     1      15.223 -21.048 -27.633  1.00  0.00    -0.056 Cl
ENDBRANCH   6   7
ENDBRANCH   1   6
BRANCH   5  10
HETATM   10  O4  UNL     1      18.655 -21.541 -27.848  1.00  0.00    -0.390 OA
ATOM     11  H4  UNL     1      19.290 -22.162 -27.510  1.00  0.00     0.210 HD
ENDBRANCH   5  10
BRANCH   3  12
HETATM   12  C5  UNL     1      21.875 -20.360 -25.340  1.00  0.00     0.198 C 
BRANCH  12  13
HETATM   13  O2  UNL     1      22.515 -19.550 -26.255  1.00  0.00    -0.398 OA
ATOM     14  H2  UNL     1      23.456 -19.679 -26.228  1.00  0.00     0.209 HD
ENDBRANCH  12  13
ENDBRANCH   3  12
BRANCH   4  15
HETATM   15  O3  UNL     1      20.248 -18.628 -26.528  1.00  0.00    -0.390 OA
ATOM     16  H3  UNL     1      20.236 -18.060 -27.289  1.00  0.00     0.210 HD
ENDBRANCH   4  15
TORSDOF 6
ENDMDL
MODEL 5
REMARK VINA RESULT: -4.418718693      3.641      5.542
REMARK  6 active torsions:
REMARK  status: ('A' for Active; 'I' for Inactive)
REMARK    1  A    between atoms: S1_2  and  C2_4 
REMARK    2  A    between atoms: C2_4  and  C3_5 
REMARK    3  A    between atoms: C4_7  and  C5_8 
REMARK    4  A    between atoms: C5_8  and  O2_9 
REMARK    5  A    between atoms: C6_11  and  O3_12 
REMARK    6  A    between atoms: C7_14  and  O4_15 
ROOT
HETATM    1  C3  UNL     1      17.966 -21.138 -28.091  1.00  0.00     0.163 C 
HETATM    2  O1  UNL     1      16.850 -21.265 -27.312  1.00  0.00    -0.372 OA
HETATM    3  C4  UNL     1      15.807 -20.586 -27.939  1.00  0.00     0.176 C 
HETATM    4  C6  UNL     1      16.049 -20.958 -29.398  1.00  0.00     0.180 C 
HETATM    5  C7  UNL     1      17.560 -20.689 -29.459  1.00  0.00     0.179 C 
ENDROOT
BRANCH   1   6
HETATM    6  C2  UNL     1      19.047 -20.273 -27.487  1.00  0.00     0.113 C 
BRANCH   6   7
HETATM    7  S1  UNL     1      19.855 -21.013 -26.127  1.00  0.00    -0.127 SA
HETATM    8  C1  UNL     1      18.835 -21.188 -24.711  1.00  0.00     0.096 C 
HETATM    9 CL1  UNL     1      21.662 -20.152 -25.686  1.00  0.00    -0.056 Cl
ENDBRANCH   6   7
ENDBRANCH   1   6
BRANCH   5  10
HETATM   10  O4  UNL     1      17.679 -19.294 -29.612  1.00  0.00    -0.390 OA
ATOM     11  H4  UNL     1      16.838 -18.881 -29.767  1.00  0.00     0.210 HD
ENDBRANCH   5  10
BRANCH   3  12
HETATM   12  C5  UNL     1      14.460 -21.123 -27.529  1.00  0.00     0.198 C 
BRANCH  12  13
HETATM   13  O2  UNL     1      14.589 -22.304 -26.826  1.00  0.00    -0.398 OA
ATOM     14  H2  UNL     1      13.869 -22.421 -26.217  1.00  0.00     0.209 HD
ENDBRANCH  12  13
ENDBRANCH   3  12
BRANCH   4  15
HETATM   15  O3  UNL     1      15.787 -22.322 -29.494  1.00  0.00    -0.390 OA
ATOM     16  H3  UNL     1      15.174 -22.421 -30.213  1.00  0.00     0.210 HD
ENDBRANCH   4  15
TORSDOF 6
ENDMDL
