MODEL 1
REMARK VINA RESULT: -6.302773994      0.000      0.000
REMARK  5 active torsions:
REMARK  status: ('A' for Active; 'I' for Inactive)
REMARK    1  A    between atoms: N2_4  and  N3_6 
REMARK    2  A    between atoms: N3_6  and  C1_8 
REMARK    3  A    between atoms: C4_11  and  N4_12 
REMARK    4  A    between atoms: C6_16  and  N6_17 
REMARK    5  A    between atoms: N7_20  and  O1_21 
ROOT
HETATM    1  C1  UNL     1      19.952 -20.439 -26.483  1.00  0.00     0.137 C 
HETATM    2  C2  UNL     1      19.691 -20.709 -25.022  1.00  0.00     0.032 C 
HETATM    3  C3  UNL     1      18.341 -21.378 -24.984  1.00  0.00     0.031 C 
HETATM    4  C4  UNL     1      17.614 -20.690 -26.113  1.00  0.00     0.127 C 
HETATM    5  C8  UNL     1      18.634 -20.549 -27.201  1.00  0.00     0.217 C 
HETATM    6  F1  UNL     1      18.677 -21.638 -28.043  1.00  0.00    -0.245 F 
ENDROOT
BRANCH   4   7
HETATM    7  N4  UNL     1      16.411 -21.347 -26.511  1.00  0.00    -0.329 N 
HETATM    8  C5  UNL     1      16.029 -21.370 -27.800  1.00  0.00     0.202 A 
HETATM    9  N5  UNL     1      14.884 -21.992 -28.196  1.00  0.00    -0.186 N 
HETATM   10  C6  UNL     1      14.118 -22.599 -27.280  1.00  0.00     0.704 A 
ATOM     11  H5  UNL     1      14.614 -21.996 -29.179  1.00  0.00     0.185 HD
HETATM   12  N7  UNL     1      14.475 -22.592 -25.988  1.00  0.00    -0.048 N 
HETATM   13  C7  UNL     1      15.621 -21.965 -25.615  1.00  0.00     0.236 A 
BRANCH  10  14
HETATM   14  N6  UNL     1      13.036 -23.181 -27.698  1.00  0.00    -0.232 N 
ATOM     15  H62 UNL     1      12.362 -22.710 -28.301  1.00  0.00     0.174 HD
ATOM     16  H61 UNL     1      12.876 -24.143 -27.400  1.00  0.00     0.174 HD
ENDBRANCH  10  14
BRANCH  12  17
HETATM   17  O1  UNL     1      13.662 -23.224 -25.084  1.00  0.00    -0.269 OA
ATOM     18  H1  UNL     1      13.966 -24.034 -24.692  1.00  0.00     0.246 HD
ENDBRANCH  12  17
ENDBRANCH   4   7
BRANCH   1  19
HETATM   19  N3  UNL     1      20.500 -19.081 -26.566  1.00  0.00    -0.315 N 
ATOM     20  H3  UNL     1      19.986 -18.318 -27.005  1.00  0.00     0.182 HD
BRANCH  19  21
HETATM   21  N2  UNL     1      21.765 -18.894 -26.010  1.00  0.00    -0.253 N 
HETATM   22  N1  UNL     1      22.775 -19.071 -26.747  1.00  0.00    -0.331 N 
ATOM     23  H12 UNL     1      22.652 -19.344 -27.722  1.00  0.00     0.178 HD
ATOM     24  H11 UNL     1      23.700 -18.934 -26.340  1.00  0.00     0.178 HD
ATOM     25  H2  UNL     1      21.871 -18.622 -25.032  1.00  0.00     0.207 HD
ENDBRANCH  19  21
ENDBRANCH   1  19
TORSDOF 5
ENDMDL
MODEL 2
REMARK VINA RESULT: -6.002473047      2.512      6.162
REMARK  5 active torsions:
REMARK  status: ('A' for Active; 'I' for Inactive)
REMARK    1  A    between atoms: N2_4  and  N3_6 
REMARK    2  A    between atoms: N3_6  and  C1_8 
REMARK    3  A    between atoms: C4_11  and  N4_12 
REMARK    4  A    between atoms: C6_16  and  N6_17 
REMARK    5  A    between atoms: N7_20  and  O1_21 
ROOT
HETATM    1  C1  UNL     1      15.138 -21.930 -26.522  1.00  0.00     0.137 C 
HETATM    2  C2  UNL     1      15.547 -22.228 -25.102  1.00  0.00     0.032 C 
HETATM    3  C3  UNL     1      16.896 -21.574 -24.938  1.00  0.00     0.031 C 
HETATM    4  C4  UNL     1      17.502 -21.751 -26.309  1.00  0.00     0.127 C 
HETATM    5  C8  UNL     1      16.375 -21.504 -27.265  1.00  0.00     0.217 C 
HETATM    6  F1  UNL     1      16.248 -20.178 -27.617  1.00  0.00    -0.245 F 
ENDROOT
BRANCH   4   7
HETATM    7  N4  UNL     1      18.659 -20.946 -26.536  1.00  0.00    -0.329 N 
HETATM    8  C5  UNL     1      18.739 -20.137 -27.607  1.00  0.00     0.202 A 
HETATM    9  N5  UNL     1      19.835 -19.364 -27.840  1.00  0.00    -0.186 N 
HETATM   10  C6  UNL     1      20.862 -19.407 -26.979  1.00  0.00     0.704 A 
ATOM     11  H5  UNL     1      19.875 -18.759 -28.660  1.00  0.00     0.185 HD
HETATM   12  N7  UNL     1      20.808 -20.204 -25.903  1.00  0.00    -0.048 N 
HETATM   13  C7  UNL     1      19.704 -20.968 -25.691  1.00  0.00     0.236 A 
BRANCH  10  14
HETATM   14  N6  UNL     1      21.887 -18.655 -27.236  1.00  0.00    -0.232 N 
ATOM     15  H62 UNL     1      21.960 -18.105 -28.091  1.00  0.00     0.174 HD
ATOM     16  H61 UNL     1      22.634 -18.628 -26.542  1.00  0.00     0.174 HD
ENDBRANCH  10  14
BRANCH  12  17
HETATM   17  O1  UNL     1      21.879 -20.219 -25.049  1.00  0.00    -0.269 OA
ATOM     18  H1  UNL     1      22.239 -19.388 -24.761  1.00  0.00     0.246 HD
ENDBRANCH  12  17
ENDBRANCH   4   7
BRANCH   1  19
HETATM   19  N3  UNL     1      14.582 -23.172 -27.067  1.00  0.00    -0.315 N 
ATOM     20  H3  UNL     1      14.997 -24.082 -26.868  1.00  0.00     0.182 HD
BRANCH  19  21
HETATM   21  N2  UNL     1      13.453 -23.039 -27.874  1.00  0.00    -0.253 N 
HETATM   22  N1  UNL     1      13.361 -22.016 -28.611  1.00  0.00    -0.331 N 
ATOM     23  H12 UNL     1      14.103 -21.316 -28.604  1.00  0.00     0.178 HD
ATOM     24  H11 UNL     1      12.535 -21.919 -29.201  1.00  0.00     0.178 HD
ATOM     25  H2  UNL     1      12.719 -23.747 -27.869  1.00  0.00     0.207 HD
ENDBRANCH  19  21
ENDBRANCH   1  19
TORSDOF 5
ENDMDL
MODEL 3
REMARK VINA RESULT: -5.807671099      1.304      1.724
REMARK  5 active torsions:
REMARK  status: ('A' for Active; 'I' for Inactive)
REMARK    1  A    between atoms: N2_4  and  N3_6 
REMARK    2  A    between atoms: N3_6  and  C1_8 
REMARK    3  A    between atoms: C4_11  and  N4_12 
REMARK    4  A    between atoms: C6_16  and  N6_17 
REMARK    5  A    between atoms: N7_20  and  O1_21 
ROOT
HETATM    1  C1  UNL     1      19.768 -20.664 -25.978  1.00  0.00     0.137 C 
HETATM    2  C2  UNL     1      19.403 -21.168 -24.605  1.00  0.00     0.032 C 
HETATM    3  C3  UNL     1      18.047 -21.805 -24.768  1.00  0.00     0.031 C 
HETATM    4  C4  UNL     1      17.407 -20.924 -25.813  1.00  0.00     0.127 C 
HETATM    5  C8  UNL     1      18.502 -20.626 -26.791  1.00  0.00     0.217 C 
HETATM    6  F1  UNL     1      18.592 -21.560 -27.799  1.00  0.00    -0.245 F 
ENDROOT
BRANCH   4   7
HETATM    7  N4  UNL     1      16.229 -21.481 -26.394  1.00  0.00    -0.329 N 
HETATM    8  C5  UNL     1      15.394 -22.246 -25.669  1.00  0.00     0.202 A 
HETATM    9  N5  UNL     1      14.267 -22.786 -26.208  1.00  0.00    -0.186 N 
HETATM   10  C6  UNL     1      13.978 -22.549 -27.495  1.00  0.00     0.704 A 
ATOM     11  H5  UNL     1      13.649 -23.365 -25.638  1.00  0.00     0.185 HD
HETATM   12  N7  UNL     1      14.791 -21.789 -28.241  1.00  0.00    -0.048 N 
HETATM   13  C7  UNL     1      15.912 -21.261 -27.682  1.00  0.00     0.236 A 
BRANCH  10  14
HETATM   14  N6  UNL     1      12.894 -23.081 -27.970  1.00  0.00    -0.232 N 
ATOM     15  H62 UNL     1      12.887 -23.628 -28.830  1.00  0.00     0.174 HD
ATOM     16  H61 UNL     1      12.031 -22.933 -27.447  1.00  0.00     0.174 HD
ENDBRANCH  10  14
BRANCH  12  17
HETATM   17  O1  UNL     1      14.459 -21.572 -29.552  1.00  0.00    -0.269 OA
ATOM     18  H1  UNL     1      14.521 -22.299 -30.160  1.00  0.00     0.246 HD
ENDBRANCH  12  17
ENDBRANCH   4   7
BRANCH   1  19
HETATM   19  N3  UNL     1      20.333 -19.324 -25.796  1.00  0.00    -0.315 N 
ATOM     20  H3  UNL     1      20.461 -18.913 -24.872  1.00  0.00     0.182 HD
BRANCH  19  21
HETATM   21  N2  UNL     1      20.687 -18.643 -26.960  1.00  0.00    -0.253 N 
HETATM   22  N1  UNL     1      21.901 -18.647 -27.311  1.00  0.00    -0.331 N 
ATOM     23  H12 UNL     1      22.592 -19.141 -26.746  1.00  0.00     0.178 HD
ATOM     24  H11 UNL     1      22.159 -18.148 -28.163  1.00  0.00     0.178 HD
ATOM     25  H2  UNL     1      19.984 -18.153 -27.515  1.00  0.00     0.207 HD
ENDBRANCH  19  21
ENDBRANCH   1  19
TORSDOF 5
ENDMDL
MODEL 4
REMARK VINA RESULT: -5.402601136      1.192      1.272
REMARK  5 active torsions:
REMARK  status: ('A' for Active; 'I' for Inactive)
REMARK    1  A    between atoms: N2_4  and  N3_6 
REMARK    2  A    between atoms: N3_6  and  C1_8 
REMARK    3  A    between atoms: C4_11  and  N4_12 
REMARK    4  A    between atoms: C6_16  and  N6_17 
REMARK    5  A    between atoms: N7_20  and  O1_21 
ROOT
HETATM    1  C1  UNL     1      19.736 -21.096 -25.861  1.00  0.00     0.137 C 
HETATM    2  C2  UNL     1      19.085 -21.471 -24.554  1.00  0.00     0.032 C 
HETATM    3  C3  UNL     1      17.667 -21.836 -24.913  1.00  0.00     0.031 C 
HETATM    4  C4  UNL     1      17.372 -20.883 -26.046  1.00  0.00     0.127 C 
HETATM    5  C8  UNL     1      18.634 -20.838 -26.852  1.00  0.00     0.217 C 
HETATM    6  F1  UNL     1      18.681 -21.806 -27.831  1.00  0.00    -0.245 F 
ENDROOT
BRANCH   4   7
HETATM    7  N4  UNL     1      16.203 -21.217 -26.792  1.00  0.00    -0.329 N 
HETATM    8  C5  UNL     1      15.566 -20.293 -27.533  1.00  0.00     0.202 A 
HETATM    9  N5  UNL     1      14.449 -20.595 -28.250  1.00  0.00    -0.186 N 
HETATM   10  C6  UNL     1      13.970 -21.846 -28.220  1.00  0.00     0.704 A 
ATOM     11  H5  UNL     1      13.983 -19.877 -28.803  1.00  0.00     0.185 HD
HETATM   12  N7  UNL     1      14.585 -22.788 -27.491  1.00  0.00    -0.048 N 
HETATM   13  C7  UNL     1      15.698 -22.464 -26.782  1.00  0.00     0.236 A 
BRANCH  10  14
HETATM   14  N6  UNL     1      12.905 -22.094 -28.918  1.00  0.00    -0.232 N 
ATOM     15  H62 UNL     1      11.965 -21.977 -28.539  1.00  0.00     0.174 HD
ATOM     16  H61 UNL     1      13.037 -22.415 -29.876  1.00  0.00     0.174 HD
ENDBRANCH  10  14
BRANCH  12  17
HETATM   17  O1  UNL     1      14.062 -24.054 -27.487  1.00  0.00    -0.269 OA
ATOM     18  H1  UNL     1      13.213 -24.191 -27.086  1.00  0.00     0.246 HD
ENDBRANCH  12  17
ENDBRANCH   4   7
BRANCH   1  19
HETATM   19  N3  UNL     1      20.524 -19.887 -25.604  1.00  0.00    -0.315 N 
ATOM     20  H3  UNL     1      21.123 -19.797 -24.784  1.00  0.00     0.182 HD
BRANCH  19  21
HETATM   21  N2  UNL     1      20.409 -18.866 -26.547  1.00  0.00    -0.253 N 
HETATM   22  N1  UNL     1      21.439 -18.532 -27.197  1.00  0.00    -0.331 N 
ATOM     23  H12 UNL     1      22.326 -19.006 -27.025  1.00  0.00     0.178 HD
ATOM     24  H11 UNL     1      21.354 -17.785 -27.887  1.00  0.00     0.178 HD
ATOM     25  H2  UNL     1      19.515 -18.400 -26.707  1.00  0.00     0.207 HD
ENDBRANCH  19  21
ENDBRANCH   1  19
TORSDOF 5
ENDMDL
MODEL 5
REMARK VINA RESULT: -5.111052034      2.616      6.202
REMARK  5 active torsions:
REMARK  status: ('A' for Active; 'I' for Inactive)
REMARK    1  A    between atoms: N2_4  and  N3_6 
REMARK    2  A    between atoms: N3_6  and  C1_8 
REMARK    3  A    between atoms: C4_11  and  N4_12 
REMARK    4  A    between atoms: C6_16  and  N6_17 
REMARK    5  A    between atoms: N7_20  and  O1_21 
ROOT
HETATM    1  C1  UNL     1      15.299 -20.941 -28.174  1.00  0.00     0.137 C 
HETATM    2  C2  UNL     1      14.927 -20.896 -26.713  1.00  0.00     0.032 C 
HETATM    3  C3  UNL     1      16.219 -20.617 -25.988  1.00  0.00     0.031 C 
HETATM    4  C4  UNL     1      17.224 -21.358 -26.836  1.00  0.00     0.127 C 
HETATM    5  C8  UNL     1      16.792 -21.114 -28.249  1.00  0.00     0.217 C 
HETATM    6  F1  UNL     1      17.345 -19.975 -28.792  1.00  0.00    -0.245 F 
ENDROOT
BRANCH   4   7
HETATM    7  N4  UNL     1      18.580 -21.007 -26.562  1.00  0.00    -0.329 N 
HETATM    8  C5  UNL     1      19.361 -21.801 -25.808  1.00  0.00     0.202 A 
HETATM    9  N5  UNL     1      20.656 -21.480 -25.535  1.00  0.00    -0.186 N 
HETATM   10  C6  UNL     1      21.169 -20.346 -26.032  1.00  0.00     0.704 A 
ATOM     11  H5  UNL     1      21.229 -22.097 -24.960  1.00  0.00     0.185 HD
HETATM   12  N7  UNL     1      20.413 -19.537 -26.787  1.00  0.00    -0.048 N 
HETATM   13  C7  UNL     1      19.123 -19.876 -27.045  1.00  0.00     0.236 A 
BRANCH  10  14
HETATM   14  N6  UNL     1      22.406 -20.078 -25.750  1.00  0.00    -0.232 N 
ATOM     15  H62 UNL     1      22.668 -19.389 -25.046  1.00  0.00     0.174 HD
ATOM     16  H61 UNL     1      23.125 -20.587 -26.264  1.00  0.00     0.174 HD
ENDBRANCH  10  14
BRANCH  12  17
HETATM   17  O1  UNL     1      20.975 -18.387 -27.274  1.00  0.00    -0.269 OA
ATOM     18  H1  UNL     1      20.433 -17.802 -27.790  1.00  0.00     0.246 HD
ENDBRANCH  12  17
ENDBRANCH   4   7
BRANCH   1  19
HETATM   19  N3  UNL     1      14.593 -22.089 -28.751  1.00  0.00    -0.315 N 
ATOM     20  H3  UNL     1      14.599 -22.278 -29.753  1.00  0.00     0.182 HD
BRANCH  19  21
HETATM   21  N2  UNL     1      13.914 -22.909 -27.850  1.00  0.00    -0.253 N 
HETATM   22  N1  UNL     1      14.497 -23.948 -27.429  1.00  0.00    -0.331 N 
ATOM     23  H12 UNL     1      15.441 -24.167 -27.750  1.00  0.00     0.178 HD
ATOM     24  H11 UNL     1      14.000 -24.547 -26.770  1.00  0.00     0.178 HD
ATOM     25  H2  UNL     1      12.971 -22.676 -27.540  1.00  0.00     0.207 HD
ENDBRANCH  19  21
ENDBRANCH   1  19
TORSDOF 5
ENDMDL
