MODEL 1
REMARK VINA RESULT: -4.623123090      0.000      0.000
REMARK  6 active torsions:
REMARK  status: ('A' for Active; 'I' for Inactive)
REMARK    1  A    between atoms: N1_2  and  C4_5 
REMARK    2  A    between atoms: C4_5  and  C5_6 
REMARK    3  A    between atoms: C6_7  and  O1_8 
REMARK    4  A    between atoms: C9_13  and  C10_14 
REMARK    5  A    between atoms: C10_14  and  O2_15 
REMARK    6  A    between atoms: C11_17  and  O3_18 
ROOT
HETATM    1  C5  UNL     1      18.167 -21.053 -27.335  1.00  0.00     0.072 C 
HETATM    2  C6  UNL     1      17.663 -21.347 -25.876  1.00  0.00     0.160 C 
HETATM    3  C7  UNL     1      18.782 -21.934 -25.079  1.00  0.00     0.199 C 
HETATM    4  F1  UNL     1      18.327 -22.136 -23.800  1.00  0.00    -0.247 F 
HETATM    5  C8  UNL     1      19.983 -21.013 -25.017  1.00  0.00     0.049 C 
HETATM    6  C9  UNL     1      20.417 -20.660 -26.422  1.00  0.00     0.041 C 
HETATM    7  C11 UNL     1      19.214 -19.996 -27.091  1.00  0.00     0.132 C 
ENDROOT
BRANCH   1   8
HETATM    8  C4  UNL     1      17.006 -20.627 -28.125  1.00  0.00     0.245 C 
BRANCH   8   9
HETATM    9  N1  UNL     1      15.843 -21.372 -28.277  1.00  0.00    -0.078 N 
HETATM   10  C1  UNL     1      15.649 -22.563 -27.558  1.00  0.00     0.271 C 
HETATM   11  C2  UNL     1      15.615 -21.656 -29.686  1.00  0.00     0.271 C 
HETATM   12  C3  UNL     1      14.688 -20.488 -27.907  1.00  0.00     0.271 C 
ENDBRANCH   8   9
ENDBRANCH   1   8
BRANCH   2  13
HETATM   13  O1  UNL     1      17.119 -20.213 -25.328  1.00  0.00    -0.392 OA
ATOM     14  H1  UNL     1      17.178 -20.247 -24.380  1.00  0.00     0.210 HD
ENDBRANCH   2  13
BRANCH   7  15
HETATM   15  O3  UNL     1      19.589 -19.240 -28.159  1.00  0.00    -0.395 OA
ATOM     16  H3  UNL     1      20.448 -19.412 -28.528  1.00  0.00     0.210 HD
ENDBRANCH   7  15
BRANCH   6  17
HETATM   17  C10 UNL     1      21.587 -19.693 -26.330  1.00  0.00     0.171 C 
BRANCH  17  18
HETATM   18  O2  UNL     1      22.217 -19.744 -25.113  1.00  0.00    -0.400 OA
ATOM     19  H2  UNL     1      22.966 -19.162 -25.066  1.00  0.00     0.209 HD
ENDBRANCH  17  18
ENDBRANCH   6  17
TORSDOF 6
ENDMDL
MODEL 2
REMARK VINA RESULT: -4.177545651      0.515      1.207
REMARK  6 active torsions:
REMARK  status: ('A' for Active; 'I' for Inactive)
REMARK    1  A    between atoms: N1_2  and  C4_5 
REMARK    2  A    between atoms: C4_5  and  C5_6 
REMARK    3  A    between atoms: C6_7  and  O1_8 
REMARK    4  A    between atoms: C9_13  and  C10_14 
REMARK    5  A    between atoms: C10_14  and  O2_15 
REMARK    6  A    between atoms: C11_17  and  O3_18 
ROOT
HETATM    1  C5  UNL     1      18.255 -21.102 -27.286  1.00  0.00     0.072 C 
HETATM    2  C6  UNL     1      17.776 -21.365 -25.812  1.00  0.00     0.160 C 
HETATM    3  C7  UNL     1      18.929 -21.861 -25.003  1.00  0.00     0.199 C 
HETATM    4  F1  UNL     1      18.494 -22.037 -23.713  1.00  0.00    -0.247 F 
HETATM    5  C8  UNL     1      20.081 -20.877 -24.986  1.00  0.00     0.049 C 
HETATM    6  C9  UNL     1      20.487 -20.557 -26.407  1.00  0.00     0.041 C 
HETATM    7  C11 UNL     1      19.247 -19.983 -27.091  1.00  0.00     0.132 C 
ENDROOT
BRANCH   1   8
HETATM    8  C4  UNL     1      17.068 -20.768 -28.082  1.00  0.00     0.245 C 
BRANCH   8   9
HETATM    9  N1  UNL     1      16.121 -21.692 -28.504  1.00  0.00    -0.078 N 
HETATM   10  C1  UNL     1      15.312 -21.436 -29.624  1.00  0.00     0.271 C 
HETATM   11  C2  UNL     1      15.250 -22.054 -27.396  1.00  0.00     0.271 C 
HETATM   12  C3  UNL     1      16.841 -22.971 -28.814  1.00  0.00     0.271 C 
ENDBRANCH   8   9
ENDBRANCH   1   8
BRANCH   2  13
HETATM   13  O1  UNL     1      17.177 -20.240 -25.303  1.00  0.00    -0.392 OA
ATOM     14  H1  UNL     1      17.554 -20.022 -24.459  1.00  0.00     0.210 HD
ENDBRANCH   2  13
BRANCH   7  15
HETATM   15  O3  UNL     1      19.574 -19.251 -28.190  1.00  0.00    -0.395 OA
ATOM     16  H3  UNL     1      20.476 -18.959 -28.260  1.00  0.00     0.210 HD
ENDBRANCH   7  15
BRANCH   6  17
HETATM   17  C10 UNL     1      21.605 -19.527 -26.362  1.00  0.00     0.171 C 
BRANCH  17  18
HETATM   18  O2  UNL     1      22.278 -19.534 -25.168  1.00  0.00    -0.400 OA
ATOM     19  H2  UNL     1      23.122 -19.965 -25.228  1.00  0.00     0.209 HD
ENDBRANCH  17  18
ENDBRANCH   6  17
TORSDOF 6
ENDMDL
MODEL 3
REMARK VINA RESULT: -4.051842887      2.732      5.288
REMARK  6 active torsions:
REMARK  status: ('A' for Active; 'I' for Inactive)
REMARK    1  A    between atoms: N1_2  and  C4_5 
REMARK    2  A    between atoms: C4_5  and  C5_6 
REMARK    3  A    between atoms: C6_7  and  O1_8 
REMARK    4  A    between atoms: C9_13  and  C10_14 
REMARK    5  A    between atoms: C10_14  and  O2_15 
REMARK    6  A    between atoms: C11_17  and  O3_18 
ROOT
HETATM    1  C5  UNL     1      17.778 -21.385 -27.301  1.00  0.00     0.072 C 
HETATM    2  C6  UNL     1      17.084 -21.048 -28.671  1.00  0.00     0.160 C 
HETATM    3  C7  UNL     1      15.928 -21.971 -28.874  1.00  0.00     0.199 C 
HETATM    4  F1  UNL     1      15.315 -21.624 -30.052  1.00  0.00    -0.247 F 
HETATM    5  C8  UNL     1      14.909 -21.865 -27.759  1.00  0.00     0.049 C 
HETATM    6  C9  UNL     1      15.592 -22.104 -26.431  1.00  0.00     0.041 C 
HETATM    7  C11 UNL     1      16.689 -21.047 -26.314  1.00  0.00     0.132 C 
ENDROOT
BRANCH   1   8
HETATM    8  C4  UNL     1      18.994 -20.569 -27.211  1.00  0.00     0.245 C 
BRANCH   8   9
HETATM    9  N1  UNL     1      19.948 -20.689 -26.208  1.00  0.00    -0.078 N 
HETATM   10  C1  UNL     1      20.537 -21.931 -25.917  1.00  0.00     0.271 C 
HETATM   11  C2  UNL     1      19.436 -20.132 -24.965  1.00  0.00     0.271 C 
HETATM   12  C3  UNL     1      21.088 -19.777 -26.555  1.00  0.00     0.271 C 
ENDBRANCH   8   9
ENDBRANCH   1   8
BRANCH   2  13
HETATM   13  O1  UNL     1      16.755 -19.717 -28.718  1.00  0.00    -0.392 OA
ATOM     14  H1  UNL     1      15.812 -19.616 -28.779  1.00  0.00     0.210 HD
ENDBRANCH   2  13
BRANCH   7  15
HETATM   15  O3  UNL     1      17.066 -20.857 -25.021  1.00  0.00    -0.395 OA
ATOM     16  H3  UNL     1      16.550 -21.294 -24.353  1.00  0.00     0.210 HD
ENDBRANCH   7  15
BRANCH   6  17
HETATM   17  C10 UNL     1      14.560 -21.937 -25.327  1.00  0.00     0.171 C 
BRANCH  17  18
HETATM   18  O2  UNL     1      14.034 -23.134 -24.913  1.00  0.00    -0.400 OA
ATOM     19  H2  UNL     1      13.099 -23.193 -25.065  1.00  0.00     0.209 HD
ENDBRANCH  17  18
ENDBRANCH   6  17
TORSDOF 6
ENDMDL
MODEL 4
REMARK VINA RESULT: -4.004979249      2.723      5.277
REMARK  6 active torsions:
REMARK  status: ('A' for Active; 'I' for Inactive)
REMARK    1  A    between atoms: N1_2  and  C4_5 
REMARK    2  A    between atoms: C4_5  and  C5_6 
REMARK    3  A    between atoms: C6_7  and  O1_8 
REMARK    4  A    between atoms: C9_13  and  C10_14 
REMARK    5  A    between atoms: C10_14  and  O2_15 
REMARK    6  A    between atoms: C11_17  and  O3_18 
ROOT
HETATM    1  C5  UNL     1      17.782 -21.377 -27.321  1.00  0.00     0.072 C 
HETATM    2  C6  UNL     1      17.060 -21.057 -28.680  1.00  0.00     0.160 C 
HETATM    3  C7  UNL     1      15.909 -21.992 -28.855  1.00  0.00     0.199 C 
HETATM    4  F1  UNL     1      15.271 -21.660 -30.024  1.00  0.00    -0.247 F 
HETATM    5  C8  UNL     1      14.909 -21.887 -27.722  1.00  0.00     0.049 C 
HETATM    6  C9  UNL     1      15.620 -22.110 -26.406  1.00  0.00     0.041 C 
HETATM    7  C11 UNL     1      16.709 -21.041 -26.317  1.00  0.00     0.132 C 
ENDROOT
BRANCH   1   8
HETATM    8  C4  UNL     1      18.992 -20.549 -27.259  1.00  0.00     0.245 C 
BRANCH   8   9
HETATM    9  N1  UNL     1      19.875 -20.526 -26.187  1.00  0.00    -0.078 N 
HETATM   10  C1  UNL     1      19.455 -20.107 -24.914  1.00  0.00     0.271 C 
HETATM   11  C2  UNL     1      21.066 -19.767 -26.540  1.00  0.00     0.271 C 
HETATM   12  C3  UNL     1      20.394 -21.921 -25.998  1.00  0.00     0.271 C 
ENDBRANCH   8   9
ENDBRANCH   1   8
BRANCH   2  13
HETATM   13  O1  UNL     1      16.717 -19.729 -28.731  1.00  0.00    -0.392 OA
ATOM     14  H1  UNL     1      16.408 -19.505 -29.601  1.00  0.00     0.210 HD
ENDBRANCH   2  13
BRANCH   7  15
HETATM   15  O3  UNL     1      17.108 -20.838 -25.032  1.00  0.00    -0.395 OA
ATOM     16  H3  UNL     1      16.680 -20.136 -24.554  1.00  0.00     0.210 HD
ENDBRANCH   7  15
BRANCH   6  17
HETATM   17  C10 UNL     1      14.606 -21.944 -25.284  1.00  0.00     0.171 C 
BRANCH  17  18
HETATM   18  O2  UNL     1      14.006 -23.127 -24.938  1.00  0.00    -0.400 OA
ATOM     19  H2  UNL     1      13.135 -23.003 -24.582  1.00  0.00     0.209 HD
ENDBRANCH  17  18
ENDBRANCH   6  17
TORSDOF 6
ENDMDL
MODEL 5
REMARK VINA RESULT: -3.874116461      2.277      3.108
REMARK  6 active torsions:
REMARK  status: ('A' for Active; 'I' for Inactive)
REMARK    1  A    between atoms: N1_2  and  C4_5 
REMARK    2  A    between atoms: C4_5  and  C5_6 
REMARK    3  A    between atoms: C6_7  and  O1_8 
REMARK    4  A    between atoms: C9_13  and  C10_14 
REMARK    5  A    between atoms: C10_14  and  O2_15 
REMARK    6  A    between atoms: C11_17  and  O3_18 
ROOT
HETATM    1  C5  UNL     1      17.626 -20.932 -26.371  1.00  0.00     0.072 C 
HETATM    2  C6  UNL     1      17.648 -20.803 -27.937  1.00  0.00     0.160 C 
HETATM    3  C7  UNL     1      18.509 -19.645 -28.322  1.00  0.00     0.199 C 
HETATM    4  F1  UNL     1      18.548 -19.586 -29.692  1.00  0.00    -0.247 F 
HETATM    5  C8  UNL     1      19.928 -19.795 -27.813  1.00  0.00     0.049 C 
HETATM    6  C9  UNL     1      19.904 -20.005 -26.315  1.00  0.00     0.041 C 
HETATM    7  C11 UNL     1      19.066 -21.259 -26.069  1.00  0.00     0.132 C 
ENDROOT
BRANCH   1   8
HETATM    8  C4  UNL     1      16.652 -21.974 -26.028  1.00  0.00     0.245 C 
BRANCH   8   9
HETATM    9  N1  UNL     1      15.285 -21.878 -26.257  1.00  0.00    -0.078 N 
HETATM   10  C1  UNL     1      14.735 -20.750 -26.888  1.00  0.00     0.271 C 
HETATM   11  C2  UNL     1      14.556 -22.097 -25.016  1.00  0.00     0.271 C 
HETATM   12  C3  UNL     1      14.885 -23.047 -27.108  1.00  0.00     0.271 C 
ENDBRANCH   8   9
ENDBRANCH   1   8
BRANCH   2  13
HETATM   13  O1  UNL     1      18.024 -21.995 -28.503  1.00  0.00    -0.392 OA
ATOM     14  H1  UNL     1      18.004 -21.928 -29.451  1.00  0.00     0.210 HD
ENDBRANCH   2  13
BRANCH   7  15
HETATM   15  O3  UNL     1      19.333 -21.809 -24.854  1.00  0.00    -0.395 OA
ATOM     16  H3  UNL     1      18.623 -21.822 -24.222  1.00  0.00     0.210 HD
ENDBRANCH   7  15
BRANCH   6  17
HETATM   17  C10 UNL     1      21.334 -20.207 -25.840  1.00  0.00     0.171 C 
BRANCH  17  18
HETATM   18  O2  UNL     1      21.995 -19.023 -25.643  1.00  0.00    -0.400 OA
ATOM     19  H2  UNL     1      22.255 -18.897 -24.738  1.00  0.00     0.209 HD
ENDBRANCH  17  18
ENDBRANCH   6  17
TORSDOF 6
ENDMDL
