MODEL 1
REMARK VINA RESULT: -6.331317274      0.000      0.000
REMARK  8 active torsions:
REMARK  status: ('A' for Active; 'I' for Inactive)
REMARK    1  A    between atoms: C2_2  and  C3_3 
REMARK    2  A    between atoms: C2_2  and  C4_6 
REMARK    3  A    between atoms: C3_3  and  O1_4 
REMARK    4  A    between atoms: C4_6  and  C5_7 
REMARK    5  A    between atoms: C5_7  and  C8_10 
REMARK    6  A    between atoms: C11_13  and  C12_14 
REMARK    7  A    between atoms: C12_14  and  O2_15 
REMARK    8  A    between atoms: C12_14  and  C13_17 
ROOT
HETATM    1  C8  UNL     1      69.486  50.129   9.075  1.00  0.00     0.063 C 
HETATM    2  C9  UNL     1      68.090  50.684   8.898  1.00  0.00     0.013 C 
HETATM    3  C10 UNL     1      67.612  51.459  10.085  1.00  0.00     0.009 C 
HETATM    4  C11 UNL     1      67.799  50.870  11.416  1.00  0.00     0.026 C 
HETATM    5  C17 UNL     1      68.657  49.599  11.410  1.00  0.00     0.058 C 
HETATM    6  C18 UNL     1      67.840  48.355  11.170  1.00  0.00     0.018 C 
HETATM    7  C19 UNL     1      69.784  49.766  10.452  1.00  0.00     0.136 C 
HETATM    8  O3  UNL     1      70.906  49.594  10.867  1.00  0.00    -0.297 OA
ENDROOT
BRANCH   1   9
HETATM    9  C5  UNL     1      69.870  49.136   8.038  1.00  0.00    -0.037 C 
HETATM   10  C6  UNL     1      70.233  47.774   8.494  1.00  0.00     0.015 C 
HETATM   11  C7  UNL     1      68.643  48.966   7.092  1.00  0.00     0.015 C 
BRANCH   9  12
HETATM   12  C4  UNL     1      70.945  49.713   7.170  1.00  0.00     0.015 C 
BRANCH  12  13
HETATM   13  C2  UNL     1      71.891  50.681   7.758  1.00  0.00     0.006 C 
HETATM   14  C1  UNL     1      72.349  51.840   6.969  1.00  0.00     0.012 C 
BRANCH  13  15
HETATM   15  C3  UNL     1      73.167  49.858   8.061  1.00  0.00     0.168 C 
BRANCH  15  16
HETATM   16  O1  UNL     1      73.343  49.703   9.411  1.00  0.00    -0.400 OA
ATOM     17  H1  UNL     1      73.252  48.792   9.664  1.00  0.00     0.209 HD
ENDBRANCH  15  16
ENDBRANCH  13  15
ENDBRANCH  12  13
ENDBRANCH   9  12
ENDBRANCH   1   9
BRANCH   4  18
HETATM   18  C12 UNL     1      66.574  50.549  12.203  1.00  0.00     0.131 C 
BRANCH  18  19
HETATM   19  O2  UNL     1      66.734  51.144  13.477  1.00  0.00    -0.394 OA
ATOM     20  H2  UNL     1      67.238  50.537  14.006  1.00  0.00     0.210 HD
ENDBRANCH  18  19
BRANCH  18  21
HETATM   21  C13 UNL     1      65.288  51.035  11.632  1.00  0.00    -0.018 A 
HETATM   22  C14 UNL     1      64.860  52.464  11.803  1.00  0.00     0.018 C 
HETATM   23  C15 UNL     1      64.119  50.013  11.834  1.00  0.00     0.012 A 
HETATM   24  C16 UNL     1      64.707  50.209  10.492  1.00  0.00     0.012 A 
ENDBRANCH  18  21
ENDBRANCH   4  18
TORSDOF 8
ENDMDL
MODEL 2
REMARK VINA RESULT: -6.316759748      2.015      6.139
REMARK  8 active torsions:
REMARK  status: ('A' for Active; 'I' for Inactive)
REMARK    1  A    between atoms: C2_2  and  C3_3 
REMARK    2  A    between atoms: C2_2  and  C4_6 
REMARK    3  A    between atoms: C3_3  and  O1_4 
REMARK    4  A    between atoms: C4_6  and  C5_7 
REMARK    5  A    between atoms: C5_7  and  C8_10 
REMARK    6  A    between atoms: C11_13  and  C12_14 
REMARK    7  A    between atoms: C12_14  and  O2_15 
REMARK    8  A    between atoms: C12_14  and  C13_17 
ROOT
HETATM    1  C8  UNL     1      67.335  50.312  10.552  1.00  0.00     0.063 C 
HETATM    2  C9  UNL     1      67.869  50.890   9.259  1.00  0.00     0.013 C 
HETATM    3  C10 UNL     1      68.395  49.848   8.324  1.00  0.00     0.009 C 
HETATM    4  C11 UNL     1      69.287  48.818   8.869  1.00  0.00     0.026 C 
HETATM    5  C17 UNL     1      69.395  48.846  10.398  1.00  0.00     0.058 C 
HETATM    6  C18 UNL     1      70.474  49.782  10.881  1.00  0.00     0.018 C 
HETATM    7  C19 UNL     1      68.056  49.126  10.986  1.00  0.00     0.136 C 
HETATM    8  O3  UNL     1      67.624  48.346  11.801  1.00  0.00    -0.297 OA
ENDROOT
BRANCH   1   9
HETATM    9  C5  UNL     1      67.066  51.335  11.596  1.00  0.00    -0.037 C 
HETATM   10  C6  UNL     1      66.340  50.899  12.812  1.00  0.00     0.015 C 
HETATM   11  C7  UNL     1      68.449  51.867  12.081  1.00  0.00     0.015 C 
BRANCH   9  12
HETATM   12  C4  UNL     1      66.398  52.521  10.972  1.00  0.00     0.015 C 
BRANCH  12  13
HETATM   13  C2  UNL     1      66.584  53.849  11.590  1.00  0.00     0.006 C 
HETATM   14  C1  UNL     1      65.453  54.517  12.261  1.00  0.00     0.012 C 
BRANCH  13  15
HETATM   15  C3  UNL     1      66.978  54.781  10.418  1.00  0.00     0.168 C 
BRANCH  15  16
HETATM   16  O1  UNL     1      68.340  54.846  10.278  1.00  0.00    -0.400 OA
ATOM     17  H1  UNL     1      68.654  55.732  10.414  1.00  0.00     0.209 HD
ENDBRANCH  15  16
ENDBRANCH  13  15
ENDBRANCH  12  13
ENDBRANCH   9  12
ENDBRANCH   1   9
BRANCH   4  18
HETATM   18  C12 UNL     1      70.682  48.772   8.347  1.00  0.00     0.131 C 
BRANCH  18  19
HETATM   19  O2  UNL     1      70.913  47.450   7.898  1.00  0.00    -0.394 OA
ATOM     20  H2  UNL     1      71.800  47.422   7.560  1.00  0.00     0.210 HD
ENDBRANCH  18  19
BRANCH  18  21
HETATM   21  C13 UNL     1      70.986  49.694   7.218  1.00  0.00    -0.018 A 
HETATM   22  C14 UNL     1      70.288  49.552   5.898  1.00  0.00     0.018 C 
HETATM   23  C15 UNL     1      72.518  49.985   7.078  1.00  0.00     0.012 A 
HETATM   24  C16 UNL     1      71.612  51.031   7.597  1.00  0.00     0.012 A 
ENDBRANCH  18  21
ENDBRANCH   4  18
TORSDOF 8
ENDMDL
MODEL 3
REMARK VINA RESULT: -6.220284608      2.036      2.964
REMARK  8 active torsions:
REMARK  status: ('A' for Active; 'I' for Inactive)
REMARK    1  A    between atoms: C2_2  and  C3_3 
REMARK    2  A    between atoms: C2_2  and  C4_6 
REMARK    3  A    between atoms: C3_3  and  O1_4 
REMARK    4  A    between atoms: C4_6  and  C5_7 
REMARK    5  A    between atoms: C5_7  and  C8_10 
REMARK    6  A    between atoms: C11_13  and  C12_14 
REMARK    7  A    between atoms: C12_14  and  O2_15 
REMARK    8  A    between atoms: C12_14  and  C13_17 
ROOT
HETATM    1  C8  UNL     1      69.183  50.155  11.213  1.00  0.00     0.063 C 
HETATM    2  C9  UNL     1      69.196  51.667  11.178  1.00  0.00     0.013 C 
HETATM    3  C10 UNL     1      68.161  52.284  12.063  1.00  0.00     0.009 C 
HETATM    4  C11 UNL     1      66.795  51.751  12.005  1.00  0.00     0.026 C 
HETATM    5  C17 UNL     1      66.670  50.474  11.164  1.00  0.00     0.058 C 
HETATM    6  C18 UNL     1      66.426  50.768   9.706  1.00  0.00     0.018 C 
HETATM    7  C19 UNL     1      67.851  49.602  11.408  1.00  0.00     0.136 C 
HETATM    8  O3  UNL     1      67.649  48.465  11.762  1.00  0.00    -0.297 OA
ENDROOT
BRANCH   1   9
HETATM    9  C5  UNL     1      70.004  49.525  10.146  1.00  0.00    -0.037 C 
HETATM   10  C6  UNL     1      71.355  49.043  10.514  1.00  0.00     0.015 C 
HETATM   11  C7  UNL     1      69.218  48.278   9.640  1.00  0.00     0.015 C 
BRANCH   9  12
HETATM   12  C4  UNL     1      70.068  50.441   8.962  1.00  0.00     0.015 C 
BRANCH  12  13
HETATM   13  C2  UNL     1      71.029  50.141   7.883  1.00  0.00     0.006 C 
HETATM   14  C1  UNL     1      72.072  51.123   7.529  1.00  0.00     0.012 C 
BRANCH  13  15
HETATM   15  C3  UNL     1      70.162  49.983   6.610  1.00  0.00     0.168 C 
BRANCH  15  16
HETATM   16  O1  UNL     1      70.483  48.833   5.937  1.00  0.00    -0.400 OA
ATOM     17  H1  UNL     1      70.696  49.018   5.029  1.00  0.00     0.209 HD
ENDBRANCH  15  16
ENDBRANCH  13  15
ENDBRANCH  12  13
ENDBRANCH   9  12
ENDBRANCH   1   9
BRANCH   4  18
HETATM   18  C12 UNL     1      65.718  52.671  11.541  1.00  0.00     0.131 C 
BRANCH  18  19
HETATM   19  O2  UNL     1      64.586  52.426  12.353  1.00  0.00    -0.394 OA
ATOM     20  H2  UNL     1      64.264  53.271  12.643  1.00  0.00     0.210 HD
ENDBRANCH  18  19
BRANCH  18  21
HETATM   21  C13 UNL     1      66.027  54.125  11.617  1.00  0.00    -0.018 A 
HETATM   22  C14 UNL     1      65.783  54.900  12.879  1.00  0.00     0.018 C 
HETATM   23  C15 UNL     1      65.593  54.898  10.326  1.00  0.00     0.012 A 
HETATM   24  C16 UNL     1      67.026  54.652  10.594  1.00  0.00     0.012 A 
ENDBRANCH  18  21
ENDBRANCH   4  18
TORSDOF 8
ENDMDL
MODEL 4
REMARK VINA RESULT: -6.209795222      1.869      6.277
REMARK  8 active torsions:
REMARK  status: ('A' for Active; 'I' for Inactive)
REMARK    1  A    between atoms: C2_2  and  C3_3 
REMARK    2  A    between atoms: C2_2  and  C4_6 
REMARK    3  A    between atoms: C3_3  and  O1_4 
REMARK    4  A    between atoms: C4_6  and  C5_7 
REMARK    5  A    between atoms: C5_7  and  C8_10 
REMARK    6  A    between atoms: C11_13  and  C12_14 
REMARK    7  A    between atoms: C12_14  and  O2_15 
REMARK    8  A    between atoms: C12_14  and  C13_17 
ROOT
HETATM    1  C8  UNL     1      66.845  50.450  12.115  1.00  0.00     0.063 C 
HETATM    2  C9  UNL     1      66.953  49.094  11.452  1.00  0.00     0.013 C 
HETATM    3  C10 UNL     1      68.345  48.546  11.461  1.00  0.00     0.009 C 
HETATM    4  C11 UNL     1      69.441  49.437  11.061  1.00  0.00     0.026 C 
HETATM    5  C17 UNL     1      69.009  50.896  10.875  1.00  0.00     0.058 C 
HETATM    6  C18 UNL     1      68.511  51.175   9.480  1.00  0.00     0.018 C 
HETATM    7  C19 UNL     1      68.037  51.265  11.940  1.00  0.00     0.136 C 
HETATM    8  O3  UNL     1      68.285  52.233  12.620  1.00  0.00    -0.297 OA
ENDROOT
BRANCH   1   9
HETATM    9  C5  UNL     1      65.545  51.129  11.875  1.00  0.00    -0.037 C 
HETATM   10  C6  UNL     1      64.557  50.436  11.016  1.00  0.00     0.015 C 
HETATM   11  C7  UNL     1      64.862  51.312  13.264  1.00  0.00     0.015 C 
BRANCH   9  12
HETATM   12  C4  UNL     1      65.794  52.522  11.386  1.00  0.00     0.015 C 
BRANCH  12  13
HETATM   13  C2  UNL     1      65.059  53.638  12.012  1.00  0.00     0.006 C 
HETATM   14  C1  UNL     1      63.785  54.103  11.430  1.00  0.00     0.012 C 
BRANCH  13  15
HETATM   15  C3  UNL     1      66.020  54.849  11.922  1.00  0.00     0.168 C 
BRANCH  15  16
HETATM   16  O1  UNL     1      67.135  54.537  11.188  1.00  0.00    -0.400 OA
ATOM     17  H1  UNL     1      67.921  54.868  11.607  1.00  0.00     0.209 HD
ENDBRANCH  15  16
ENDBRANCH  13  15
ENDBRANCH  12  13
ENDBRANCH   9  12
ENDBRANCH   1   9
BRANCH   4  18
HETATM   18  C12 UNL     1      70.216  49.067   9.843  1.00  0.00     0.131 C 
BRANCH  18  19
HETATM   19  O2  UNL     1      71.558  49.453  10.073  1.00  0.00    -0.394 OA
ATOM     20  H2  UNL     1      71.900  48.878  10.747  1.00  0.00     0.210 HD
ENDBRANCH  18  19
BRANCH  18  21
HETATM   21  C13 UNL     1      70.214  47.622   9.483  1.00  0.00    -0.018 A 
HETATM   22  C14 UNL     1      70.990  46.625  10.293  1.00  0.00     0.018 C 
HETATM   23  C15 UNL     1      70.334  47.389   7.940  1.00  0.00     0.012 A 
HETATM   24  C16 UNL     1      69.047  47.148   8.626  1.00  0.00     0.012 A 
ENDBRANCH  18  21
ENDBRANCH   4  18
TORSDOF 8
ENDMDL
MODEL 5
REMARK VINA RESULT: -6.099731025      1.810      6.758
REMARK  8 active torsions:
REMARK  status: ('A' for Active; 'I' for Inactive)
REMARK    1  A    between atoms: C2_2  and  C3_3 
REMARK    2  A    between atoms: C2_2  and  C4_6 
REMARK    3  A    between atoms: C3_3  and  O1_4 
REMARK    4  A    between atoms: C4_6  and  C5_7 
REMARK    5  A    between atoms: C5_7  and  C8_10 
REMARK    6  A    between atoms: C11_13  and  C12_14 
REMARK    7  A    between atoms: C12_14  and  O2_15 
REMARK    8  A    between atoms: C12_14  and  C13_17 
ROOT
HETATM    1  C8  UNL     1      66.854  50.490  12.205  1.00  0.00     0.063 C 
HETATM    2  C9  UNL     1      67.274  49.132  11.685  1.00  0.00     0.013 C 
HETATM    3  C10 UNL     1      68.744  49.032  11.430  1.00  0.00     0.009 C 
HETATM    4  C11 UNL     1      69.394  50.122  10.694  1.00  0.00     0.026 C 
HETATM    5  C17 UNL     1      68.483  51.332  10.457  1.00  0.00     0.058 C 
HETATM    6  C18 UNL     1      67.671  51.202   9.193  1.00  0.00     0.018 C 
HETATM    7  C19 UNL     1      67.659  51.578  11.672  1.00  0.00     0.136 C 
HETATM    8  O3  UNL     1      67.699  52.679  12.167  1.00  0.00    -0.297 OA
ENDROOT
BRANCH   1   9
HETATM    9  C5  UNL     1      65.382  50.701  12.201  1.00  0.00    -0.037 C 
HETATM   10  C6  UNL     1      64.528  49.565  11.784  1.00  0.00     0.015 C 
HETATM   11  C7  UNL     1      64.967  51.046  13.663  1.00  0.00     0.015 C 
BRANCH   9  12
HETATM   12  C4  UNL     1      65.058  51.932  11.411  1.00  0.00     0.015 C 
BRANCH  12  13
HETATM   13  C2  UNL     1      63.887  52.741  11.804  1.00  0.00     0.006 C 
HETATM   14  C1  UNL     1      62.619  52.615  11.060  1.00  0.00     0.012 C 
BRANCH  13  15
HETATM   15  C3  UNL     1      64.336  54.210  11.610  1.00  0.00     0.168 C 
BRANCH  15  16
HETATM   16  O1  UNL     1      63.424  54.907  10.860  1.00  0.00    -0.400 OA
ATOM     17  H1  UNL     1      63.796  55.723  10.545  1.00  0.00     0.209 HD
ENDBRANCH  15  16
ENDBRANCH  13  15
ENDBRANCH  12  13
ENDBRANCH   9  12
ENDBRANCH   1   9
BRANCH   4  18
HETATM   18  C12 UNL     1      70.008  49.791   9.376  1.00  0.00     0.131 C 
BRANCH  18  19
HETATM   19  O2  UNL     1      70.813  50.893   9.006  1.00  0.00    -0.394 OA
ATOM     20  H2  UNL     1      71.544  50.920   9.612  1.00  0.00     0.210 HD
ENDBRANCH  18  19
BRANCH  18  21
HETATM   21  C13 UNL     1      70.863  48.572   9.345  1.00  0.00    -0.018 A 
HETATM   22  C14 UNL     1      72.133  48.502  10.141  1.00  0.00     0.018 C 
HETATM   23  C15 UNL     1      71.005  47.977   7.904  1.00  0.00     0.012 A 
HETATM   24  C16 UNL     1      70.176  47.283   8.912  1.00  0.00     0.012 A 
ENDBRANCH  18  21
ENDBRANCH   4  18
TORSDOF 8
ENDMDL
