MODEL 1
REMARK VINA RESULT: -7.318086654      0.000      0.000
REMARK  6 active torsions:
REMARK  status: ('A' for Active; 'I' for Inactive)
REMARK    1  A    between atoms: C4_4  and  C5_5 
REMARK    2  A    between atoms: C5_5  and  C7_7 
REMARK    3  A    between atoms: C10_12  and  C11_13 
REMARK    4  A    between atoms: C11_13  and  C12_14 
REMARK    5  A    between atoms: C12_14  and  C13_15 
REMARK    6  A    between atoms: C13_15  and  O3_16 
ROOT
HETATM    1  C1  UNL     1      68.134  46.160  11.159  1.00  0.00     0.014 C 
HETATM    2  C2  UNL     1      68.123  47.600  11.541  1.00  0.00     0.005 C 
HETATM    3  C3  UNL     1      69.276  48.359  10.986  1.00  0.00    -0.018 C 
HETATM    4  C4  UNL     1      69.247  49.652  10.651  1.00  0.00    -0.065 C 
HETATM    5  C8  UNL     1      68.007  50.463  10.747  1.00  0.00     0.024 C 
HETATM    6  C9  UNL     1      68.159  51.808  11.405  1.00  0.00     0.041 C 
HETATM    7  C10 UNL     1      66.735  52.419  11.370  1.00  0.00     0.123 C 
HETATM    8  O4  UNL     1      65.891  51.681  12.198  1.00  0.00    -0.375 OA
HETATM    9  C14 UNL     1      65.665  50.404  11.694  1.00  0.00     0.058 C 
HETATM   10  C15 UNL     1      64.884  50.399  10.415  1.00  0.00     0.046 C 
HETATM   11  C16 UNL     1      64.872  49.656  12.760  1.00  0.00     0.046 C 
HETATM   12  C17 UNL     1      67.000  49.714  11.584  1.00  0.00     0.028 C 
HETATM   13  C18 UNL     1      66.865  48.317  11.021  1.00  0.00     0.016 C 
ENDROOT
BRANCH   4  14
HETATM   14  C5  UNL     1      70.533  50.207  10.111  1.00  0.00     0.112 C 
HETATM   15  C6  UNL     1      71.698  49.247  10.386  1.00  0.00     0.026 C 
BRANCH  14  16
HETATM   16  C7  UNL     1      70.497  50.351   8.617  1.00  0.00     0.180 C 
HETATM   17  O1  UNL     1      69.552  49.905   7.928  1.00  0.00    -0.647 OA
HETATM   18  O2  UNL     1      71.545  51.001   7.940  1.00  0.00    -0.647 OA
ENDBRANCH  14  16
ENDBRANCH   4  14
BRANCH   7  19
HETATM   19  C11 UNL     1      66.837  53.806  11.947  1.00  0.00     0.034 C 
BRANCH  19  20
HETATM   20  C12 UNL     1      66.292  54.782  10.898  1.00  0.00     0.028 C 
BRANCH  20  21
HETATM   21  C13 UNL     1      67.477  55.270  10.061  1.00  0.00     0.164 C 
BRANCH  21  22
HETATM   22  O3  UNL     1      66.984  55.722   8.838  1.00  0.00    -0.401 OA
ATOM     23  H3  UNL     1      66.036  55.685   8.871  1.00  0.00     0.209 HD
ENDBRANCH  21  22
ENDBRANCH  20  21
ENDBRANCH  19  20
ENDBRANCH   7  19
TORSDOF 6
ENDMDL
MODEL 2
REMARK VINA RESULT: -7.166515121      1.019      1.193
REMARK  6 active torsions:
REMARK  status: ('A' for Active; 'I' for Inactive)
REMARK    1  A    between atoms: C4_4  and  C5_5 
REMARK    2  A    between atoms: C5_5  and  C7_7 
REMARK    3  A    between atoms: C10_12  and  C11_13 
REMARK    4  A    between atoms: C11_13  and  C12_14 
REMARK    5  A    between atoms: C12_14  and  C13_15 
REMARK    6  A    between atoms: C13_15  and  O3_16 
ROOT
HETATM    1  C1  UNL     1      68.012  46.199  11.176  1.00  0.00     0.014 C 
HETATM    2  C2  UNL     1      67.954  47.632  11.579  1.00  0.00     0.005 C 
HETATM    3  C3  UNL     1      69.057  48.446  11.000  1.00  0.00    -0.018 C 
HETATM    4  C4  UNL     1      68.965  49.741  10.684  1.00  0.00    -0.065 C 
HETATM    5  C8  UNL     1      67.696  50.499  10.831  1.00  0.00     0.024 C 
HETATM    6  C9  UNL     1      67.814  51.840  11.503  1.00  0.00     0.041 C 
HETATM    7  C10 UNL     1      66.367  52.392  11.522  1.00  0.00     0.123 C 
HETATM    8  O4  UNL     1      65.579  51.609  12.365  1.00  0.00    -0.375 OA
HETATM    9  C14 UNL     1      65.390  50.331  11.850  1.00  0.00     0.058 C 
HETATM   10  C15 UNL     1      64.570  50.310  10.596  1.00  0.00     0.046 C 
HETATM   11  C16 UNL     1      64.662  49.536  12.929  1.00  0.00     0.046 C 
HETATM   12  C17 UNL     1      66.748  49.698  11.688  1.00  0.00     0.028 C 
HETATM   13  C18 UNL     1      66.652  48.304  11.109  1.00  0.00     0.016 C 
ENDROOT
BRANCH   4  14
HETATM   14  C5  UNL     1      70.209  50.356  10.114  1.00  0.00     0.112 C 
HETATM   15  C6  UNL     1      71.441  49.508  10.455  1.00  0.00     0.026 C 
BRANCH  14  16
HETATM   16  C7  UNL     1      70.175  50.397   8.613  1.00  0.00     0.180 C 
HETATM   17  O1  UNL     1      69.157  50.072   7.961  1.00  0.00    -0.647 OA
HETATM   18  O2  UNL     1      71.307  50.810   7.887  1.00  0.00    -0.647 OA
ENDBRANCH  14  16
ENDBRANCH   4  14
BRANCH   7  19
HETATM   19  C11 UNL     1      66.430  53.774  12.116  1.00  0.00     0.034 C 
BRANCH  19  20
HETATM   20  C12 UNL     1      65.667  54.714  11.175  1.00  0.00     0.028 C 
BRANCH  20  21
HETATM   21  C13 UNL     1      64.171  54.472  11.394  1.00  0.00     0.164 C 
BRANCH  21  22
HETATM   22  O3  UNL     1      63.467  55.347  10.569  1.00  0.00    -0.401 OA
ATOM     23  H3  UNL     1      62.558  55.345  10.845  1.00  0.00     0.209 HD
ENDBRANCH  21  22
ENDBRANCH  20  21
ENDBRANCH  19  20
ENDBRANCH   7  19
TORSDOF 6
ENDMDL
MODEL 3
REMARK VINA RESULT: -7.016623074      1.626      2.133
REMARK  6 active torsions:
REMARK  status: ('A' for Active; 'I' for Inactive)
REMARK    1  A    between atoms: C4_4  and  C5_5 
REMARK    2  A    between atoms: C5_5  and  C7_7 
REMARK    3  A    between atoms: C10_12  and  C11_13 
REMARK    4  A    between atoms: C11_13  and  C12_14 
REMARK    5  A    between atoms: C12_14  and  C13_15 
REMARK    6  A    between atoms: C13_15  and  O3_16 
ROOT
HETATM    1  C1  UNL     1      70.395  46.153  10.590  1.00  0.00     0.014 C 
HETATM    2  C2  UNL     1      70.120  47.605  10.774  1.00  0.00     0.005 C 
HETATM    3  C3  UNL     1      71.079  48.477  10.044  1.00  0.00    -0.018 C 
HETATM    4  C4  UNL     1      70.786  49.680   9.541  1.00  0.00    -0.065 C 
HETATM    5  C8  UNL     1      69.417  50.251   9.614  1.00  0.00     0.024 C 
HETATM    6  C9  UNL     1      69.333  51.681  10.072  1.00  0.00     0.041 C 
HETATM    7  C10 UNL     1      67.817  52.005  10.056  1.00  0.00     0.123 C 
HETATM    8  O4  UNL     1      67.168  51.251  11.031  1.00  0.00    -0.375 OA
HETATM    9  C14 UNL     1      67.174  49.895  10.720  1.00  0.00     0.058 C 
HETATM   10  C15 UNL     1      66.355  49.559   9.511  1.00  0.00     0.046 C 
HETATM   11  C16 UNL     1      66.587  49.175  11.930  1.00  0.00     0.046 C 
HETATM   12  C17 UNL     1      68.611  49.457  10.611  1.00  0.00     0.028 C 
HETATM   13  C18 UNL     1      68.726  47.993  10.252  1.00  0.00     0.016 C 
ENDROOT
BRANCH   4  14
HETATM   14  C5  UNL     1      71.915  50.380   8.844  1.00  0.00     0.112 C 
HETATM   15  C6  UNL     1      73.221  49.588   8.991  1.00  0.00     0.026 C 
BRANCH  14  16
HETATM   16  C7  UNL     1      71.687  50.473   7.363  1.00  0.00     0.180 C 
HETATM   17  O1  UNL     1      72.089  51.448   6.688  1.00  0.00    -0.647 OA
HETATM   18  O2  UNL     1      71.004  49.449   6.682  1.00  0.00    -0.647 OA
ENDBRANCH  14  16
ENDBRANCH   4  14
BRANCH   7  19
HETATM   19  C11 UNL     1      67.673  53.456  10.432  1.00  0.00     0.034 C 
BRANCH  19  20
HETATM   20  C12 UNL     1      66.601  53.543  11.525  1.00  0.00     0.028 C 
BRANCH  20  21
HETATM   21  C13 UNL     1      65.822  54.842  11.304  1.00  0.00     0.164 C 
BRANCH  21  22
HETATM   22  O3  UNL     1      65.651  55.458  12.543  1.00  0.00    -0.401 OA
ATOM     23  H3  UNL     1      64.740  55.716  12.620  1.00  0.00     0.209 HD
ENDBRANCH  21  22
ENDBRANCH  20  21
ENDBRANCH  19  20
ENDBRANCH   7  19
TORSDOF 6
ENDMDL
MODEL 4
REMARK VINA RESULT: -7.014077367      1.558      1.993
REMARK  6 active torsions:
REMARK  status: ('A' for Active; 'I' for Inactive)
REMARK    1  A    between atoms: C4_4  and  C5_5 
REMARK    2  A    between atoms: C5_5  and  C7_7 
REMARK    3  A    between atoms: C10_12  and  C11_13 
REMARK    4  A    between atoms: C11_13  and  C12_14 
REMARK    5  A    between atoms: C12_14  and  C13_15 
REMARK    6  A    between atoms: C13_15  and  O3_16 
ROOT
HETATM    1  C1  UNL     1      69.954  45.184  10.413  1.00  0.00     0.014 C 
HETATM    2  C2  UNL     1      69.720  46.556  10.944  1.00  0.00     0.005 C 
HETATM    3  C3  UNL     1      70.812  47.507  10.604  1.00  0.00    -0.018 C 
HETATM    4  C4  UNL     1      70.649  48.819  10.409  1.00  0.00    -0.065 C 
HETATM    5  C8  UNL     1      69.310  49.461  10.456  1.00  0.00     0.024 C 
HETATM    6  C9  UNL     1      69.224  50.725  11.268  1.00  0.00     0.041 C 
HETATM    7  C10 UNL     1      67.743  51.164  11.144  1.00  0.00     0.123 C 
HETATM    8  O4  UNL     1      66.926  50.238  11.789  1.00  0.00    -0.375 OA
HETATM    9  C14 UNL     1      66.917  49.013  11.129  1.00  0.00     0.058 C 
HETATM   10  C15 UNL     1      66.268  49.070   9.779  1.00  0.00     0.046 C 
HETATM   11  C16 UNL     1      66.129  48.053  12.015  1.00  0.00     0.046 C 
HETATM   12  C17 UNL     1      68.334  48.504  11.092  1.00  0.00     0.028 C 
HETATM   13  C18 UNL     1      68.435  47.178  10.370  1.00  0.00     0.016 C 
ENDROOT
BRANCH   4  14
HETATM   14  C5  UNL     1      71.897  49.582  10.077  1.00  0.00     0.112 C 
HETATM   15  C6  UNL     1      73.146  48.753  10.406  1.00  0.00     0.026 C 
BRANCH  14  16
HETATM   16  C7  UNL     1      72.003  49.870   8.607  1.00  0.00     0.180 C 
HETATM   17  O1  UNL     1      72.468  49.036   7.798  1.00  0.00    -0.647 OA
HETATM   18  O2  UNL     1      71.576  51.107   8.092  1.00  0.00    -0.647 OA
ENDBRANCH  14  16
ENDBRANCH   4  14
BRANCH   7  19
HETATM   19  C11 UNL     1      67.609  52.474  11.874  1.00  0.00     0.034 C 
BRANCH  19  20
HETATM   20  C12 UNL     1      66.171  52.966  11.677  1.00  0.00     0.028 C 
BRANCH  20  21
HETATM   21  C13 UNL     1      66.236  54.459  11.342  1.00  0.00     0.164 C 
BRANCH  21  22
HETATM   22  O3  UNL     1      65.622  55.160  12.379  1.00  0.00    -0.401 OA
ATOM     23  H3  UNL     1      66.108  54.990  13.177  1.00  0.00     0.209 HD
ENDBRANCH  21  22
ENDBRANCH  20  21
ENDBRANCH  19  20
ENDBRANCH   7  19
TORSDOF 6
ENDMDL
MODEL 5
REMARK VINA RESULT: -6.990740100      3.050      6.128
REMARK  6 active torsions:
REMARK  status: ('A' for Active; 'I' for Inactive)
REMARK    1  A    between atoms: C4_4  and  C5_5 
REMARK    2  A    between atoms: C5_5  and  C7_7 
REMARK    3  A    between atoms: C10_12  and  C11_13 
REMARK    4  A    between atoms: C11_13  and  C12_14 
REMARK    5  A    between atoms: C12_14  and  C13_15 
REMARK    6  A    between atoms: C13_15  and  O3_16 
ROOT
HETATM    1  C1  UNL     1      69.121  52.400  10.381  1.00  0.00     0.014 C 
HETATM    2  C2  UNL     1      68.082  51.869  11.307  1.00  0.00     0.005 C 
HETATM    3  C3  UNL     1      67.060  52.885  11.680  1.00  0.00    -0.018 C 
HETATM    4  C4  UNL     1      65.783  52.613  11.964  1.00  0.00    -0.065 C 
HETATM    5  C8  UNL     1      65.231  51.238  11.873  1.00  0.00     0.024 C 
HETATM    6  C9  UNL     1      64.402  50.791  13.046  1.00  0.00     0.041 C 
HETATM    7  C10 UNL     1      63.969  49.347  12.686  1.00  0.00     0.123 C 
HETATM    8  O4  UNL     1      65.087  48.515  12.668  1.00  0.00    -0.375 OA
HETATM    9  C14 UNL     1      65.942  48.827  11.617  1.00  0.00     0.058 C 
HETATM   10  C15 UNL     1      65.356  48.541  10.268  1.00  0.00     0.046 C 
HETATM   11  C16 UNL     1      67.187  47.966  11.806  1.00  0.00     0.046 C 
HETATM   12  C17 UNL     1      66.376  50.259  11.790  1.00  0.00     0.028 C 
HETATM   13  C18 UNL     1      67.298  50.705  10.677  1.00  0.00     0.016 C 
ENDROOT
BRANCH   4  14
HETATM   14  C5  UNL     1      64.935  53.800  12.317  1.00  0.00     0.112 C 
HETATM   15  C6  UNL     1      65.792  55.068  12.428  1.00  0.00     0.026 C 
BRANCH  14  16
HETATM   16  C7  UNL     1      63.930  54.108  11.245  1.00  0.00     0.180 C 
HETATM   17  O1  UNL     1      62.984  53.333  10.977  1.00  0.00    -0.647 OA
HETATM   18  O2  UNL     1      64.027  55.297  10.499  1.00  0.00    -0.647 OA
ENDBRANCH  14  16
ENDBRANCH   4  14
BRANCH   7  19
HETATM   19  C11 UNL     1      63.065  48.870  13.791  1.00  0.00     0.034 C 
BRANCH  19  20
HETATM   20  C12 UNL     1      63.927  48.074  14.779  1.00  0.00     0.028 C 
BRANCH  20  21
HETATM   21  C13 UNL     1      63.518  48.496  16.192  1.00  0.00     0.164 C 
BRANCH  21  22
HETATM   22  O3  UNL     1      63.906  49.822  16.376  1.00  0.00    -0.401 OA
ATOM     23  H3  UNL     1      63.129  50.331  16.573  1.00  0.00     0.209 HD
ENDBRANCH  21  22
ENDBRANCH  20  21
ENDBRANCH  19  20
ENDBRANCH   7  19
TORSDOF 6
ENDMDL
