MODEL 1
REMARK VINA RESULT: -7.673918156      0.000      0.000
REMARK  6 active torsions:
REMARK  status: ('A' for Active; 'I' for Inactive)
REMARK    1  A    between atoms: C2_2  and  C3_3 
REMARK    2  A    between atoms: C5_6  and  C6_7 
REMARK    3  A    between atoms: C6_7  and  C7_8 
REMARK    4  A    between atoms: C8_9  and  C9_10 
REMARK    5  A    between atoms: N2_11  and  N3_13 
REMARK    6  A    between atoms: N3_13  and  C10_15 
ROOT
HETATM    1  C3  UNL     1      68.607  51.181  10.874  1.00  0.00     0.018 C 
HETATM    2  C4  UNL     1      67.821  52.357  11.259  1.00  0.00     0.094 C 
HETATM    3  N1  UNL     1      67.214  53.296  11.552  1.00  0.00    -0.192 NA
HETATM    4  C5  UNL     1      69.626  51.336  10.064  1.00  0.00    -0.008 C 
ENDROOT
BRANCH   1   5
HETATM    5  C2  UNL     1      68.146  49.920  11.458  1.00  0.00     0.045 C 
HETATM    6  C1  UNL     1      66.789  50.108  12.166  1.00  0.00     0.011 C 
ENDBRANCH   1   5
BRANCH   4   7
HETATM    7  C6  UNL     1      70.468  50.253   9.617  1.00  0.00     0.038 C 
BRANCH   7   8
HETATM    8  C7  UNL     1      70.751  50.168   8.136  1.00  0.00     0.031 C 
HETATM    9  C8  UNL     1      70.185  48.898   7.619  1.00  0.00    -0.040 C 
HETATM   10  C11 UNL     1      70.932  47.936   7.056  1.00  0.00    -0.018 C 
HETATM   11  C12 UNL     1      72.422  48.155   6.934  1.00  0.00     0.028 C 
HETATM   12  C13 UNL     1      72.507  49.625   6.508  1.00  0.00     0.013 C 
HETATM   13  C14 UNL     1      72.138  50.462   7.743  1.00  0.00    -0.040 C 
HETATM   14  C15 UNL     1      73.224  50.200   8.725  1.00  0.00     0.015 C 
HETATM   15  C16 UNL     1      72.320  51.909   7.271  1.00  0.00     0.015 C 
BRANCH   9  16
HETATM   16  C9  UNL     1      68.755  48.597   7.636  1.00  0.00     0.114 C 
HETATM   17  N2  UNL     1      67.926  48.839   6.686  1.00  0.00    -0.309 N 
ATOM     18  H2  UNL     1      68.291  49.280   5.841  1.00  0.00     0.186 HD
BRANCH  17  19
HETATM   19  N3  UNL     1      66.566  48.544   6.724  1.00  0.00    -0.279 N 
ATOM     20  H3  UNL     1      66.092  48.279   5.861  1.00  0.00     0.189 HD
BRANCH  19  21
HETATM   21  C10 UNL     1      65.823  48.601   7.925  1.00  0.00     0.199 C 
HETATM   22  N4  UNL     1      65.726  49.790   8.676  1.00  0.00    -0.068 NA
HETATM   23  S1  UNL     1      65.068  47.258   8.446  1.00  0.00    -0.043 SA
ENDBRANCH  19  21
ENDBRANCH  17  19
ENDBRANCH   9  16
ENDBRANCH   7   8
ENDBRANCH   4   7
TORSDOF 6
ENDMDL
MODEL 2
REMARK VINA RESULT: -7.193644210      1.734      1.966
REMARK  6 active torsions:
REMARK  status: ('A' for Active; 'I' for Inactive)
REMARK    1  A    between atoms: C2_2  and  C3_3 
REMARK    2  A    between atoms: C5_6  and  C6_7 
REMARK    3  A    between atoms: C6_7  and  C7_8 
REMARK    4  A    between atoms: C8_9  and  C9_10 
REMARK    5  A    between atoms: N2_11  and  N3_13 
REMARK    6  A    between atoms: N3_13  and  C10_15 
ROOT
HETATM    1  C3  UNL     1      69.069  50.223  11.188  1.00  0.00     0.018 C 
HETATM    2  C4  UNL     1      68.392  51.383  11.774  1.00  0.00     0.094 C 
HETATM    3  N1  UNL     1      67.875  52.310  12.232  1.00  0.00    -0.192 NA
HETATM    4  C5  UNL     1      70.257  50.382  10.656  1.00  0.00    -0.008 C 
ENDROOT
BRANCH   1   5
HETATM    5  C2  UNL     1      68.312  48.971  11.265  1.00  0.00     0.045 C 
HETATM    6  C1  UNL     1      66.948  49.111  10.560  1.00  0.00     0.011 C 
ENDBRANCH   1   5
BRANCH   4   7
HETATM    7  C6  UNL     1      71.015  49.313  10.051  1.00  0.00     0.038 C 
BRANCH   7   8
HETATM    8  C7  UNL     1      71.148  49.332   8.547  1.00  0.00     0.031 C 
HETATM    9  C8  UNL     1      70.883  47.966   8.033  1.00  0.00    -0.040 C 
HETATM   10  C11 UNL     1      71.791  47.247   7.355  1.00  0.00    -0.018 C 
HETATM   11  C12 UNL     1      73.149  47.856   7.095  1.00  0.00     0.028 C 
HETATM   12  C13 UNL     1      72.797  49.303   6.729  1.00  0.00     0.013 C 
HETATM   13  C14 UNL     1      72.358  49.991   8.031  1.00  0.00    -0.040 C 
HETATM   14  C15 UNL     1      73.574  50.010   8.886  1.00  0.00     0.015 C 
HETATM   15  C16 UNL     1      72.102  51.441   7.609  1.00  0.00     0.015 C 
BRANCH   9  16
HETATM   16  C9  UNL     1      69.592  47.295   8.179  1.00  0.00     0.114 C 
HETATM   17  N2  UNL     1      68.565  47.474   7.430  1.00  0.00    -0.309 N 
ATOM     18  H2  UNL     1      68.650  48.141   6.662  1.00  0.00     0.186 HD
BRANCH  17  19
HETATM   19  N3  UNL     1      67.344  46.824   7.589  1.00  0.00    -0.279 N 
ATOM     20  H3  UNL     1      66.490  47.291   7.285  1.00  0.00     0.189 HD
BRANCH  19  21
HETATM   21  C10 UNL     1      67.254  45.533   8.159  1.00  0.00     0.199 C 
HETATM   22  N4  UNL     1      67.684  44.387   7.460  1.00  0.00    -0.068 NA
HETATM   23  S1  UNL     1      66.637  45.377   9.656  1.00  0.00    -0.043 SA
ENDBRANCH  19  21
ENDBRANCH  17  19
ENDBRANCH   9  16
ENDBRANCH   7   8
ENDBRANCH   4   7
TORSDOF 6
ENDMDL
MODEL 3
REMARK VINA RESULT: -7.104000789      1.116      1.175
REMARK  6 active torsions:
REMARK  status: ('A' for Active; 'I' for Inactive)
REMARK    1  A    between atoms: C2_2  and  C3_3 
REMARK    2  A    between atoms: C5_6  and  C6_7 
REMARK    3  A    between atoms: C6_7  and  C7_8 
REMARK    4  A    between atoms: C8_9  and  C9_10 
REMARK    5  A    between atoms: N2_11  and  N3_13 
REMARK    6  A    between atoms: N3_13  and  C10_15 
ROOT
HETATM    1  C3  UNL     1      69.034  50.254  11.156  1.00  0.00     0.018 C 
HETATM    2  C4  UNL     1      68.390  51.428  11.751  1.00  0.00     0.094 C 
HETATM    3  N1  UNL     1      67.898  52.365  12.217  1.00  0.00    -0.192 NA
HETATM    4  C5  UNL     1      70.247  50.372  10.673  1.00  0.00    -0.008 C 
ENDROOT
BRANCH   1   5
HETATM    5  C2  UNL     1      68.218  49.037  11.167  1.00  0.00     0.045 C 
HETATM    6  C1  UNL     1      66.837  49.309  11.797  1.00  0.00     0.011 C 
ENDBRANCH   1   5
BRANCH   4   7
HETATM    7  C6  UNL     1      70.978  49.286  10.064  1.00  0.00     0.038 C 
BRANCH   7   8
HETATM    8  C7  UNL     1      71.121  49.312   8.561  1.00  0.00     0.031 C 
HETATM    9  C8  UNL     1      70.848  47.951   8.037  1.00  0.00    -0.040 C 
HETATM   10  C11 UNL     1      71.755  47.229   7.361  1.00  0.00    -0.018 C 
HETATM   11  C12 UNL     1      73.120  47.829   7.114  1.00  0.00     0.028 C 
HETATM   12  C13 UNL     1      72.782  49.280   6.754  1.00  0.00     0.013 C 
HETATM   13  C14 UNL     1      72.339  49.964   8.057  1.00  0.00    -0.040 C 
HETATM   14  C15 UNL     1      73.550  49.969   8.921  1.00  0.00     0.015 C 
HETATM   15  C16 UNL     1      72.098  51.419   7.642  1.00  0.00     0.015 C 
BRANCH   9  16
HETATM   16  C9  UNL     1      69.551  47.290   8.170  1.00  0.00     0.114 C 
HETATM   17  N2  UNL     1      68.538  47.466   7.403  1.00  0.00    -0.309 N 
ATOM     18  H2  UNL     1      68.638  48.123   6.629  1.00  0.00     0.186 HD
BRANCH  17  19
HETATM   19  N3  UNL     1      67.310  46.825   7.550  1.00  0.00    -0.279 N 
ATOM     20  H3  UNL     1      67.233  45.839   7.299  1.00  0.00     0.189 HD
BRANCH  19  21
HETATM   21  C10 UNL     1      66.168  47.501   8.037  1.00  0.00     0.199 C 
HETATM   22  N4  UNL     1      65.773  48.749   7.515  1.00  0.00    -0.068 NA
HETATM   23  S1  UNL     1      65.298  46.815   9.228  1.00  0.00    -0.043 SA
ENDBRANCH  19  21
ENDBRANCH  17  19
ENDBRANCH   9  16
ENDBRANCH   7   8
ENDBRANCH   4   7
TORSDOF 6
ENDMDL
MODEL 4
REMARK VINA RESULT: -7.021988418      3.817      5.337
REMARK  6 active torsions:
REMARK  status: ('A' for Active; 'I' for Inactive)
REMARK    1  A    between atoms: C2_2  and  C3_3 
REMARK    2  A    between atoms: C5_6  and  C6_7 
REMARK    3  A    between atoms: C6_7  and  C7_8 
REMARK    4  A    between atoms: C8_9  and  C9_10 
REMARK    5  A    between atoms: N2_11  and  N3_13 
REMARK    6  A    between atoms: N3_13  and  C10_15 
ROOT
HETATM    1  C3  UNL     1      66.353  53.261  11.326  1.00  0.00     0.018 C 
HETATM    2  C4  UNL     1      65.377  54.354  11.272  1.00  0.00     0.094 C 
HETATM    3  N1  UNL     1      64.595  55.204  11.242  1.00  0.00    -0.192 NA
HETATM    4  C5  UNL     1      66.071  52.192  12.031  1.00  0.00    -0.008 C 
ENDROOT
BRANCH   1   5
HETATM    5  C2  UNL     1      67.578  53.499  10.560  1.00  0.00     0.045 C 
HETATM    6  C1  UNL     1      67.666  54.970  10.108  1.00  0.00     0.011 C 
ENDBRANCH   1   5
BRANCH   4   7
HETATM    7  C6  UNL     1      66.954  51.058  12.156  1.00  0.00     0.038 C 
BRANCH   7   8
HETATM    8  C7  UNL     1      66.812  49.960  11.128  1.00  0.00     0.031 C 
HETATM    9  C8  UNL     1      66.026  48.853  11.724  1.00  0.00    -0.040 C 
HETATM   10  C11 UNL     1      66.510  47.612  11.886  1.00  0.00    -0.018 C 
HETATM   11  C12 UNL     1      67.922  47.322  11.434  1.00  0.00     0.028 C 
HETATM   12  C13 UNL     1      68.005  48.075  10.102  1.00  0.00     0.013 C 
HETATM   13  C14 UNL     1      68.057  49.573  10.447  1.00  0.00    -0.040 C 
HETATM   14  C15 UNL     1      69.346  49.757  11.166  1.00  0.00     0.015 C 
HETATM   15  C16 UNL     1      68.220  50.256   9.085  1.00  0.00     0.015 C 
BRANCH   9  16
HETATM   16  C9  UNL     1      64.635  49.002  12.150  1.00  0.00     0.114 C 
HETATM   17  N2  UNL     1      63.678  49.470  11.435  1.00  0.00    -0.309 N 
ATOM     18  H2  UNL     1      63.899  49.767  10.484  1.00  0.00     0.186 HD
BRANCH  17  19
HETATM   19  N3  UNL     1      62.359  49.603  11.862  1.00  0.00    -0.279 N 
ATOM     20  H3  UNL     1      61.870  48.784  12.223  1.00  0.00     0.189 HD
BRANCH  19  21
HETATM   21  C10 UNL     1      61.679  50.842  11.810  1.00  0.00     0.199 C 
HETATM   22  N4  UNL     1      60.489  51.059  12.534  1.00  0.00    -0.068 NA
HETATM   23  S1  UNL     1      62.291  52.036  10.892  1.00  0.00    -0.043 SA
ENDBRANCH  19  21
ENDBRANCH  17  19
ENDBRANCH   9  16
ENDBRANCH   7   8
ENDBRANCH   4   7
TORSDOF 6
ENDMDL
MODEL 5
REMARK VINA RESULT: -6.948372006      3.119      4.326
REMARK  6 active torsions:
REMARK  status: ('A' for Active; 'I' for Inactive)
REMARK    1  A    between atoms: C2_2  and  C3_3 
REMARK    2  A    between atoms: C5_6  and  C6_7 
REMARK    3  A    between atoms: C6_7  and  C7_8 
REMARK    4  A    between atoms: C8_9  and  C9_10 
REMARK    5  A    between atoms: N2_11  and  N3_13 
REMARK    6  A    between atoms: N3_13  and  C10_15 
ROOT
HETATM    1  C3  UNL     1      67.595  53.257  10.770  1.00  0.00     0.018 C 
HETATM    2  C4  UNL     1      67.541  54.559  10.099  1.00  0.00     0.094 C 
HETATM    3  N1  UNL     1      67.517  55.582   9.561  1.00  0.00    -0.192 NA
HETATM    4  C5  UNL     1      68.645  52.494  10.591  1.00  0.00    -0.008 C 
ENDROOT
BRANCH   1   5
HETATM    5  C2  UNL     1      66.424  52.945  11.593  1.00  0.00     0.045 C 
HETATM    6  C1  UNL     1      65.674  54.233  11.990  1.00  0.00     0.011 C 
ENDBRANCH   1   5
BRANCH   4   7
HETATM    7  C6  UNL     1      68.806  51.195  11.200  1.00  0.00     0.038 C 
BRANCH   7   8
HETATM    8  C7  UNL     1      68.551  49.990  10.325  1.00  0.00     0.031 C 
HETATM    9  C8  UNL     1      67.654  49.060  11.052  1.00  0.00    -0.040 C 
HETATM   10  C11 UNL     1      68.006  47.808  11.384  1.00  0.00    -0.018 C 
HETATM   11  C12 UNL     1      69.381  47.316  10.996  1.00  0.00     0.028 C 
HETATM   12  C13 UNL     1      69.543  47.872   9.577  1.00  0.00     0.013 C 
HETATM   13  C14 UNL     1      69.750  49.389   9.720  1.00  0.00    -0.040 C 
HETATM   14  C15 UNL     1      71.050  49.535  10.427  1.00  0.00     0.015 C 
HETATM   15  C16 UNL     1      69.984  49.863   8.282  1.00  0.00     0.015 C 
BRANCH   9  16
HETATM   16  C9  UNL     1      66.286  49.406  11.434  1.00  0.00     0.114 C 
HETATM   17  N2  UNL     1      65.616  48.872  12.389  1.00  0.00    -0.309 N 
ATOM     18  H2  UNL     1      66.072  48.140  12.935  1.00  0.00     0.186 HD
BRANCH  17  19
HETATM   19  N3  UNL     1      64.312  49.218  12.735  1.00  0.00    -0.279 N 
ATOM     20  H3  UNL     1      63.606  48.485  12.803  1.00  0.00     0.189 HD
BRANCH  19  21
HETATM   21  C10 UNL     1      63.939  50.557  12.994  1.00  0.00     0.199 C 
HETATM   22  N4  UNL     1      64.414  51.248  14.127  1.00  0.00    -0.068 NA
HETATM   23  S1  UNL     1      62.937  51.307  11.956  1.00  0.00    -0.043 SA
ENDBRANCH  19  21
ENDBRANCH  17  19
ENDBRANCH   9  16
ENDBRANCH   7   8
ENDBRANCH   4   7
TORSDOF 6
ENDMDL
