MODEL 1
REMARK VINA RESULT: -7.727748078      0.000      0.000
REMARK  13 active torsions:
REMARK  status: ('A' for Active; 'I' for Inactive)
REMARK    1  A    between atoms: C4_9  and  N3_10 
REMARK    2  A    between atoms: N3_10  and  C5_11 
REMARK    3  A    between atoms: N3_10  and  C13_22 
REMARK    4  A    between atoms: C8_14  and  O2_15 
REMARK    5  A    between atoms: O2_15  and  C9_16 
REMARK    6  A    between atoms: C9_16  and  C10_17 
REMARK    7  A    between atoms: C13_22  and  C14_23 
REMARK    8  A    between atoms: C13_22  and  C15_26 
REMARK    9  A    between atoms: C15_26  and  O7_27 
REMARK   10  A    between atoms: N4_29  and  O8_31 
REMARK   11  A    between atoms: C17_37  and  O11_38 
REMARK   12  A    between atoms: O11_38  and  C18_39 
REMARK   13  A    between atoms: C19_42  and  C20_43 
ROOT
HETATM    1  N3  UNL     1      -5.113  -0.129   6.563  1.00  0.00    -0.321 N 
ENDROOT
BRANCH   1   2
HETATM    2  C4  UNL     1      -5.590   0.857   5.665  1.00  0.00     0.092 A 
HETATM    3  C1  UNL     1      -5.025   2.215   5.703  1.00  0.00     0.124 A 
HETATM    4  N1  UNL     1      -4.105   2.684   6.445  1.00  0.00    -0.393 N 
HETATM    5  C2  UNL     1      -5.745   2.951   4.670  1.00  0.00     0.281 A 
ATOM      6  H12 UNL     1      -3.713   3.625   6.472  1.00  0.00     0.156 HD
ATOM      7  H11 UNL     1      -3.601   2.169   7.168  1.00  0.00     0.156 HD
HETATM    8  O1  UNL     1      -5.485   4.157   4.457  1.00  0.00    -0.265 OA
HETATM    9  N2  UNL     1      -6.672   2.050   4.079  1.00  0.00    -0.268 N 
HETATM   10  C3  UNL     1      -6.525   0.807   4.719  1.00  0.00     0.064 A 
HETATM   11  C19 UNL     1      -7.655   2.347   3.066  1.00  0.00     0.165 C 
HETATM   12  C16 UNL     1      -7.243  -0.457   4.352  1.00  0.00     0.208 C 
HETATM   13  S1  UNL     1      -8.596  -0.160   3.299  1.00  0.00     0.205 S 
HETATM   14  O9  UNL     1      -9.928  -0.330   4.025  1.00  0.00    -0.220 OA
HETATM   15  O10 UNL     1      -8.585  -1.176   2.184  1.00  0.00    -0.220 OA
HETATM   16  C17 UNL     1      -8.510   1.454   2.670  1.00  0.00     0.209 C 
BRANCH  16  17
HETATM   17  O11 UNL     1      -9.470   1.743   1.655  1.00  0.00    -0.249 OA
BRANCH  17  18
HETATM   18  C18 UNL     1     -10.820   1.847   2.068  1.00  0.00     0.378 C 
HETATM   19  N5  UNL     1     -11.795   1.176   1.309  1.00  0.00    -0.032 NA
HETATM   20  O12 UNL     1     -11.068   2.531   3.088  1.00  0.00    -0.242 OA
ENDBRANCH  17  18
ENDBRANCH  16  17
BRANCH  11  21
HETATM   21  C20 UNL     1      -7.800   3.681   2.476  1.00  0.00     0.231 C 
HETATM   22  O13 UNL     1      -7.059   3.975   1.473  1.00  0.00    -0.643 OA
HETATM   23  O14 UNL     1      -8.633   4.692   2.846  1.00  0.00    -0.643 OA
ENDBRANCH  11  21
ENDBRANCH   1   2
BRANCH   1  24
HETATM   24  C5  UNL     1      -5.592  -0.211   7.894  1.00  0.00     0.036 A 
HETATM   25  C6  UNL     1      -4.788  -0.219   9.003  1.00  0.00     0.032 A 
HETATM   26  C7  UNL     1      -5.289  -0.301  10.306  1.00  0.00     0.039 A 
HETATM   27  C8  UNL     1      -6.626  -0.377  10.531  1.00  0.00     0.069 A 
HETATM   28  C11 UNL     1      -7.452  -0.370   9.401  1.00  0.00     0.039 A 
HETATM   29  C12 UNL     1      -6.966  -0.291   8.139  1.00  0.00     0.032 A 
BRANCH  27  30
HETATM   30  O2  UNL     1      -7.200  -0.457  11.789  1.00  0.00    -0.341 OA
BRANCH  30  31
HETATM   31  C9  UNL     1      -6.724   0.156  12.933  1.00  0.00     0.288 C 
BRANCH  31  32
HETATM   32  C10 UNL     1      -5.939  -0.679  13.842  1.00  0.00     0.198 C 
HETATM   33  O3  UNL     1      -6.432  -1.169  14.896  1.00  0.00    -0.646 OA
HETATM   34  O4  UNL     1      -4.611  -0.952  13.559  1.00  0.00    -0.646 OA
ENDBRANCH  31  32
ENDBRANCH  30  31
ENDBRANCH  27  30
ENDBRANCH   1  24
BRANCH   1  35
HETATM   35  C13 UNL     1      -4.135  -1.086   6.070  1.00  0.00     0.267 C 
BRANCH  35  36
HETATM   36  C14 UNL     1      -2.875  -0.983   6.830  1.00  0.00     0.205 C 
HETATM   37  O5  UNL     1      -2.302  -1.861   7.479  1.00  0.00    -0.646 OA
HETATM   38  O6  UNL     1      -2.202   0.274   6.840  1.00  0.00    -0.646 OA
ENDBRANCH  35  36
BRANCH  35  39
HETATM   39  C15 UNL     1      -4.662  -2.477   6.182  1.00  0.00     0.170 C 
HETATM   40  N4  UNL     1      -5.050  -3.092   5.143  1.00  0.00    -0.249 N 
ATOM     41  H4  UNL     1      -4.981  -2.594   4.255  1.00  0.00     0.196 HD
BRANCH  39  42
HETATM   42  O7  UNL     1      -4.719  -3.071   7.412  1.00  0.00    -0.346 OA
ATOM     43  H7  UNL     1      -5.245  -3.854   7.525  1.00  0.00     0.219 HD
ENDBRANCH  39  42
BRANCH  40  44
HETATM   44  O8  UNL     1      -5.548  -4.354   5.107  1.00  0.00    -0.288 OA
ATOM     45  H8  UNL     1      -5.521  -4.941   4.361  1.00  0.00     0.244 HD
ENDBRANCH  40  44
ENDBRANCH  35  39
ENDBRANCH   1  35
TORSDOF 13
ENDMDL
MODEL 2
REMARK VINA RESULT: -7.532001772      1.527      1.914
REMARK  13 active torsions:
REMARK  status: ('A' for Active; 'I' for Inactive)
REMARK    1  A    between atoms: C4_9  and  N3_10 
REMARK    2  A    between atoms: N3_10  and  C5_11 
REMARK    3  A    between atoms: N3_10  and  C13_22 
REMARK    4  A    between atoms: C8_14  and  O2_15 
REMARK    5  A    between atoms: O2_15  and  C9_16 
REMARK    6  A    between atoms: C9_16  and  C10_17 
REMARK    7  A    between atoms: C13_22  and  C14_23 
REMARK    8  A    between atoms: C13_22  and  C15_26 
REMARK    9  A    between atoms: C15_26  and  O7_27 
REMARK   10  A    between atoms: N4_29  and  O8_31 
REMARK   11  A    between atoms: C17_37  and  O11_38 
REMARK   12  A    between atoms: O11_38  and  C18_39 
REMARK   13  A    between atoms: C19_42  and  C20_43 
ROOT
HETATM    1  N3  UNL     1      -4.963  -0.944   5.774  1.00  0.00    -0.321 N 
ENDROOT
BRANCH   1   2
HETATM    2  C4  UNL     1      -5.504   0.019   4.887  1.00  0.00     0.092 A 
HETATM    3  C1  UNL     1      -4.603   0.861   4.085  1.00  0.00     0.124 A 
HETATM    4  N1  UNL     1      -3.332   0.860   4.034  1.00  0.00    -0.393 N 
HETATM    5  C2  UNL     1      -5.486   1.727   3.312  1.00  0.00     0.281 A 
ATOM      6  H12 UNL     1      -2.707   1.443   3.478  1.00  0.00     0.156 HD
ATOM      7  H11 UNL     1      -2.714   0.254   4.575  1.00  0.00     0.156 HD
HETATM    8  O1  UNL     1      -5.007   2.571   2.520  1.00  0.00    -0.265 OA
HETATM    9  N2  UNL     1      -6.821   1.390   3.664  1.00  0.00    -0.268 N 
HETATM   10  C3  UNL     1      -6.763   0.353   4.612  1.00  0.00     0.064 A 
HETATM   11  C19 UNL     1      -8.032   2.031   3.213  1.00  0.00     0.165 C 
HETATM   12  C16 UNL     1      -7.941  -0.371   5.191  1.00  0.00     0.208 C 
HETATM   13  S1  UNL     1      -9.438   0.462   4.883  1.00  0.00     0.205 S 
HETATM   14  O9  UNL     1      -9.991   1.121   6.144  1.00  0.00    -0.220 OA
HETATM   15  O10 UNL     1     -10.475  -0.538   4.434  1.00  0.00    -0.220 OA
HETATM   16  C17 UNL     1      -9.194   1.687   3.680  1.00  0.00     0.209 C 
BRANCH  16  17
HETATM   17  O11 UNL     1     -10.393   2.309   3.220  1.00  0.00    -0.249 OA
BRANCH  17  18
HETATM   18  C18 UNL     1     -11.205   1.552   2.342  1.00  0.00     0.378 C 
HETATM   19  N5  UNL     1     -12.593   1.546   2.567  1.00  0.00    -0.032 NA
HETATM   20  O12 UNL     1     -10.638   0.929   1.414  1.00  0.00    -0.242 OA
ENDBRANCH  17  18
ENDBRANCH  16  17
BRANCH  11  21
HETATM   21  C20 UNL     1      -8.026   3.149   2.265  1.00  0.00     0.231 C 
HETATM   22  O13 UNL     1      -8.015   2.873   1.014  1.00  0.00    -0.643 OA
HETATM   23  O14 UNL     1      -8.030   4.485   2.522  1.00  0.00    -0.643 OA
ENDBRANCH  11  21
ENDBRANCH   1   2
BRANCH   1  24
HETATM   24  C5  UNL     1      -4.971  -0.745   7.177  1.00  0.00     0.036 A 
HETATM   25  C6  UNL     1      -3.965  -0.129   7.873  1.00  0.00     0.032 A 
HETATM   26  C7  UNL     1      -3.999   0.055   9.259  1.00  0.00     0.039 A 
HETATM   27  C8  UNL     1      -5.057  -0.382   9.990  1.00  0.00     0.069 A 
HETATM   28  C11 UNL     1      -6.087  -1.015   9.284  1.00  0.00     0.039 A 
HETATM   29  C12 UNL     1      -6.054  -1.192   7.940  1.00  0.00     0.032 A 
BRANCH  27  30
HETATM   30  O2  UNL     1      -5.168  -0.237  11.363  1.00  0.00    -0.341 OA
BRANCH  30  31
HETATM   31  C9  UNL     1      -6.341  -0.313  12.089  1.00  0.00     0.288 C 
BRANCH  31  32
HETATM   32  C10 UNL     1      -6.211  -0.680  13.499  1.00  0.00     0.198 C 
HETATM   33  O3  UNL     1      -7.217  -0.842  14.246  1.00  0.00    -0.646 OA
HETATM   34  O4  UNL     1      -4.955  -0.858  14.056  1.00  0.00    -0.646 OA
ENDBRANCH  31  32
ENDBRANCH  30  31
ENDBRANCH  27  30
ENDBRANCH   1  24
BRANCH   1  35
HETATM   35  C13 UNL     1      -4.427  -2.171   5.205  1.00  0.00     0.267 C 
BRANCH  35  36
HETATM   36  C14 UNL     1      -4.036  -3.113   6.270  1.00  0.00     0.205 C 
HETATM   37  O5  UNL     1      -4.727  -3.978   6.813  1.00  0.00    -0.646 OA
HETATM   38  O6  UNL     1      -2.700  -3.048   6.763  1.00  0.00    -0.646 OA
ENDBRANCH  35  36
BRANCH  35  39
HETATM   39  C15 UNL     1      -5.436  -2.822   4.320  1.00  0.00     0.170 C 
HETATM   40  N4  UNL     1      -6.474  -3.348   4.825  1.00  0.00    -0.249 N 
ATOM     41  H4  UNL     1      -6.573  -3.300   5.839  1.00  0.00     0.196 HD
BRANCH  39  42
HETATM   42  O7  UNL     1      -5.225  -2.840   2.969  1.00  0.00    -0.346 OA
ATOM     43  H7  UNL     1      -4.801  -2.097   2.556  1.00  0.00     0.219 HD
ENDBRANCH  39  42
BRANCH  40  44
HETATM   44  O8  UNL     1      -7.464  -3.969   4.136  1.00  0.00    -0.288 OA
ATOM     45  H8  UNL     1      -8.257  -4.335   4.510  1.00  0.00     0.244 HD
ENDBRANCH  40  44
ENDBRANCH  35  39
ENDBRANCH   1  35
TORSDOF 13
ENDMDL
MODEL 3
REMARK VINA RESULT: -7.496265829      2.039      3.823
REMARK  13 active torsions:
REMARK  status: ('A' for Active; 'I' for Inactive)
REMARK    1  A    between atoms: C4_9  and  N3_10 
REMARK    2  A    between atoms: N3_10  and  C5_11 
REMARK    3  A    between atoms: N3_10  and  C13_22 
REMARK    4  A    between atoms: C8_14  and  O2_15 
REMARK    5  A    between atoms: O2_15  and  C9_16 
REMARK    6  A    between atoms: C9_16  and  C10_17 
REMARK    7  A    between atoms: C13_22  and  C14_23 
REMARK    8  A    between atoms: C13_22  and  C15_26 
REMARK    9  A    between atoms: C15_26  and  O7_27 
REMARK   10  A    between atoms: N4_29  and  O8_31 
REMARK   11  A    between atoms: C17_37  and  O11_38 
REMARK   12  A    between atoms: O11_38  and  C18_39 
REMARK   13  A    between atoms: C19_42  and  C20_43 
ROOT
HETATM    1  N3  UNL     1      -5.718  -0.891   5.415  1.00  0.00    -0.321 N 
ENDROOT
BRANCH   1   2
HETATM    2  C4  UNL     1      -6.695  -0.111   4.749  1.00  0.00     0.092 A 
HETATM    3  C1  UNL     1      -8.026  -0.680   4.482  1.00  0.00     0.124 A 
HETATM    4  N1  UNL     1      -8.488  -1.826   4.785  1.00  0.00    -0.393 N 
HETATM    5  C2  UNL     1      -8.753   0.376   3.786  1.00  0.00     0.281 A 
ATOM      6  H12 UNL     1      -9.410  -2.220   4.600  1.00  0.00     0.156 HD
ATOM      7  H11 UNL     1      -7.979  -2.564   5.271  1.00  0.00     0.156 HD
HETATM    8  O1  UNL     1      -9.936   0.191   3.421  1.00  0.00    -0.265 OA
HETATM    9  N2  UNL     1      -7.873   1.485   3.666  1.00  0.00    -0.268 N 
HETATM   10  C3  UNL     1      -6.654   1.129   4.268  1.00  0.00     0.064 A 
HETATM   11  C19 UNL     1      -8.125   2.730   2.983  1.00  0.00     0.165 C 
HETATM   12  C16 UNL     1      -5.470   2.031   4.449  1.00  0.00     0.208 C 
HETATM   13  S1  UNL     1      -5.588   3.470   3.476  1.00  0.00     0.205 S 
HETATM   14  O9  UNL     1      -4.620   3.438   2.296  1.00  0.00    -0.220 OA
HETATM   15  O10 UNL     1      -5.201   4.664   4.314  1.00  0.00    -0.220 OA
HETATM   16  C17 UNL     1      -7.202   3.636   2.864  1.00  0.00     0.209 C 
BRANCH  16  17
HETATM   17  O11 UNL     1      -7.458   4.875   2.204  1.00  0.00    -0.249 OA
BRANCH  17  18
HETATM   18  C18 UNL     1      -6.793   5.088   0.973  1.00  0.00     0.378 C 
HETATM   19  N5  UNL     1      -5.988   6.233   0.847  1.00  0.00    -0.032 NA
HETATM   20  O12 UNL     1      -6.961   4.241   0.065  1.00  0.00    -0.242 OA
ENDBRANCH  17  18
ENDBRANCH  16  17
BRANCH  11  21
HETATM   21  C20 UNL     1      -9.400   3.022   2.321  1.00  0.00     0.231 C 
HETATM   22  O13 UNL     1     -10.309   3.610   3.006  1.00  0.00    -0.643 OA
HETATM   23  O14 UNL     1      -9.778   2.753   1.042  1.00  0.00    -0.643 OA
ENDBRANCH  11  21
ENDBRANCH   1   2
BRANCH   1  24
HETATM   24  C5  UNL     1      -5.555  -0.830   6.822  1.00  0.00     0.036 A 
HETATM   25  C6  UNL     1      -4.408  -1.183   7.481  1.00  0.00     0.032 A 
HETATM   26  C7  UNL     1      -4.275  -1.113   8.871  1.00  0.00     0.039 A 
HETATM   27  C8  UNL     1      -5.304  -0.680   9.644  1.00  0.00     0.069 A 
HETATM   28  C11 UNL     1      -6.480  -0.319   8.976  1.00  0.00     0.039 A 
HETATM   29  C12 UNL     1      -6.608  -0.388   7.628  1.00  0.00     0.032 A 
BRANCH  27  30
HETATM   30  O2  UNL     1      -5.251  -0.579  11.024  1.00  0.00    -0.341 OA
BRANCH  30  31
HETATM   31  C9  UNL     1      -6.328  -0.339  11.857  1.00  0.00     0.288 C 
BRANCH  31  32
HETATM   32  C10 UNL     1      -6.139  -0.651  13.273  1.00  0.00     0.198 C 
HETATM   33  O3  UNL     1      -7.114  -0.795  14.064  1.00  0.00    -0.646 OA
HETATM   34  O4  UNL     1      -4.861  -0.796  13.786  1.00  0.00    -0.646 OA
ENDBRANCH  31  32
ENDBRANCH  30  31
ENDBRANCH  27  30
ENDBRANCH   1  24
BRANCH   1  35
HETATM   35  C13 UNL     1      -4.901  -1.791   4.616  1.00  0.00     0.267 C 
BRANCH  35  36
HETATM   36  C14 UNL     1      -5.270  -3.196   4.872  1.00  0.00     0.205 C 
HETATM   37  O5  UNL     1      -6.393  -3.704   4.853  1.00  0.00    -0.646 OA
HETATM   38  O6  UNL     1      -4.225  -4.115   5.183  1.00  0.00    -0.646 OA
ENDBRANCH  35  36
BRANCH  35  39
HETATM   39  C15 UNL     1      -5.068  -1.497   3.164  1.00  0.00     0.170 C 
HETATM   40  N4  UNL     1      -4.252  -0.721   2.578  1.00  0.00    -0.249 N 
ATOM     41  H4  UNL     1      -3.502  -0.323   3.142  1.00  0.00     0.196 HD
BRANCH  39  42
HETATM   42  O7  UNL     1      -6.103  -2.073   2.481  1.00  0.00    -0.346 OA
ATOM     43  H7  UNL     1      -6.022  -2.974   2.191  1.00  0.00     0.219 HD
ENDBRANCH  39  42
BRANCH  40  44
HETATM   44  O8  UNL     1      -4.292  -0.372   1.267  1.00  0.00    -0.288 OA
ATOM     45  H8  UNL     1      -4.234  -0.970   0.531  1.00  0.00     0.244 HD
ENDBRANCH  40  44
ENDBRANCH  35  39
ENDBRANCH   1  35
TORSDOF 13
ENDMDL
MODEL 4
REMARK VINA RESULT: -7.465719152      1.539      2.205
REMARK  13 active torsions:
REMARK  status: ('A' for Active; 'I' for Inactive)
REMARK    1  A    between atoms: C4_9  and  N3_10 
REMARK    2  A    between atoms: N3_10  and  C5_11 
REMARK    3  A    between atoms: N3_10  and  C13_22 
REMARK    4  A    between atoms: C8_14  and  O2_15 
REMARK    5  A    between atoms: O2_15  and  C9_16 
REMARK    6  A    between atoms: C9_16  and  C10_17 
REMARK    7  A    between atoms: C13_22  and  C14_23 
REMARK    8  A    between atoms: C13_22  and  C15_26 
REMARK    9  A    between atoms: C15_26  and  O7_27 
REMARK   10  A    between atoms: N4_29  and  O8_31 
REMARK   11  A    between atoms: C17_37  and  O11_38 
REMARK   12  A    between atoms: O11_38  and  C18_39 
REMARK   13  A    between atoms: C19_42  and  C20_43 
ROOT
HETATM    1  N3  UNL     1      -5.363  -1.224   7.063  1.00  0.00    -0.321 N 
ENDROOT
BRANCH   1   2
HETATM    2  C4  UNL     1      -5.634  -0.284   6.038  1.00  0.00     0.092 A 
HETATM    3  C1  UNL     1      -4.530   0.482   5.439  1.00  0.00     0.124 A 
HETATM    4  N1  UNL     1      -3.283   0.427   5.688  1.00  0.00    -0.393 N 
HETATM    5  C2  UNL     1      -5.164   1.343   4.448  1.00  0.00     0.281 A 
ATOM      6  H12 UNL     1      -2.517   0.958   5.273  1.00  0.00     0.156 HD
ATOM      7  H11 UNL     1      -2.840  -0.175   6.382  1.00  0.00     0.156 HD
HETATM    8  O1  UNL     1      -4.472   2.128   3.759  1.00  0.00    -0.265 OA
HETATM    9  N2  UNL     1      -6.559   1.077   4.488  1.00  0.00    -0.268 N 
HETATM   10  C3  UNL     1      -6.775   0.086   5.462  1.00  0.00     0.064 A 
HETATM   11  C19 UNL     1      -7.599   1.742   3.742  1.00  0.00     0.165 C 
HETATM   12  C16 UNL     1      -8.091  -0.562   5.775  1.00  0.00     0.208 C 
HETATM   13  S1  UNL     1      -9.431   0.313   5.093  1.00  0.00     0.205 S 
HETATM   14  O9  UNL     1     -10.229   1.054   6.162  1.00  0.00    -0.220 OA
HETATM   15  O10 UNL     1     -10.384  -0.666   4.451  1.00  0.00    -0.220 OA
HETATM   16  C17 UNL     1      -8.853   1.468   3.935  1.00  0.00     0.209 C 
BRANCH  16  17
HETATM   17  O11 UNL     1      -9.879   2.113   3.183  1.00  0.00    -0.249 OA
BRANCH  17  18
HETATM   18  C18 UNL     1     -10.478   1.358   2.147  1.00  0.00     0.378 C 
HETATM   19  N5  UNL     1     -11.848   1.550   1.898  1.00  0.00    -0.032 NA
HETATM   20  O12 UNL     1      -9.751   0.560   1.511  1.00  0.00    -0.242 OA
ENDBRANCH  17  18
ENDBRANCH  16  17
BRANCH  11  21
HETATM   21  C20 UNL     1      -7.316   2.812   2.780  1.00  0.00     0.231 C 
HETATM   22  O13 UNL     1      -7.048   2.475   1.573  1.00  0.00    -0.643 OA
HETATM   23  O14 UNL     1      -7.294   4.157   2.982  1.00  0.00    -0.643 OA
ENDBRANCH  11  21
ENDBRANCH   1   2
BRANCH   1  24
HETATM   24  C5  UNL     1      -5.319  -0.840   8.427  1.00  0.00     0.036 A 
HETATM   25  C6  UNL     1      -4.202  -0.353   9.053  1.00  0.00     0.032 A 
HETATM   26  C7  UNL     1      -4.186   0.019  10.401  1.00  0.00     0.039 A 
HETATM   27  C8  UNL     1      -5.306  -0.090  11.163  1.00  0.00     0.069 A 
HETATM   28  C11 UNL     1      -6.449  -0.588  10.527  1.00  0.00     0.039 A 
HETATM   29  C12 UNL     1      -6.464  -0.949   9.221  1.00  0.00     0.032 A 
BRANCH  27  30
HETATM   30  O2  UNL     1      -5.373   0.260  12.501  1.00  0.00    -0.341 OA
BRANCH  30  31
HETATM   31  C9  UNL     1      -5.256  -0.611  13.568  1.00  0.00     0.288 C 
BRANCH  31  32
HETATM   32  C10 UNL     1      -6.484  -0.909  14.304  1.00  0.00     0.198 C 
HETATM   33  O3  UNL     1      -6.467  -1.345  15.489  1.00  0.00    -0.646 OA
HETATM   34  O4  UNL     1      -7.717  -0.719  13.700  1.00  0.00    -0.646 OA
ENDBRANCH  31  32
ENDBRANCH  30  31
ENDBRANCH  27  30
ENDBRANCH   1  24
BRANCH   1  35
HETATM   35  C13 UNL     1      -5.165  -2.613   6.681  1.00  0.00     0.267 C 
BRANCH  35  36
HETATM   36  C14 UNL     1      -5.144  -2.752   5.212  1.00  0.00     0.205 C 
HETATM   37  O5  UNL     1      -4.265  -2.393   4.426  1.00  0.00    -0.646 OA
HETATM   38  O6  UNL     1      -6.262  -3.376   4.584  1.00  0.00    -0.646 OA
ENDBRANCH  35  36
BRANCH  35  39
HETATM   39  C15 UNL     1      -3.885  -3.132   7.241  1.00  0.00     0.170 C 
HETATM   40  N4  UNL     1      -3.905  -3.970   8.194  1.00  0.00    -0.249 N 
ATOM     41  H4  UNL     1      -4.819  -4.256   8.542  1.00  0.00     0.196 HD
BRANCH  39  42
HETATM   42  O7  UNL     1      -2.701  -2.696   6.714  1.00  0.00    -0.346 OA
ATOM     43  H7  UNL     1      -1.944  -3.269   6.739  1.00  0.00     0.219 HD
ENDBRANCH  39  42
BRANCH  40  44
HETATM   44  O8  UNL     1      -2.816  -4.518   8.792  1.00  0.00    -0.288 OA
ATOM     45  H8  UNL     1      -2.167  -4.048   9.301  1.00  0.00     0.244 HD
ENDBRANCH  40  44
ENDBRANCH  35  39
ENDBRANCH   1  35
TORSDOF 13
ENDMDL
MODEL 5
REMARK VINA RESULT: -7.452514713      2.065      3.017
REMARK  13 active torsions:
REMARK  status: ('A' for Active; 'I' for Inactive)
REMARK    1  A    between atoms: C4_9  and  N3_10 
REMARK    2  A    between atoms: N3_10  and  C5_11 
REMARK    3  A    between atoms: N3_10  and  C13_22 
REMARK    4  A    between atoms: C8_14  and  O2_15 
REMARK    5  A    between atoms: O2_15  and  C9_16 
REMARK    6  A    between atoms: C9_16  and  C10_17 
REMARK    7  A    between atoms: C13_22  and  C14_23 
REMARK    8  A    between atoms: C13_22  and  C15_26 
REMARK    9  A    between atoms: C15_26  and  O7_27 
REMARK   10  A    between atoms: N4_29  and  O8_31 
REMARK   11  A    between atoms: C17_37  and  O11_38 
REMARK   12  A    between atoms: O11_38  and  C18_39 
REMARK   13  A    between atoms: C19_42  and  C20_43 
ROOT
HETATM    1  N3  UNL     1      -6.898  -1.139   5.413  1.00  0.00    -0.321 N 
ENDROOT
BRANCH   1   2
HETATM    2  C4  UNL     1      -7.470  -0.082   4.665  1.00  0.00     0.092 A 
HETATM    3  C1  UNL     1      -6.607   0.789   3.852  1.00  0.00     0.124 A 
HETATM    4  N1  UNL     1      -5.347   0.740   3.679  1.00  0.00    -0.393 N 
HETATM    5  C2  UNL     1      -7.514   1.754   3.240  1.00  0.00     0.281 A 
ATOM      6  H12 UNL     1      -4.748   1.343   3.115  1.00  0.00     0.156 HD
ATOM      7  H11 UNL     1      -4.713   0.065   4.106  1.00  0.00     0.156 HD
HETATM    8  O1  UNL     1      -7.069   2.642   2.478  1.00  0.00    -0.265 OA
HETATM    9  N2  UNL     1      -8.826   1.443   3.689  1.00  0.00    -0.268 N 
HETATM   10  C3  UNL     1      -8.731   0.326   4.540  1.00  0.00     0.064 A 
HETATM   11  C19 UNL     1     -10.041   2.169   3.411  1.00  0.00     0.165 C 
HETATM   12  C16 UNL     1      -9.885  -0.396   5.168  1.00  0.00     0.208 C 
HETATM   13  S1  UNL     1     -11.361   0.520   5.074  1.00  0.00     0.205 S 
HETATM   14  O9  UNL     1     -11.763   1.091   6.432  1.00  0.00    -0.220 OA
HETATM   15  O10 UNL     1     -12.483  -0.394   4.646  1.00  0.00    -0.220 OA
HETATM   16  C17 UNL     1     -11.170   1.834   3.957  1.00  0.00     0.209 C 
BRANCH  16  17
HETATM   17  O11 UNL     1     -12.374   2.541   3.667  1.00  0.00    -0.249 OA
BRANCH  17  18
HETATM   18  C18 UNL     1     -13.303   1.893   2.819  1.00  0.00     0.378 C 
HETATM   19  N5  UNL     1     -14.665   1.951   3.165  1.00  0.00    -0.032 NA
HETATM   20  O12 UNL     1     -12.857   1.304   1.807  1.00  0.00    -0.242 OA
ENDBRANCH  17  18
ENDBRANCH  16  17
BRANCH  11  21
HETATM   21  C20 UNL     1     -10.067   3.363   2.562  1.00  0.00     0.231 C 
HETATM   22  O13 UNL     1     -10.141   3.194   1.294  1.00  0.00    -0.643 OA
HETATM   23  O14 UNL     1     -10.024   4.672   2.929  1.00  0.00    -0.643 OA
ENDBRANCH  11  21
ENDBRANCH   1   2
BRANCH   1  24
HETATM   24  C5  UNL     1      -6.488  -0.957   6.758  1.00  0.00     0.036 A 
HETATM   25  C6  UNL     1      -5.329  -1.460   7.285  1.00  0.00     0.032 A 
HETATM   26  C7  UNL     1      -4.948  -1.265   8.616  1.00  0.00     0.039 A 
HETATM   27  C8  UNL     1      -5.734  -0.549   9.462  1.00  0.00     0.069 A 
HETATM   28  C11 UNL     1      -6.921  -0.033   8.929  1.00  0.00     0.039 A 
HETATM   29  C12 UNL     1      -7.288  -0.223   7.639  1.00  0.00     0.032 A 
BRANCH  27  30
HETATM   30  O2  UNL     1      -5.427  -0.308  10.791  1.00  0.00    -0.341 OA
BRANCH  30  31
HETATM   31  C9  UNL     1      -6.324  -0.331  11.842  1.00  0.00     0.288 C 
BRANCH  31  32
HETATM   32  C10 UNL     1      -5.774  -0.641  13.162  1.00  0.00     0.198 C 
HETATM   33  O3  UNL     1      -6.513  -0.851  14.164  1.00  0.00    -0.646 OA
HETATM   34  O4  UNL     1      -4.402  -0.708  13.342  1.00  0.00    -0.646 OA
ENDBRANCH  31  32
ENDBRANCH  30  31
ENDBRANCH  27  30
ENDBRANCH   1  24
BRANCH   1  35
HETATM   35  C13 UNL     1      -6.773  -2.439   4.773  1.00  0.00     0.267 C 
BRANCH  35  36
HETATM   36  C14 UNL     1      -7.280  -2.390   3.389  1.00  0.00     0.205 C 
HETATM   37  O5  UNL     1      -8.425  -2.608   2.989  1.00  0.00    -0.646 OA
HETATM   38  O6  UNL     1      -6.360  -2.052   2.352  1.00  0.00    -0.646 OA
ENDBRANCH  35  36
BRANCH  35  39
HETATM   39  C15 UNL     1      -5.348  -2.879   4.758  1.00  0.00     0.170 C 
HETATM   40  N4  UNL     1      -5.031  -4.015   5.228  1.00  0.00    -0.249 N 
ATOM     41  H4  UNL     1      -5.786  -4.589   5.603  1.00  0.00     0.196 HD
BRANCH  39  42
HETATM   42  O7  UNL     1      -4.398  -2.046   4.234  1.00  0.00    -0.346 OA
ATOM     43  H7  UNL     1      -3.480  -2.248   4.369  1.00  0.00     0.219 HD
ENDBRANCH  39  42
BRANCH  40  44
HETATM   44  O8  UNL     1      -3.778  -4.533   5.274  1.00  0.00    -0.288 OA
ATOM     45  H8  UNL     1      -3.209  -4.542   6.034  1.00  0.00     0.244 HD
ENDBRANCH  40  44
ENDBRANCH  35  39
ENDBRANCH   1  35
TORSDOF 13
ENDMDL
