MODEL 1
REMARK VINA RESULT: -7.427513258      0.000      0.000
REMARK  16 active torsions:
REMARK  status: ('A' for Active; 'I' for Inactive)
REMARK    1  A    between atoms: O1_2  and  C2_3 
REMARK    2  A    between atoms: C4_5  and  O2_6 
REMARK    3  A    between atoms: C6_9  and  O3_10 
REMARK    4  A    between atoms: C7_12  and  O4_13 
REMARK    5  A    between atoms: O4_13  and  C8_14 
REMARK    6  A    between atoms: C8_14  and  C9_15 
REMARK    7  A    between atoms: C9_15  and  N1_16 
REMARK    8  A    between atoms: C10_19  and  O7_20 
REMARK    9  A    between atoms: C12_23  and  N2_24 
REMARK   10  A    between atoms: C13_28  and  O8_29 
REMARK   11  A    between atoms: O8_29  and  C14_30 
REMARK   12  A    between atoms: C14_30  and  O9_31 
REMARK   13  A    between atoms: C14_30  and  C15_33 
REMARK   14  A    between atoms: C16_34  and  C17_35 
REMARK   15  A    between atoms: C17_35  and  N3_36 
REMARK   16  A    between atoms: C24_45  and  O10_46 
ROOT
HETATM    1  C9  UNL     1      -5.212  -1.061   4.279  1.00  0.00     0.171 C 
HETATM    2  C10 UNL     1      -5.225  -2.304   3.412  1.00  0.00     0.159 C 
HETATM    3  C11 UNL     1      -6.577  -2.552   2.809  1.00  0.00     0.070 C 
HETATM    4  C12 UNL     1      -7.432  -1.338   2.660  1.00  0.00     0.217 C 
HETATM    5  C13 UNL     1      -7.693  -0.631   3.947  1.00  0.00     0.187 C 
HETATM    6  C24 UNL     1      -6.566  -0.811   4.904  1.00  0.00     0.188 C 
ENDROOT
BRANCH   1   7
HETATM    7  C8  UNL     1      -4.147  -1.261   5.326  1.00  0.00     0.211 C 
BRANCH   7   8
HETATM    8  O4  UNL     1      -4.661  -1.913   6.411  1.00  0.00    -0.378 OA
BRANCH   8   9
HETATM    9  C7  UNL     1      -3.776  -1.948   7.488  1.00  0.00     0.182 C 
HETATM   10  C6  UNL     1      -2.978  -0.666   7.470  1.00  0.00     0.152 C 
HETATM   11  C5  UNL     1      -3.705   0.206   8.454  1.00  0.00     0.075 C 
HETATM   12  C4  UNL     1      -4.086  -0.742   9.546  1.00  0.00     0.093 C 
HETATM   13  C3  UNL     1      -5.339  -0.247  10.220  1.00  0.00     0.101 C 
HETATM   14  C25 UNL     1      -4.566  -1.959   8.772  1.00  0.00     0.190 C 
HETATM   15  C2  UNL     1      -6.423  -0.824   9.351  1.00  0.00     0.262 C 
HETATM   16  O11 UNL     1      -5.914  -1.865   8.626  1.00  0.00    -0.350 OA
BRANCH  10  17
HETATM   17  O3  UNL     1      -1.650  -0.883   7.841  1.00  0.00    -0.393 OA
ATOM     18  H3  UNL     1      -1.484  -1.793   8.057  1.00  0.00     0.210 HD
ENDBRANCH  10  17
BRANCH  12  19
HETATM   19  O2  UNL     1      -3.056  -1.011  10.412  1.00  0.00    -0.387 OA
ATOM     20  H2  UNL     1      -2.219  -1.154   9.984  1.00  0.00     0.210 HD
ENDBRANCH  12  19
BRANCH  15  21
HETATM   21  O1  UNL     1      -6.922   0.126   8.461  1.00  0.00    -0.366 OA
HETATM   22  C1  UNL     1      -8.224   0.507   8.758  1.00  0.00     0.204 C 
ENDBRANCH  15  21
ENDBRANCH   8   9
ENDBRANCH   7   8
ENDBRANCH   1   7
BRANCH   1  23
HETATM   23  N1  UNL     1      -4.801   0.044   3.455  1.00  0.00    -0.137 N 
HETATM   24  O5  UNL     1      -4.094  -0.178   2.456  1.00  0.00    -0.536 OA
HETATM   25  O6  UNL     1      -5.152   1.344   3.692  1.00  0.00    -0.536 OA
ENDBRANCH   1  23
BRANCH   2  26
HETATM   26  O7  UNL     1      -4.793  -3.427   4.111  1.00  0.00    -0.393 OA
ATOM     27  H7  UNL     1      -5.490  -4.062   4.225  1.00  0.00     0.210 HD
ENDBRANCH   2  26
BRANCH   6  28
HETATM   28  O10 UNL     1      -6.401   0.330   5.721  1.00  0.00    -0.390 OA
ATOM     29  H10 UNL     1      -7.274   0.560   6.017  1.00  0.00     0.210 HD
ENDBRANCH   6  28
BRANCH   5  30
HETATM   30  O8  UNL     1      -8.868  -1.055   4.565  1.00  0.00    -0.348 OA
BRANCH  30  31
HETATM   31  C14 UNL     1      -9.773  -0.031   4.792  1.00  0.00     0.281 C 
BRANCH  31  32
HETATM   32  O9  UNL     1      -9.079   1.073   5.220  1.00  0.00    -0.368 OA
ATOM     33  H9  UNL     1      -8.849   1.595   4.459  1.00  0.00     0.213 HD
ENDBRANCH  31  32
BRANCH  31  34
HETATM   34  C15 UNL     1     -10.925  -0.417   5.594  1.00  0.00     0.030 C 
HETATM   35  C16 UNL     1     -12.041   0.260   5.731  1.00  0.00    -0.010 C 
BRANCH  35  36
HETATM   36  C17 UNL     1     -12.374   1.548   5.107  1.00  0.00     0.140 C 
BRANCH  36  37
HETATM   37  N3  UNL     1     -12.520   1.506   3.671  1.00  0.00    -0.232 NA
HETATM   38  C18 UNL     1     -11.728   2.542   3.023  1.00  0.00     0.117 C 
HETATM   39  C19 UNL     1     -11.590   2.145   1.571  1.00  0.00    -0.002 C 
HETATM   40  C20 UNL     1     -11.038   3.280   0.740  1.00  0.00     0.011 C 
HETATM   41  C21 UNL     1     -12.847   1.559   1.025  1.00  0.00     0.031 C 
HETATM   42  C22 UNL     1     -14.049   1.781   1.892  1.00  0.00     0.090 C 
HETATM   43  C23 UNL     1     -14.685   3.145   1.640  1.00  0.00     0.033 C 
HETATM   44  N4  UNL     1     -13.835   1.544   3.281  1.00  0.00    -0.350 N 
ATOM     45  H4  UNL     1     -14.603   1.413   3.939  1.00  0.00     0.174 HD
ENDBRANCH  36  37
ENDBRANCH  35  36
ENDBRANCH  31  34
ENDBRANCH  30  31
ENDBRANCH   5  30
BRANCH   4  46
HETATM   46  N2  UNL     1      -8.683  -1.798   2.036  1.00  0.00    -0.072 N 
ATOM     47  H23 UNL     1      -8.909  -2.770   2.247  1.00  0.00     0.274 HD
ATOM     48  H22 UNL     1      -9.519  -1.385   2.449  1.00  0.00     0.274 HD
ATOM     49  H21 UNL     1      -8.585  -1.610   1.039  1.00  0.00     0.274 HD
ENDBRANCH   4  46
TORSDOF 16
ENDMDL
MODEL 2
REMARK VINA RESULT: -7.054262208      1.505      2.722
REMARK  16 active torsions:
REMARK  status: ('A' for Active; 'I' for Inactive)
REMARK    1  A    between atoms: O1_2  and  C2_3 
REMARK    2  A    between atoms: C4_5  and  O2_6 
REMARK    3  A    between atoms: C6_9  and  O3_10 
REMARK    4  A    between atoms: C7_12  and  O4_13 
REMARK    5  A    between atoms: O4_13  and  C8_14 
REMARK    6  A    between atoms: C8_14  and  C9_15 
REMARK    7  A    between atoms: C9_15  and  N1_16 
REMARK    8  A    between atoms: C10_19  and  O7_20 
REMARK    9  A    between atoms: C12_23  and  N2_24 
REMARK   10  A    between atoms: C13_28  and  O8_29 
REMARK   11  A    between atoms: O8_29  and  C14_30 
REMARK   12  A    between atoms: C14_30  and  O9_31 
REMARK   13  A    between atoms: C14_30  and  C15_33 
REMARK   14  A    between atoms: C16_34  and  C17_35 
REMARK   15  A    between atoms: C17_35  and  N3_36 
REMARK   16  A    between atoms: C24_45  and  O10_46 
ROOT
HETATM    1  C9  UNL     1      -5.169  -0.522   3.355  1.00  0.00     0.171 C 
HETATM    2  C10 UNL     1      -5.432  -1.848   2.672  1.00  0.00     0.159 C 
HETATM    3  C11 UNL     1      -6.803  -1.902   2.063  1.00  0.00     0.070 C 
HETATM    4  C12 UNL     1      -7.390  -0.575   1.715  1.00  0.00     0.217 C 
HETATM    5  C13 UNL     1      -7.507   0.350   2.880  1.00  0.00     0.187 C 
HETATM    6  C24 UNL     1      -6.446   0.086   3.891  1.00  0.00     0.188 C 
ENDROOT
BRANCH   1   7
HETATM    7  C8  UNL     1      -4.173  -0.779   4.456  1.00  0.00     0.211 C 
BRANCH   7   8
HETATM    8  O4  UNL     1      -4.809  -1.221   5.581  1.00  0.00    -0.378 OA
BRANCH   8   9
HETATM    9  C7  UNL     1      -4.313  -0.636   6.746  1.00  0.00     0.182 C 
HETATM   10  C6  UNL     1      -5.447  -0.561   7.742  1.00  0.00     0.152 C 
HETATM   11  C5  UNL     1      -5.237  -1.779   8.596  1.00  0.00     0.075 C 
HETATM   12  C4  UNL     1      -3.751  -1.849   8.747  1.00  0.00     0.093 C 
HETATM   13  C3  UNL     1      -3.337  -3.283   8.948  1.00  0.00     0.101 C 
HETATM   14  C25 UNL     1      -3.263  -1.540   7.340  1.00  0.00     0.190 C 
HETATM   15  C2  UNL     1      -3.210  -3.784   7.535  1.00  0.00     0.262 C 
HETATM   16  O11 UNL     1      -3.074  -2.718   6.688  1.00  0.00    -0.350 OA
BRANCH  10  17
HETATM   17  O3  UNL     1      -5.397   0.618   8.488  1.00  0.00    -0.393 OA
ATOM     18  H3  UNL     1      -5.588   1.384   7.958  1.00  0.00     0.210 HD
ENDBRANCH  10  17
BRANCH  12  19
HETATM   19  O2  UNL     1      -3.264  -0.989   9.699  1.00  0.00    -0.387 OA
ATOM     20  H2  UNL     1      -3.665  -1.091  10.554  1.00  0.00     0.210 HD
ENDBRANCH  12  19
BRANCH  15  21
HETATM   21  O1  UNL     1      -4.336  -4.508   7.147  1.00  0.00    -0.366 OA
HETATM   22  C1  UNL     1      -4.155  -5.180   5.947  1.00  0.00     0.204 C 
ENDBRANCH  15  21
ENDBRANCH   8   9
ENDBRANCH   7   8
ENDBRANCH   1   7
BRANCH   1  23
HETATM   23  N1  UNL     1      -4.535   0.345   2.399  1.00  0.00    -0.137 N 
HETATM   24  O5  UNL     1      -3.886  -0.158   1.464  1.00  0.00    -0.536 OA
HETATM   25  O6  UNL     1      -4.610   1.710   2.439  1.00  0.00    -0.536 OA
ENDBRANCH   1  23
BRANCH   2  26
HETATM   26  O7  UNL     1      -5.244  -2.922   3.537  1.00  0.00    -0.393 OA
ATOM     27  H7  UNL     1      -5.159  -3.743   3.066  1.00  0.00     0.210 HD
ENDBRANCH   2  26
BRANCH   6  28
HETATM   28  O10 UNL     1      -6.054   1.276   4.545  1.00  0.00    -0.390 OA
ATOM     29  H10 UNL     1      -6.745   1.463   5.170  1.00  0.00     0.210 HD
ENDBRANCH   6  28
BRANCH   5  30
HETATM   30  O8  UNL     1      -8.747   0.266   3.510  1.00  0.00    -0.348 OA
BRANCH  30  31
HETATM   31  C14 UNL     1      -8.773  -0.639   4.559  1.00  0.00     0.281 C 
BRANCH  31  32
HETATM   32  O9  UNL     1      -9.427  -1.770   4.138  1.00  0.00    -0.368 OA
ATOM     33  H9  UNL     1     -10.061  -2.013   4.803  1.00  0.00     0.213 HD
ENDBRANCH  31  32
BRANCH  31  34
HETATM   34  C15 UNL     1      -9.213  -0.074   5.827  1.00  0.00     0.030 C 
HETATM   35  C16 UNL     1     -10.420   0.357   6.110  1.00  0.00    -0.010 C 
BRANCH  35  36
HETATM   36  C17 UNL     1     -11.587   0.362   5.217  1.00  0.00     0.140 C 
BRANCH  36  37
HETATM   37  N3  UNL     1     -11.951   1.662   4.702  1.00  0.00    -0.232 NA
HETATM   38  C18 UNL     1     -13.106   1.582   3.819  1.00  0.00     0.117 C 
HETATM   39  C19 UNL     1     -13.666   2.980   3.702  1.00  0.00    -0.002 C 
HETATM   40  C20 UNL     1     -14.685   3.075   2.590  1.00  0.00     0.011 C 
HETATM   41  C21 UNL     1     -12.593   4.012   3.620  1.00  0.00     0.031 C 
HETATM   42  C22 UNL     1     -11.231   3.453   3.342  1.00  0.00     0.090 C 
HETATM   43  C23 UNL     1     -11.003   3.230   1.850  1.00  0.00     0.033 C 
HETATM   44  N4  UNL     1     -10.892   2.299   4.108  1.00  0.00    -0.350 N 
ATOM     45  H4  UNL     1      -9.931   1.971   4.206  1.00  0.00     0.174 HD
ENDBRANCH  36  37
ENDBRANCH  35  36
ENDBRANCH  31  34
ENDBRANCH  30  31
ENDBRANCH   5  30
BRANCH   4  46
HETATM   46  N2  UNL     1      -8.705  -0.857   1.120  1.00  0.00    -0.072 N 
ATOM     47  H23 UNL     1      -8.833  -1.835   0.859  1.00  0.00     0.274 HD
ATOM     48  H22 UNL     1      -9.474  -0.806   1.788  1.00  0.00     0.274 HD
ATOM     49  H21 UNL     1      -8.803  -0.211   0.336  1.00  0.00     0.274 HD
ENDBRANCH   4  46
TORSDOF 16
ENDMDL
MODEL 3
REMARK VINA RESULT: -6.894290304      2.392      5.466
REMARK  16 active torsions:
REMARK  status: ('A' for Active; 'I' for Inactive)
REMARK    1  A    between atoms: O1_2  and  C2_3 
REMARK    2  A    between atoms: C4_5  and  O2_6 
REMARK    3  A    between atoms: C6_9  and  O3_10 
REMARK    4  A    between atoms: C7_12  and  O4_13 
REMARK    5  A    between atoms: O4_13  and  C8_14 
REMARK    6  A    between atoms: C8_14  and  C9_15 
REMARK    7  A    between atoms: C9_15  and  N1_16 
REMARK    8  A    between atoms: C10_19  and  O7_20 
REMARK    9  A    between atoms: C12_23  and  N2_24 
REMARK   10  A    between atoms: C13_28  and  O8_29 
REMARK   11  A    between atoms: O8_29  and  C14_30 
REMARK   12  A    between atoms: C14_30  and  O9_31 
REMARK   13  A    between atoms: C14_30  and  C15_33 
REMARK   14  A    between atoms: C16_34  and  C17_35 
REMARK   15  A    between atoms: C17_35  and  N3_36 
REMARK   16  A    between atoms: C24_45  and  O10_46 
ROOT
HETATM    1  C9  UNL     1      -4.953  -1.690   5.266  1.00  0.00     0.171 C 
HETATM    2  C10 UNL     1      -3.809  -0.724   5.501  1.00  0.00     0.159 C 
HETATM    3  C11 UNL     1      -3.938  -0.015   6.818  1.00  0.00     0.070 C 
HETATM    4  C12 UNL     1      -4.732  -0.742   7.850  1.00  0.00     0.217 C 
HETATM    5  C13 UNL     1      -6.128  -1.047   7.423  1.00  0.00     0.187 C 
HETATM    6  C24 UNL     1      -6.219  -1.223   5.947  1.00  0.00     0.188 C 
ENDROOT
BRANCH   1   7
HETATM    7  C8  UNL     1      -5.136  -1.807   3.775  1.00  0.00     0.211 C 
BRANCH   7   8
HETATM    8  O4  UNL     1      -6.103  -0.944   3.344  1.00  0.00    -0.378 OA
BRANCH   8   9
HETATM    9  C7  UNL     1      -6.336  -1.035   1.972  1.00  0.00     0.182 C 
HETATM   10  C6  UNL     1      -7.808  -0.794   1.738  1.00  0.00     0.152 C 
HETATM   11  C5  UNL     1      -7.865   0.661   1.369  1.00  0.00     0.075 C 
HETATM   12  C4  UNL     1      -6.653   0.853   0.515  1.00  0.00     0.093 C 
HETATM   13  C3  UNL     1      -6.182   2.279   0.631  1.00  0.00     0.101 C 
HETATM   14  C25 UNL     1      -5.591   0.073   1.273  1.00  0.00     0.190 C 
HETATM   15  C2  UNL     1      -5.305   2.231   1.852  1.00  0.00     0.262 C 
HETATM   16  O11 UNL     1      -4.932   0.937   2.091  1.00  0.00    -0.350 OA
BRANCH  10  17
HETATM   17  O3  UNL     1      -8.307  -1.613   0.724  1.00  0.00    -0.393 OA
ATOM     18  H3  UNL     1      -8.002  -2.509   0.806  1.00  0.00     0.210 HD
ENDBRANCH  10  17
BRANCH  12  19
HETATM   19  O2  UNL     1      -6.830   0.427  -0.778  1.00  0.00    -0.387 OA
ATOM     20  H2  UNL     1      -6.639  -0.494  -0.911  1.00  0.00     0.210 HD
ENDBRANCH  12  19
BRANCH  15  21
HETATM   21  O1  UNL     1      -5.974   2.708   2.979  1.00  0.00    -0.366 OA
HETATM   22  C1  UNL     1      -6.638   3.904   2.743  1.00  0.00     0.204 C 
ENDBRANCH  15  21
ENDBRANCH   8   9
ENDBRANCH   7   8
ENDBRANCH   1   7
BRANCH   1  23
HETATM   23  N1  UNL     1      -4.542  -2.981   5.749  1.00  0.00    -0.137 N 
HETATM   24  O5  UNL     1      -5.274  -3.965   5.540  1.00  0.00    -0.536 OA
HETATM   25  O6  UNL     1      -3.373  -3.208   6.421  1.00  0.00    -0.536 OA
ENDBRANCH   1  23
BRANCH   2  26
HETATM   26  O7  UNL     1      -3.687   0.196   4.464  1.00  0.00    -0.393 OA
ATOM     27  H7  UNL     1      -3.770   1.090   4.774  1.00  0.00     0.210 HD
ENDBRANCH   2  26
BRANCH   6  28
HETATM   28  O10 UNL     1      -7.207  -2.173   5.604  1.00  0.00    -0.390 OA
ATOM     29  H10 UNL     1      -8.030  -1.699   5.612  1.00  0.00     0.210 HD
ENDBRANCH   6  28
BRANCH   5  30
HETATM   30  O8  UNL     1      -7.035  -0.061   7.806  1.00  0.00    -0.348 OA
BRANCH  30  31
HETATM   31  C14 UNL     1      -7.750   0.474   6.745  1.00  0.00     0.281 C 
BRANCH  31  32
HETATM   32  O9  UNL     1      -7.211   1.696   6.433  1.00  0.00    -0.368 OA
ATOM     33  H9  UNL     1      -7.917   2.277   6.172  1.00  0.00     0.213 HD
ENDBRANCH  31  32
BRANCH  31  34
HETATM   34  C15 UNL     1      -9.195   0.431   6.916  1.00  0.00     0.030 C 
HETATM   35  C16 UNL     1     -10.091   0.376   5.958  1.00  0.00    -0.010 C 
BRANCH  35  36
HETATM   36  C17 UNL     1      -9.835   0.341   4.512  1.00  0.00     0.140 C 
BRANCH  36  37
HETATM   37  N3  UNL     1     -10.918   0.835   3.693  1.00  0.00    -0.232 NA
HETATM   38  C18 UNL     1     -10.499   1.969   2.880  1.00  0.00     0.117 C 
HETATM   39  C19 UNL     1     -11.517   2.116   1.774  1.00  0.00    -0.002 C 
HETATM   40  C20 UNL     1     -11.350   3.427   1.042  1.00  0.00     0.011 C 
HETATM   41  C21 UNL     1     -12.908   1.870   2.252  1.00  0.00     0.031 C 
HETATM   42  C22 UNL     1     -13.046   1.858   3.744  1.00  0.00     0.090 C 
HETATM   43  C23 UNL     1     -13.199   3.266   4.310  1.00  0.00     0.033 C 
HETATM   44  N4  UNL     1     -12.040   1.117   4.430  1.00  0.00    -0.350 N 
ATOM     45  H4  UNL     1     -12.146   0.818   5.399  1.00  0.00     0.174 HD
ENDBRANCH  36  37
ENDBRANCH  35  36
ENDBRANCH  31  34
ENDBRANCH  30  31
ENDBRANCH   5  30
BRANCH   4  46
HETATM   46  N2  UNL     1      -4.711   0.108   9.051  1.00  0.00    -0.072 N 
ATOM     47  H23 UNL     1      -4.067   0.895   8.981  1.00  0.00     0.274 HD
ATOM     48  H22 UNL     1      -5.562   0.656   9.176  1.00  0.00     0.274 HD
ATOM     49  H21 UNL     1      -4.509  -0.515   9.833  1.00  0.00     0.274 HD
ENDBRANCH   4  46
TORSDOF 16
ENDMDL
MODEL 4
REMARK VINA RESULT: -6.871890612      3.259      6.385
REMARK  16 active torsions:
REMARK  status: ('A' for Active; 'I' for Inactive)
REMARK    1  A    between atoms: O1_2  and  C2_3 
REMARK    2  A    between atoms: C4_5  and  O2_6 
REMARK    3  A    between atoms: C6_9  and  O3_10 
REMARK    4  A    between atoms: C7_12  and  O4_13 
REMARK    5  A    between atoms: O4_13  and  C8_14 
REMARK    6  A    between atoms: C8_14  and  C9_15 
REMARK    7  A    between atoms: C9_15  and  N1_16 
REMARK    8  A    between atoms: C10_19  and  O7_20 
REMARK    9  A    between atoms: C12_23  and  N2_24 
REMARK   10  A    between atoms: C13_28  and  O8_29 
REMARK   11  A    between atoms: O8_29  and  C14_30 
REMARK   12  A    between atoms: C14_30  and  O9_31 
REMARK   13  A    between atoms: C14_30  and  C15_33 
REMARK   14  A    between atoms: C16_34  and  C17_35 
REMARK   15  A    between atoms: C17_35  and  N3_36 
REMARK   16  A    between atoms: C24_45  and  O10_46 
ROOT
HETATM    1  C9  UNL     1      -7.193  -1.435   3.944  1.00  0.00     0.171 C 
HETATM    2  C10 UNL     1      -8.622  -1.648   3.490  1.00  0.00     0.159 C 
HETATM    3  C11 UNL     1      -8.858  -1.105   2.111  1.00  0.00     0.070 C 
HETATM    4  C12 UNL     1      -7.641  -1.018   1.252  1.00  0.00     0.217 C 
HETATM    5  C13 UNL     1      -6.560  -0.172   1.834  1.00  0.00     0.187 C 
HETATM    6  C24 UNL     1      -6.596  -0.193   3.323  1.00  0.00     0.188 C 
ENDROOT
BRANCH   1   7
HETATM    7  C8  UNL     1      -7.213  -1.348   5.448  1.00  0.00     0.211 C 
BRANCH   7   8
HETATM    8  O4  UNL     1      -6.225  -2.126   5.983  1.00  0.00    -0.378 OA
BRANCH   8   9
HETATM    9  C7  UNL     1      -5.196  -1.376   6.553  1.00  0.00     0.182 C 
HETATM   10  C6  UNL     1      -5.502  -1.217   8.023  1.00  0.00     0.152 C 
HETATM   11  C5  UNL     1      -4.688  -2.304   8.664  1.00  0.00     0.075 C 
HETATM   12  C4  UNL     1      -3.414  -2.295   7.881  1.00  0.00     0.093 C 
HETATM   13  C3  UNL     1      -2.807  -3.674   7.900  1.00  0.00     0.101 C 
HETATM   14  C25 UNL     1      -3.909  -2.152   6.451  1.00  0.00     0.190 C 
HETATM   15  C2  UNL     1      -3.501  -4.348   6.748  1.00  0.00     0.262 C 
HETATM   16  O11 UNL     1      -4.021  -3.397   5.914  1.00  0.00    -0.350 OA
BRANCH  10  17
HETATM   17  O3  UNL     1      -5.144   0.050   8.488  1.00  0.00    -0.393 OA
ATOM     18  H3  UNL     1      -5.903   0.570   8.725  1.00  0.00     0.210 HD
ENDBRANCH  10  17
BRANCH  12  19
HETATM   19  O2  UNL     1      -2.550  -1.300   8.267  1.00  0.00    -0.387 OA
ATOM     20  H2  UNL     1      -2.981  -0.500   8.542  1.00  0.00     0.210 HD
ENDBRANCH  12  19
BRANCH  15  21
HETATM   21  O1  UNL     1      -4.545  -5.161   7.188  1.00  0.00    -0.366 OA
HETATM   22  C1  UNL     1      -4.185  -5.964   8.261  1.00  0.00     0.204 C 
ENDBRANCH  15  21
ENDBRANCH   8   9
ENDBRANCH   7   8
ENDBRANCH   1   7
BRANCH   1  23
HETATM   23  N1  UNL     1      -6.442  -2.611   3.594  1.00  0.00    -0.137 N 
HETATM   24  O5  UNL     1      -6.969  -3.729   3.737  1.00  0.00    -0.536 OA
HETATM   25  O6  UNL     1      -5.170  -2.583   3.092  1.00  0.00    -0.536 OA
ENDBRANCH   1  23
BRANCH   2  26
HETATM   26  O7  UNL     1      -9.537  -1.106   4.387  1.00  0.00    -0.393 OA
ATOM     27  H7  UNL     1     -10.172  -0.550   3.952  1.00  0.00     0.210 HD
ENDBRANCH   2  26
BRANCH   6  28
HETATM   28  O10 UNL     1      -5.297  -0.083   3.868  1.00  0.00    -0.390 OA
ATOM     29  H10 UNL     1      -4.703  -0.284   3.154  1.00  0.00     0.210 HD
ENDBRANCH   6  28
BRANCH   5  30
HETATM   30  O8  UNL     1      -6.627   1.154   1.410  1.00  0.00    -0.348 OA
BRANCH  30  31
HETATM   31  C14 UNL     1      -5.560   1.533   0.612  1.00  0.00     0.281 C 
BRANCH  31  32
HETATM   32  O9  UNL     1      -6.040   1.832  -0.639  1.00  0.00    -0.368 OA
ATOM     33  H9  UNL     1      -6.048   1.034  -1.155  1.00  0.00     0.213 HD
ENDBRANCH  31  32
BRANCH  31  34
HETATM   34  C15 UNL     1      -4.421   0.628   0.665  1.00  0.00     0.030 C 
HETATM   35  C16 UNL     1      -3.270   0.857   1.253  1.00  0.00    -0.010 C 
BRANCH  35  36
HETATM   36  C17 UNL     1      -2.880   2.070   1.986  1.00  0.00     0.140 C 
BRANCH  36  37
HETATM   37  N3  UNL     1      -3.180   2.047   3.399  1.00  0.00    -0.232 NA
HETATM   38  C18 UNL     1      -3.017   3.363   4.000  1.00  0.00     0.117 C 
HETATM   39  C19 UNL     1      -3.762   3.340   5.315  1.00  0.00    -0.002 C 
HETATM   40  C20 UNL     1      -3.425   4.547   6.160  1.00  0.00     0.011 C 
HETATM   41  C21 UNL     1      -3.599   2.043   6.032  1.00  0.00     0.031 C 
HETATM   42  C22 UNL     1      -2.501   1.181   5.488  1.00  0.00     0.090 C 
HETATM   43  C23 UNL     1      -1.141   1.564   6.063  1.00  0.00     0.033 C 
HETATM   44  N4  UNL     1      -2.466   1.085   4.065  1.00  0.00    -0.350 N 
ATOM     45  H4  UNL     1      -1.948   0.353   3.579  1.00  0.00     0.174 HD
ENDBRANCH  36  37
ENDBRANCH  35  36
ENDBRANCH  31  34
ENDBRANCH  30  31
ENDBRANCH   5  30
BRANCH   4  46
HETATM   46  N2  UNL     1      -8.097  -0.490  -0.044  1.00  0.00    -0.072 N 
ATOM     47  H23 UNL     1      -8.358  -1.216  -0.710  1.00  0.00     0.274 HD
ATOM     48  H22 UNL     1      -9.008  -0.032   0.001  1.00  0.00     0.274 HD
ATOM     49  H21 UNL     1      -7.350   0.119  -0.378  1.00  0.00     0.274 HD
ENDBRANCH   4  46
TORSDOF 16
ENDMDL
MODEL 5
REMARK VINA RESULT: -6.766733305      3.696      9.202
REMARK  16 active torsions:
REMARK  status: ('A' for Active; 'I' for Inactive)
REMARK    1  A    between atoms: O1_2  and  C2_3 
REMARK    2  A    between atoms: C4_5  and  O2_6 
REMARK    3  A    between atoms: C6_9  and  O3_10 
REMARK    4  A    between atoms: C7_12  and  O4_13 
REMARK    5  A    between atoms: O4_13  and  C8_14 
REMARK    6  A    between atoms: C8_14  and  C9_15 
REMARK    7  A    between atoms: C9_15  and  N1_16 
REMARK    8  A    between atoms: C10_19  and  O7_20 
REMARK    9  A    between atoms: C12_23  and  N2_24 
REMARK   10  A    between atoms: C13_28  and  O8_29 
REMARK   11  A    between atoms: O8_29  and  C14_30 
REMARK   12  A    between atoms: C14_30  and  O9_31 
REMARK   13  A    between atoms: C14_30  and  C15_33 
REMARK   14  A    between atoms: C16_34  and  C17_35 
REMARK   15  A    between atoms: C17_35  and  N3_36 
REMARK   16  A    between atoms: C24_45  and  O10_46 
ROOT
HETATM    1  C9  UNL     1      -4.828  -1.534   6.390  1.00  0.00     0.171 C 
HETATM    2  C10 UNL     1      -3.964  -2.663   6.913  1.00  0.00     0.159 C 
HETATM    3  C11 UNL     1      -2.625  -2.172   7.382  1.00  0.00     0.070 C 
HETATM    4  C12 UNL     1      -2.591  -0.740   7.800  1.00  0.00     0.217 C 
HETATM    5  C13 UNL     1      -3.008   0.206   6.724  1.00  0.00     0.187 C 
HETATM    6  C24 UNL     1      -3.988  -0.425   5.797  1.00  0.00     0.188 C 
ENDROOT
BRANCH   1   7
HETATM    7  C8  UNL     1      -5.764  -2.127   5.369  1.00  0.00     0.211 C 
BRANCH   7   8
HETATM    8  O4  UNL     1      -5.297  -1.899   4.105  1.00  0.00    -0.378 OA
BRANCH   8   9
HETATM    9  C7  UNL     1      -6.091  -2.489   3.122  1.00  0.00     0.182 C 
HETATM   10  C6  UNL     1      -7.392  -2.903   3.769  1.00  0.00     0.152 C 
HETATM   11  C5  UNL     1      -8.317  -1.767   3.440  1.00  0.00     0.075 C 
HETATM   12  C4  UNL     1      -7.945  -1.407   2.037  1.00  0.00     0.093 C 
HETATM   13  C3  UNL     1      -8.237   0.052   1.802  1.00  0.00     0.101 C 
HETATM   14  C25 UNL     1      -6.426  -1.457   2.077  1.00  0.00     0.190 C 
HETATM   15  C2  UNL     1      -6.981   0.716   2.297  1.00  0.00     0.262 C 
HETATM   16  O11 UNL     1      -5.967  -0.202   2.330  1.00  0.00    -0.350 OA
BRANCH  10  17
HETATM   17  O3  UNL     1      -7.852  -4.119   3.261  1.00  0.00    -0.393 OA
ATOM     18  H3  UNL     1      -7.242  -4.829   3.424  1.00  0.00     0.210 HD
ENDBRANCH  10  17
BRANCH  12  19
HETATM   19  O2  UNL     1      -8.498  -2.245   1.100  1.00  0.00    -0.387 OA
ATOM     20  H2  UNL     1      -9.299  -2.669   1.385  1.00  0.00     0.210 HD
ENDBRANCH  12  19
BRANCH  15  21
HETATM   21  O1  UNL     1      -7.149   1.229   3.582  1.00  0.00    -0.366 OA
HETATM   22  C1  UNL     1      -8.326   1.950   3.723  1.00  0.00     0.204 C 
ENDBRANCH  15  21
ENDBRANCH   8   9
ENDBRANCH   7   8
ENDBRANCH   1   7
BRANCH   1  23
HETATM   23  N1  UNL     1      -5.634  -1.057   7.482  1.00  0.00    -0.137 N 
HETATM   24  O5  UNL     1      -5.829  -1.802   8.459  1.00  0.00    -0.536 OA
HETATM   25  O6  UNL     1      -6.199   0.188   7.527  1.00  0.00    -0.536 OA
ENDBRANCH   1  23
BRANCH   2  26
HETATM   26  O7  UNL     1      -3.806  -3.674   5.970  1.00  0.00    -0.393 OA
ATOM     27  H7  UNL     1      -2.891  -3.830   5.769  1.00  0.00     0.210 HD
ENDBRANCH   2  26
BRANCH   6  28
HETATM   28  O10 UNL     1      -4.910   0.525   5.302  1.00  0.00    -0.390 OA
ATOM     29  H10 UNL     1      -4.390   1.157   4.819  1.00  0.00     0.210 HD
ENDBRANCH   6  28
BRANCH   5  30
HETATM   30  O8  UNL     1      -1.932   0.677   5.974  1.00  0.00    -0.348 OA
BRANCH  30  31
HETATM   31  C14 UNL     1      -1.883   2.059   5.888  1.00  0.00     0.281 C 
BRANCH  31  32
HETATM   32  O9  UNL     1      -2.314   2.430   4.639  1.00  0.00    -0.368 OA
ATOM     33  H9  UNL     1      -3.135   2.899   4.733  1.00  0.00     0.213 HD
ENDBRANCH  31  32
BRANCH  31  34
HETATM   34  C15 UNL     1      -0.626   2.642   6.335  1.00  0.00     0.030 C 
HETATM   35  C16 UNL     1      -0.390   3.174   7.512  1.00  0.00    -0.010 C 
BRANCH  35  36
HETATM   36  C17 UNL     1      -1.334   3.297   8.631  1.00  0.00     0.140 C 
BRANCH  36  37
HETATM   37  N3  UNL     1      -1.089   2.393   9.731  1.00  0.00    -0.232 NA
HETATM   38  C18 UNL     1      -2.320   2.070  10.441  1.00  0.00     0.117 C 
HETATM   39  C19 UNL     1      -2.047   0.822  11.246  1.00  0.00    -0.002 C 
HETATM   40  C20 UNL     1      -3.152   0.557  12.242  1.00  0.00     0.011 C 
HETATM   41  C21 UNL     1      -0.684   0.828  11.851  1.00  0.00     0.031 C 
HETATM   42  C22 UNL     1      -0.010   2.165  11.819  1.00  0.00     0.090 C 
HETATM   43  C23 UNL     1      -0.434   3.042  12.994  1.00  0.00     0.033 C 
HETATM   44  N4  UNL     1      -0.114   2.857  10.577  1.00  0.00    -0.350 N 
ATOM     45  H4  UNL     1       0.492   3.641  10.334  1.00  0.00     0.174 HD
ENDBRANCH  36  37
ENDBRANCH  35  36
ENDBRANCH  31  34
ENDBRANCH  30  31
ENDBRANCH   5  30
BRANCH   4  46
HETATM   46  N2  UNL     1      -1.210  -0.479   8.238  1.00  0.00    -0.072 N 
ATOM     47  H23 UNL     1      -1.152   0.105   9.071  1.00  0.00     0.274 HD
ATOM     48  H22 UNL     1      -0.746  -1.299   8.629  1.00  0.00     0.274 HD
ATOM     49  H21 UNL     1      -0.729  -0.085   7.429  1.00  0.00     0.274 HD
ENDBRANCH   4  46
TORSDOF 16
ENDMDL
