MODEL 1
REMARK VINA RESULT: -5.623075455      0.000      0.000
REMARK  8 active torsions:
REMARK  status: ('A' for Active; 'I' for Inactive)
REMARK    1  A    between atoms: C7_8  and  C8_9 
REMARK    2  A    between atoms: C8_9  and  O1_10 
REMARK    3  A    between atoms: O1_10  and  C9_11 
REMARK    4  A    between atoms: C9_11  and  N2_13 
REMARK    5  A    between atoms: N2_13  and  C10_15 
REMARK    6  A    between atoms: C10_15  and  C11_16 
REMARK    7  A    between atoms: C11_16  and  C12_17 
REMARK    8  A    between atoms: C12_17  and  N3_18 
ROOT
HETATM    1  C9  UNL     1      -0.154  -5.604  24.917  1.00  0.00     0.210 C 
HETATM    2  S1  UNL     1      -0.489  -5.568  23.322  1.00  0.00    -0.033 SA
ENDROOT
BRANCH   1   3
HETATM    3  O1  UNL     1      -0.817  -4.789  25.802  1.00  0.00    -0.327 OA
BRANCH   3   4
HETATM    4  C8  UNL     1      -1.620  -5.289  26.858  1.00  0.00     0.185 C 
BRANCH   4   5
HETATM    5  C7  UNL     1      -1.010  -4.793  28.149  1.00  0.00     0.051 A 
HETATM    6  C5  UNL     1      -1.731  -5.136  29.395  1.00  0.00     0.165 A 
HETATM    7  N1  UNL     1      -1.090  -5.389  30.646  1.00  0.00     0.094 N 
HETATM    8  C4  UNL     1      -2.961  -6.016  29.334  1.00  0.00     0.044 C 
HETATM    9  C6  UNL     1      -1.772  -3.753  28.877  1.00  0.00     0.051 A 
HETATM   10  C1  UNL     1      -1.562  -4.407  31.609  1.00  0.00     0.310 C 
HETATM   11  C2  UNL     1      -1.481  -6.727  31.044  1.00  0.00     0.273 C 
HETATM   12  C3  UNL     1      -2.938  -6.848  30.596  1.00  0.00     0.033 C 
ENDBRANCH   4   5
ENDBRANCH   3   4
ENDBRANCH   1   3
BRANCH   1  13
HETATM   13  N2  UNL     1       0.838  -6.491  25.409  1.00  0.00    -0.361 N 
ATOM     14  H2  UNL     1       0.665  -7.495  25.457  1.00  0.00     0.162 HD
BRANCH  13  15
HETATM   15  C10 UNL     1       2.085  -5.942  25.835  1.00  0.00     0.124 C 
BRANCH  15  16
HETATM   16  C11 UNL     1       2.371  -5.922  27.287  1.00  0.00     0.047 C 
BRANCH  16  17
HETATM   17  C12 UNL     1       2.027  -7.148  28.066  1.00  0.00     0.231 C 
BRANCH  17  18
HETATM   18  N3  UNL     1       1.823  -6.875  29.437  1.00  0.00    -0.079 N 
ATOM     19  H33 UNL     1       1.570  -7.722  29.946  1.00  0.00     0.274 HD
ATOM     20  H32 UNL     1       2.705  -6.660  29.904  1.00  0.00     0.274 HD
ATOM     21  H31 UNL     1       1.136  -6.137  29.589  1.00  0.00     0.274 HD
ENDBRANCH  17  18
ENDBRANCH  16  17
ENDBRANCH  15  16
ENDBRANCH  13  15
ENDBRANCH   1  13
TORSDOF 8
ENDMDL
MODEL 2
REMARK VINA RESULT: -5.515459754      1.115      1.871
REMARK  8 active torsions:
REMARK  status: ('A' for Active; 'I' for Inactive)
REMARK    1  A    between atoms: C7_8  and  C8_9 
REMARK    2  A    between atoms: C8_9  and  O1_10 
REMARK    3  A    between atoms: O1_10  and  C9_11 
REMARK    4  A    between atoms: C9_11  and  N2_13 
REMARK    5  A    between atoms: N2_13  and  C10_15 
REMARK    6  A    between atoms: C10_15  and  C11_16 
REMARK    7  A    between atoms: C11_16  and  C12_17 
REMARK    8  A    between atoms: C12_17  and  N3_18 
ROOT
HETATM    1  C9  UNL     1      -0.328  -5.743  24.909  1.00  0.00     0.210 C 
HETATM    2  S1  UNL     1      -0.181  -5.337  23.337  1.00  0.00    -0.033 SA
ENDROOT
BRANCH   1   3
HETATM    3  O1  UNL     1      -1.427  -5.367  25.641  1.00  0.00    -0.327 OA
BRANCH   3   4
HETATM    4  C8  UNL     1      -1.359  -4.442  26.714  1.00  0.00     0.185 C 
BRANCH   4   5
HETATM    5  C7  UNL     1      -1.768  -5.185  27.964  1.00  0.00     0.051 A 
HETATM    6  C5  UNL     1      -1.902  -4.379  29.198  1.00  0.00     0.165 A 
HETATM    7  N1  UNL     1      -2.851  -4.649  30.230  1.00  0.00     0.094 N 
HETATM    8  C4  UNL     1      -1.717  -2.878  29.139  1.00  0.00     0.044 C 
HETATM    9  C6  UNL     1      -0.746  -5.284  29.032  1.00  0.00     0.051 A 
HETATM   10  C1  UNL     1      -2.124  -4.918  31.461  1.00  0.00     0.310 C 
HETATM   11  C2  UNL     1      -3.663  -3.455  30.365  1.00  0.00     0.273 C 
HETATM   12  C3  UNL     1      -2.682  -2.301  30.150  1.00  0.00     0.033 C 
ENDBRANCH   4   5
ENDBRANCH   3   4
ENDBRANCH   1   3
BRANCH   1  13
HETATM   13  N2  UNL     1       0.695  -6.498  25.539  1.00  0.00    -0.361 N 
ATOM     14  H2  UNL     1       0.563  -7.488  25.745  1.00  0.00     0.162 HD
BRANCH  13  15
HETATM   15  C10 UNL     1       1.913  -5.836  25.878  1.00  0.00     0.124 C 
BRANCH  15  16
HETATM   16  C11 UNL     1       2.387  -5.934  27.277  1.00  0.00     0.047 C 
BRANCH  16  17
HETATM   17  C12 UNL     1       2.159  -7.228  27.985  1.00  0.00     0.231 C 
BRANCH  17  18
HETATM   18  N3  UNL     1       2.103  -7.071  29.387  1.00  0.00    -0.079 N 
ATOM     19  H33 UNL     1       1.681  -7.887  29.832  1.00  0.00     0.274 HD
ATOM     20  H32 UNL     1       3.035  -7.123  29.800  1.00  0.00     0.274 HD
ATOM     21  H31 UNL     1       1.625  -6.213  29.665  1.00  0.00     0.274 HD
ENDBRANCH  17  18
ENDBRANCH  16  17
ENDBRANCH  15  16
ENDBRANCH  13  15
ENDBRANCH   1  13
TORSDOF 8
ENDMDL
MODEL 3
REMARK VINA RESULT: -5.442580476      7.192      8.843
REMARK  8 active torsions:
REMARK  status: ('A' for Active; 'I' for Inactive)
REMARK    1  A    between atoms: C7_8  and  C8_9 
REMARK    2  A    between atoms: C8_9  and  O1_10 
REMARK    3  A    between atoms: O1_10  and  C9_11 
REMARK    4  A    between atoms: C9_11  and  N2_13 
REMARK    5  A    between atoms: N2_13  and  C10_15 
REMARK    6  A    between atoms: C10_15  and  C11_16 
REMARK    7  A    between atoms: C11_16  and  C12_17 
REMARK    8  A    between atoms: C12_17  and  N3_18 
ROOT
HETATM    1  C9  UNL     1       0.027  -6.480  34.845  1.00  0.00     0.210 C 
HETATM    2  S1  UNL     1      -0.029  -6.785  33.245  1.00  0.00    -0.033 SA
ENDROOT
BRANCH   1   3
HETATM    3  O1  UNL     1       0.435  -7.441  35.739  1.00  0.00    -0.327 OA
BRANCH   3   4
HETATM    4  C8  UNL     1      -0.296  -8.632  35.978  1.00  0.00     0.185 C 
BRANCH   4   5
HETATM    5  C7  UNL     1       0.590  -9.784  35.564  1.00  0.00     0.051 A 
HETATM    6  C5  UNL     1       0.060 -10.681  34.513  1.00  0.00     0.165 A 
HETATM    7  N1  UNL     1       0.873 -11.338  33.540  1.00  0.00     0.094 N 
HETATM    8  C4  UNL     1      -1.264 -10.365  33.854  1.00  0.00     0.044 C 
HETATM    9  C6  UNL     1       0.109 -11.140  35.916  1.00  0.00     0.051 A 
HETATM   10  C1  UNL     1       0.708 -12.774  33.703  1.00  0.00     0.310 C 
HETATM   11  C2  UNL     1       0.388 -10.910  32.243  1.00  0.00     0.273 C 
HETATM   12  C3  UNL     1      -1.129 -10.813  32.416  1.00  0.00     0.033 C 
ENDBRANCH   4   5
ENDBRANCH   3   4
ENDBRANCH   1   3
BRANCH   1  13
HETATM   13  N2  UNL     1      -0.353  -5.203  35.333  1.00  0.00    -0.361 N 
ATOM     14  H2  UNL     1      -0.849  -4.541  34.736  1.00  0.00     0.162 HD
BRANCH  13  15
HETATM   15  C10 UNL     1      -0.023  -4.869  36.681  1.00  0.00     0.124 C 
BRANCH  15  16
HETATM   16  C11 UNL     1       1.143  -3.985  36.908  1.00  0.00     0.047 C 
BRANCH  16  17
HETATM   17  C12 UNL     1       1.655  -3.217  35.735  1.00  0.00     0.231 C 
BRANCH  17  18
HETATM   18  N3  UNL     1       1.216  -1.875  35.737  1.00  0.00    -0.079 N 
ATOM     19  H33 UNL     1       0.513  -1.719  36.460  1.00  0.00     0.274 HD
ATOM     20  H32 UNL     1       1.946  -1.250  36.082  1.00  0.00     0.274 HD
ATOM     21  H31 UNL     1       0.875  -1.574  34.824  1.00  0.00     0.274 HD
ENDBRANCH  17  18
ENDBRANCH  16  17
ENDBRANCH  15  16
ENDBRANCH  13  15
ENDBRANCH   1  13
TORSDOF 8
ENDMDL
MODEL 4
REMARK VINA RESULT: -5.383179095      2.395      4.062
REMARK  8 active torsions:
REMARK  status: ('A' for Active; 'I' for Inactive)
REMARK    1  A    between atoms: C7_8  and  C8_9 
REMARK    2  A    between atoms: C8_9  and  O1_10 
REMARK    3  A    between atoms: O1_10  and  C9_11 
REMARK    4  A    between atoms: C9_11  and  N2_13 
REMARK    5  A    between atoms: N2_13  and  C10_15 
REMARK    6  A    between atoms: C10_15  and  C11_16 
REMARK    7  A    between atoms: C11_16  and  C12_17 
REMARK    8  A    between atoms: C12_17  and  N3_18 
ROOT
HETATM    1  C9  UNL     1       0.776  -5.884  25.770  1.00  0.00     0.210 C 
HETATM    2  S1  UNL     1       2.168  -5.958  26.616  1.00  0.00    -0.033 SA
ENDROOT
BRANCH   1   3
HETATM    3  O1  UNL     1      -0.441  -6.034  26.388  1.00  0.00    -0.327 OA
BRANCH   3   4
HETATM    4  C8  UNL     1      -1.086  -4.982  27.086  1.00  0.00     0.185 C 
BRANCH   4   5
HETATM    5  C7  UNL     1      -1.454  -5.519  28.450  1.00  0.00     0.051 A 
HETATM    6  C5  UNL     1      -1.725  -4.515  29.504  1.00  0.00     0.165 A 
HETATM    7  N1  UNL     1      -2.675  -4.697  30.555  1.00  0.00     0.094 N 
HETATM    8  C4  UNL     1      -1.710  -3.042  29.160  1.00  0.00     0.044 C 
HETATM    9  C6  UNL     1      -0.469  -5.292  29.532  1.00  0.00     0.051 A 
HETATM   10  C1  UNL     1      -1.968  -4.640  31.824  1.00  0.00     0.310 C 
HETATM   11  C2  UNL     1      -3.622  -3.605  30.445  1.00  0.00     0.273 C 
HETATM   12  C3  UNL     1      -2.772  -2.403  30.027  1.00  0.00     0.033 C 
ENDBRANCH   4   5
ENDBRANCH   3   4
ENDBRANCH   1   3
BRANCH   1  13
HETATM   13  N2  UNL     1       0.815  -5.661  24.370  1.00  0.00    -0.361 N 
ATOM     14  H2  UNL     1       1.629  -5.231  23.930  1.00  0.00     0.162 HD
BRANCH  13  15
HETATM   15  C10 UNL     1      -0.315  -6.054  23.591  1.00  0.00     0.124 C 
BRANCH  15  16
HETATM   16  C11 UNL     1      -0.619  -5.273  22.370  1.00  0.00     0.047 C 
BRANCH  16  17
HETATM   17  C12 UNL     1      -1.772  -5.728  21.540  1.00  0.00     0.231 C 
BRANCH  17  18
HETATM   18  N3  UNL     1      -1.521  -5.606  20.156  1.00  0.00    -0.079 N 
ATOM     19  H33 UNL     1      -0.647  -5.107  19.984  1.00  0.00     0.274 HD
ATOM     20  H32 UNL     1      -1.278  -6.508  19.745  1.00  0.00     0.274 HD
ATOM     21  H31 UNL     1      -2.296  -5.171  19.656  1.00  0.00     0.274 HD
ENDBRANCH  17  18
ENDBRANCH  16  17
ENDBRANCH  15  16
ENDBRANCH  13  15
ENDBRANCH   1  13
TORSDOF 8
ENDMDL
MODEL 5
REMARK VINA RESULT: -5.317025857      4.937      7.362
REMARK  8 active torsions:
REMARK  status: ('A' for Active; 'I' for Inactive)
REMARK    1  A    between atoms: C7_8  and  C8_9 
REMARK    2  A    between atoms: C8_9  and  O1_10 
REMARK    3  A    between atoms: O1_10  and  C9_11 
REMARK    4  A    between atoms: C9_11  and  N2_13 
REMARK    5  A    between atoms: N2_13  and  C10_15 
REMARK    6  A    between atoms: C10_15  and  C11_16 
REMARK    7  A    between atoms: C11_16  and  C12_17 
REMARK    8  A    between atoms: C12_17  and  N3_18 
ROOT
HETATM    1  C9  UNL     1      -0.118  -6.624  35.026  1.00  0.00     0.210 C 
HETATM    2  S1  UNL     1      -0.436  -8.222  34.998  1.00  0.00    -0.033 SA
ENDROOT
BRANCH   1   3
HETATM    3  O1  UNL     1       0.455  -5.993  33.948  1.00  0.00    -0.327 OA
BRANCH   3   4
HETATM    4  C8  UNL     1      -0.265  -5.118  33.096  1.00  0.00     0.185 C 
BRANCH   4   5
HETATM    5  C7  UNL     1      -0.646  -5.913  31.868  1.00  0.00     0.051 A 
HETATM    6  C5  UNL     1      -1.574  -5.258  30.919  1.00  0.00     0.165 A 
HETATM    7  N1  UNL     1      -1.541  -5.455  29.505  1.00  0.00     0.094 N 
HETATM    8  C4  UNL     1      -2.018  -3.832  31.165  1.00  0.00     0.044 C 
HETATM    9  C6  UNL     1      -2.057  -6.353  31.785  1.00  0.00     0.051 A 
HETATM   10  C1  UNL     1      -2.816  -6.021  29.093  1.00  0.00     0.310 C 
HETATM   11  C2  UNL     1      -1.345  -4.146  28.913  1.00  0.00     0.273 C 
HETATM   12  C3  UNL     1      -2.160  -3.201  29.798  1.00  0.00     0.033 C 
ENDBRANCH   4   5
ENDBRANCH   3   4
ENDBRANCH   1   3
BRANCH   1  13
HETATM   13  N2  UNL     1      -0.436  -5.863  36.180  1.00  0.00    -0.361 N 
ATOM     14  H2  UNL     1      -1.404  -5.743  36.479  1.00  0.00     0.162 HD
BRANCH  13  15
HETATM   15  C10 UNL     1       0.635  -5.269  36.914  1.00  0.00     0.124 C 
BRANCH  15  16
HETATM   16  C11 UNL     1       0.732  -3.791  36.920  1.00  0.00     0.047 C 
BRANCH  16  17
HETATM   17  C12 UNL     1       1.522  -3.156  35.824  1.00  0.00     0.231 C 
BRANCH  17  18
HETATM   18  N3  UNL     1       1.217  -1.786  35.666  1.00  0.00    -0.079 N 
ATOM     19  H33 UNL     1       0.238  -1.599  35.885  1.00  0.00     0.274 HD
ATOM     20  H32 UNL     1       1.658  -1.225  36.396  1.00  0.00     0.274 HD
ATOM     21  H31 UNL     1       1.459  -1.438  34.738  1.00  0.00     0.274 HD
ENDBRANCH  17  18
ENDBRANCH  16  17
ENDBRANCH  15  16
ENDBRANCH  13  15
ENDBRANCH   1  13
TORSDOF 8
ENDMDL
