MODEL 1
REMARK VINA RESULT: -5.680974320      0.000      0.000
REMARK  7 active torsions:
REMARK  status: ('A' for Active; 'I' for Inactive)
REMARK    1  A    between atoms: C2_2  and  C4_4 
REMARK    2  A    between atoms: C4_4  and  N1_5 
REMARK    3  A    between atoms: N1_5  and  C5_7 
REMARK    4  A    between atoms: C5_7  and  N2_9 
REMARK    5  A    between atoms: N2_9  and  C6_11 
REMARK    6  A    between atoms: C6_11  and  C7_12 
REMARK    7  A    between atoms: C7_12  and  N3_13 
ROOT
HETATM    1  N2  UNL     1       0.643  -6.758  31.199  1.00  0.00    -0.366 N 
ATOM      2  H2  UNL     1       0.609  -7.775  31.267  1.00  0.00     0.161 HD
ENDROOT
BRANCH   1   3
HETATM    3  C5  UNL     1       0.273  -6.132  29.986  1.00  0.00     0.167 C 
HETATM    4  S1  UNL     1      -1.237  -5.550  29.811  1.00  0.00    -0.041 SA
BRANCH   3   5
HETATM    5  N1  UNL     1       1.194  -6.007  28.921  1.00  0.00    -0.367 N 
ATOM      6  H1  UNL     1       2.181  -6.211  29.079  1.00  0.00     0.161 HD
BRANCH   5   7
HETATM    7  C4  UNL     1       0.744  -5.593  27.611  1.00  0.00     0.126 C 
BRANCH   7   8
HETATM    8  C2  UNL     1       1.607  -6.187  26.512  1.00  0.00    -0.005 C 
HETATM    9  C1  UNL     1       2.914  -5.425  26.492  1.00  0.00     0.011 C 
HETATM   10  C3  UNL     1       0.919  -5.938  25.172  1.00  0.00     0.011 C 
ENDBRANCH   7   8
ENDBRANCH   5   7
ENDBRANCH   3   5
ENDBRANCH   1   3
BRANCH   1  11
HETATM   11  C6  UNL     1       1.060  -5.996  32.327  1.00  0.00     0.152 C 
BRANCH  11  12
HETATM   12  C7  UNL     1       0.080  -6.034  33.440  1.00  0.00     0.292 C 
BRANCH  12  13
HETATM   13  N3  UNL     1       0.353  -5.260  34.604  1.00  0.00     0.091 N 
HETATM   14  C8  UNL     1       0.272  -6.161  35.728  1.00  0.00     0.282 C 
HETATM   15  C9  UNL     1      -0.154  -5.475  37.010  1.00  0.00     0.104 C 
HETATM   16  S2  UNL     1       0.665  -3.845  37.004  1.00  0.00    -0.166 SA
HETATM   17  C10 UNL     1       2.062  -4.006  35.823  1.00  0.00     0.104 C 
HETATM   18  C11 UNL     1       1.529  -4.494  34.486  1.00  0.00     0.282 C 
ENDBRANCH  12  13
ENDBRANCH  11  12
ENDBRANCH   1  11
TORSDOF 7
ENDMDL
MODEL 2
REMARK VINA RESULT: -5.611343905      3.843      4.898
REMARK  7 active torsions:
REMARK  status: ('A' for Active; 'I' for Inactive)
REMARK    1  A    between atoms: C2_2  and  C4_4 
REMARK    2  A    between atoms: C4_4  and  N1_5 
REMARK    3  A    between atoms: N1_5  and  C5_7 
REMARK    4  A    between atoms: C5_7  and  N2_9 
REMARK    5  A    between atoms: N2_9  and  C6_11 
REMARK    6  A    between atoms: C6_11  and  C7_12 
REMARK    7  A    between atoms: C7_12  and  N3_13 
ROOT
HETATM    1  N2  UNL     1       1.038  -5.167  28.181  1.00  0.00    -0.366 N 
ATOM      2  H2  UNL     1       1.426  -4.306  28.568  1.00  0.00     0.161 HD
ENDROOT
BRANCH   1   3
HETATM    3  C5  UNL     1       1.561  -5.680  26.970  1.00  0.00     0.167 C 
HETATM    4  S1  UNL     1       3.154  -5.550  26.667  1.00  0.00    -0.041 SA
BRANCH   3   5
HETATM    5  N1  UNL     1       0.720  -6.300  26.020  1.00  0.00    -0.367 N 
ATOM      6  H1  UNL     1       0.034  -6.991  26.324  1.00  0.00     0.161 HD
BRANCH   5   7
HETATM    7  C4  UNL     1       0.826  -5.961  24.618  1.00  0.00     0.126 C 
BRANCH   7   8
HETATM    8  C2  UNL     1      -0.540  -5.870  23.961  1.00  0.00    -0.005 C 
HETATM    9  C1  UNL     1      -0.361  -5.187  22.623  1.00  0.00     0.011 C 
HETATM   10  C3  UNL     1      -1.426  -4.966  24.815  1.00  0.00     0.011 C 
ENDBRANCH   7   8
ENDBRANCH   5   7
ENDBRANCH   3   5
ENDBRANCH   1   3
BRANCH   1  11
HETATM   11  C6  UNL     1      -0.018  -5.828  28.869  1.00  0.00     0.152 C 
BRANCH  11  12
HETATM   12  C7  UNL     1      -1.349  -5.240  28.579  1.00  0.00     0.292 C 
BRANCH  12  13
HETATM   13  N3  UNL     1      -1.906  -4.335  29.527  1.00  0.00     0.091 N 
HETATM   14  C8  UNL     1      -1.295  -4.639  30.798  1.00  0.00     0.282 C 
HETATM   15  C9  UNL     1      -2.187  -4.319  31.978  1.00  0.00     0.104 C 
HETATM   16  S2  UNL     1      -3.052  -2.771  31.551  1.00  0.00    -0.166 SA
HETATM   17  C10 UNL     1      -2.039  -1.997  30.229  1.00  0.00     0.104 C 
HETATM   18  C11 UNL     1      -1.852  -2.994  29.098  1.00  0.00     0.282 C 
ENDBRANCH  12  13
ENDBRANCH  11  12
ENDBRANCH   1  11
TORSDOF 7
ENDMDL
MODEL 3
REMARK VINA RESULT: -5.605838296      2.358      7.429
REMARK  7 active torsions:
REMARK  status: ('A' for Active; 'I' for Inactive)
REMARK    1  A    between atoms: C2_2  and  C4_4 
REMARK    2  A    between atoms: C4_4  and  N1_5 
REMARK    3  A    between atoms: N1_5  and  C5_7 
REMARK    4  A    between atoms: C5_7  and  N2_9 
REMARK    5  A    between atoms: N2_9  and  C6_11 
REMARK    6  A    between atoms: C6_11  and  C7_12 
REMARK    7  A    between atoms: C7_12  and  N3_13 
ROOT
HETATM    1  N2  UNL     1      -1.324  -4.462  32.901  1.00  0.00    -0.366 N 
ATOM      2  H2  UNL     1      -1.707  -3.535  33.087  1.00  0.00     0.161 HD
ENDROOT
BRANCH   1   3
HETATM    3  C5  UNL     1      -0.254  -4.943  33.691  1.00  0.00     0.167 C 
HETATM    4  S1  UNL     1       1.116  -5.440  32.969  1.00  0.00    -0.041 SA
BRANCH   3   5
HETATM    5  N1  UNL     1      -0.359  -5.001  35.099  1.00  0.00    -0.367 N 
ATOM      6  H1  UNL     1      -1.032  -4.406  35.583  1.00  0.00     0.161 HD
BRANCH   5   7
HETATM    7  C4  UNL     1       0.482  -5.900  35.858  1.00  0.00     0.126 C 
BRANCH   7   8
HETATM    8  C2  UNL     1       1.258  -5.162  36.934  1.00  0.00    -0.005 C 
HETATM    9  C1  UNL     1       0.662  -3.778  37.063  1.00  0.00     0.011 C 
HETATM   10  C3  UNL     1       2.699  -4.992  36.457  1.00  0.00     0.011 C 
ENDBRANCH   7   8
ENDBRANCH   5   7
ENDBRANCH   3   5
ENDBRANCH   1   3
BRANCH   1  11
HETATM   11  C6  UNL     1      -1.879  -5.247  31.850  1.00  0.00     0.152 C 
BRANCH  11  12
HETATM   12  C7  UNL     1      -1.952  -4.513  30.563  1.00  0.00     0.292 C 
BRANCH  12  13
HETATM   13  N3  UNL     1      -1.004  -4.836  29.550  1.00  0.00     0.091 N 
HETATM   14  C8  UNL     1      -0.598  -6.201  29.783  1.00  0.00     0.282 C 
HETATM   15  C9  UNL     1       0.812  -6.490  29.312  1.00  0.00     0.104 C 
HETATM   16  S2  UNL     1       1.023  -5.564  27.755  1.00  0.00    -0.166 SA
HETATM   17  C10 UNL     1      -0.679  -5.222  27.157  1.00  0.00     0.104 C 
HETATM   18  C11 UNL     1      -1.460  -4.519  28.255  1.00  0.00     0.282 C 
ENDBRANCH  12  13
ENDBRANCH  11  12
ENDBRANCH   1  11
TORSDOF 7
ENDMDL
MODEL 4
REMARK VINA RESULT: -5.598988834      2.419      3.815
REMARK  7 active torsions:
REMARK  status: ('A' for Active; 'I' for Inactive)
REMARK    1  A    between atoms: C2_2  and  C4_4 
REMARK    2  A    between atoms: C4_4  and  N1_5 
REMARK    3  A    between atoms: N1_5  and  C5_7 
REMARK    4  A    between atoms: C5_7  and  N2_9 
REMARK    5  A    between atoms: N2_9  and  C6_11 
REMARK    6  A    between atoms: C6_11  and  C7_12 
REMARK    7  A    between atoms: C7_12  and  N3_13 
ROOT
HETATM    1  N2  UNL     1       1.272  -6.160  28.617  1.00  0.00    -0.366 N 
ATOM      2  H2  UNL     1       0.831  -5.400  29.135  1.00  0.00     0.161 HD
ENDROOT
BRANCH   1   3
HETATM    3  C5  UNL     1       1.571  -5.983  27.246  1.00  0.00     0.167 C 
HETATM    4  S1  UNL     1       3.005  -5.350  26.813  1.00  0.00    -0.041 SA
BRANCH   3   5
HETATM    5  N1  UNL     1       0.640  -6.346  26.246  1.00  0.00    -0.367 N 
ATOM      6  H1  UNL     1      -0.197  -6.871  26.499  1.00  0.00     0.161 HD
BRANCH   5   7
HETATM    7  C4  UNL     1       0.868  -5.976  24.867  1.00  0.00     0.126 C 
BRANCH   7   8
HETATM    8  C2  UNL     1      -0.436  -5.862  24.097  1.00  0.00    -0.005 C 
HETATM    9  C1  UNL     1      -0.130  -5.202  22.771  1.00  0.00     0.011 C 
HETATM   10  C3  UNL     1      -1.368  -4.926  24.864  1.00  0.00     0.011 C 
ENDBRANCH   7   8
ENDBRANCH   5   7
ENDBRANCH   3   5
ENDBRANCH   1   3
BRANCH   1  11
HETATM   11  C6  UNL     1       1.575  -7.378  29.289  1.00  0.00     0.152 C 
BRANCH  11  12
HETATM   12  C7  UNL     1       1.503  -7.252  30.766  1.00  0.00     0.292 C 
BRANCH  12  13
HETATM   13  N3  UNL     1       0.560  -6.339  31.318  1.00  0.00     0.091 N 
HETATM   14  C8  UNL     1      -0.668  -7.074  31.503  1.00  0.00     0.282 C 
HETATM   15  C9  UNL     1      -1.903  -6.203  31.405  1.00  0.00     0.104 C 
HETATM   16  S2  UNL     1      -1.471  -4.624  32.210  1.00  0.00    -0.166 SA
HETATM   17  C10 UNL     1      -0.026  -5.003  33.280  1.00  0.00     0.104 C 
HETATM   18  C11 UNL     1       1.062  -5.646  32.436  1.00  0.00     0.282 C 
ENDBRANCH  12  13
ENDBRANCH  11  12
ENDBRANCH   1  11
TORSDOF 7
ENDMDL
MODEL 5
REMARK VINA RESULT: -5.501541194      0.757      1.519
REMARK  7 active torsions:
REMARK  status: ('A' for Active; 'I' for Inactive)
REMARK    1  A    between atoms: C2_2  and  C4_4 
REMARK    2  A    between atoms: C4_4  and  N1_5 
REMARK    3  A    between atoms: N1_5  and  C5_7 
REMARK    4  A    between atoms: C5_7  and  N2_9 
REMARK    5  A    between atoms: N2_9  and  C6_11 
REMARK    6  A    between atoms: C6_11  and  C7_12 
REMARK    7  A    between atoms: C7_12  and  N3_13 
ROOT
HETATM    1  N2  UNL     1       0.971  -6.127  31.356  1.00  0.00    -0.366 N 
ATOM      2  H2  UNL     1       1.853  -5.661  31.569  1.00  0.00     0.161 HD
ENDROOT
BRANCH   1   3
HETATM    3  C5  UNL     1       0.436  -6.035  30.050  1.00  0.00     0.167 C 
HETATM    4  S1  UNL     1      -1.176  -5.935  29.849  1.00  0.00    -0.041 SA
BRANCH   3   5
HETATM    5  N1  UNL     1       1.280  -6.034  28.917  1.00  0.00    -0.367 N 
ATOM      6  H1  UNL     1       2.252  -6.327  29.009  1.00  0.00     0.161 HD
BRANCH   5   7
HETATM    7  C4  UNL     1       0.772  -5.618  27.628  1.00  0.00     0.126 C 
BRANCH   7   8
HETATM    8  C2  UNL     1       1.603  -6.186  26.492  1.00  0.00    -0.005 C 
HETATM    9  C1  UNL     1       2.919  -5.441  26.468  1.00  0.00     0.011 C 
HETATM   10  C3  UNL     1       0.889  -5.884  25.176  1.00  0.00     0.011 C 
ENDBRANCH   7   8
ENDBRANCH   5   7
ENDBRANCH   3   5
ENDBRANCH   1   3
BRANCH   1  11
HETATM   11  C6  UNL     1       0.303  -6.857  32.380  1.00  0.00     0.152 C 
BRANCH  11  12
HETATM   12  C7  UNL     1      -0.231  -5.982  33.453  1.00  0.00     0.292 C 
BRANCH  12  13
HETATM   13  N3  UNL     1       0.615  -5.679  34.558  1.00  0.00     0.091 N 
HETATM   14  C8  UNL     1       1.085  -4.329  34.361  1.00  0.00     0.282 C 
HETATM   15  C9  UNL     1       2.446  -4.079  34.975  1.00  0.00     0.104 C 
HETATM   16  S2  UNL     1       2.465  -4.997  36.551  1.00  0.00    -0.166 SA
HETATM   17  C10 UNL     1       0.699  -5.282  36.969  1.00  0.00     0.104 C 
HETATM   18  C11 UNL     1       0.016  -5.970  35.799  1.00  0.00     0.282 C 
ENDBRANCH  12  13
ENDBRANCH  11  12
ENDBRANCH   1  11
TORSDOF 7
ENDMDL
