MODEL 1
REMARK VINA RESULT: -5.764691806      0.000      0.000
REMARK  8 active torsions:
REMARK  status: ('A' for Active; 'I' for Inactive)
REMARK    1  A    between atoms: N1_2  and  O1_4 
REMARK    2  A    between atoms: O1_4  and  C3_5 
REMARK    3  A    between atoms: C3_5  and  C4_6 
REMARK    4  A    between atoms: C3_5  and  C5_11 
REMARK    5  A    between atoms: C4_6  and  N2_7 
REMARK    6  A    between atoms: C5_11  and  N3_12 
REMARK    7  A    between atoms: N3_12  and  C6_14 
REMARK    8  A    between atoms: C6_14  and  N4_16 
ROOT
HETATM    1  C5  UNL     1       0.045  -5.957  33.894  1.00  0.00     0.158 C 
ENDROOT
BRANCH   1   2
HETATM    2  C3  UNL     1       0.114  -5.859  35.402  1.00  0.00     0.195 C 
BRANCH   2   3
HETATM    3  O1  UNL     1       1.437  -5.578  35.732  1.00  0.00    -0.275 OA
BRANCH   3   4
HETATM    4  N1  UNL     1       1.658  -4.375  36.184  1.00  0.00    -0.302 N 
HETATM    5  C1  UNL     1       2.442  -3.491  35.421  1.00  0.00     0.178 C 
HETATM    6  C2  UNL     1       0.725  -3.819  37.082  1.00  0.00     0.178 C 
ENDBRANCH   3   4
ENDBRANCH   2   3
BRANCH   2   7
HETATM    7  C4  UNL     1      -0.275  -7.249  35.925  1.00  0.00     0.265 C 
BRANCH   7   8
HETATM    8  N2  UNL     1      -1.178  -7.133  37.052  1.00  0.00    -0.077 N 
ATOM      9  H23 UNL     1      -1.112  -6.218  37.497  1.00  0.00     0.274 HD
ATOM     10  H22 UNL     1      -2.152  -7.088  36.754  1.00  0.00     0.274 HD
ATOM     11  H21 UNL     1      -1.019  -7.890  37.716  1.00  0.00     0.274 HD
ENDBRANCH   7   8
ENDBRANCH   2   7
ENDBRANCH   1   2
BRANCH   1  12
HETATM   12  N3  UNL     1      -0.904  -5.004  33.404  1.00  0.00    -0.365 N 
ATOM     13  H3  UNL     1      -1.067  -4.153  33.942  1.00  0.00     0.162 HD
BRANCH  12  14
HETATM   14  C6  UNL     1      -1.632  -5.199  32.193  1.00  0.00     0.169 C 
HETATM   15  S1  UNL     1      -2.074  -6.735  31.851  1.00  0.00    -0.041 SA
BRANCH  14  16
HETATM   16  N4  UNL     1      -1.957  -4.117  31.325  1.00  0.00    -0.358 N 
HETATM   17  C7  UNL     1      -2.783  -3.068  31.833  1.00  0.00     0.125 C 
HETATM   18  C8  UNL     1      -2.514  -1.715  31.256  1.00  0.00     0.020 C 
HETATM   19  C9  UNL     1      -1.822  -1.754  29.921  1.00  0.00     0.003 C 
HETATM   20  C10 UNL     1      -2.082  -3.049  29.181  1.00  0.00     0.020 C 
HETATM   21  C11 UNL     1      -1.426  -4.153  29.977  1.00  0.00     0.125 C 
ENDBRANCH  14  16
ENDBRANCH  12  14
ENDBRANCH   1  12
TORSDOF 8
ENDMDL
MODEL 2
REMARK VINA RESULT: -5.555645984      4.009      6.359
REMARK  8 active torsions:
REMARK  status: ('A' for Active; 'I' for Inactive)
REMARK    1  A    between atoms: N1_2  and  O1_4 
REMARK    2  A    between atoms: O1_4  and  C3_5 
REMARK    3  A    between atoms: C3_5  and  C4_6 
REMARK    4  A    between atoms: C3_5  and  C5_11 
REMARK    5  A    between atoms: C4_6  and  N2_7 
REMARK    6  A    between atoms: C5_11  and  N3_12 
REMARK    7  A    between atoms: N3_12  and  C6_14 
REMARK    8  A    between atoms: C6_14  and  N4_16 
ROOT
HETATM    1  C5  UNL     1      -1.650  -3.180  28.877  1.00  0.00     0.158 C 
ENDROOT
BRANCH   1   2
HETATM    2  C3  UNL     1      -2.082  -3.178  30.326  1.00  0.00     0.195 C 
BRANCH   2   3
HETATM    3  O1  UNL     1      -2.683  -4.410  30.573  1.00  0.00    -0.275 OA
BRANCH   3   4
HETATM    4  N1  UNL     1      -2.181  -5.088  31.568  1.00  0.00    -0.302 N 
HETATM    5  C1  UNL     1      -2.148  -6.492  31.490  1.00  0.00     0.178 C 
HETATM    6  C2  UNL     1      -1.234  -4.454  32.397  1.00  0.00     0.178 C 
ENDBRANCH   3   4
ENDBRANCH   2   3
BRANCH   2   7
HETATM    7  C4  UNL     1      -3.120  -2.054  30.447  1.00  0.00     0.265 C 
BRANCH   7   8
HETATM    8  N2  UNL     1      -2.491  -0.829  30.897  1.00  0.00    -0.077 N 
ATOM      9  H23 UNL     1      -2.831  -0.017  30.382  1.00  0.00     0.274 HD
ATOM     10  H22 UNL     1      -2.806  -0.562  31.829  1.00  0.00     0.274 HD
ATOM     11  H21 UNL     1      -1.475  -0.910  30.849  1.00  0.00     0.274 HD
ENDBRANCH   7   8
ENDBRANCH   2   7
ENDBRANCH   1   2
BRANCH   1  12
HETATM   12  N3  UNL     1      -1.734  -4.514  28.363  1.00  0.00    -0.365 N 
ATOM     13  H3  UNL     1      -2.629  -5.001  28.409  1.00  0.00     0.162 HD
BRANCH  12  14
HETATM   14  C6  UNL     1      -0.615  -5.188  27.789  1.00  0.00     0.169 C 
HETATM   15  S1  UNL     1       0.566  -5.643  28.824  1.00  0.00    -0.041 SA
BRANCH  14  16
HETATM   16  N4  UNL     1      -0.528  -5.451  26.392  1.00  0.00    -0.358 N 
HETATM   17  C7  UNL     1      -1.711  -5.317  25.604  1.00  0.00     0.125 C 
HETATM   18  C8  UNL     1      -1.484  -4.880  24.192  1.00  0.00     0.020 C 
HETATM   19  C9  UNL     1      -0.091  -5.149  23.692  1.00  0.00     0.003 C 
HETATM   20  C10 UNL     1       0.570  -6.292  24.432  1.00  0.00     0.020 C 
HETATM   21  C11 UNL     1       0.764  -5.840  25.861  1.00  0.00     0.125 C 
ENDBRANCH  14  16
ENDBRANCH  12  14
ENDBRANCH   1  12
TORSDOF 8
ENDMDL
MODEL 3
REMARK VINA RESULT: -5.532689276      4.598      6.154
REMARK  8 active torsions:
REMARK  status: ('A' for Active; 'I' for Inactive)
REMARK    1  A    between atoms: N1_2  and  O1_4 
REMARK    2  A    between atoms: O1_4  and  C3_5 
REMARK    3  A    between atoms: C3_5  and  C4_6 
REMARK    4  A    between atoms: C3_5  and  C5_11 
REMARK    5  A    between atoms: C4_6  and  N2_7 
REMARK    6  A    between atoms: C5_11  and  N3_12 
REMARK    7  A    between atoms: N3_12  and  C6_14 
REMARK    8  A    between atoms: C6_14  and  N4_16 
ROOT
HETATM    1  C5  UNL     1       1.422  -6.996  29.212  1.00  0.00     0.158 C 
ENDROOT
BRANCH   1   2
HETATM    2  C3  UNL     1       0.443  -7.037  30.364  1.00  0.00     0.195 C 
BRANCH   2   3
HETATM    3  O1  UNL     1      -0.165  -5.786  30.424  1.00  0.00    -0.275 OA
BRANCH   3   4
HETATM    4  N1  UNL     1      -1.415  -5.789  30.798  1.00  0.00    -0.302 N 
HETATM    5  C1  UNL     1      -1.795  -5.034  31.922  1.00  0.00     0.178 C 
HETATM    6  C2  UNL     1      -2.400  -6.062  29.827  1.00  0.00     0.178 C 
ENDBRANCH   3   4
ENDBRANCH   2   3
BRANCH   2   7
HETATM    7  C4  UNL     1       1.293  -7.269  31.621  1.00  0.00     0.265 C 
BRANCH   7   8
HETATM    8  N2  UNL     1       1.857  -6.019  32.090  1.00  0.00    -0.077 N 
ATOM      9  H23 UNL     1       2.607  -5.691  31.482  1.00  0.00     0.274 HD
ATOM     10  H22 UNL     1       1.210  -5.242  31.967  1.00  0.00     0.274 HD
ATOM     11  H21 UNL     1       2.165  -6.108  33.058  1.00  0.00     0.274 HD
ENDBRANCH   7   8
ENDBRANCH   2   7
ENDBRANCH   1   2
BRANCH   1  12
HETATM   12  N3  UNL     1       1.224  -5.789  28.469  1.00  0.00    -0.365 N 
ATOM     13  H3  UNL     1       0.832  -4.978  28.947  1.00  0.00     0.162 HD
BRANCH  12  14
HETATM   14  C6  UNL     1       1.552  -5.676  27.085  1.00  0.00     0.169 C 
HETATM   15  S1  UNL     1       3.138  -5.509  26.727  1.00  0.00    -0.041 SA
BRANCH  14  16
HETATM   16  N4  UNL     1       0.555  -5.707  26.068  1.00  0.00    -0.358 N 
HETATM   17  C7  UNL     1      -0.805  -5.490  26.448  1.00  0.00     0.125 C 
HETATM   18  C8  UNL     1      -1.651  -4.821  25.412  1.00  0.00     0.020 C 
HETATM   19  C9  UNL     1      -1.114  -4.955  24.013  1.00  0.00     0.003 C 
HETATM   20  C10 UNL     1      -0.237  -6.178  23.853  1.00  0.00     0.020 C 
HETATM   21  C11 UNL     1       0.989  -5.957  24.708  1.00  0.00     0.125 C 
ENDBRANCH  14  16
ENDBRANCH  12  14
ENDBRANCH   1  12
TORSDOF 8
ENDMDL
MODEL 4
REMARK VINA RESULT: -5.517597881      3.920      5.007
REMARK  8 active torsions:
REMARK  status: ('A' for Active; 'I' for Inactive)
REMARK    1  A    between atoms: N1_2  and  O1_4 
REMARK    2  A    between atoms: O1_4  and  C3_5 
REMARK    3  A    between atoms: C3_5  and  C4_6 
REMARK    4  A    between atoms: C3_5  and  C5_11 
REMARK    5  A    between atoms: C4_6  and  N2_7 
REMARK    6  A    between atoms: C5_11  and  N3_12 
REMARK    7  A    between atoms: N3_12  and  C6_14 
REMARK    8  A    between atoms: C6_14  and  N4_16 
ROOT
HETATM    1  C5  UNL     1       0.767  -6.936  29.721  1.00  0.00     0.158 C 
ENDROOT
BRANCH   1   2
HETATM    2  C3  UNL     1       0.318  -6.880  31.164  1.00  0.00     0.195 C 
BRANCH   2   3
HETATM    3  O1  UNL     1       1.119  -5.938  31.803  1.00  0.00    -0.275 OA
BRANCH   3   4
HETATM    4  N1  UNL     1       0.602  -5.395  32.871  1.00  0.00    -0.302 N 
HETATM    5  C1  UNL     1       1.458  -4.922  33.880  1.00  0.00     0.178 C 
HETATM    6  C2  UNL     1      -0.679  -4.814  32.770  1.00  0.00     0.178 C 
ENDBRANCH   3   4
ENDBRANCH   2   3
BRANCH   2   7
HETATM    7  C4  UNL     1       0.593  -8.278  31.737  1.00  0.00     0.265 C 
BRANCH   7   8
HETATM    8  N2  UNL     1      -0.065  -9.292  30.938  1.00  0.00    -0.077 N 
ATOM      9  H23 UNL     1      -0.153  -9.008  29.963  1.00  0.00     0.274 HD
ATOM     10  H22 UNL     1       0.527 -10.112  30.805  1.00  0.00     0.274 HD
ATOM     11  H21 UNL     1      -0.967  -9.537  31.345  1.00  0.00     0.274 HD
ENDBRANCH   7   8
ENDBRANCH   2   7
ENDBRANCH   1   2
BRANCH   1  12
HETATM   12  N3  UNL     1       0.774  -5.611  29.180  1.00  0.00    -0.365 N 
ATOM     13  H3  UNL     1       1.556  -4.994  29.403  1.00  0.00     0.162 HD
BRANCH  12  14
HETATM   14  C6  UNL     1      -0.269  -5.118  28.341  1.00  0.00     0.169 C 
HETATM   15  S1  UNL     1      -1.405  -4.192  29.066  1.00  0.00    -0.041 SA
BRANCH  14  16
HETATM   16  N4  UNL     1      -0.322  -5.415  26.949  1.00  0.00    -0.358 N 
HETATM   17  C7  UNL     1      -1.595  -5.386  26.300  1.00  0.00     0.125 C 
HETATM   18  C8  UNL     1      -1.562  -4.974  24.863  1.00  0.00     0.020 C 
HETATM   19  C9  UNL     1      -0.219  -5.159  24.211  1.00  0.00     0.003 C 
HETATM   20  C10 UNL     1       0.603  -6.232  24.892  1.00  0.00     0.020 C 
HETATM   21  C11 UNL     1       0.925  -5.728  26.280  1.00  0.00     0.125 C 
ENDBRANCH  14  16
ENDBRANCH  12  14
ENDBRANCH   1  12
TORSDOF 8
ENDMDL
MODEL 5
REMARK VINA RESULT: -5.461852491      3.824      4.886
REMARK  8 active torsions:
REMARK  status: ('A' for Active; 'I' for Inactive)
REMARK    1  A    between atoms: N1_2  and  O1_4 
REMARK    2  A    between atoms: O1_4  and  C3_5 
REMARK    3  A    between atoms: C3_5  and  C4_6 
REMARK    4  A    between atoms: C3_5  and  C5_11 
REMARK    5  A    between atoms: C4_6  and  N2_7 
REMARK    6  A    between atoms: C5_11  and  N3_12 
REMARK    7  A    between atoms: N3_12  and  C6_14 
REMARK    8  A    between atoms: C6_14  and  N4_16 
ROOT
HETATM    1  C5  UNL     1       1.143  -7.054  30.166  1.00  0.00     0.158 C 
ENDROOT
BRANCH   1   2
HETATM    2  C3  UNL     1       0.677  -7.096  31.604  1.00  0.00     0.195 C 
BRANCH   2   3
HETATM    3  O1  UNL     1       1.639  -6.435  32.364  1.00  0.00    -0.275 OA
BRANCH   3   4
HETATM    4  N1  UNL     1       1.214  -5.390  33.019  1.00  0.00    -0.302 N 
HETATM    5  C1  UNL     1      -0.162  -5.101  33.026  1.00  0.00     0.178 C 
HETATM    6  C2  UNL     1       1.991  -4.917  34.096  1.00  0.00     0.178 C 
ENDBRANCH   3   4
ENDBRANCH   2   3
BRANCH   2   7
HETATM    7  C4  UNL     1       0.639  -8.583  31.984  1.00  0.00     0.265 C 
BRANCH   7   8
HETATM    8  N2  UNL     1      -0.051  -9.349  30.966  1.00  0.00    -0.077 N 
ATOM      9  H23 UNL     1       0.585  -9.962  30.456  1.00  0.00     0.274 HD
ATOM     10  H22 UNL     1      -0.656 -10.062  31.372  1.00  0.00     0.274 HD
ATOM     11  H21 UNL     1      -0.564  -8.729  30.338  1.00  0.00     0.274 HD
ENDBRANCH   7   8
ENDBRANCH   2   7
ENDBRANCH   1   2
BRANCH   1  12
HETATM   12  N3  UNL     1       0.819  -5.778  29.605  1.00  0.00    -0.365 N 
ATOM     13  H3  UNL     1       1.397  -4.973  29.849  1.00  0.00     0.162 HD
BRANCH  12  14
HETATM   14  C6  UNL     1      -0.280  -5.586  28.716  1.00  0.00     0.169 C 
HETATM   15  S1  UNL     1      -1.764  -5.527  29.401  1.00  0.00    -0.041 SA
BRANCH  14  16
HETATM   16  N4  UNL     1      -0.100  -5.454  27.309  1.00  0.00    -0.358 N 
HETATM   17  C7  UNL     1       1.231  -5.473  26.794  1.00  0.00     0.125 C 
HETATM   18  C8  UNL     1       1.371  -6.054  25.423  1.00  0.00     0.020 C 
HETATM   19  C9  UNL     1       0.094  -6.040  24.628  1.00  0.00     0.003 C 
HETATM   20  C10 UNL     1      -0.853  -4.953  25.088  1.00  0.00     0.020 C 
HETATM   21  C11 UNL     1      -1.288  -5.309  26.490  1.00  0.00     0.125 C 
ENDBRANCH  14  16
ENDBRANCH  12  14
ENDBRANCH   1  12
TORSDOF 8
ENDMDL
