MODEL 1
REMARK VINA RESULT: -5.761917171      0.000      0.000
REMARK  7 active torsions:
REMARK  status: ('A' for Active; 'I' for Inactive)
REMARK    1  A    between atoms: C2_2  and  C3_3 
REMARK    2  A    between atoms: C3_3  and  O1_5 
REMARK    3  A    between atoms: C3_3  and  C5_7 
REMARK    4  A    between atoms: C5_7  and  N1_9 
REMARK    5  A    between atoms: N1_9  and  C7_11 
REMARK    6  A    between atoms: C7_11  and  C8_13 
REMARK    7  A    between atoms: C8_13  and  N2_14 
ROOT
HETATM    1  N1  UNL     1       0.147  -4.067  33.710  1.00  0.00    -0.376 N 
ATOM      2  H1  UNL     1       0.181  -3.048  33.727  1.00  0.00     0.160 HD
ENDROOT
BRANCH   1   3
HETATM    3  C5  UNL     1       1.045  -4.804  34.580  1.00  0.00     0.112 C 
HETATM    4  C6  UNL     1       2.470  -4.837  34.054  1.00  0.00     0.035 C 
BRANCH   3   5
HETATM    5  C3  UNL     1       1.124  -4.164  35.951  1.00  0.00     0.074 C 
HETATM    6  C4  UNL     1       2.462  -4.541  36.552  1.00  0.00     0.048 C 
BRANCH   5   7
HETATM    7  C2  UNL     1      -0.019  -4.580  36.836  1.00  0.00     0.035 C 
HETATM    8  C1  UNL     1      -0.177  -6.079  36.733  1.00  0.00     0.008 C 
ENDBRANCH   5   7
BRANCH   5   9
HETATM    9  O1  UNL     1       1.058  -2.783  35.778  1.00  0.00    -0.388 OA
ATOM     10  H1  UNL     1       1.214  -2.593  34.861  1.00  0.00     0.210 HD
ENDBRANCH   5   9
ENDBRANCH   3   5
ENDBRANCH   1   3
BRANCH   1  11
HETATM   11  C7  UNL     1      -0.774  -4.695  32.837  1.00  0.00     0.102 C 
HETATM   12  S1  UNL     1      -1.794  -3.797  31.933  1.00  0.00    -0.064 SA
BRANCH  11  13
HETATM   13  C8  UNL     1      -0.835  -6.168  32.702  1.00  0.00     0.341 C 
BRANCH  13  14
HETATM   14  N2  UNL     1      -0.589  -6.608  31.320  1.00  0.00     0.099 N 
HETATM   15  C9  UNL     1       0.831  -6.461  31.101  1.00  0.00     0.299 C 
HETATM   16  C10 UNL     1       1.443  -7.383  30.120  1.00  0.00     0.198 C 
HETATM   17  O2  UNL     1       0.732  -8.511  29.811  1.00  0.00    -0.388 OA
HETATM   18  C11 UNL     1       0.128  -8.943  31.006  1.00  0.00     0.198 C 
HETATM   19  C12 UNL     1      -1.019  -7.986  31.254  1.00  0.00     0.299 C 
ENDBRANCH  13  14
ENDBRANCH  11  13
ENDBRANCH   1  11
TORSDOF 7
ENDMDL
MODEL 2
REMARK VINA RESULT: -5.427109822      3.649      5.403
REMARK  7 active torsions:
REMARK  status: ('A' for Active; 'I' for Inactive)
REMARK    1  A    between atoms: C2_2  and  C3_3 
REMARK    2  A    between atoms: C3_3  and  O1_5 
REMARK    3  A    between atoms: C3_3  and  C5_7 
REMARK    4  A    between atoms: C5_7  and  N1_9 
REMARK    5  A    between atoms: N1_9  and  C7_11 
REMARK    6  A    between atoms: C7_11  and  C8_13 
REMARK    7  A    between atoms: C8_13  and  N2_14 
ROOT
HETATM    1  N1  UNL     1      -1.122  -6.897  29.912  1.00  0.00    -0.376 N 
ATOM      2  H1  UNL     1      -1.598  -7.586  29.329  1.00  0.00     0.160 HD
ENDROOT
BRANCH   1   3
HETATM    3  C5  UNL     1      -0.667  -7.302  31.229  1.00  0.00     0.112 C 
HETATM    4  C6  UNL     1      -1.709  -8.110  31.984  1.00  0.00     0.035 C 
BRANCH   3   5
HETATM    5  C3  UNL     1       0.558  -8.190  31.135  1.00  0.00     0.074 C 
HETATM    6  C4  UNL     1       0.427  -9.258  32.200  1.00  0.00     0.048 C 
BRANCH   5   7
HETATM    7  C2  UNL     1       1.835  -7.410  31.283  1.00  0.00     0.035 C 
HETATM    8  C1  UNL     1       1.564  -6.224  32.178  1.00  0.00     0.008 C 
ENDBRANCH   5   7
BRANCH   5   9
HETATM    9  O1  UNL     1       0.554  -8.781  29.873  1.00  0.00    -0.388 OA
ATOM     10  H1  UNL     1      -0.181  -9.380  29.830  1.00  0.00     0.210 HD
ENDBRANCH   5   9
ENDBRANCH   3   5
ENDBRANCH   1   3
BRANCH   1  11
HETATM   11  C7  UNL     1      -0.939  -5.590  29.398  1.00  0.00     0.102 C 
HETATM   12  S1  UNL     1      -2.098  -4.459  29.596  1.00  0.00    -0.064 SA
BRANCH  11  13
HETATM   13  C8  UNL     1       0.301  -5.203  28.686  1.00  0.00     0.341 C 
BRANCH  13  14
HETATM   14  N2  UNL     1       0.618  -6.125  27.586  1.00  0.00     0.099 N 
HETATM   15  C9  UNL     1       0.083  -5.519  26.389  1.00  0.00     0.299 C 
HETATM   16  C10 UNL     1       0.775  -5.843  25.123  1.00  0.00     0.198 C 
HETATM   17  O2  UNL     1       2.045  -6.341  25.227  1.00  0.00    -0.388 OA
HETATM   18  C11 UNL     1       2.659  -5.652  26.290  1.00  0.00     0.198 C 
HETATM   19  C12 UNL     1       2.059  -6.232  27.555  1.00  0.00     0.299 C 
ENDBRANCH  13  14
ENDBRANCH  11  13
ENDBRANCH   1  11
TORSDOF 7
ENDMDL
MODEL 3
REMARK VINA RESULT: -5.402923714      2.276      2.529
REMARK  7 active torsions:
REMARK  status: ('A' for Active; 'I' for Inactive)
REMARK    1  A    between atoms: C2_2  and  C3_3 
REMARK    2  A    between atoms: C3_3  and  O1_5 
REMARK    3  A    between atoms: C3_3  and  C5_7 
REMARK    4  A    between atoms: C5_7  and  N1_9 
REMARK    5  A    between atoms: N1_9  and  C7_11 
REMARK    6  A    between atoms: C7_11  and  C8_13 
REMARK    7  A    between atoms: C8_13  and  N2_14 
ROOT
HETATM    1  N1  UNL     1      -0.789  -4.989  33.484  1.00  0.00    -0.376 N 
ATOM      2  H1  UNL     1      -1.326  -4.258  33.951  1.00  0.00     0.160 HD
ENDROOT
BRANCH   1   3
HETATM    3  C5  UNL     1       0.455  -5.426  34.090  1.00  0.00     0.112 C 
HETATM    4  C6  UNL     1       1.593  -5.514  33.087  1.00  0.00     0.035 C 
BRANCH   3   5
HETATM    5  C3  UNL     1       0.917  -4.452  35.156  1.00  0.00     0.074 C 
HETATM    6  C4  UNL     1       2.370  -4.758  35.452  1.00  0.00     0.048 C 
BRANCH   5   7
HETATM    7  C2  UNL     1       0.069  -4.527  36.396  1.00  0.00     0.035 C 
HETATM    8  C1  UNL     1      -0.013  -5.973  36.825  1.00  0.00     0.008 C 
ENDBRANCH   5   7
BRANCH   5   9
HETATM    9  O1  UNL     1       0.804  -3.167  34.631  1.00  0.00    -0.388 OA
ATOM     10  H1  UNL     1       1.664  -2.891  34.338  1.00  0.00     0.210 HD
ENDBRANCH   5   9
ENDBRANCH   3   5
ENDBRANCH   1   3
BRANCH   1  11
HETATM   11  C7  UNL     1      -1.293  -5.527  32.276  1.00  0.00     0.102 C 
HETATM   12  S1  UNL     1      -1.964  -7.015  32.256  1.00  0.00    -0.064 SA
BRANCH  11  13
HETATM   13  C8  UNL     1      -1.246  -4.766  31.007  1.00  0.00     0.341 C 
BRANCH  13  14
HETATM   14  N2  UNL     1      -1.197  -5.649  29.833  1.00  0.00     0.099 N 
HETATM   15  C9  UNL     1      -1.859  -4.935  28.767  1.00  0.00     0.299 C 
HETATM   16  C10 UNL     1      -1.413  -5.246  27.391  1.00  0.00     0.198 C 
HETATM   17  O2  UNL     1      -0.194  -5.856  27.265  1.00  0.00    -0.388 OA
HETATM   18  C11 UNL     1       0.644  -5.282  28.239  1.00  0.00     0.198 C 
HETATM   19  C12 UNL     1       0.204  -5.877  29.560  1.00  0.00     0.299 C 
ENDBRANCH  13  14
ENDBRANCH  11  13
ENDBRANCH   1  11
TORSDOF 7
ENDMDL
MODEL 4
REMARK VINA RESULT: -5.379106838      2.739      5.859
REMARK  7 active torsions:
REMARK  status: ('A' for Active; 'I' for Inactive)
REMARK    1  A    between atoms: C2_2  and  C3_3 
REMARK    2  A    between atoms: C3_3  and  O1_5 
REMARK    3  A    between atoms: C3_3  and  C5_7 
REMARK    4  A    between atoms: C5_7  and  N1_9 
REMARK    5  A    between atoms: N1_9  and  C7_11 
REMARK    6  A    between atoms: C7_11  and  C8_13 
REMARK    7  A    between atoms: C8_13  and  N2_14 
ROOT
HETATM    1  N1  UNL     1      -1.665  -5.332  32.471  1.00  0.00    -0.376 N 
ATOM      2  H1  UNL     1      -2.556  -5.228  32.958  1.00  0.00     0.160 HD
ENDROOT
BRANCH   1   3
HETATM    3  C5  UNL     1      -1.396  -4.475  31.332  1.00  0.00     0.112 C 
HETATM    4  C6  UNL     1      -1.072  -5.263  30.073  1.00  0.00     0.035 C 
BRANCH   3   5
HETATM    5  C3  UNL     1      -2.604  -3.626  30.990  1.00  0.00     0.074 C 
HETATM    6  C4  UNL     1      -3.649  -4.542  30.390  1.00  0.00     0.048 C 
BRANCH   5   7
HETATM    7  C2  UNL     1      -2.256  -2.496  30.060  1.00  0.00     0.035 C 
HETATM    8  C1  UNL     1      -2.395  -1.198  30.821  1.00  0.00     0.008 C 
ENDBRANCH   5   7
BRANCH   5   9
HETATM    9  O1  UNL     1      -3.084  -3.078  32.177  1.00  0.00    -0.388 OA
ATOM     10  H1  UNL     1      -3.928  -3.471  32.363  1.00  0.00     0.210 HD
ENDBRANCH   5   9
ENDBRANCH   3   5
ENDBRANCH   1   3
BRANCH   1  11
HETATM   11  C7  UNL     1      -0.750  -6.305  32.941  1.00  0.00     0.102 C 
HETATM   12  S1  UNL     1      -1.126  -7.891  32.864  1.00  0.00    -0.064 SA
BRANCH  11  13
HETATM   13  C8  UNL     1       0.569  -5.927  33.497  1.00  0.00     0.341 C 
BRANCH  13  14
HETATM   14  N2  UNL     1       0.455  -4.903  34.546  1.00  0.00     0.099 N 
HETATM   15  C9  UNL     1      -0.022  -5.589  35.724  1.00  0.00     0.299 C 
HETATM   16  C10 UNL     1       0.375  -5.011  37.026  1.00  0.00     0.198 C 
HETATM   17  O2  UNL     1       1.441  -4.154  37.018  1.00  0.00    -0.388 OA
HETATM   18  C11 UNL     1       2.362  -4.670  36.086  1.00  0.00     0.198 C 
HETATM   19  C12 UNL     1       1.782  -4.359  34.722  1.00  0.00     0.299 C 
ENDBRANCH  13  14
ENDBRANCH  11  13
ENDBRANCH   1  11
TORSDOF 7
ENDMDL
MODEL 5
REMARK VINA RESULT: -5.364633715      3.081      6.827
REMARK  7 active torsions:
REMARK  status: ('A' for Active; 'I' for Inactive)
REMARK    1  A    between atoms: C2_2  and  C3_3 
REMARK    2  A    between atoms: C3_3  and  O1_5 
REMARK    3  A    between atoms: C3_3  and  C5_7 
REMARK    4  A    between atoms: C5_7  and  N1_9 
REMARK    5  A    between atoms: N1_9  and  C7_11 
REMARK    6  A    between atoms: C7_11  and  C8_13 
REMARK    7  A    between atoms: C8_13  and  N2_14 
ROOT
HETATM    1  N1  UNL     1       0.786  -5.704  29.667  1.00  0.00    -0.376 N 
ATOM      2  H1  UNL     1       1.625  -5.124  29.690  1.00  0.00     0.160 HD
ENDROOT
BRANCH   1   3
HETATM    3  C5  UNL     1      -0.008  -5.721  28.453  1.00  0.00     0.112 C 
HETATM    4  C6  UNL     1      -0.777  -4.429  28.240  1.00  0.00     0.035 C 
BRANCH   3   5
HETATM    5  C3  UNL     1       0.868  -5.889  27.228  1.00  0.00     0.074 C 
HETATM    6  C4  UNL     1       2.071  -4.986  27.403  1.00  0.00     0.048 C 
BRANCH   5   7
HETATM    7  C2  UNL     1       0.127  -5.586  25.955  1.00  0.00     0.035 C 
HETATM    8  C1  UNL     1       1.007  -5.976  24.791  1.00  0.00     0.008 C 
ENDBRANCH   5   7
BRANCH   5   9
HETATM    9  O1  UNL     1       1.282  -7.218  27.183  1.00  0.00    -0.388 OA
ATOM     10  H1  UNL     1       0.835  -7.642  26.460  1.00  0.00     0.210 HD
ENDBRANCH   5   9
ENDBRANCH   3   5
ENDBRANCH   1   3
BRANCH   1  11
HETATM   11  C7  UNL     1       0.453  -6.453  30.821  1.00  0.00     0.102 C 
HETATM   12  S1  UNL     1       0.524  -8.083  30.791  1.00  0.00    -0.064 SA
BRANCH  11  13
HETATM   13  C8  UNL     1       0.049  -5.795  32.084  1.00  0.00     0.341 C 
BRANCH  13  14
HETATM   14  N2  UNL     1       0.925  -6.166  33.206  1.00  0.00     0.099 N 
HETATM   15  C9  UNL     1       1.679  -4.979  33.533  1.00  0.00     0.299 C 
HETATM   16  C10 UNL     1       2.118  -4.846  34.939  1.00  0.00     0.198 C 
HETATM   17  O2  UNL     1       1.464  -5.617  35.861  1.00  0.00    -0.388 OA
HETATM   18  C11 UNL     1       0.112  -5.646  35.472  1.00  0.00     0.198 C 
HETATM   19  C12 UNL     1       0.049  -6.578  34.279  1.00  0.00     0.299 C 
ENDBRANCH  13  14
ENDBRANCH  11  13
ENDBRANCH   1  11
TORSDOF 7
ENDMDL
