MODEL 1
REMARK VINA RESULT: -8.073926882      0.000      0.000
REMARK  6 active torsions:
REMARK  status: ('A' for Active; 'I' for Inactive)
REMARK    1  A    between atoms: O1_2  and  C2_3 
REMARK    2  A    between atoms: C5_6  and  O2_7 
REMARK    3  A    between atoms: C7_9  and  S1_10 
REMARK    4  A    between atoms: S1_10  and  C8_11 
REMARK    5  A    between atoms: N4_22  and  C14_24 
REMARK    6  A    between atoms: C18_30  and  O3_31 
ROOT
HETATM    1  C8  UNL     1      36.808  26.094  29.557  1.00  0.00     0.166 A 
HETATM    2  N1  UNL     1      36.644  27.305  29.005  1.00  0.00    -0.320 N 
ATOM      3  H1  UNL     1      37.446  27.917  28.853  1.00  0.00     0.169 HD
HETATM    4  C9  UNL     1      35.391  27.706  28.650  1.00  0.00     0.149 A 
HETATM    5  C10 UNL     1      34.956  28.895  28.068  1.00  0.00     0.077 A 
HETATM    6  C11 UNL     1      33.598  28.814  27.908  1.00  0.00     0.026 A 
HETATM    7  C12 UNL     1      32.668  29.829  27.331  1.00  0.00     0.070 C 
HETATM    8  N2  UNL     1      33.255  27.613  28.381  1.00  0.00    -0.282 N 
ATOM      9  H2  UNL     1      32.299  27.257  28.398  1.00  0.00     0.188 HD
HETATM   10  N3  UNL     1      34.302  26.942  28.825  1.00  0.00    -0.070 N 
HETATM   11  C13 UNL     1      34.451  25.706  29.386  1.00  0.00     0.703 A 
HETATM   12  N4  UNL     1      33.499  24.944  29.580  1.00  0.00    -0.216 N 
ATOM     13  H4  UNL     1      33.851  24.085  30.003  1.00  0.00     0.178 HD
HETATM   14  N5  UNL     1      35.732  25.337  29.731  1.00  0.00    -0.168 N 
ATOM     15  H5  UNL     1      35.863  24.417  30.150  1.00  0.00     0.186 HD
ENDROOT
BRANCH   1  16
HETATM   16  S1  UNL     1      38.453  25.523  30.044  1.00  0.00    -0.048 SA
BRANCH  16  17
HETATM   17  C7  UNL     1      39.656  25.927  28.795  1.00  0.00     0.077 A 
HETATM   18  C5  UNL     1      39.433  25.473  27.506  1.00  0.00     0.097 A 
HETATM   19  C3  UNL     1      40.373  25.795  26.556  1.00  0.00     0.008 A 
HETATM   20  C2  UNL     1      41.498  26.541  26.862  1.00  0.00     0.101 A 
HETATM   21  C4  UNL     1      40.164  25.321  25.147  1.00  0.00     0.054 C 
HETATM   22  C20 UNL     1      41.689  26.979  28.170  1.00  0.00     0.102 A 
HETATM   23  C18 UNL     1      40.763  26.672  29.146  1.00  0.00     0.112 A 
HETATM   24 CL1  UNL     1      43.116  27.929  28.578  1.00  0.00    -0.078 Cl
BRANCH  18  25
HETATM   25  O2  UNL     1      38.287  24.716  27.196  1.00  0.00    -0.354 OA
HETATM   26  C6  UNL     1      38.274  23.332  27.476  1.00  0.00     0.210 C 
ENDBRANCH  18  25
BRANCH  20  27
HETATM   27  O1  UNL     1      42.454  26.868  25.898  1.00  0.00    -0.353 OA
HETATM   28  C1  UNL     1      43.610  26.073  25.673  1.00  0.00     0.210 C 
ENDBRANCH  20  27
BRANCH  23  29
HETATM   29  O3  UNL     1      40.976  27.124  30.451  1.00  0.00    -0.353 OA
HETATM   30  C19 UNL     1      40.326  28.361  30.779  1.00  0.00     0.210 C 
ENDBRANCH  23  29
ENDBRANCH  16  17
ENDBRANCH   1  16
BRANCH  12  31
HETATM   31  C14 UNL     1      32.128  24.831  29.432  1.00  0.00     0.036 C 
HETATM   32  C15 UNL     1      31.686  24.497  27.999  1.00  0.00     0.038 C 
HETATM   33  C16 UNL     1      31.312  26.003  29.892  1.00  0.00     0.038 C 
HETATM   34  C17 UNL     1      31.615  23.621  30.271  1.00  0.00     0.038 C 
ENDBRANCH  12  31
TORSDOF 6
ENDMDL
MODEL 2
REMARK VINA RESULT: -7.961534692      1.141      2.526
REMARK  6 active torsions:
REMARK  status: ('A' for Active; 'I' for Inactive)
REMARK    1  A    between atoms: O1_2  and  C2_3 
REMARK    2  A    between atoms: C5_6  and  O2_7 
REMARK    3  A    between atoms: C7_9  and  S1_10 
REMARK    4  A    between atoms: S1_10  and  C8_11 
REMARK    5  A    between atoms: N4_22  and  C14_24 
REMARK    6  A    between atoms: C18_30  and  O3_31 
ROOT
HETATM    1  C8  UNL     1      36.943  26.146  29.609  1.00  0.00     0.166 A 
HETATM    2  N1  UNL     1      36.751  27.339  29.027  1.00  0.00    -0.320 N 
ATOM      3  H1  UNL     1      37.539  27.967  28.864  1.00  0.00     0.169 HD
HETATM    4  C9  UNL     1      35.491  27.701  28.658  1.00  0.00     0.149 A 
HETATM    5  C10 UNL     1      35.030  28.865  28.046  1.00  0.00     0.077 A 
HETATM    6  C11 UNL     1      33.674  28.746  27.883  1.00  0.00     0.026 A 
HETATM    7  C12 UNL     1      32.722  29.725  27.278  1.00  0.00     0.070 C 
HETATM    8  N2  UNL     1      33.359  27.549  28.384  1.00  0.00    -0.282 N 
ATOM      9  H2  UNL     1      32.412  27.170  28.405  1.00  0.00     0.188 HD
HETATM   10  N3  UNL     1      34.420  26.915  28.847  1.00  0.00    -0.070 N 
HETATM   11  C13 UNL     1      34.597  25.697  29.438  1.00  0.00     0.703 A 
HETATM   12  N4  UNL     1      33.662  24.916  29.647  1.00  0.00    -0.216 N 
ATOM     13  H4  UNL     1      34.034  24.077  30.091  1.00  0.00     0.178 HD
HETATM   14  N5  UNL     1      35.884  25.368  29.797  1.00  0.00    -0.168 N 
ATOM     15  H5  UNL     1      36.036  24.461  30.239  1.00  0.00     0.186 HD
ENDROOT
BRANCH   1  16
HETATM   16  S1  UNL     1      38.599  25.627  30.116  1.00  0.00    -0.048 SA
BRANCH  16  17
HETATM   17  C7  UNL     1      39.812  26.126  28.912  1.00  0.00     0.077 A 
HETATM   18  C5  UNL     1      40.298  27.422  28.977  1.00  0.00     0.097 A 
HETATM   19  C3  UNL     1      41.234  27.788  28.039  1.00  0.00     0.008 A 
HETATM   20  C2  UNL     1      41.679  26.910  27.066  1.00  0.00     0.101 A 
HETATM   21  C4  UNL     1      41.784  29.184  28.079  1.00  0.00     0.054 C 
HETATM   22  C20 UNL     1      41.166  25.617  27.032  1.00  0.00     0.102 A 
HETATM   23  C18 UNL     1      40.226  25.218  27.960  1.00  0.00     0.112 A 
HETATM   24 CL1  UNL     1      41.721  24.484  25.800  1.00  0.00    -0.078 Cl
BRANCH  18  25
HETATM   25  O2  UNL     1      39.845  28.313  29.968  1.00  0.00    -0.354 OA
HETATM   26  C6  UNL     1      40.287  28.153  31.299  1.00  0.00     0.210 C 
ENDBRANCH  18  25
BRANCH  20  27
HETATM   27  O1  UNL     1      42.629  27.282  26.113  1.00  0.00    -0.353 OA
HETATM   28  C1  UNL     1      44.020  27.054  26.296  1.00  0.00     0.210 C 
ENDBRANCH  20  27
BRANCH  23  29
HETATM   29  O3  UNL     1      39.727  23.914  27.905  1.00  0.00    -0.353 OA
HETATM   30  C19 UNL     1      38.468  23.774  27.232  1.00  0.00     0.210 C 
ENDBRANCH  23  29
ENDBRANCH  16  17
ENDBRANCH   1  16
BRANCH  12  31
HETATM   31  C14 UNL     1      32.295  24.767  29.496  1.00  0.00     0.036 C 
HETATM   32  C15 UNL     1      31.864  24.426  28.062  1.00  0.00     0.038 C 
HETATM   33  C16 UNL     1      31.447  25.914  29.960  1.00  0.00     0.038 C 
HETATM   34  C17 UNL     1      31.815  23.539  30.330  1.00  0.00     0.038 C 
ENDBRANCH  12  31
TORSDOF 6
ENDMDL
MODEL 3
REMARK VINA RESULT: -7.788938338      4.416      8.763
REMARK  6 active torsions:
REMARK  status: ('A' for Active; 'I' for Inactive)
REMARK    1  A    between atoms: O1_2  and  C2_3 
REMARK    2  A    between atoms: C5_6  and  O2_7 
REMARK    3  A    between atoms: C7_9  and  S1_10 
REMARK    4  A    between atoms: S1_10  and  C8_11 
REMARK    5  A    between atoms: N4_22  and  C14_24 
REMARK    6  A    between atoms: C18_30  and  O3_31 
ROOT
HETATM    1  C8  UNL     1      41.613  28.426  28.727  1.00  0.00     0.166 A 
HETATM    2  N1  UNL     1      42.083  27.558  27.819  1.00  0.00    -0.320 N 
ATOM      3  H1  UNL     1      41.751  26.593  27.805  1.00  0.00     0.169 HD
HETATM    4  C9  UNL     1      43.009  27.983  26.914  1.00  0.00     0.149 A 
HETATM    5  C10 UNL     1      43.645  27.293  25.884  1.00  0.00     0.077 A 
HETATM    6  C11 UNL     1      44.494  28.165  25.255  1.00  0.00     0.026 A 
HETATM    7  C12 UNL     1      45.398  27.908  24.094  1.00  0.00     0.070 C 
HETATM    8  N2  UNL     1      44.353  29.326  25.900  1.00  0.00    -0.282 N 
ATOM      9  H2  UNL     1      44.860  30.179  25.660  1.00  0.00     0.188 HD
HETATM   10  N3  UNL     1      43.479  29.239  26.884  1.00  0.00    -0.070 N 
HETATM   11  C13 UNL     1      43.012  30.136  27.802  1.00  0.00     0.703 A 
HETATM   12  N4  UNL     1      43.394  31.310  27.840  1.00  0.00    -0.216 N 
ATOM     13  H4  UNL     1      42.908  31.785  28.601  1.00  0.00     0.178 HD
HETATM   14  N5  UNL     1      42.077  29.669  28.699  1.00  0.00    -0.168 N 
ATOM     15  H5  UNL     1      41.716  30.324  29.391  1.00  0.00     0.186 HD
ENDROOT
BRANCH   1  16
HETATM   16  S1  UNL     1      40.385  27.903  29.946  1.00  0.00    -0.048 SA
BRANCH  16  17
HETATM   17  C7  UNL     1      39.211  26.779  29.217  1.00  0.00     0.077 A 
HETATM   18  C5  UNL     1      38.198  27.312  28.437  1.00  0.00     0.097 A 
HETATM   19  C3  UNL     1      37.302  26.429  27.883  1.00  0.00     0.008 A 
HETATM   20  C2  UNL     1      37.397  25.064  28.088  1.00  0.00     0.101 A 
HETATM   21  C4  UNL     1      36.191  26.971  27.031  1.00  0.00     0.054 C 
HETATM   22  C20 UNL     1      38.429  24.565  28.879  1.00  0.00     0.102 A 
HETATM   23  C18 UNL     1      39.344  25.426  29.449  1.00  0.00     0.112 A 
HETATM   24 CL1  UNL     1      38.566  22.829  29.153  1.00  0.00    -0.078 Cl
BRANCH  18  25
HETATM   25  O2  UNL     1      38.104  28.702  28.229  1.00  0.00    -0.354 OA
HETATM   26  C6  UNL     1      38.541  29.251  27.004  1.00  0.00     0.210 C 
ENDBRANCH  18  25
BRANCH  20  27
HETATM   27  O1  UNL     1      36.487  24.166  27.527  1.00  0.00    -0.353 OA
HETATM   28  C1  UNL     1      35.291  23.781  28.190  1.00  0.00     0.210 C 
ENDBRANCH  20  27
BRANCH  23  29
HETATM   29  O3  UNL     1      40.371  24.902  30.238  1.00  0.00    -0.353 OA
HETATM   30  C19 UNL     1      41.510  24.419  29.511  1.00  0.00     0.210 C 
ENDBRANCH  23  29
ENDBRANCH  16  17
ENDBRANCH   1  16
BRANCH  12  31
HETATM   31  C14 UNL     1      44.242  32.214  27.226  1.00  0.00     0.036 C 
HETATM   32  C15 UNL     1      43.867  32.523  25.769  1.00  0.00     0.038 C 
HETATM   33  C16 UNL     1      45.704  31.878  27.252  1.00  0.00     0.038 C 
HETATM   34  C17 UNL     1      44.128  33.597  27.940  1.00  0.00     0.038 C 
ENDBRANCH  12  31
TORSDOF 6
ENDMDL
MODEL 4
REMARK VINA RESULT: -7.758589877      4.496      8.756
REMARK  6 active torsions:
REMARK  status: ('A' for Active; 'I' for Inactive)
REMARK    1  A    between atoms: O1_2  and  C2_3 
REMARK    2  A    between atoms: C5_6  and  O2_7 
REMARK    3  A    between atoms: C7_9  and  S1_10 
REMARK    4  A    between atoms: S1_10  and  C8_11 
REMARK    5  A    between atoms: N4_22  and  C14_24 
REMARK    6  A    between atoms: C18_30  and  O3_31 
ROOT
HETATM    1  C8  UNL     1      41.703  28.390  28.736  1.00  0.00     0.166 A 
HETATM    2  N1  UNL     1      42.185  27.564  27.796  1.00  0.00    -0.320 N 
ATOM      3  H1  UNL     1      41.884  26.589  27.760  1.00  0.00     0.169 HD
HETATM    4  C9  UNL     1      43.082  28.044  26.890  1.00  0.00     0.149 A 
HETATM    5  C10 UNL     1      43.723  27.405  25.831  1.00  0.00     0.077 A 
HETATM    6  C11 UNL     1      44.533  28.322  25.214  1.00  0.00     0.026 A 
HETATM    7  C12 UNL     1      45.425  28.128  24.032  1.00  0.00     0.070 C 
HETATM    8  N2  UNL     1      44.365  29.459  25.894  1.00  0.00    -0.282 N 
ATOM      9  H2  UNL     1      44.840  30.334  25.670  1.00  0.00     0.188 HD
HETATM   10  N3  UNL     1      43.511  29.315  26.889  1.00  0.00    -0.070 N 
HETATM   11  C13 UNL     1      43.030  30.170  27.839  1.00  0.00     0.703 A 
HETATM   12  N4  UNL     1      43.374  31.354  27.905  1.00  0.00    -0.216 N 
ATOM     13  H4  UNL     1      42.886  31.791  28.687  1.00  0.00     0.178 HD
HETATM   14  N5  UNL     1      42.126  29.648  28.737  1.00  0.00    -0.168 N 
ATOM     15  H5  UNL     1      41.755  30.271  29.453  1.00  0.00     0.186 HD
ENDROOT
BRANCH   1  16
HETATM   16  S1  UNL     1      40.512  27.793  29.959  1.00  0.00    -0.048 SA
BRANCH  16  17
HETATM   17  C7  UNL     1      39.313  26.718  29.199  1.00  0.00     0.077 A 
HETATM   18  C5  UNL     1      39.467  25.351  29.366  1.00  0.00     0.097 A 
HETATM   19  C3  UNL     1      38.532  24.537  28.771  1.00  0.00     0.008 A 
HETATM   20  C2  UNL     1      37.477  25.049  28.036  1.00  0.00     0.101 A 
HETATM   21  C4  UNL     1      38.667  23.051  28.931  1.00  0.00     0.054 C 
HETATM   22  C20 UNL     1      37.356  26.428  27.890  1.00  0.00     0.102 A 
HETATM   23  C18 UNL     1      38.278  27.272  28.474  1.00  0.00     0.112 A 
HETATM   24 CL1  UNL     1      36.019  27.098  26.956  1.00  0.00    -0.078 Cl
BRANCH  18  25
HETATM   25  O2  UNL     1      40.541  24.833  30.115  1.00  0.00    -0.354 OA
HETATM   26  C6  UNL     1      41.695  24.373  29.446  1.00  0.00     0.210 C 
ENDBRANCH  18  25
BRANCH  20  27
HETATM   27  O1  UNL     1      36.527  24.223  27.432  1.00  0.00    -0.353 OA
HETATM   28  C1  UNL     1      35.297  23.892  28.061  1.00  0.00     0.210 C 
ENDBRANCH  20  27
BRANCH  23  29
HETATM   29  O3  UNL     1      38.134  28.652  28.314  1.00  0.00    -0.353 OA
HETATM   30  C19 UNL     1      38.609  29.171  27.063  1.00  0.00     0.210 C 
ENDBRANCH  23  29
ENDBRANCH  16  17
ENDBRANCH   1  16
BRANCH  12  31
HETATM   31  C14 UNL     1      44.182  32.303  27.304  1.00  0.00     0.036 C 
HETATM   32  C15 UNL     1      43.780  32.632  25.859  1.00  0.00     0.038 C 
HETATM   33  C16 UNL     1      45.655  32.020  27.308  1.00  0.00     0.038 C 
HETATM   34  C17 UNL     1      44.026  33.664  28.052  1.00  0.00     0.038 C 
ENDBRANCH  12  31
TORSDOF 6
ENDMDL
MODEL 5
REMARK VINA RESULT: -7.610084513      2.556      3.474
REMARK  6 active torsions:
REMARK  status: ('A' for Active; 'I' for Inactive)
REMARK    1  A    between atoms: O1_2  and  C2_3 
REMARK    2  A    between atoms: C5_6  and  O2_7 
REMARK    3  A    between atoms: C7_9  and  S1_10 
REMARK    4  A    between atoms: S1_10  and  C8_11 
REMARK    5  A    between atoms: N4_22  and  C14_24 
REMARK    6  A    between atoms: C18_30  and  O3_31 
ROOT
HETATM    1  C8  UNL     1      39.684  28.041  28.881  1.00  0.00     0.166 A 
HETATM    2  N1  UNL     1      38.949  29.006  28.310  1.00  0.00    -0.320 N 
ATOM      3  H1  UNL     1      39.372  29.901  28.062  1.00  0.00     0.169 HD
HETATM    4  C9  UNL     1      37.628  28.776  28.066  1.00  0.00     0.149 A 
HETATM    5  C10 UNL     1      36.661  29.598  27.492  1.00  0.00     0.077 A 
HETATM    6  C11 UNL     1      35.479  28.904  27.467  1.00  0.00     0.026 A 
HETATM    7  C12 UNL     1      34.150  29.350  26.952  1.00  0.00     0.070 C 
HETATM    8  N2  UNL     1      35.754  27.715  28.009  1.00  0.00    -0.282 N 
ATOM      9  H2  UNL     1      35.068  26.969  28.130  1.00  0.00     0.188 HD
HETATM   10  N3  UNL     1      37.020  27.619  28.370  1.00  0.00    -0.070 N 
HETATM   11  C13 UNL     1      37.754  26.625  28.951  1.00  0.00     0.703 A 
HETATM   12  N4  UNL     1      37.268  25.533  29.261  1.00  0.00    -0.216 N 
ATOM     13  H4  UNL     1      38.001  24.957  29.674  1.00  0.00     0.178 HD
HETATM   14  N5  UNL     1      39.084  26.896  29.182  1.00  0.00    -0.168 N 
ATOM     15  H5  UNL     1      39.648  26.166  29.615  1.00  0.00     0.186 HD
ENDROOT
BRANCH   1  16
HETATM   16  S1  UNL     1      41.439  28.306  29.224  1.00  0.00    -0.048 SA
BRANCH  16  17
HETATM   17  C7  UNL     1      42.432  27.853  27.816  1.00  0.00     0.077 A 
HETATM   18  C5  UNL     1      42.392  26.536  27.389  1.00  0.00     0.097 A 
HETATM   19  C3  UNL     1      43.165  26.206  26.301  1.00  0.00     0.008 A 
HETATM   20  C2  UNL     1      43.953  27.141  25.651  1.00  0.00     0.101 A 
HETATM   21  C4  UNL     1      43.147  24.788  25.809  1.00  0.00     0.054 C 
HETATM   22  C20 UNL     1      43.967  28.455  26.111  1.00  0.00     0.102 A 
HETATM   23  C18 UNL     1      43.202  28.818  27.200  1.00  0.00     0.112 A 
HETATM   24 CL1  UNL     1      44.965  29.659  25.296  1.00  0.00    -0.078 Cl
BRANCH  18  25
HETATM   25  O2  UNL     1      41.589  25.588  28.050  1.00  0.00    -0.354 OA
HETATM   26  C6  UNL     1      42.139  24.830  29.107  1.00  0.00     0.210 C 
ENDBRANCH  18  25
BRANCH  20  27
HETATM   27  O1  UNL     1      44.739  26.806  24.547  1.00  0.00    -0.353 OA
HETATM   28  C1  UNL     1      46.137  26.573  24.650  1.00  0.00     0.210 C 
ENDBRANCH  20  27
BRANCH  23  29
HETATM   29  O3  UNL     1      43.233  30.143  27.641  1.00  0.00    -0.353 OA
HETATM   30  C19 UNL     1      44.283  30.449  28.571  1.00  0.00     0.210 C 
ENDBRANCH  23  29
ENDBRANCH  16  17
ENDBRANCH   1  16
BRANCH  12  31
HETATM   31  C14 UNL     1      36.090  24.806  29.250  1.00  0.00     0.036 C 
HETATM   32  C15 UNL     1      35.562  24.506  27.840  1.00  0.00     0.038 C 
HETATM   33  C16 UNL     1      34.952  25.375  30.045  1.00  0.00     0.038 C 
HETATM   34  C17 UNL     1      36.349  23.394  29.859  1.00  0.00     0.038 C 
ENDBRANCH  12  31
TORSDOF 6
ENDMDL
