MODEL 1
REMARK VINA RESULT: -6.199961000      0.000      0.000
REMARK  7 active torsions:
REMARK  status: ('A' for Active; 'I' for Inactive)
REMARK    1  A    between atoms: C2_2  and  C3_3 
REMARK    2  A    between atoms: C4_4  and  C5_5 
REMARK    3  A    between atoms: C6_6  and  O1_7 
REMARK    4  A    between atoms: N1_12  and  C9_13 
REMARK    5  A    between atoms: C9_13  and  C10_14 
REMARK    6  A    between atoms: C12_18  and  C13_19 
REMARK    7  A    between atoms: C13_19  and  O3_20 
ROOT
HETATM    1  C5  UNL     1      16.838   4.703  14.623  1.00  0.00     0.102 C 
HETATM    2  C6  UNL     1      16.070   5.574  13.707  1.00  0.00     0.143 C 
HETATM    3  C7  UNL     1      16.517   5.575  12.284  1.00  0.00     0.136 C 
HETATM    4  C8  UNL     1      16.420   4.268  11.617  1.00  0.00     0.222 C 
HETATM    5  O2  UNL     1      15.769   4.175  10.543  1.00  0.00    -0.273 OA
HETATM    6  N1  UNL     1      16.977   3.007  12.009  1.00  0.00    -0.346 N 
HETATM    7  C11 UNL     1      17.474   2.653  13.322  1.00  0.00     0.134 C 
HETATM    8  C12 UNL     1      17.930   3.905  14.014  1.00  0.00     0.045 C 
ENDROOT
BRANCH   1   9
HETATM    9  C4  UNL     1      15.927   3.747  15.304  1.00  0.00    -0.099 C 
HETATM   10  C3  UNL     1      15.203   2.966  15.870  1.00  0.00    -0.106 C 
BRANCH  10  11
HETATM   11  C2  UNL     1      14.326   2.026  16.584  1.00  0.00     0.089 C 
HETATM   12  C1  UNL     1      15.081   1.473  17.743  1.00  0.00     0.018 C 
ENDBRANCH  10  11
ENDBRANCH   1   9
BRANCH   2  13
HETATM   13  O1  UNL     1      14.710   5.184  13.710  1.00  0.00    -0.394 OA
ATOM     14  H1  UNL     1      14.288   5.506  14.498  1.00  0.00     0.210 HD
ENDBRANCH   2  13
BRANCH   8  15
HETATM   15  C13 UNL     1      19.052   3.603  15.016  1.00  0.00     0.171 C 
BRANCH  15  16
HETATM   16  O3  UNL     1      20.262   3.379  14.367  1.00  0.00    -0.400 OA
ATOM     17  H3  UNL     1      20.150   2.810  13.615  1.00  0.00     0.209 HD
ENDBRANCH  15  16
ENDBRANCH   8  15
BRANCH   6  18
HETATM   18  C9  UNL     1      17.053   1.971  10.982  1.00  0.00     0.196 C 
BRANCH  18  19
HETATM   19  C10 UNL     1      16.147   0.805  11.342  1.00  0.00     0.370 C 
HETATM   20  F1  UNL     1      16.602   0.123  12.442  1.00  0.00    -0.213 F 
HETATM   21  F2  UNL     1      16.139  -0.064  10.277  1.00  0.00    -0.213 F 
ENDBRANCH  18  19
ENDBRANCH   6  18
TORSDOF 7
ENDMDL
MODEL 2
REMARK VINA RESULT: -5.945486658      2.528      4.649
REMARK  7 active torsions:
REMARK  status: ('A' for Active; 'I' for Inactive)
REMARK    1  A    between atoms: C2_2  and  C3_3 
REMARK    2  A    between atoms: C4_4  and  C5_5 
REMARK    3  A    between atoms: C6_6  and  O1_7 
REMARK    4  A    between atoms: N1_12  and  C9_13 
REMARK    5  A    between atoms: C9_13  and  C10_14 
REMARK    6  A    between atoms: C12_18  and  C13_19 
REMARK    7  A    between atoms: C13_19  and  O3_20 
ROOT
HETATM    1  C5  UNL     1      17.464   4.978  12.395  1.00  0.00     0.102 C 
HETATM    2  C6  UNL     1      17.522   3.747  11.578  1.00  0.00     0.143 C 
HETATM    3  C7  UNL     1      17.734   2.476  12.329  1.00  0.00     0.136 C 
HETATM    4  C8  UNL     1      16.670   2.156  13.292  1.00  0.00     0.222 C 
HETATM    5  O2  UNL     1      16.090   1.040  13.216  1.00  0.00    -0.273 OA
HETATM    6  N1  UNL     1      16.150   2.950  14.367  1.00  0.00    -0.346 N 
HETATM    7  C11 UNL     1      16.312   4.377  14.543  1.00  0.00     0.134 C 
HETATM    8  C12 UNL     1      17.583   4.801  13.863  1.00  0.00     0.045 C 
ENDROOT
BRANCH   1   9
HETATM    9  C4  UNL     1      16.191   5.700  12.144  1.00  0.00    -0.099 C 
HETATM   10  C3  UNL     1      15.167   6.297  11.923  1.00  0.00    -0.106 C 
BRANCH  10  11
HETATM   11  C2  UNL     1      13.919   7.020  11.631  1.00  0.00     0.089 C 
HETATM   12  C1  UNL     1      13.905   7.355  10.179  1.00  0.00     0.018 C 
ENDBRANCH  10  11
ENDBRANCH   1   9
BRANCH   2  13
HETATM   13  O1  UNL     1      16.314   3.599  10.856  1.00  0.00    -0.394 OA
ATOM     14  H1  UNL     1      16.416   3.965   9.985  1.00  0.00     0.210 HD
ENDBRANCH   2  13
BRANCH   8  15
HETATM   15  C13 UNL     1      18.188   6.035  14.546  1.00  0.00     0.171 C 
BRANCH  15  16
HETATM   16  O3  UNL     1      17.356   6.514  15.552  1.00  0.00    -0.400 OA
ATOM     17  H3  UNL     1      17.611   7.388  15.823  1.00  0.00     0.209 HD
ENDBRANCH  15  16
ENDBRANCH   8  15
BRANCH   6  18
HETATM   18  C9  UNL     1      15.377   2.250  15.390  1.00  0.00     0.196 C 
BRANCH  18  19
HETATM   19  C10 UNL     1      16.264   1.904  16.575  1.00  0.00     0.370 C 
HETATM   20  F1  UNL     1      17.101   0.852  16.299  1.00  0.00    -0.213 F 
HETATM   21  F2  UNL     1      15.446   1.533  17.616  1.00  0.00    -0.213 F 
ENDBRANCH  18  19
ENDBRANCH   6  18
TORSDOF 7
ENDMDL
MODEL 3
REMARK VINA RESULT: -5.891296124      2.334      2.492
REMARK  7 active torsions:
REMARK  status: ('A' for Active; 'I' for Inactive)
REMARK    1  A    between atoms: C2_2  and  C3_3 
REMARK    2  A    between atoms: C4_4  and  C5_5 
REMARK    3  A    between atoms: C6_6  and  O1_7 
REMARK    4  A    between atoms: N1_12  and  C9_13 
REMARK    5  A    between atoms: C9_13  and  C10_14 
REMARK    6  A    between atoms: C12_18  and  C13_19 
REMARK    7  A    between atoms: C13_19  and  O3_20 
ROOT
HETATM    1  C5  UNL     1      17.248   4.541  14.644  1.00  0.00     0.102 C 
HETATM    2  C6  UNL     1      16.016   5.177  14.130  1.00  0.00     0.143 C 
HETATM    3  C7  UNL     1      16.122   5.802  12.779  1.00  0.00     0.136 C 
HETATM    4  C8  UNL     1      16.454   4.861  11.700  1.00  0.00     0.222 C 
HETATM    5  O2  UNL     1      15.701   4.792  10.693  1.00  0.00    -0.273 OA
HETATM    6  N1  UNL     1      17.560   3.954  11.597  1.00  0.00    -0.346 N 
HETATM    7  C11 UNL     1      18.414   3.507  12.676  1.00  0.00     0.134 C 
HETATM    8  C12 UNL     1      18.427   4.563  13.744  1.00  0.00     0.045 C 
ENDROOT
BRANCH   1   9
HETATM    9  C4  UNL     1      16.986   3.119  14.985  1.00  0.00    -0.099 C 
HETATM   10  C3  UNL     1      16.780   1.969  15.283  1.00  0.00    -0.106 C 
BRANCH  10  11
HETATM   11  C2  UNL     1      16.514   0.574  15.665  1.00  0.00     0.089 C 
HETATM   12  C1  UNL     1      15.719   0.580  16.926  1.00  0.00     0.018 C 
ENDBRANCH  10  11
ENDBRANCH   1   9
BRANCH   2  13
HETATM   13  O1  UNL     1      14.980   4.217  14.057  1.00  0.00    -0.394 OA
ATOM     14  H1  UNL     1      14.145   4.635  14.227  1.00  0.00     0.210 HD
ENDBRANCH   2  13
BRANCH   8  15
HETATM   15  C13 UNL     1      19.749   4.543  14.523  1.00  0.00     0.171 C 
BRANCH  15  16
HETATM   16  O3  UNL     1      20.248   3.249  14.637  1.00  0.00    -0.400 OA
ATOM     17  H3  UNL     1      20.149   2.768  13.824  1.00  0.00     0.209 HD
ENDBRANCH  15  16
ENDBRANCH   8  15
BRANCH   6  18
HETATM   18  C9  UNL     1      17.856   3.424  10.268  1.00  0.00     0.196 C 
BRANCH  18  19
HETATM   19  C10 UNL     1      19.115   4.070   9.713  1.00  0.00     0.370 C 
HETATM   20  F1  UNL     1      19.089   5.435   9.840  1.00  0.00    -0.213 F 
HETATM   21  F2  UNL     1      19.184   3.770   8.373  1.00  0.00    -0.213 F 
ENDBRANCH  18  19
ENDBRANCH   6  18
TORSDOF 7
ENDMDL
MODEL 4
REMARK VINA RESULT: -5.862098423      2.732      4.712
REMARK  7 active torsions:
REMARK  status: ('A' for Active; 'I' for Inactive)
REMARK    1  A    between atoms: C2_2  and  C3_3 
REMARK    2  A    between atoms: C4_4  and  C5_5 
REMARK    3  A    between atoms: C6_6  and  O1_7 
REMARK    4  A    between atoms: N1_12  and  C9_13 
REMARK    5  A    between atoms: C9_13  and  C10_14 
REMARK    6  A    between atoms: C12_18  and  C13_19 
REMARK    7  A    between atoms: C13_19  and  O3_20 
ROOT
HETATM    1  C5  UNL     1      17.711   5.086  12.055  1.00  0.00     0.102 C 
HETATM    2  C6  UNL     1      17.686   3.774  11.372  1.00  0.00     0.143 C 
HETATM    3  C7  UNL     1      18.061   2.598  12.209  1.00  0.00     0.136 C 
HETATM    4  C8  UNL     1      17.173   2.362  13.357  1.00  0.00     0.222 C 
HETATM    5  O2  UNL     1      16.631   1.233  13.491  1.00  0.00    -0.273 OA
HETATM    6  N1  UNL     1      16.799   3.258  14.412  1.00  0.00    -0.346 N 
HETATM    7  C11 UNL     1      16.933   4.699  14.410  1.00  0.00     0.134 C 
HETATM    8  C12 UNL     1      18.064   5.073  13.496  1.00  0.00     0.045 C 
ENDROOT
BRANCH   1   9
HETATM    9  C4  UNL     1      16.387   5.749  11.936  1.00  0.00    -0.099 C 
HETATM   10  C3  UNL     1      15.322   6.304  11.829  1.00  0.00    -0.106 C 
BRANCH  10  11
HETATM   11  C2  UNL     1      14.026   6.983  11.673  1.00  0.00     0.089 C 
HETATM   12  C1  UNL     1      13.874   7.373  10.242  1.00  0.00     0.018 C 
ENDBRANCH  10  11
ENDBRANCH   1   9
BRANCH   2  13
HETATM   13  O1  UNL     1      16.386   3.524  10.872  1.00  0.00    -0.394 OA
ATOM     14  H1  UNL     1      16.051   2.717  11.243  1.00  0.00     0.210 HD
ENDBRANCH   2  13
BRANCH   8  15
HETATM   15  C13 UNL     1      18.722   6.385  13.941  1.00  0.00     0.171 C 
BRANCH  15  16
HETATM   16  O3  UNL     1      18.064   6.933  15.037  1.00  0.00    -0.400 OA
ATOM     17  H3  UNL     1      17.934   7.868  14.929  1.00  0.00     0.209 HD
ENDBRANCH  15  16
ENDBRANCH   8  15
BRANCH   6  18
HETATM   18  C9  UNL     1      16.222   2.658  15.613  1.00  0.00     0.196 C 
BRANCH  18  19
HETATM   19  C10 UNL     1      14.743   2.989  15.709  1.00  0.00     0.370 C 
HETATM   20  F1  UNL     1      14.507   4.045  16.552  1.00  0.00    -0.213 F 
HETATM   21  F2  UNL     1      14.099   1.887  16.220  1.00  0.00    -0.213 F 
ENDBRANCH  18  19
ENDBRANCH   6  18
TORSDOF 7
ENDMDL
MODEL 5
REMARK VINA RESULT: -5.856470141      2.599      3.815
REMARK  7 active torsions:
REMARK  status: ('A' for Active; 'I' for Inactive)
REMARK    1  A    between atoms: C2_2  and  C3_3 
REMARK    2  A    between atoms: C4_4  and  C5_5 
REMARK    3  A    between atoms: C6_6  and  O1_7 
REMARK    4  A    between atoms: N1_12  and  C9_13 
REMARK    5  A    between atoms: C9_13  and  C10_14 
REMARK    6  A    between atoms: C12_18  and  C13_19 
REMARK    7  A    between atoms: C13_19  and  O3_20 
ROOT
HETATM    1  C5  UNL     1      17.231   2.946  14.554  1.00  0.00     0.102 C 
HETATM    2  C6  UNL     1      15.961   3.325  15.211  1.00  0.00     0.143 C 
HETATM    3  C7  UNL     1      15.603   4.772  15.149  1.00  0.00     0.136 C 
HETATM    4  C8  UNL     1      15.411   5.291  13.786  1.00  0.00     0.222 C 
HETATM    5  O2  UNL     1      14.328   5.867  13.497  1.00  0.00    -0.273 OA
HETATM    6  N1  UNL     1      16.304   5.249  12.665  1.00  0.00    -0.346 N 
HETATM    7  C11 UNL     1      17.458   4.390  12.513  1.00  0.00     0.134 C 
HETATM    8  C12 UNL     1      17.975   4.037  13.878  1.00  0.00     0.045 C 
ENDROOT
BRANCH   1   9
HETATM    9  C4  UNL     1      16.986   1.890  13.538  1.00  0.00    -0.099 C 
HETATM   10  C3  UNL     1      16.805   1.023  12.719  1.00  0.00    -0.106 C 
BRANCH  10  11
HETATM   11  C2  UNL     1      16.588  -0.052  11.739  1.00  0.00     0.089 C 
HETATM   12  C1  UNL     1      17.105  -1.323  12.320  1.00  0.00     0.018 C 
ENDBRANCH  10  11
ENDBRANCH   1   9
BRANCH   2  13
HETATM   13  O1  UNL     1      14.891   2.612  14.622  1.00  0.00    -0.394 OA
ATOM     14  H1  UNL     1      15.039   1.678  14.716  1.00  0.00     0.210 HD
ENDBRANCH   2  13
BRANCH   8  15
HETATM   15  C13 UNL     1      19.486   3.769  13.843  1.00  0.00     0.171 C 
BRANCH  15  16
HETATM   16  O3  UNL     1      19.945   3.303  15.070  1.00  0.00    -0.400 OA
ATOM     17  H3  UNL     1      19.371   2.633  15.422  1.00  0.00     0.209 HD
ENDBRANCH  15  16
ENDBRANCH   8  15
BRANCH   6  18
HETATM   18  C9  UNL     1      16.022   6.165  11.563  1.00  0.00     0.196 C 
BRANCH  18  19
HETATM   19  C10 UNL     1      15.850   5.392  10.267  1.00  0.00     0.370 C 
HETATM   20  F1  UNL     1      16.787   5.748   9.329  1.00  0.00    -0.213 F 
HETATM   21  F2  UNL     1      14.608   5.693   9.760  1.00  0.00    -0.213 F 
ENDBRANCH  18  19
ENDBRANCH   6  18
TORSDOF 7
ENDMDL
