MODEL 1
REMARK VINA RESULT: -5.491228550      0.000      0.000
REMARK  4 active torsions:
REMARK  status: ('A' for Active; 'I' for Inactive)
REMARK       I    between atoms: N1_2  and  C2_4 
REMARK    1  A    between atoms: C2_4  and  C3_6 
REMARK    2  A    between atoms: N2_8  and  C5_9 
REMARK    3  A    between atoms: C5_9  and  N3_10 
REMARK    4  A    between atoms: C5_9  and  C7_14 
ROOT
HETATM    1  N3  UNL     1      17.510   3.018  12.690  1.00  0.00    -0.294 N 
ATOM      2  H3  UNL     1      18.436   2.680  12.949  1.00  0.00     0.174 HD
HETATM    3  C6  UNL     1      16.918   2.577  11.501  1.00  0.00     0.179 C 
HETATM    4  N4  UNL     1      16.440   2.194  10.494  1.00  0.00    -0.172 NA
ENDROOT
BRANCH   1   5
HETATM    5  C5  UNL     1      16.833   3.930  13.535  1.00  0.00     0.385 C 
BRANCH   5   6
HETATM    6  N2  UNL     1      16.537   3.458  14.869  1.00  0.00     0.118 N 
HETATM    7  C4  UNL     1      17.213   2.300  15.344  1.00  0.00     0.291 C 
HETATM    8  C3  UNL     1      15.924   1.540  15.228  1.00  0.00     0.134 C 
HETATM    9  C8  UNL     1      15.207   2.840  14.931  1.00  0.00     0.291 C 
BRANCH   8  10
HETATM   10  C2  UNL     1      15.371   0.957  16.468  1.00  0.00     0.224 C 
HETATM   11  N1  UNL     1      15.437   1.744  17.647  1.00  0.00    -0.365 N 
HETATM   12  C1  UNL     1      14.915   1.232  18.894  1.00  0.00     0.149 C 
ATOM     13  H1  UNL     1      15.855   2.674  17.615  1.00  0.00     0.161 HD
HETATM   14  O1  UNL     1      14.868  -0.176  16.484  1.00  0.00    -0.273 OA
ENDBRANCH   8  10
ENDBRANCH   5   6
BRANCH   5  15
HETATM   15  C7  UNL     1      17.572   5.248  13.708  1.00  0.00     0.237 C 
HETATM   16 CL1  UNL     1      16.963   5.923  15.264  1.00  0.00    -0.079 Cl
HETATM   17 CL2  UNL     1      17.278   6.389  12.412  1.00  0.00    -0.079 Cl
HETATM   18 CL3  UNL     1      19.296   4.830  13.897  1.00  0.00    -0.079 Cl
ENDBRANCH   5  15
ENDBRANCH   1   5
TORSDOF 4
ENDMDL
MODEL 2
REMARK VINA RESULT: -5.472572902      0.438      1.397
REMARK  4 active torsions:
REMARK  status: ('A' for Active; 'I' for Inactive)
REMARK       I    between atoms: N1_2  and  C2_4 
REMARK    1  A    between atoms: C2_4  and  C3_6 
REMARK    2  A    between atoms: N2_8  and  C5_9 
REMARK    3  A    between atoms: C5_9  and  N3_10 
REMARK    4  A    between atoms: C5_9  and  C7_14 
ROOT
HETATM    1  N3  UNL     1      17.541   2.690  12.788  1.00  0.00    -0.294 N 
ATOM      2  H3  UNL     1      18.474   2.310  12.947  1.00  0.00     0.174 HD
HETATM    3  C6  UNL     1      16.766   2.205  11.729  1.00  0.00     0.179 C 
HETATM    4  N4  UNL     1      16.133   1.784  10.828  1.00  0.00    -0.172 NA
ENDROOT
BRANCH   1   5
HETATM    5  C5  UNL     1      17.040   3.702  13.641  1.00  0.00     0.385 C 
BRANCH   5   6
HETATM    6  N2  UNL     1      16.687   3.286  14.979  1.00  0.00     0.118 N 
HETATM    7  C4  UNL     1      17.202   2.053  15.464  1.00  0.00     0.291 C 
HETATM    8  C3  UNL     1      15.822   1.472  15.358  1.00  0.00     0.134 C 
HETATM    9  C8  UNL     1      15.286   2.854  15.049  1.00  0.00     0.291 C 
BRANCH   8  10
HETATM   10  C2  UNL     1      15.199   0.980  16.604  1.00  0.00     0.224 C 
HETATM   11  N1  UNL     1      15.381   1.757  17.777  1.00  0.00    -0.365 N 
HETATM   12  C1  UNL     1      14.798   1.331  19.029  1.00  0.00     0.149 C 
ATOM     13  H1  UNL     1      15.925   2.619  17.737  1.00  0.00     0.161 HD
HETATM   14  O1  UNL     1      14.541  -0.071  16.629  1.00  0.00    -0.273 OA
ENDBRANCH   8  10
ENDBRANCH   5   6
BRANCH   5  15
HETATM   15  C7  UNL     1      17.994   4.876  13.802  1.00  0.00     0.237 C 
HETATM   16 CL1  UNL     1      17.963   5.723  12.211  1.00  0.00    -0.079 Cl
HETATM   17 CL2  UNL     1      19.634   4.394  14.185  1.00  0.00    -0.079 Cl
HETATM   18 CL3  UNL     1      17.270   5.940  15.036  1.00  0.00    -0.079 Cl
ENDBRANCH   5  15
ENDBRANCH   1   5
TORSDOF 4
ENDMDL
MODEL 3
REMARK VINA RESULT: -5.466292134      3.831      5.443
REMARK  4 active torsions:
REMARK  status: ('A' for Active; 'I' for Inactive)
REMARK       I    between atoms: N1_2  and  C2_4 
REMARK    1  A    between atoms: C2_4  and  C3_6 
REMARK    2  A    between atoms: N2_8  and  C5_9 
REMARK    3  A    between atoms: C5_9  and  N3_10 
REMARK    4  A    between atoms: C5_9  and  C7_14 
ROOT
HETATM    1  N3  UNL     1      17.076   0.459  16.219  1.00  0.00    -0.294 N 
ATOM      2  H3  UNL     1      17.921   0.353  16.780  1.00  0.00     0.174 HD
HETATM    3  C6  UNL     1      16.852  -0.395  15.133  1.00  0.00     0.179 C 
HETATM    4  N4  UNL     1      16.688  -1.123  14.222  1.00  0.00    -0.172 NA
ENDROOT
BRANCH   1   5
HETATM    5  C5  UNL     1      16.138   1.468  16.545  1.00  0.00     0.385 C 
BRANCH   5   6
HETATM    6  N2  UNL     1      15.554   2.175  15.429  1.00  0.00     0.118 N 
HETATM    7  C4  UNL     1      16.387   2.504  14.324  1.00  0.00     0.291 C 
HETATM    8  C3  UNL     1      16.322   3.944  14.746  1.00  0.00     0.134 C 
HETATM    9  C8  UNL     1      15.274   3.575  15.774  1.00  0.00     0.291 C 
BRANCH   8  10
HETATM   10  C2  UNL     1      15.738   4.902  13.785  1.00  0.00     0.224 C 
HETATM   11  N1  UNL     1      16.611   5.488  12.832  1.00  0.00    -0.365 N 
HETATM   12  C1  UNL     1      16.103   6.435  11.865  1.00  0.00     0.149 C 
ATOM     13  H1  UNL     1      17.601   5.241  12.830  1.00  0.00     0.161 HD
HETATM   14  O1  UNL     1      14.531   5.188  13.807  1.00  0.00    -0.273 OA
ENDBRANCH   8  10
ENDBRANCH   5   6
BRANCH   5  15
HETATM   15  C7  UNL     1      14.971   0.954  17.376  1.00  0.00     0.237 C 
HETATM   16 CL1  UNL     1      15.391  -0.755  17.762  1.00  0.00    -0.079 Cl
HETATM   17 CL2  UNL     1      13.436   1.012  16.534  1.00  0.00    -0.079 Cl
HETATM   18 CL3  UNL     1      14.978   1.904  18.885  1.00  0.00    -0.079 Cl
ENDBRANCH   5  15
ENDBRANCH   1   5
TORSDOF 4
ENDMDL
MODEL 4
REMARK VINA RESULT: -5.465709911      3.526      5.755
REMARK  4 active torsions:
REMARK  status: ('A' for Active; 'I' for Inactive)
REMARK       I    between atoms: N1_2  and  C2_4 
REMARK    1  A    between atoms: C2_4  and  C3_6 
REMARK    2  A    between atoms: N2_8  and  C5_9 
REMARK    3  A    between atoms: C5_9  and  N3_10 
REMARK    4  A    between atoms: C5_9  and  C7_14 
ROOT
HETATM    1  N3  UNL     1      16.792   2.694  14.618  1.00  0.00    -0.294 N 
ATOM      2  H3  UNL     1      15.975   2.472  14.049  1.00  0.00     0.174 HD
HETATM    3  C6  UNL     1      17.232   1.783  15.584  1.00  0.00     0.179 C 
HETATM    4  N4  UNL     1      17.582   1.002  16.394  1.00  0.00    -0.172 NA
ENDROOT
BRANCH   1   5
HETATM    5  C5  UNL     1      17.472   3.920  14.423  1.00  0.00     0.385 C 
BRANCH   5   6
HETATM    6  N2  UNL     1      18.093   4.102  13.131  1.00  0.00     0.118 N 
HETATM    7  C4  UNL     1      18.434   2.948  12.374  1.00  0.00     0.291 C 
HETATM    8  C3  UNL     1      19.882   3.230  12.656  1.00  0.00     0.134 C 
HETATM    9  C8  UNL     1      19.483   4.556  13.269  1.00  0.00     0.291 C 
BRANCH   8  10
HETATM   10  C2  UNL     1      20.759   3.480  11.494  1.00  0.00     0.224 C 
HETATM   11  N1  UNL     1      22.159   3.370  11.696  1.00  0.00    -0.365 N 
HETATM   12  C1  UNL     1      23.073   3.603  10.601  1.00  0.00     0.149 C 
ATOM     13  H1  UNL     1      22.523   3.125  12.617  1.00  0.00     0.161 HD
HETATM   14  O1  UNL     1      20.295   3.776  10.383  1.00  0.00    -0.273 OA
ENDBRANCH   8  10
ENDBRANCH   5   6
BRANCH   5  15
HETATM   15  C7  UNL     1      16.585   5.138  14.640  1.00  0.00     0.237 C 
HETATM   16 CL1  UNL     1      16.087   5.651  12.986  1.00  0.00    -0.079 Cl
HETATM   17 CL2  UNL     1      17.400   6.459  15.451  1.00  0.00    -0.079 Cl
HETATM   18 CL3  UNL     1      15.148   4.555  15.520  1.00  0.00    -0.079 Cl
ENDBRANCH   5  15
ENDBRANCH   1   5
TORSDOF 4
ENDMDL
MODEL 5
REMARK VINA RESULT: -5.454155165      0.805      1.558
REMARK  4 active torsions:
REMARK  status: ('A' for Active; 'I' for Inactive)
REMARK       I    between atoms: N1_2  and  C2_4 
REMARK    1  A    between atoms: C2_4  and  C3_6 
REMARK    2  A    between atoms: N2_8  and  C5_9 
REMARK    3  A    between atoms: C5_9  and  N3_10 
REMARK    4  A    between atoms: C5_9  and  C7_14 
ROOT
HETATM    1  N3  UNL     1      17.122   2.810  12.630  1.00  0.00    -0.294 N 
ATOM      2  H3  UNL     1      18.140   2.749  12.603  1.00  0.00     0.174 HD
HETATM    3  C6  UNL     1      16.355   1.958  11.827  1.00  0.00     0.179 C 
HETATM    4  N4  UNL     1      15.730   1.233  11.140  1.00  0.00    -0.172 NA
ENDROOT
BRANCH   1   5
HETATM    5  C5  UNL     1      16.497   3.754  13.479  1.00  0.00     0.385 C 
BRANCH   5   6
HETATM    6  N2  UNL     1      16.473   3.424  14.886  1.00  0.00     0.118 N 
HETATM    7  C4  UNL     1      17.346   2.405  15.358  1.00  0.00     0.291 C 
HETATM    8  C3  UNL     1      16.153   1.514  15.545  1.00  0.00     0.134 C 
HETATM    9  C8  UNL     1      15.250   2.691  15.239  1.00  0.00     0.291 C 
BRANCH   8  10
HETATM   10  C2  UNL     1      15.875   1.037  16.916  1.00  0.00     0.224 C 
HETATM   11  N1  UNL     1      15.193   1.923  17.791  1.00  0.00    -0.365 N 
HETATM   12  C1  UNL     1      14.892   1.518  19.145  1.00  0.00     0.149 C 
ATOM     13  H1  UNL     1      14.916   2.848  17.463  1.00  0.00     0.161 HD
HETATM   14  O1  UNL     1      16.222  -0.092  17.292  1.00  0.00    -0.273 OA
ENDBRANCH   8  10
ENDBRANCH   5   6
BRANCH   5  15
HETATM   15  C7  UNL     1      17.109   5.144  13.382  1.00  0.00     0.237 C 
HETATM   16 CL1  UNL     1      18.744   4.884  12.672  1.00  0.00    -0.079 Cl
HETATM   17 CL2  UNL     1      17.256   5.950  14.930  1.00  0.00    -0.079 Cl
HETATM   18 CL3  UNL     1      16.109   6.047  12.214  1.00  0.00    -0.079 Cl
ENDBRANCH   5  15
ENDBRANCH   1   5
TORSDOF 4
ENDMDL
