MODEL 1
REMARK VINA RESULT: -6.446619146      0.000      0.000
REMARK  3 active torsions:
REMARK  status: ('A' for Active; 'I' for Inactive)
REMARK    1  A    between atoms: C5_8  and  C6_9 
REMARK    2  A    between atoms: N2_11  and  N3_12 
REMARK       I    between atoms: N3_12  and  C7_14 
REMARK    3  A    between atoms: C7_14  and  C8_16 
ROOT
HETATM    1  C1  UNL     1      17.168  -0.180  12.866  1.00  0.00     0.036 C 
HETATM    2  C2  UNL     1      16.309   1.074  12.719  1.00  0.00     0.124 C 
HETATM    3  C3  UNL     1      16.381   1.531  11.323  1.00  0.00     0.258 C 
HETATM    4  N1  UNL     1      17.198   2.674  11.062  1.00  0.00    -0.071 N 
ATOM      5  H11 UNL     1      16.626   3.469  10.777  1.00  0.00     0.277 HD
ATOM      6  H12 UNL     1      17.742   2.542  10.208  1.00  0.00     0.277 HD
HETATM    7  C4  UNL     1      18.052   3.032  12.156  1.00  0.00     0.260 C 
HETATM    8  C5  UNL     1      17.122   3.261  13.357  1.00  0.00     0.142 C 
HETATM    9  N2  UNL     1      16.629   1.996  13.732  1.00  0.00    -0.312 N 
ENDROOT
BRANCH   9  10
HETATM   10  N3  UNL     1      15.995   1.877  14.934  1.00  0.00    -0.269 N 
HETATM   11  C7  UNL     1      16.514   1.295  16.102  1.00  0.00     0.269 C 
HETATM   12  O1  UNL     1      17.683   0.810  16.116  1.00  0.00    -0.269 OA
ATOM     13  H3  UNL     1      15.048   2.249  14.990  1.00  0.00     0.190 HD
BRANCH  11  14
HETATM   14  C8  UNL     1      15.734   1.218  17.365  1.00  0.00     0.271 C 
HETATM   15 CL2  UNL     1      14.378   2.383  17.282  1.00  0.00    -0.098 Cl
HETATM   16 CL3  UNL     1      15.069  -0.393  17.637  1.00  0.00    -0.098 Cl
ENDBRANCH  11  14
ENDBRANCH   9  10
BRANCH   8  17
HETATM   17  C6  UNL     1      17.937   3.903  14.467  1.00  0.00     0.143 C 
HETATM   18 CL1  UNL     1      17.174   5.432  14.988  1.00  0.00    -0.128 Cl
ENDBRANCH   8  17
TORSDOF 3
ENDMDL
MODEL 2
REMARK VINA RESULT: -6.442950448      1.995      3.098
REMARK  3 active torsions:
REMARK  status: ('A' for Active; 'I' for Inactive)
REMARK    1  A    between atoms: C5_8  and  C6_9 
REMARK    2  A    between atoms: N2_11  and  N3_12 
REMARK       I    between atoms: N3_12  and  C7_14 
REMARK    3  A    between atoms: C7_14  and  C8_16 
ROOT
HETATM    1  C1  UNL     1      16.818   4.986  14.753  1.00  0.00     0.036 C 
HETATM    2  C2  UNL     1      17.641   3.712  14.933  1.00  0.00     0.124 C 
HETATM    3  C3  UNL     1      18.975   3.931  14.354  1.00  0.00     0.258 C 
HETATM    4  N1  UNL     1      19.237   3.315  13.090  1.00  0.00    -0.071 N 
ATOM      5  H11 UNL     1      19.937   2.579  13.185  1.00  0.00     0.277 HD
ATOM      6  H12 UNL     1      19.743   3.954  12.476  1.00  0.00     0.277 HD
HETATM    7  C4  UNL     1      18.061   2.814  12.442  1.00  0.00     0.260 C 
HETATM    8  C5  UNL     1      17.423   1.828  13.432  1.00  0.00     0.142 C 
HETATM    9  N2  UNL     1      16.904   2.599  14.491  1.00  0.00    -0.312 N 
ENDROOT
BRANCH   9  10
HETATM   10  N3  UNL     1      16.052   2.001  15.371  1.00  0.00    -0.269 N 
HETATM   11  C7  UNL     1      16.395   1.092  16.386  1.00  0.00     0.269 C 
HETATM   12  O1  UNL     1      17.600   0.746  16.560  1.00  0.00    -0.269 OA
ATOM     13  H3  UNL     1      15.064   2.238  15.284  1.00  0.00     0.190 HD
BRANCH  11  14
HETATM   14  C8  UNL     1      15.381   0.496  17.296  1.00  0.00     0.271 C 
HETATM   15 CL2  UNL     1      15.366   1.418  18.829  1.00  0.00    -0.098 Cl
HETATM   16 CL3  UNL     1      13.760   0.541  16.602  1.00  0.00    -0.098 Cl
ENDBRANCH  11  14
ENDBRANCH   9  10
BRANCH   8  17
HETATM   17  C6  UNL     1      16.332   1.065  12.700  1.00  0.00     0.143 C 
HETATM   18 CL1  UNL     1      16.866  -0.605  12.362  1.00  0.00    -0.128 Cl
ENDBRANCH   8  17
TORSDOF 3
ENDMDL
MODEL 3
REMARK VINA RESULT: -5.861658160      1.944      3.241
REMARK  3 active torsions:
REMARK  status: ('A' for Active; 'I' for Inactive)
REMARK    1  A    between atoms: C5_8  and  C6_9 
REMARK    2  A    between atoms: N2_11  and  N3_12 
REMARK       I    between atoms: N3_12  and  C7_14 
REMARK    3  A    between atoms: C7_14  and  C8_16 
ROOT
HETATM    1  C1  UNL     1      17.580   5.341  14.505  1.00  0.00     0.036 C 
HETATM    2  C2  UNL     1      18.110   3.917  14.659  1.00  0.00     0.124 C 
HETATM    3  C3  UNL     1      19.529   3.901  14.272  1.00  0.00     0.258 C 
HETATM    4  N1  UNL     1      19.843   3.339  12.996  1.00  0.00    -0.071 N 
ATOM      5  H11 UNL     1      20.369   2.471  13.103  1.00  0.00     0.277 HD
ATOM      6  H12 UNL     1      20.543   3.904  12.515  1.00  0.00     0.277 HD
HETATM    7  C4  UNL     1      18.695   3.135  12.162  1.00  0.00     0.260 C 
HETATM    8  C5  UNL     1      17.748   2.230  12.964  1.00  0.00     0.142 C 
HETATM    9  N2  UNL     1      17.244   3.012  14.021  1.00  0.00    -0.312 N 
ENDROOT
BRANCH   9  10
HETATM   10  N3  UNL     1      16.177   2.537  14.727  1.00  0.00    -0.269 N 
HETATM   11  C7  UNL     1      16.216   1.620  15.791  1.00  0.00     0.269 C 
HETATM   12  O1  UNL     1      17.319   1.144  16.191  1.00  0.00    -0.269 OA
ATOM     13  H3  UNL     1      15.258   2.882  14.454  1.00  0.00     0.190 HD
BRANCH  11  14
HETATM   14  C8  UNL     1      14.988   1.168  16.495  1.00  0.00     0.271 C 
HETATM   15 CL2  UNL     1      15.423  -0.142  17.634  1.00  0.00    -0.098 Cl
HETATM   16 CL3  UNL     1      14.228   2.471  17.409  1.00  0.00    -0.098 Cl
ENDBRANCH  11  14
ENDBRANCH   9  10
BRANCH   8  17
HETATM   17  C6  UNL     1      16.645   1.759  12.032  1.00  0.00     0.143 C 
HETATM   18 CL1  UNL     1      16.578  -0.026  12.006  1.00  0.00    -0.128 Cl
ENDBRANCH   8  17
TORSDOF 3
ENDMDL
MODEL 4
REMARK VINA RESULT: -5.523752167      1.911      2.982
REMARK  3 active torsions:
REMARK  status: ('A' for Active; 'I' for Inactive)
REMARK    1  A    between atoms: C5_8  and  C6_9 
REMARK    2  A    between atoms: N2_11  and  N3_12 
REMARK       I    between atoms: N3_12  and  C7_14 
REMARK    3  A    between atoms: C7_14  and  C8_16 
ROOT
HETATM    1  C1  UNL     1      16.063   5.475  13.029  1.00  0.00     0.036 C 
HETATM    2  C2  UNL     1      17.178   4.490  13.378  1.00  0.00     0.124 C 
HETATM    3  C3  UNL     1      18.361   4.815  12.566  1.00  0.00     0.258 C 
HETATM    4  N1  UNL     1      18.638   3.953  11.460  1.00  0.00    -0.071 N 
ATOM      5  H11 UNL     1      19.498   3.429  11.618  1.00  0.00     0.277 HD
ATOM      6  H12 UNL     1      18.917   4.495  10.641  1.00  0.00     0.277 HD
HETATM    7  C4  UNL     1      17.558   3.068  11.138  1.00  0.00     0.260 C 
HETATM    8  C5  UNL     1      17.270   2.272  12.420  1.00  0.00     0.142 C 
HETATM    9  N2  UNL     1      16.687   3.174  13.331  1.00  0.00    -0.312 N 
ENDROOT
BRANCH   9  10
HETATM   10  N3  UNL     1      16.090   2.670  14.449  1.00  0.00    -0.269 N 
HETATM   11  C7  UNL     1      16.732   2.218  15.613  1.00  0.00     0.269 C 
HETATM   12  O1  UNL     1      17.995   2.252  15.706  1.00  0.00    -0.269 OA
ATOM     13  H3  UNL     1      15.072   2.616  14.438  1.00  0.00     0.190 HD
BRANCH  11  14
HETATM   14  C8  UNL     1      15.981   1.686  16.780  1.00  0.00     0.271 C 
HETATM   15 CL2  UNL     1      14.427   2.560  16.917  1.00  0.00    -0.098 Cl
HETATM   16 CL3  UNL     1      15.640  -0.037  16.619  1.00  0.00    -0.098 Cl
ENDBRANCH  11  14
ENDBRANCH   9  10
BRANCH   8  17
HETATM   17  C6  UNL     1      16.325   1.136  12.066  1.00  0.00     0.143 C 
HETATM   18 CL1  UNL     1      16.988  -0.420  12.641  1.00  0.00    -0.128 Cl
ENDBRANCH   8  17
TORSDOF 3
ENDMDL
MODEL 5
REMARK VINA RESULT: -5.435583868      2.201      3.376
REMARK  3 active torsions:
REMARK  status: ('A' for Active; 'I' for Inactive)
REMARK    1  A    between atoms: C5_8  and  C6_9 
REMARK    2  A    between atoms: N2_11  and  N3_12 
REMARK       I    between atoms: N3_12  and  C7_14 
REMARK    3  A    between atoms: C7_14  and  C8_16 
ROOT
HETATM    1  C1  UNL     1      17.305   5.277  14.519  1.00  0.00     0.036 C 
HETATM    2  C2  UNL     1      18.185   4.033  14.403  1.00  0.00     0.124 C 
HETATM    3  C3  UNL     1      19.381   4.378  13.618  1.00  0.00     0.258 C 
HETATM    4  N1  UNL     1      19.420   3.911  12.267  1.00  0.00    -0.071 N 
ATOM      5  H11 UNL     1      20.148   3.206  12.150  1.00  0.00     0.277 HD
ATOM      6  H12 UNL     1      19.783   4.635  11.646  1.00  0.00     0.277 HD
HETATM    7  C4  UNL     1      18.160   3.422  11.793  1.00  0.00     0.260 C 
HETATM    8  C5  UNL     1      17.748   2.307  12.766  1.00  0.00     0.142 C 
HETATM    9  N2  UNL     1      17.413   2.937  13.980  1.00  0.00    -0.312 N 
ENDROOT
BRANCH   9  10
HETATM   10  N3  UNL     1      16.758   2.208  14.929  1.00  0.00    -0.269 N 
HETATM   11  C7  UNL     1      15.400   2.307  15.274  1.00  0.00     0.269 C 
HETATM   12  O1  UNL     1      14.645   3.136  14.687  1.00  0.00    -0.269 OA
ATOM     13  H3  UNL     1      17.311   1.521  15.441  1.00  0.00     0.190 HD
BRANCH  11  14
HETATM   14  C8  UNL     1      14.784   1.460  16.329  1.00  0.00     0.271 C 
HETATM   15 CL2  UNL     1      15.771  -0.018  16.536  1.00  0.00    -0.098 Cl
HETATM   16 CL3  UNL     1      14.694   2.294  17.881  1.00  0.00    -0.098 Cl
ENDBRANCH  11  14
ENDBRANCH   9  10
BRANCH   8  17
HETATM   17  C6  UNL     1      16.563   1.571  12.164  1.00  0.00     0.143 C 
HETATM   18 CL1  UNL     1      16.786  -0.194  12.326  1.00  0.00    -0.128 Cl
ENDBRANCH   8  17
TORSDOF 3
ENDMDL
