MODEL 1
REMARK VINA RESULT: -6.155212798      0.000      0.000
REMARK  4 active torsions:
REMARK  status: ('A' for Active; 'I' for Inactive)
REMARK    1  A    between atoms: C2_5  and  C3_6 
REMARK    2  A    between atoms: C3_6  and  C4_7 
REMARK    3  A    between atoms: C4_7  and  O2_8 
REMARK    4  A    between atoms: C7_12  and  N2_13 
ROOT
HETATM    1  O1  UNL     1      18.533   2.550  15.314  1.00  0.00    -0.271 OA
HETATM    2  C1  UNL     1      17.622   3.046  14.548  1.00  0.00     0.240 C 
HETATM    3  N1  UNL     1      17.934   3.444  13.229  1.00  0.00    -0.355 N 
ATOM      4  H1  UNL     1      18.641   2.941  12.694  1.00  0.00     0.162 HD
HETATM    5  C2  UNL     1      17.226   4.601  12.627  1.00  0.00     0.086 C 
HETATM    6  C5  UNL     1      16.285   5.087  13.656  1.00  0.00     0.028 C 
HETATM    7  C6  UNL     1      15.391   3.952  14.146  1.00  0.00     0.037 C 
HETATM    8  C7  UNL     1      16.280   3.163  15.116  1.00  0.00     0.175 C 
ENDROOT
BRANCH   8   9
HETATM    9  N2  UNL     1      15.638   2.001  15.550  1.00  0.00    -0.380 N 
HETATM   10  C8  UNL     1      16.050   0.733  15.170  1.00  0.00     0.059 C 
HETATM   11  C9  UNL     1      15.997  -0.336  16.227  1.00  0.00     0.044 C 
HETATM   12  C10 UNL     1      14.948  -0.085  17.278  1.00  0.00     0.007 C 
HETATM   13  C11 UNL     1      13.901   0.878  16.740  1.00  0.00     0.020 C 
HETATM   14  C12 UNL     1      14.654   2.196  16.530  1.00  0.00     0.123 C 
ENDBRANCH   8   9
BRANCH   5  15
HETATM   15  C3  UNL     1      16.653   4.230  11.314  1.00  0.00     0.051 C 
BRANCH  15  16
HETATM   16  C4  UNL     1      16.978   2.819  10.930  1.00  0.00     0.166 C 
BRANCH  16  17
HETATM   17  O2  UNL     1      15.963   1.915  11.069  1.00  0.00    -0.401 OA
ATOM     18  H2  UNL     1      16.090   1.249  11.734  1.00  0.00     0.209 HD
ENDBRANCH  16  17
ENDBRANCH  15  16
ENDBRANCH   5  15
TORSDOF 4
ENDMDL
MODEL 2
REMARK VINA RESULT: -6.139108925      1.648      2.019
REMARK  4 active torsions:
REMARK  status: ('A' for Active; 'I' for Inactive)
REMARK    1  A    between atoms: C2_5  and  C3_6 
REMARK    2  A    between atoms: C3_6  and  C4_7 
REMARK    3  A    between atoms: C4_7  and  O2_8 
REMARK    4  A    between atoms: C7_12  and  N2_13 
ROOT
HETATM    1  O1  UNL     1      16.336   0.173  12.788  1.00  0.00    -0.271 OA
HETATM    2  C1  UNL     1      16.567   1.379  13.180  1.00  0.00     0.240 C 
HETATM    3  N1  UNL     1      16.549   2.449  12.257  1.00  0.00    -0.355 N 
ATOM      4  H1  UNL     1      15.914   2.429  11.460  1.00  0.00     0.162 HD
HETATM    5  C2  UNL     1      17.462   3.602  12.455  1.00  0.00     0.086 C 
HETATM    6  C5  UNL     1      18.228   3.313  13.684  1.00  0.00     0.028 C 
HETATM    7  C6  UNL     1      17.287   3.013  14.847  1.00  0.00     0.037 C 
HETATM    8  C7  UNL     1      16.838   1.565  14.605  1.00  0.00     0.175 C 
ENDROOT
BRANCH   8   9
HETATM    9  N2  UNL     1      15.857   1.187  15.524  1.00  0.00    -0.380 N 
HETATM   10  C8  UNL     1      15.838  -0.062  16.126  1.00  0.00     0.059 C 
HETATM   11  C9  UNL     1      15.446  -0.104  17.577  1.00  0.00     0.044 C 
HETATM   12  C10 UNL     1      14.536   1.026  17.982  1.00  0.00     0.007 C 
HETATM   13  C11 UNL     1      13.854   1.603  16.751  1.00  0.00     0.020 C 
HETATM   14  C12 UNL     1      14.990   2.213  15.925  1.00  0.00     0.123 C 
ENDBRANCH   8   9
BRANCH   5  15
HETATM   15  C3  UNL     1      16.704   4.873  12.420  1.00  0.00     0.051 C 
BRANCH  15  16
HETATM   16  C4  UNL     1      16.338   5.278  11.025  1.00  0.00     0.166 C 
BRANCH  16  17
HETATM   17  O2  UNL     1      15.463   4.453  10.376  1.00  0.00    -0.401 OA
ATOM     18  H2  UNL     1      15.426   4.550   9.431  1.00  0.00     0.209 HD
ENDBRANCH  16  17
ENDBRANCH  15  16
ENDBRANCH   5  15
TORSDOF 4
ENDMDL
MODEL 3
REMARK VINA RESULT: -6.087194191      1.638      2.194
REMARK  4 active torsions:
REMARK  status: ('A' for Active; 'I' for Inactive)
REMARK    1  A    between atoms: C2_5  and  C3_6 
REMARK    2  A    between atoms: C3_6  and  C4_7 
REMARK    3  A    between atoms: C4_7  and  O2_8 
REMARK    4  A    between atoms: C7_12  and  N2_13 
ROOT
HETATM    1  O1  UNL     1      16.324   0.278  13.228  1.00  0.00    -0.271 OA
HETATM    2  C1  UNL     1      16.559   1.515  13.501  1.00  0.00     0.240 C 
HETATM    3  N1  UNL     1      16.479   2.500  12.491  1.00  0.00    -0.355 N 
ATOM      4  H1  UNL     1      15.803   2.405  11.734  1.00  0.00     0.162 HD
HETATM    5  C2  UNL     1      17.386   3.674  12.539  1.00  0.00     0.086 C 
HETATM    6  C5  UNL     1      18.220   3.499  13.746  1.00  0.00     0.028 C 
HETATM    7  C6  UNL     1      17.345   3.294  14.979  1.00  0.00     0.037 C 
HETATM    8  C7  UNL     1      16.903   1.827  14.888  1.00  0.00     0.175 C 
ENDROOT
BRANCH   8   9
HETATM    9  N2  UNL     1      15.977   1.522  15.887  1.00  0.00    -0.380 N 
HETATM   10  C8  UNL     1      14.803   2.239  16.063  1.00  0.00     0.059 C 
HETATM   11  C9  UNL     1      13.576   1.444  16.418  1.00  0.00     0.044 C 
HETATM   12  C10 UNL     1      13.884   0.166  17.152  1.00  0.00     0.007 C 
HETATM   13  C11 UNL     1      15.267   0.256  17.781  1.00  0.00     0.020 C 
HETATM   14  C12 UNL     1      16.231   0.338  16.593  1.00  0.00     0.123 C 
ENDBRANCH   8   9
BRANCH   5  15
HETATM   15  C3  UNL     1      16.611   4.931  12.434  1.00  0.00     0.051 C 
BRANCH  15  16
HETATM   16  C4  UNL     1      16.322   5.303  11.012  1.00  0.00     0.166 C 
BRANCH  16  17
HETATM   17  O2  UNL     1      15.503   4.452  10.328  1.00  0.00    -0.401 OA
ATOM     18  H2  UNL     1      15.214   4.752   9.474  1.00  0.00     0.209 HD
ENDBRANCH  16  17
ENDBRANCH  15  16
ENDBRANCH   5  15
TORSDOF 4
ENDMDL
MODEL 4
REMARK VINA RESULT: -6.058015965      2.057      5.342
REMARK  4 active torsions:
REMARK  status: ('A' for Active; 'I' for Inactive)
REMARK    1  A    between atoms: C2_5  and  C3_6 
REMARK    2  A    between atoms: C3_6  and  C4_7 
REMARK    3  A    between atoms: C4_7  and  O2_8 
REMARK    4  A    between atoms: C7_12  and  N2_13 
ROOT
HETATM    1  O1  UNL     1      17.192   1.004  12.684  1.00  0.00    -0.271 OA
HETATM    2  C1  UNL     1      16.666   1.526  13.738  1.00  0.00     0.240 C 
HETATM    3  N1  UNL     1      16.366   0.725  14.862  1.00  0.00    -0.355 N 
ATOM      4  H1  UNL     1      16.955  -0.075  15.094  1.00  0.00     0.162 HD
HETATM    5  C2  UNL     1      15.190   1.055  15.704  1.00  0.00     0.086 C 
HETATM    6  C5  UNL     1      14.573   2.251  15.097  1.00  0.00     0.028 C 
HETATM    7  C6  UNL     1      15.603   3.366  14.941  1.00  0.00     0.037 C 
HETATM    8  C7  UNL     1      16.408   2.965  13.698  1.00  0.00     0.175 C 
ENDROOT
BRANCH   8   9
HETATM    9  N2  UNL     1      17.487   3.829  13.502  1.00  0.00    -0.380 N 
HETATM   10  C8  UNL     1      17.440   4.898  12.621  1.00  0.00     0.059 C 
HETATM   11  C9  UNL     1      18.110   6.168  13.067  1.00  0.00     0.044 C 
HETATM   12  C10 UNL     1      19.244   5.938  14.031  1.00  0.00     0.007 C 
HETATM   13  C11 UNL     1      19.739   4.505  13.909  1.00  0.00     0.020 C 
HETATM   14  C12 UNL     1      18.563   3.645  14.382  1.00  0.00     0.123 C 
ENDBRANCH   8   9
BRANCH   5  15
HETATM   15  C3  UNL     1      15.584   1.151  17.128  1.00  0.00     0.051 C 
BRANCH  15  16
HETATM   16  C4  UNL     1      15.358  -0.132  17.868  1.00  0.00     0.166 C 
BRANCH  16  17
HETATM   17  O2  UNL     1      15.197  -1.246  17.094  1.00  0.00    -0.401 OA
ATOM     18  H2  UNL     1      14.611  -1.909  17.438  1.00  0.00     0.209 HD
ENDBRANCH  16  17
ENDBRANCH  15  16
ENDBRANCH   5  15
TORSDOF 4
ENDMDL
MODEL 5
REMARK VINA RESULT: -6.027796828      2.163      5.307
REMARK  4 active torsions:
REMARK  status: ('A' for Active; 'I' for Inactive)
REMARK    1  A    between atoms: C2_5  and  C3_6 
REMARK    2  A    between atoms: C3_6  and  C4_7 
REMARK    3  A    between atoms: C4_7  and  O2_8 
REMARK    4  A    between atoms: C7_12  and  N2_13 
ROOT
HETATM    1  O1  UNL     1      17.582   1.548  12.805  1.00  0.00    -0.271 OA
HETATM    2  C1  UNL     1      16.954   1.933  13.863  1.00  0.00     0.240 C 
HETATM    3  N1  UNL     1      16.546   0.993  14.836  1.00  0.00    -0.355 N 
ATOM      4  H1  UNL     1      17.109   0.162  15.015  1.00  0.00     0.162 HD
HETATM    5  C2  UNL     1      15.292   1.223  15.596  1.00  0.00     0.086 C 
HETATM    6  C5  UNL     1      14.737   2.498  15.096  1.00  0.00     0.028 C 
HETATM    7  C6  UNL     1      15.777   3.610  15.191  1.00  0.00     0.037 C 
HETATM    8  C7  UNL     1      16.701   3.368  13.990  1.00  0.00     0.175 C 
ENDROOT
BRANCH   8   9
HETATM    9  N2  UNL     1      17.794   4.236  14.018  1.00  0.00    -0.380 N 
HETATM   10  C8  UNL     1      19.101   3.799  13.859  1.00  0.00     0.059 C 
HETATM   11  C9  UNL     1      20.009   4.677  13.044  1.00  0.00     0.044 C 
HETATM   12  C10 UNL     1      19.620   6.132  13.075  1.00  0.00     0.007 C 
HETATM   13  C11 UNL     1      18.750   6.404  14.293  1.00  0.00     0.020 C 
HETATM   14  C12 UNL     1      17.470   5.599  14.047  1.00  0.00     0.123 C 
ENDBRANCH   8   9
BRANCH   5  15
HETATM   15  C3  UNL     1      15.544   1.125  17.051  1.00  0.00     0.051 C 
BRANCH  15  16
HETATM   16  C4  UNL     1      15.148  -0.209  17.607  1.00  0.00     0.166 C 
BRANCH  16  17
HETATM   17  O2  UNL     1      15.363  -1.282  16.790  1.00  0.00    -0.401 OA
ATOM     18  H2  UNL     1      15.678  -1.082  15.917  1.00  0.00     0.209 HD
ENDBRANCH  16  17
ENDBRANCH  15  16
ENDBRANCH   5  15
TORSDOF 4
ENDMDL
