MODEL 1
REMARK VINA RESULT: -5.675476355      0.000      0.000
REMARK  4 active torsions:
REMARK  status: ('A' for Active; 'I' for Inactive)
REMARK    1  A    between atoms: C4_4  and  O1_5 
REMARK    2  A    between atoms: N1_8  and  C6_9 
REMARK    3  A    between atoms: C6_9  and  C7_10 
REMARK    4  A    between atoms: C7_10  and  N2_11 
ROOT
HETATM    1  C6  UNL     1      15.545   2.828  14.957  1.00  0.00     0.292 C 
ENDROOT
BRANCH   1   2
HETATM    2  N1  UNL     1      15.014   1.588  15.464  1.00  0.00     0.096 N 
HETATM    3  C2  UNL     1      14.017   1.748  16.479  1.00  0.00     0.221 C 
HETATM    4  C1  UNL     1      14.399   2.556  17.667  1.00  0.00     0.043 C 
HETATM    5  C3  UNL     1      13.797   0.311  16.905  1.00  0.00     0.069 C 
HETATM    6  C4  UNL     1      15.227  -0.255  16.827  1.00  0.00     0.148 C 
HETATM    7  C5  UNL     1      16.035   0.783  16.100  1.00  0.00     0.304 C 
BRANCH   6   8
HETATM    8  O1  UNL     1      15.715  -0.476  18.119  1.00  0.00    -0.394 OA
ATOM      9  H1  UNL     1      16.147  -1.322  18.156  1.00  0.00     0.210 HD
ENDBRANCH   6   8
ENDBRANCH   1   2
BRANCH   1  10
HETATM   10  C7  UNL     1      16.954   2.690  14.502  1.00  0.00     0.155 C 
BRANCH  10  11
HETATM   11  N2  UNL     1      17.182   2.675  13.097  1.00  0.00    -0.355 N 
HETATM   12  C8  UNL     1      17.768   3.793  12.329  1.00  0.00     0.145 C 
HETATM   13  C9  UNL     1      16.943   3.756  11.072  1.00  0.00     0.142 C 
HETATM   14  N3  UNL     1      16.760   2.332  10.836  1.00  0.00    -0.366 N 
HETATM   15  C10 UNL     1      16.899   1.696  12.113  1.00  0.00     0.169 C 
ATOM     16  H3  UNL     1      16.572   1.879   9.942  1.00  0.00     0.161 HD
HETATM   17  S1  UNL     1      16.738   0.105  12.367  1.00  0.00    -0.041 SA
ENDBRANCH  10  11
ENDBRANCH   1  10
TORSDOF 4
ENDMDL
MODEL 2
REMARK VINA RESULT: -5.433589854      1.214      1.357
REMARK  4 active torsions:
REMARK  status: ('A' for Active; 'I' for Inactive)
REMARK    1  A    between atoms: C4_4  and  O1_5 
REMARK    2  A    between atoms: N1_8  and  C6_9 
REMARK    3  A    between atoms: C6_9  and  C7_10 
REMARK    4  A    between atoms: C7_10  and  N2_11 
ROOT
HETATM    1  C6  UNL     1      15.432   3.339  15.450  1.00  0.00     0.292 C 
ENDROOT
BRANCH   1   2
HETATM    2  N1  UNL     1      14.987   1.985  15.669  1.00  0.00     0.096 N 
HETATM    3  C2  UNL     1      13.956   1.859  16.654  1.00  0.00     0.221 C 
HETATM    4  C1  UNL     1      14.244   2.428  17.997  1.00  0.00     0.043 C 
HETATM    5  C3  UNL     1      13.840   0.353  16.767  1.00  0.00     0.069 C 
HETATM    6  C4  UNL     1      15.311  -0.080  16.632  1.00  0.00     0.148 C 
HETATM    7  C5  UNL     1      16.052   1.142  16.167  1.00  0.00     0.304 C 
BRANCH   6   8
HETATM    8  O1  UNL     1      15.782  -0.530  17.870  1.00  0.00    -0.394 OA
ATOM      9  H1  UNL     1      15.688  -1.474  17.922  1.00  0.00     0.210 HD
ENDBRANCH   6   8
ENDBRANCH   1   2
BRANCH   1  10
HETATM   10  C7  UNL     1      15.902   3.554  14.056  1.00  0.00     0.155 C 
BRANCH  10  11
HETATM   11  N2  UNL     1      17.193   3.053  13.724  1.00  0.00    -0.355 N 
HETATM   12  C8  UNL     1      18.457   3.521  14.328  1.00  0.00     0.145 C 
HETATM   13  C9  UNL     1      19.375   3.522  13.136  1.00  0.00     0.142 C 
HETATM   14  N3  UNL     1      18.965   2.338  12.399  1.00  0.00    -0.366 N 
HETATM   15  C10 UNL     1      17.605   2.085  12.774  1.00  0.00     0.169 C 
ATOM     16  H3  UNL     1      19.531   1.796  11.747  1.00  0.00     0.161 HD
HETATM   17  S1  UNL     1      16.698   0.883  12.182  1.00  0.00    -0.041 SA
ENDBRANCH  10  11
ENDBRANCH   1  10
TORSDOF 4
ENDMDL
MODEL 3
REMARK VINA RESULT: -5.316460792      2.053      2.310
REMARK  4 active torsions:
REMARK  status: ('A' for Active; 'I' for Inactive)
REMARK    1  A    between atoms: C4_4  and  O1_5 
REMARK    2  A    between atoms: N1_8  and  C6_9 
REMARK    3  A    between atoms: C6_9  and  C7_10 
REMARK    4  A    between atoms: C7_10  and  N2_11 
ROOT
HETATM    1  C6  UNL     1      15.576   2.931  14.955  1.00  0.00     0.292 C 
ENDROOT
BRANCH   1   2
HETATM    2  N1  UNL     1      15.067   1.665  15.423  1.00  0.00     0.096 N 
HETATM    3  C2  UNL     1      14.025   1.776  16.399  1.00  0.00     0.221 C 
HETATM    4  C1  UNL     1      14.331   2.578  17.612  1.00  0.00     0.043 C 
HETATM    5  C3  UNL     1      13.837   0.327  16.795  1.00  0.00     0.069 C 
HETATM    6  C4  UNL     1      15.287  -0.190  16.767  1.00  0.00     0.148 C 
HETATM    7  C5  UNL     1      16.087   0.886  16.088  1.00  0.00     0.304 C 
BRANCH   6   8
HETATM    8  O1  UNL     1      15.729  -0.415  18.075  1.00  0.00    -0.394 OA
ATOM      9  H1  UNL     1      16.238   0.331  18.371  1.00  0.00     0.210 HD
ENDBRANCH   6   8
ENDBRANCH   1   2
BRANCH   1  10
HETATM   10  C7  UNL     1      17.057   3.005  15.044  1.00  0.00     0.155 C 
BRANCH  10  11
HETATM   11  N2  UNL     1      17.756   3.418  13.874  1.00  0.00    -0.355 N 
HETATM   12  C8  UNL     1      17.936   2.588  12.666  1.00  0.00     0.145 C 
HETATM   13  C9  UNL     1      19.350   2.926  12.279  1.00  0.00     0.142 C 
HETATM   14  N3  UNL     1      19.444   4.347  12.572  1.00  0.00    -0.366 N 
HETATM   15  C10 UNL     1      18.455   4.614  13.575  1.00  0.00     0.169 C 
ATOM     16  H3  UNL     1      20.085   5.019  12.150  1.00  0.00     0.161 HD
HETATM   17  S1  UNL     1      18.204   6.062  14.253  1.00  0.00    -0.041 SA
ENDBRANCH  10  11
ENDBRANCH   1  10
TORSDOF 4
ENDMDL
MODEL 4
REMARK VINA RESULT: -5.150660395      2.450      3.133
REMARK  4 active torsions:
REMARK  status: ('A' for Active; 'I' for Inactive)
REMARK    1  A    between atoms: C4_4  and  O1_5 
REMARK    2  A    between atoms: N1_8  and  C6_9 
REMARK    3  A    between atoms: C6_9  and  C7_10 
REMARK    4  A    between atoms: C7_10  and  N2_11 
ROOT
HETATM    1  C6  UNL     1      16.425   2.462  14.544  1.00  0.00     0.292 C 
ENDROOT
BRANCH   1   2
HETATM    2  N1  UNL     1      15.924   1.949  15.795  1.00  0.00     0.096 N 
HETATM    3  C2  UNL     1      16.545   0.732  16.222  1.00  0.00     0.221 C 
HETATM    4  C1  UNL     1      16.516  -0.403  15.262  1.00  0.00     0.043 C 
HETATM    5  C3  UNL     1      15.706   0.382  17.433  1.00  0.00     0.069 C 
HETATM    6  C4  UNL     1      14.303   0.813  16.970  1.00  0.00     0.148 C 
HETATM    7  C5  UNL     1      14.518   1.615  15.717  1.00  0.00     0.304 C 
BRANCH   6   8
HETATM    8  O1  UNL     1      13.520  -0.321  16.728  1.00  0.00    -0.394 OA
ATOM      9  H1  UNL     1      12.631  -0.056  16.523  1.00  0.00     0.210 HD
ENDBRANCH   6   8
ENDBRANCH   1   2
BRANCH   1  10
HETATM   10  C7  UNL     1      17.410   3.557  14.743  1.00  0.00     0.155 C 
BRANCH  10  11
HETATM   11  N2  UNL     1      18.347   3.784  13.696  1.00  0.00    -0.355 N 
HETATM   12  C8  UNL     1      18.529   2.900  12.526  1.00  0.00     0.145 C 
HETATM   13  C9  UNL     1      20.024   2.928  12.361  1.00  0.00     0.142 C 
HETATM   14  N3  UNL     1      20.367   4.307  12.670  1.00  0.00    -0.366 N 
HETATM   15  C10 UNL     1      19.316   4.801  13.511  1.00  0.00     0.169 C 
ATOM     16  H3  UNL     1      21.190   4.819  12.353  1.00  0.00     0.161 HD
HETATM   17  S1  UNL     1      19.273   6.288  14.148  1.00  0.00    -0.041 SA
ENDBRANCH  10  11
ENDBRANCH   1  10
TORSDOF 4
ENDMDL
MODEL 5
REMARK VINA RESULT: -5.146156001      1.961      2.589
REMARK  4 active torsions:
REMARK  status: ('A' for Active; 'I' for Inactive)
REMARK    1  A    between atoms: C4_4  and  O1_5 
REMARK    2  A    between atoms: N1_8  and  C6_9 
REMARK    3  A    between atoms: C6_9  and  C7_10 
REMARK    4  A    between atoms: C7_10  and  N2_11 
ROOT
HETATM    1  C6  UNL     1      15.096   3.547  14.903  1.00  0.00     0.292 C 
ENDROOT
BRANCH   1   2
HETATM    2  N1  UNL     1      15.570   2.541  15.821  1.00  0.00     0.096 N 
HETATM    3  C2  UNL     1      16.583   1.685  15.282  1.00  0.00     0.221 C 
HETATM    4  C1  UNL     1      16.252   0.976  14.018  1.00  0.00     0.043 C 
HETATM    5  C3  UNL     1      16.736   0.672  16.396  1.00  0.00     0.069 C 
HETATM    6  C4  UNL     1      15.280   0.513  16.869  1.00  0.00     0.148 C 
HETATM    7  C5  UNL     1      14.517   1.631  16.216  1.00  0.00     0.304 C 
BRANCH   6   8
HETATM    8  O1  UNL     1      14.794  -0.739  16.479  1.00  0.00    -0.394 OA
ATOM      9  H1  UNL     1      13.850  -0.762  16.588  1.00  0.00     0.210 HD
ENDBRANCH   6   8
ENDBRANCH   1   2
BRANCH   1  10
HETATM   10  C7  UNL     1      16.060   4.669  14.756  1.00  0.00     0.155 C 
BRANCH  10  11
HETATM   11  N2  UNL     1      16.688   4.821  13.487  1.00  0.00    -0.355 N 
HETATM   12  C8  UNL     1      16.080   5.501  12.325  1.00  0.00     0.145 C 
HETATM   13  C9  UNL     1      16.525   4.614  11.194  1.00  0.00     0.142 C 
HETATM   14  N3  UNL     1      17.879   4.245  11.576  1.00  0.00    -0.366 N 
HETATM   15  C10 UNL     1      17.940   4.368  13.002  1.00  0.00     0.169 C 
ATOM     16  H3  UNL     1      18.633   3.955  10.953  1.00  0.00     0.161 HD
HETATM   17  S1  UNL     1      19.243   4.025  13.898  1.00  0.00    -0.041 SA
ENDBRANCH  10  11
ENDBRANCH   1  10
TORSDOF 4
ENDMDL
