MODEL 1
REMARK VINA RESULT: -6.476859029      0.000      0.000
REMARK  3 active torsions:
REMARK  status: ('A' for Active; 'I' for Inactive)
REMARK    1  A    between atoms: C3_4  and  N1_5 
REMARK    2  A    between atoms: N1_5  and  C4_8 
REMARK    3  A    between atoms: C4_8  and  C5_9 
ROOT
HETATM    1  O1  UNL     1      16.564   2.046  10.216  1.00  0.00    -0.273 OA
HETATM    2  C1  UNL     1      16.772   1.973  11.474  1.00  0.00     0.222 C 
HETATM    3  C2  UNL     1      16.534   0.813  12.375  1.00  0.00     0.138 C 
HETATM    4  C3  UNL     1      16.217   1.442  13.717  1.00  0.00     0.217 C 
HETATM    5  C8  UNL     1      16.932   2.758  13.691  1.00  0.00     0.118 C 
HETATM    6  C9  UNL     1      16.037   3.901  14.121  1.00  0.00     0.027 C 
HETATM    7  C10 UNL     1      16.028   5.019  13.107  1.00  0.00     0.004 C 
HETATM    8  C11 UNL     1      17.498   5.369  12.846  1.00  0.00     0.020 C 
HETATM    9  C12 UNL     1      18.061   4.198  12.030  1.00  0.00     0.126 C 
HETATM   10  N3  UNL     1      17.286   3.005  12.304  1.00  0.00    -0.345 N 
ENDROOT
BRANCH   4  11
HETATM   11  N1  UNL     1      16.628   0.589  14.815  1.00  0.00    -0.068 N 
ATOM     12  H12 UNL     1      16.024  -0.224  14.929  1.00  0.00     0.277 HD
ATOM     13  H11 UNL     1      17.496   0.090  14.623  1.00  0.00     0.277 HD
BRANCH  11  14
HETATM   14  C4  UNL     1      16.702   1.397  16.005  1.00  0.00     0.240 C 
BRANCH  14  15
HETATM   15  C5  UNL     1      15.705   1.007  17.055  1.00  0.00     0.062 C 
HETATM   16  C6  UNL     1      15.111  -0.357  16.937  1.00  0.00     0.240 C 
HETATM   17  N2  UNL     1      13.800   0.238  17.207  1.00  0.00    -0.074 N 
HETATM   18  C7  UNL     1      14.306   1.469  16.632  1.00  0.00     0.240 C 
ATOM     19  H22 UNL     1      12.944  -0.193  16.856  1.00  0.00     0.277 HD
ATOM     20  H21 UNL     1      13.398   0.223  18.145  1.00  0.00     0.277 HD
ENDBRANCH  14  15
ENDBRANCH  11  14
ENDBRANCH   4  11
TORSDOF 3
ENDMDL
MODEL 2
REMARK VINA RESULT: -6.293235356      2.375      5.681
REMARK  3 active torsions:
REMARK  status: ('A' for Active; 'I' for Inactive)
REMARK    1  A    between atoms: C3_4  and  N1_5 
REMARK    2  A    between atoms: N1_5  and  C4_8 
REMARK    3  A    between atoms: C4_8  and  C5_9 
ROOT
HETATM    1  O1  UNL     1      18.057   0.735  16.449  1.00  0.00    -0.273 OA
HETATM    2  C1  UNL     1      17.141   1.404  15.861  1.00  0.00     0.222 C 
HETATM    3  C2  UNL     1      17.299   2.588  14.976  1.00  0.00     0.138 C 
HETATM    4  C3  UNL     1      16.024   3.381  15.182  1.00  0.00     0.217 C 
HETATM    5  C8  UNL     1      15.004   2.355  15.569  1.00  0.00     0.118 C 
HETATM    6  C9  UNL     1      14.220   2.765  16.797  1.00  0.00     0.027 C 
HETATM    7  C10 UNL     1      14.239   1.693  17.860  1.00  0.00     0.004 C 
HETATM    8  C11 UNL     1      13.790   0.400  17.169  1.00  0.00     0.020 C 
HETATM    9  C12 UNL     1      14.963  -0.015  16.271  1.00  0.00     0.126 C 
HETATM   10  N3  UNL     1      15.744   1.156  15.928  1.00  0.00    -0.345 N 
ENDROOT
BRANCH   4  11
HETATM   11  N1  UNL     1      15.662   4.127  13.993  1.00  0.00    -0.068 N 
ATOM     12  H12 UNL     1      15.522   3.529  13.180  1.00  0.00     0.277 HD
ATOM     13  H11 UNL     1      14.719   4.514  14.043  1.00  0.00     0.277 HD
BRANCH  11  14
HETATM   14  C4  UNL     1      16.667   5.135  13.775  1.00  0.00     0.240 C 
BRANCH  14  15
HETATM   15  C5  UNL     1      16.761   5.585  12.347  1.00  0.00     0.062 C 
HETATM   16  C6  UNL     1      15.481   5.967  11.682  1.00  0.00     0.240 C 
HETATM   17  N2  UNL     1      15.907   5.191  10.514  1.00  0.00    -0.074 N 
HETATM   18  C7  UNL     1      16.685   4.367  11.419  1.00  0.00     0.240 C 
ATOM     19  H22 UNL     1      15.224   4.776   9.881  1.00  0.00     0.277 HD
ATOM     20  H21 UNL     1      16.343   5.646   9.712  1.00  0.00     0.277 HD
ENDBRANCH  14  15
ENDBRANCH  11  14
ENDBRANCH   4  11
TORSDOF 3
ENDMDL
MODEL 3
REMARK VINA RESULT: -6.137736028      0.991      1.198
REMARK  3 active torsions:
REMARK  status: ('A' for Active; 'I' for Inactive)
REMARK    1  A    between atoms: C3_4  and  N1_5 
REMARK    2  A    between atoms: N1_5  and  C4_8 
REMARK    3  A    between atoms: C4_8  and  C5_9 
ROOT
HETATM    1  O1  UNL     1      16.572   2.075  10.030  1.00  0.00    -0.273 OA
HETATM    2  C1  UNL     1      16.839   2.331  11.252  1.00  0.00     0.222 C 
HETATM    3  C2  UNL     1      16.747   1.415  12.420  1.00  0.00     0.138 C 
HETATM    4  C3  UNL     1      16.431   2.328  13.588  1.00  0.00     0.217 C 
HETATM    5  C8  UNL     1      17.020   3.649  13.198  1.00  0.00     0.118 C 
HETATM    6  C9  UNL     1      16.042   4.788  13.395  1.00  0.00     0.027 C 
HETATM    7  C10 UNL     1      15.888   5.618  12.143  1.00  0.00     0.004 C 
HETATM    8  C11 UNL     1      17.307   6.008  11.712  1.00  0.00     0.020 C 
HETATM    9  C12 UNL     1      17.940   4.720  11.170  1.00  0.00     0.126 C 
HETATM   10  N3  UNL     1      17.291   3.574  11.773  1.00  0.00    -0.345 N 
ENDROOT
BRANCH   4  11
HETATM   11  N1  UNL     1      16.965   1.808  14.831  1.00  0.00    -0.068 N 
ATOM     12  H12 UNL     1      17.165   0.809  14.787  1.00  0.00     0.277 HD
ATOM     13  H11 UNL     1      17.915   2.130  15.018  1.00  0.00     0.277 HD
BRANCH  11  14
HETATM   14  C4  UNL     1      16.046   2.144  15.888  1.00  0.00     0.240 C 
BRANCH  14  15
HETATM   15  C5  UNL     1      15.173   0.998  16.307  1.00  0.00     0.062 C 
HETATM   16  C6  UNL     1      15.138   0.685  17.765  1.00  0.00     0.240 C 
HETATM   17  N2  UNL     1      15.276  -0.732  17.420  1.00  0.00    -0.074 N 
HETATM   18  C7  UNL     1      15.967  -0.311  16.217  1.00  0.00     0.240 C 
ATOM     19  H22 UNL     1      15.706  -1.392  18.069  1.00  0.00     0.277 HD
ATOM     20  H21 UNL     1      14.461  -1.344  17.372  1.00  0.00     0.277 HD
ENDBRANCH  14  15
ENDBRANCH  11  14
ENDBRANCH   4  11
TORSDOF 3
ENDMDL
MODEL 4
REMARK VINA RESULT: -6.107794353      0.958      1.205
REMARK  3 active torsions:
REMARK  status: ('A' for Active; 'I' for Inactive)
REMARK    1  A    between atoms: C3_4  and  N1_5 
REMARK    2  A    between atoms: N1_5  and  C4_8 
REMARK    3  A    between atoms: C4_8  and  C5_9 
ROOT
HETATM    1  O1  UNL     1      16.189   2.044  10.833  1.00  0.00    -0.273 OA
HETATM    2  C1  UNL     1      16.798   2.227  11.940  1.00  0.00     0.222 C 
HETATM    3  C2  UNL     1      16.533   1.573  13.249  1.00  0.00     0.138 C 
HETATM    4  C3  UNL     1      16.945   2.610  14.275  1.00  0.00     0.217 C 
HETATM    5  C8  UNL     1      17.992   3.425  13.582  1.00  0.00     0.118 C 
HETATM    6  C9  UNL     1      17.740   4.912  13.720  1.00  0.00     0.027 C 
HETATM    7  C10 UNL     1      17.736   5.607  12.380  1.00  0.00     0.004 C 
HETATM    8  C11 UNL     1      19.042   5.201  11.685  1.00  0.00     0.020 C 
HETATM    9  C12 UNL     1      18.856   3.732  11.286  1.00  0.00     0.126 C 
HETATM   10  N3  UNL     1      17.885   3.114  12.166  1.00  0.00    -0.345 N 
ENDROOT
BRANCH   4  11
HETATM   11  N1  UNL     1      17.418   1.991  15.498  1.00  0.00    -0.068 N 
ATOM     12  H12 UNL     1      18.424   1.820  15.489  1.00  0.00     0.277 HD
ATOM     13  H11 UNL     1      17.394   2.626  16.296  1.00  0.00     0.277 HD
BRANCH  11  14
HETATM   14  C4  UNL     1      16.652   0.791  15.717  1.00  0.00     0.240 C 
BRANCH  14  15
HETATM   15  C5  UNL     1      15.735   0.876  16.901  1.00  0.00     0.062 C 
HETATM   16  C6  UNL     1      15.091  -0.396  17.339  1.00  0.00     0.240 C 
HETATM   17  N2  UNL     1      13.827   0.335  17.454  1.00  0.00    -0.074 N 
HETATM   18  C7  UNL     1      14.321   1.234  16.430  1.00  0.00     0.240 C 
ATOM     19  H22 UNL     1      12.931  -0.143  17.347  1.00  0.00     0.277 HD
ATOM     20  H21 UNL     1      13.505   0.690  18.355  1.00  0.00     0.277 HD
ENDBRANCH  14  15
ENDBRANCH  11  14
ENDBRANCH   4  11
TORSDOF 3
ENDMDL
MODEL 5
REMARK VINA RESULT: -6.062809466      1.866      2.578
REMARK  3 active torsions:
REMARK  status: ('A' for Active; 'I' for Inactive)
REMARK    1  A    between atoms: C3_4  and  N1_5 
REMARK    2  A    between atoms: N1_5  and  C4_8 
REMARK    3  A    between atoms: C4_8  and  C5_9 
ROOT
HETATM    1  O1  UNL     1      16.341   6.092  12.460  1.00  0.00    -0.273 OA
HETATM    2  C1  UNL     1      16.220   4.943  13.004  1.00  0.00     0.222 C 
HETATM    3  C2  UNL     1      15.079   4.426  13.805  1.00  0.00     0.138 C 
HETATM    4  C3  UNL     1      15.714   3.443  14.769  1.00  0.00     0.217 C 
HETATM    5  C8  UNL     1      16.939   2.960  14.056  1.00  0.00     0.118 C 
HETATM    6  C9  UNL     1      18.169   3.012  14.937  1.00  0.00     0.027 C 
HETATM    7  C10 UNL     1      19.300   3.764  14.277  1.00  0.00     0.004 C 
HETATM    8  C11 UNL     1      19.483   3.130  12.893  1.00  0.00     0.020 C 
HETATM    9  C12 UNL     1      18.270   3.584  12.070  1.00  0.00     0.126 C 
HETATM   10  N3  UNL     1      17.170   3.888  12.962  1.00  0.00    -0.345 N 
ENDROOT
BRANCH   4  11
HETATM   11  N1  UNL     1      14.799   2.376  15.122  1.00  0.00    -0.068 N 
ATOM     12  H12 UNL     1      13.988   2.332  14.505  1.00  0.00     0.277 HD
ATOM     13  H11 UNL     1      15.176   1.450  14.920  1.00  0.00     0.277 HD
BRANCH  11  14
HETATM   14  C4  UNL     1      14.436   2.538  16.506  1.00  0.00     0.240 C 
BRANCH  14  15
HETATM   15  C5  UNL     1      14.889   1.407  17.380  1.00  0.00     0.062 C 
HETATM   16  C6  UNL     1      15.958   0.524  16.827  1.00  0.00     0.240 C 
HETATM   17  N2  UNL     1      15.183  -0.630  17.289  1.00  0.00    -0.074 N 
HETATM   18  C7  UNL     1      13.993   0.185  17.144  1.00  0.00     0.240 C 
ATOM     19  H22 UNL     1      15.259  -1.535  16.824  1.00  0.00     0.277 HD
ATOM     20  H21 UNL     1      15.400  -1.090  18.174  1.00  0.00     0.277 HD
ENDBRANCH  14  15
ENDBRANCH  11  14
ENDBRANCH   4  11
TORSDOF 3
ENDMDL
