MODEL 1
REMARK VINA RESULT: -6.692839689      0.000      0.000
REMARK  6 active torsions:
REMARK  status: ('A' for Active; 'I' for Inactive)
REMARK    1  A    between atoms: N1_2  and  C1_3 
REMARK    2  A    between atoms: C1_3  and  N2_4 
REMARK    3  A    between atoms: N2_4  and  C2_7 
REMARK    4  A    between atoms: C2_7  and  C3_8 
REMARK    5  A    between atoms: C7_16  and  O2_17 
REMARK    6  A    between atoms: C7_16  and  C8_19 
ROOT
HETATM    1  O1  UNL     1      14.875   3.299  14.276  1.00  0.00    -0.059 OA
HETATM    2  N1  UNL     1      15.865   3.317  15.280  1.00  0.00     0.082 N 
HETATM    3  C4  UNL     1      16.242   4.716  15.337  1.00  0.00     0.371 C 
HETATM    4  C5  UNL     1      17.399   4.815  14.436  1.00  0.00     0.069 C 
HETATM    5 CL1  UNL     1      18.110   6.323  13.801  1.00  0.00    -0.085 Cl
HETATM    6  C6  UNL     1      17.861   3.619  14.130  1.00  0.00     0.103 C 
HETATM    7 CL2  UNL     1      19.232   3.246  13.089  1.00  0.00    -0.082 Cl
HETATM    8  C7  UNL     1      16.997   2.587  14.805  1.00  0.00     0.329 C 
ENDROOT
BRANCH   2   9
HETATM    9  C1  UNL     1      15.189   2.873  16.445  1.00  0.00     0.546 C 
BRANCH   9  10
HETATM   10  N2  UNL     1      14.164   1.881  16.119  1.00  0.00    -0.038 N 
ATOM     11  H22 UNL     1      13.235   2.298  16.063  1.00  0.00     0.280 HD
ATOM     12  H21 UNL     1      14.242   1.556  15.155  1.00  0.00     0.280 HD
BRANCH  10  13
HETATM   13  C2  UNL     1      14.206   0.793  17.055  1.00  0.00     0.305 C 
BRANCH  13  14
HETATM   14  C3  UNL     1      15.405   0.632  17.911  1.00  0.00     0.378 C 
HETATM   15  F1  UNL     1      15.582  -0.765  18.058  1.00  0.00    -0.213 F 
HETATM   16  F2  UNL     1      15.282   1.095  19.200  1.00  0.00    -0.213 F 
ENDBRANCH  13  14
ENDBRANCH  10  13
ENDBRANCH   9  10
ENDBRANCH   2   9
BRANCH   8  17
HETATM   17  O2  UNL     1      17.795   2.031  15.795  1.00  0.00    -0.353 OA
ATOM     18  H2  UNL     1      18.650   1.736  15.503  1.00  0.00     0.213 HD
ENDBRANCH   8  17
BRANCH   8  19
HETATM   19  C8  UNL     1      16.503   1.567  13.816  1.00  0.00     0.070 C 
HETATM   20  C9  UNL     1      16.734   0.131  14.048  1.00  0.00     0.047 C 
HETATM   21  C10 UNL     1      17.164  -0.013  12.596  1.00  0.00     0.171 C 
HETATM   22  F3  UNL     1      16.136  -0.411  11.760  1.00  0.00    -0.249 F 
HETATM   23  C11 UNL     1      17.322   1.510  12.565  1.00  0.00     0.047 C 
ENDBRANCH   8  19
TORSDOF 6
ENDMDL
MODEL 2
REMARK VINA RESULT: -6.551022804      1.718      4.944
REMARK  6 active torsions:
REMARK  status: ('A' for Active; 'I' for Inactive)
REMARK    1  A    between atoms: N1_2  and  C1_3 
REMARK    2  A    between atoms: C1_3  and  N2_4 
REMARK    3  A    between atoms: N2_4  and  C2_7 
REMARK    4  A    between atoms: C2_7  and  C3_8 
REMARK    5  A    between atoms: C7_16  and  O2_17 
REMARK    6  A    between atoms: C7_16  and  C8_19 
ROOT
HETATM    1  O1  UNL     1      17.902   1.554  15.835  1.00  0.00    -0.059 OA
HETATM    2  N1  UNL     1      16.994   1.655  14.761  1.00  0.00     0.082 N 
HETATM    3  C4  UNL     1      17.693   2.519  13.828  1.00  0.00     0.371 C 
HETATM    4  C5  UNL     1      17.199   3.867  14.146  1.00  0.00     0.069 C 
HETATM    5 CL1  UNL     1      17.917   5.404  13.597  1.00  0.00    -0.085 Cl
HETATM    6  C6  UNL     1      16.134   3.808  14.920  1.00  0.00     0.103 C 
HETATM    7 CL2  UNL     1      15.203   5.164  15.549  1.00  0.00    -0.082 Cl
HETATM    8  C7  UNL     1      15.839   2.361  15.215  1.00  0.00     0.329 C 
ENDROOT
BRANCH   2   9
HETATM    9  C1  UNL     1      16.858   0.323  14.292  1.00  0.00     0.546 C 
BRANCH   9  10
HETATM   10  N2  UNL     1      17.616   0.115  13.057  1.00  0.00    -0.038 N 
ATOM     11  H22 UNL     1      17.884   0.997  12.622  1.00  0.00     0.280 HD
ATOM     12  H21 UNL     1      18.550  -0.252  13.241  1.00  0.00     0.280 HD
BRANCH  10  13
HETATM   13  C2  UNL     1      16.879  -0.724  12.156  1.00  0.00     0.305 C 
BRANCH  13  14
HETATM   14  C3  UNL     1      16.112  -0.094  11.056  1.00  0.00     0.378 C 
HETATM   15  F1  UNL     1      16.369  -0.886   9.910  1.00  0.00    -0.213 F 
HETATM   16  F2  UNL     1      16.518   1.168  10.694  1.00  0.00    -0.213 F 
ENDBRANCH  13  14
ENDBRANCH  10  13
ENDBRANCH   9  10
ENDBRANCH   2   9
BRANCH   8  17
HETATM   17  O2  UNL     1      14.669   2.076  14.526  1.00  0.00    -0.353 OA
ATOM     18  H2  UNL     1      14.708   2.227  13.588  1.00  0.00     0.213 HD
ENDBRANCH   8  17
BRANCH   8  19
HETATM   19  C8  UNL     1      15.713   2.128  16.696  1.00  0.00     0.070 C 
HETATM   20  C9  UNL     1      15.629   0.758  17.230  1.00  0.00     0.047 C 
HETATM   21  C10 UNL     1      14.483   1.200  18.128  1.00  0.00     0.171 C 
HETATM   22  F3  UNL     1      14.895   1.568  19.396  1.00  0.00    -0.249 F 
HETATM   23  C11 UNL     1      14.348   2.432  17.229  1.00  0.00     0.047 C 
ENDBRANCH   8  19
TORSDOF 6
ENDMDL
MODEL 3
REMARK VINA RESULT: -6.412092645      2.284      3.688
REMARK  6 active torsions:
REMARK  status: ('A' for Active; 'I' for Inactive)
REMARK    1  A    between atoms: N1_2  and  C1_3 
REMARK    2  A    between atoms: C1_3  and  N2_4 
REMARK    3  A    between atoms: N2_4  and  C2_7 
REMARK    4  A    between atoms: C2_7  and  C3_8 
REMARK    5  A    between atoms: C7_16  and  O2_17 
REMARK    6  A    between atoms: C7_16  and  C8_19 
ROOT
HETATM    1  O1  UNL     1      17.981   2.093  15.526  1.00  0.00    -0.059 OA
HETATM    2  N1  UNL     1      16.681   2.249  15.001  1.00  0.00     0.082 N 
HETATM    3  C4  UNL     1      16.368   0.918  14.515  1.00  0.00     0.371 C 
HETATM    4  C5  UNL     1      16.758   0.951  13.098  1.00  0.00     0.069 C 
HETATM    5 CL1  UNL     1      16.949  -0.463  12.028  1.00  0.00    -0.085 Cl
HETATM    6  C6  UNL     1      16.968   2.189  12.697  1.00  0.00     0.103 C 
HETATM    7 CL2  UNL     1      17.446   2.715  11.085  1.00  0.00    -0.082 Cl
HETATM    8  C7  UNL     1      16.756   3.113  13.867  1.00  0.00     0.329 C 
ENDROOT
BRANCH   2   9
HETATM    9  C1  UNL     1      15.896   2.632  16.119  1.00  0.00     0.546 C 
BRANCH   9  10
HETATM   10  N2  UNL     1      14.544   2.079  16.034  1.00  0.00    -0.038 N 
ATOM     11  H22 UNL     1      13.839   2.809  15.933  1.00  0.00     0.280 HD
ATOM     12  H21 UNL     1      14.386   1.594  15.150  1.00  0.00     0.280 HD
BRANCH  10  13
HETATM   13  C2  UNL     1      14.278   1.233  17.163  1.00  0.00     0.305 C 
BRANCH  13  14
HETATM   14  C3  UNL     1      15.378   0.942  18.113  1.00  0.00     0.378 C 
HETATM   15  F1  UNL     1      15.496  -0.469  18.137  1.00  0.00    -0.213 F 
HETATM   16  F2  UNL     1      15.139   1.284  19.423  1.00  0.00    -0.213 F 
ENDBRANCH  13  14
ENDBRANCH  10  13
ENDBRANCH   9  10
ENDBRANCH   2   9
BRANCH   8  17
HETATM   17  O2  UNL     1      15.589   3.808  13.580  1.00  0.00    -0.353 OA
ATOM     18  H2  UNL     1      15.705   4.582  13.041  1.00  0.00     0.213 HD
ENDBRANCH   8  17
BRANCH   8  19
HETATM   19  C8  UNL     1      17.941   4.020  14.060  1.00  0.00     0.070 C 
HETATM   20  C9  UNL     1      17.755   5.391  14.564  1.00  0.00     0.047 C 
HETATM   21  C10 UNL     1      18.703   5.894  13.485  1.00  0.00     0.171 C 
HETATM   22  F3  UNL     1      20.010   6.012  13.921  1.00  0.00    -0.249 F 
HETATM   23  C11 UNL     1      18.493   4.553  12.775  1.00  0.00     0.047 C 
ENDBRANCH   8  19
TORSDOF 6
ENDMDL
MODEL 4
REMARK VINA RESULT: -6.397022196      1.697      4.711
REMARK  6 active torsions:
REMARK  status: ('A' for Active; 'I' for Inactive)
REMARK    1  A    between atoms: N1_2  and  C1_3 
REMARK    2  A    between atoms: C1_3  and  N2_4 
REMARK    3  A    between atoms: N2_4  and  C2_7 
REMARK    4  A    between atoms: C2_7  and  C3_8 
REMARK    5  A    between atoms: C7_16  and  O2_17 
REMARK    6  A    between atoms: C7_16  and  C8_19 
ROOT
HETATM    1  O1  UNL     1      17.758   1.432  15.177  1.00  0.00    -0.059 OA
HETATM    2  N1  UNL     1      16.918   2.035  14.218  1.00  0.00     0.082 N 
HETATM    3  C4  UNL     1      17.827   2.899  13.490  1.00  0.00     0.371 C 
HETATM    4  C5  UNL     1      17.705   4.200  14.162  1.00  0.00     0.069 C 
HETATM    5 CL1  UNL     1      18.808   5.589  13.972  1.00  0.00    -0.085 Cl
HETATM    6  C6  UNL     1      16.655   4.221  14.959  1.00  0.00     0.103 C 
HETATM    7 CL2  UNL     1      16.110   5.563  15.961  1.00  0.00    -0.082 Cl
HETATM    8  C7  UNL     1      15.986   2.873  14.902  1.00  0.00     0.329 C 
ENDROOT
BRANCH   2   9
HETATM    9  C1  UNL     1      16.439   0.949  13.441  1.00  0.00     0.546 C 
BRANCH   9  10
HETATM   10  N2  UNL     1      17.538   0.099  12.982  1.00  0.00    -0.038 N 
ATOM     11  H22 UNL     1      17.884   0.385  12.066  1.00  0.00     0.280 HD
ATOM     12  H21 UNL     1      18.391   0.255  13.521  1.00  0.00     0.280 HD
BRANCH  10  13
HETATM   13  C2  UNL     1      17.142  -1.280  12.996  1.00  0.00     0.305 C 
BRANCH  13  14
HETATM   14  C3  UNL     1      17.120  -2.032  11.719  1.00  0.00     0.378 C 
HETATM   15  F1  UNL     1      16.274  -1.293  10.857  1.00  0.00    -0.213 F 
HETATM   16  F2  UNL     1      16.545  -3.279  11.771  1.00  0.00    -0.213 F 
ENDBRANCH  13  14
ENDBRANCH  10  13
ENDBRANCH   9  10
ENDBRANCH   2   9
BRANCH   8  17
HETATM   17  O2  UNL     1      14.788   3.086  14.234  1.00  0.00    -0.353 OA
ATOM     18  H2  UNL     1      14.009   3.009  14.773  1.00  0.00     0.213 HD
ENDBRANCH   8  17
BRANCH   8  19
HETATM   19  C8  UNL     1      15.790   2.309  16.283  1.00  0.00     0.070 C 
HETATM   20  C9  UNL     1      15.367   0.910  16.463  1.00  0.00     0.047 C 
HETATM   21  C10 UNL     1      14.354   1.372  17.501  1.00  0.00     0.171 C 
HETATM   22  F3  UNL     1      14.830   1.296  18.798  1.00  0.00    -0.249 F 
HETATM   23  C11 UNL     1      14.536   2.788  16.945  1.00  0.00     0.047 C 
ENDBRANCH   8  19
TORSDOF 6
ENDMDL
MODEL 5
REMARK VINA RESULT: -6.390667855      3.431      5.092
REMARK  6 active torsions:
REMARK  status: ('A' for Active; 'I' for Inactive)
REMARK    1  A    between atoms: N1_2  and  C1_3 
REMARK    2  A    between atoms: C1_3  and  N2_4 
REMARK    3  A    between atoms: N2_4  and  C2_7 
REMARK    4  A    between atoms: C2_7  and  C3_8 
REMARK    5  A    between atoms: C7_16  and  O2_17 
REMARK    6  A    between atoms: C7_16  and  C8_19 
ROOT
HETATM    1  O1  UNL     1      14.854   3.607  14.296  1.00  0.00    -0.059 OA
HETATM    2  N1  UNL     1      16.259   3.531  14.408  1.00  0.00     0.082 N 
HETATM    3  C4  UNL     1      16.700   3.676  13.034  1.00  0.00     0.371 C 
HETATM    4  C5  UNL     1      16.837   2.295  12.551  1.00  0.00     0.069 C 
HETATM    5 CL1  UNL     1      17.011   1.791  10.849  1.00  0.00    -0.085 Cl
HETATM    6  C6  UNL     1      16.802   1.440  13.554  1.00  0.00     0.103 C 
HETATM    7 CL2  UNL     1      16.933  -0.314  13.457  1.00  0.00    -0.082 Cl
HETATM    8  C7  UNL     1      16.603   2.211  14.832  1.00  0.00     0.329 C 
ENDROOT
BRANCH   2   9
HETATM    9  C1  UNL     1      16.604   4.637  15.226  1.00  0.00     0.546 C 
BRANCH   9  10
HETATM   10  N2  UNL     1      17.860   5.249  14.788  1.00  0.00    -0.038 N 
ATOM     11  H22 UNL     1      18.670   4.694  15.063  1.00  0.00     0.280 HD
ATOM     12  H21 UNL     1      17.977   5.195  13.776  1.00  0.00     0.280 HD
BRANCH  10  13
HETATM   13  C2  UNL     1      17.950   6.599  15.265  1.00  0.00     0.305 C 
BRANCH  13  14
HETATM   14  C3  UNL     1      19.168   7.387  14.960  1.00  0.00     0.378 C 
HETATM   15  F1  UNL     1      19.697   7.772  16.217  1.00  0.00    -0.213 F 
HETATM   16  F2  UNL     1      18.960   8.575  14.302  1.00  0.00    -0.213 F 
ENDBRANCH  13  14
ENDBRANCH  10  13
ENDBRANCH   9  10
ENDBRANCH   2   9
BRANCH   8  17
HETATM   17  O2  UNL     1      17.807   2.109  15.514  1.00  0.00    -0.353 OA
ATOM     18  H2  UNL     1      18.098   1.220  15.684  1.00  0.00     0.213 HD
ENDBRANCH   8  17
BRANCH   8  19
HETATM   19  C8  UNL     1      15.442   1.664  15.616  1.00  0.00     0.070 C 
HETATM   20  C9  UNL     1      15.082   2.247  16.920  1.00  0.00     0.047 C 
HETATM   21  C10 UNL     1      14.948   0.842  17.488  1.00  0.00     0.171 C 
HETATM   22  F3  UNL     1      13.651   0.361  17.452  1.00  0.00    -0.249 F 
HETATM   23  C11 UNL     1      15.736   0.350  16.270  1.00  0.00     0.047 C 
ENDBRANCH   8  19
TORSDOF 6
ENDMDL
