MODEL 1
REMARK VINA RESULT: -6.500513164      0.000      0.000
REMARK  5 active torsions:
REMARK  status: ('A' for Active; 'I' for Inactive)
REMARK    1  A    between atoms: O1_2  and  C2_3 
REMARK    2  A    between atoms: C2_3  and  C3_5 
REMARK    3  A    between atoms: C3_5  and  N1_6 
REMARK    4  A    between atoms: N1_6  and  C4_8 
REMARK    5  A    between atoms: C4_8  and  C5_12 
ROOT
HETATM    1  C4  UNL     1      17.085   1.994  14.439  1.00  0.00     0.102 C 
HETATM    2  N2  UNL     1      17.105   1.192  13.441  1.00  0.00    -0.387 N 
ATOM      3  H21 UNL     1      16.817   1.570  12.538  1.00  0.00     0.157 HD
ATOM      4  H22 UNL     1      17.398   0.226  13.587  1.00  0.00     0.157 HD
ENDROOT
BRANCH   1   5
HETATM    5  N1  UNL     1      17.489   1.464  15.705  1.00  0.00    -0.369 N 
ATOM      6  H1  UNL     1      18.479   1.423  15.943  1.00  0.00     0.161 HD
BRANCH   5   7
HETATM    7  C3  UNL     1      16.504   0.986  16.647  1.00  0.00     0.232 C 
BRANCH   7   8
HETATM    8  C2  UNL     1      15.981  -0.350  16.259  1.00  0.00     0.276 C 
HETATM    9  O2  UNL     1      16.565  -1.155  15.521  1.00  0.00    -0.263 OA
BRANCH   8  10
HETATM   10  O1  UNL     1      14.742  -0.717  16.769  1.00  0.00    -0.325 OA
HETATM   11  C1  UNL     1      13.832   0.288  17.180  1.00  0.00     0.213 C 
ENDBRANCH   8  10
ENDBRANCH   7   8
ENDBRANCH   5   7
ENDBRANCH   1   5
BRANCH   1  12
HETATM   12  C5  UNL     1      16.667   3.371  14.230  1.00  0.00     0.170 A 
HETATM   13 CL1  UNL     1      15.084   3.756  14.990  1.00  0.00    -0.104 Cl
HETATM   14  C6  UNL     1      17.077   4.197  13.082  1.00  0.00     0.182 A 
HETATM   15 CL2  UNL     1      15.947   5.487  12.612  1.00  0.00    -0.095 Cl
HETATM   16 CL3  UNL     1      17.996   3.498  11.741  1.00  0.00    -0.095 Cl
HETATM   17  C7  UNL     1      17.772   4.424  14.379  1.00  0.00     0.182 A 
HETATM   18 CL4  UNL     1      17.345   5.845  15.364  1.00  0.00    -0.095 Cl
HETATM   19 CL5  UNL     1      19.460   3.940  14.411  1.00  0.00    -0.095 Cl
ENDBRANCH   1  12
TORSDOF 5
ENDMDL
MODEL 2
REMARK VINA RESULT: -6.041199774      1.128      2.361
REMARK  5 active torsions:
REMARK  status: ('A' for Active; 'I' for Inactive)
REMARK    1  A    between atoms: O1_2  and  C2_3 
REMARK    2  A    between atoms: C2_3  and  C3_5 
REMARK    3  A    between atoms: C3_5  and  N1_6 
REMARK    4  A    between atoms: N1_6  and  C4_8 
REMARK    5  A    between atoms: C4_8  and  C5_12 
ROOT
HETATM    1  C4  UNL     1      17.378   2.282  13.723  1.00  0.00     0.102 C 
HETATM    2  N2  UNL     1      17.944   1.501  12.881  1.00  0.00    -0.387 N 
ATOM      3  H21 UNL     1      18.755   1.869  12.383  1.00  0.00     0.157 HD
ATOM      4  H22 UNL     1      17.567   0.564  12.742  1.00  0.00     0.157 HD
ENDROOT
BRANCH   1   5
HETATM    5  N1  UNL     1      16.241   1.766  14.422  1.00  0.00    -0.369 N 
ATOM      6  H1  UNL     1      15.384   1.561  13.912  1.00  0.00     0.161 HD
BRANCH   5   7
HETATM    7  C3  UNL     1      16.301   1.536  15.847  1.00  0.00     0.232 C 
BRANCH   7   8
HETATM    8  C2  UNL     1      16.445   0.090  16.161  1.00  0.00     0.276 C 
HETATM    9  O2  UNL     1      17.517  -0.529  16.178  1.00  0.00    -0.263 OA
BRANCH   8  10
HETATM   10  O1  UNL     1      15.284  -0.612  16.457  1.00  0.00    -0.325 OA
HETATM   11  C1  UNL     1      14.230   0.039  17.145  1.00  0.00     0.213 C 
ENDBRANCH   8  10
ENDBRANCH   7   8
ENDBRANCH   5   7
ENDBRANCH   1   5
BRANCH   1  12
HETATM   12  C5  UNL     1      17.917   3.618  13.921  1.00  0.00     0.170 A 
HETATM   13 CL1  UNL     1      19.541   3.623  14.691  1.00  0.00    -0.104 Cl
HETATM   14  C6  UNL     1      17.093   4.827  14.089  1.00  0.00     0.182 A 
HETATM   15 CL2  UNL     1      17.833   6.147  15.023  1.00  0.00    -0.095 Cl
HETATM   16 CL3  UNL     1      15.334   4.715  14.240  1.00  0.00    -0.095 Cl
HETATM   17  C7  UNL     1      17.709   4.591  12.755  1.00  0.00     0.182 A 
HETATM   18 CL4  UNL     1      19.146   5.528  12.276  1.00  0.00    -0.095 Cl
HETATM   19 CL5  UNL     1      16.573   4.208  11.470  1.00  0.00    -0.095 Cl
ENDBRANCH   1  12
TORSDOF 5
ENDMDL
MODEL 3
REMARK VINA RESULT: -6.023106325      1.488      1.821
REMARK  5 active torsions:
REMARK  status: ('A' for Active; 'I' for Inactive)
REMARK    1  A    between atoms: O1_2  and  C2_3 
REMARK    2  A    between atoms: C2_3  and  C3_5 
REMARK    3  A    between atoms: C3_5  and  N1_6 
REMARK    4  A    between atoms: N1_6  and  C4_8 
REMARK    5  A    between atoms: C4_8  and  C5_12 
ROOT
HETATM    1  C4  UNL     1      16.761   1.118  12.728  1.00  0.00     0.102 C 
HETATM    2  N2  UNL     1      16.116   0.820  11.663  1.00  0.00    -0.387 N 
ATOM      3  H21 UNL     1      15.597   1.572  11.210  1.00  0.00     0.157 HD
ATOM      4  H22 UNL     1      16.143  -0.140  11.320  1.00  0.00     0.157 HD
ENDROOT
BRANCH   1   5
HETATM    5  N1  UNL     1      17.490   0.063  13.362  1.00  0.00    -0.369 N 
ATOM      6  H1  UNL     1      18.502   0.012  13.255  1.00  0.00     0.161 HD
BRANCH   5   7
HETATM    7  C3  UNL     1      16.801  -0.931  14.153  1.00  0.00     0.232 C 
BRANCH   7   8
HETATM    8  C2  UNL     1      16.808  -0.580  15.597  1.00  0.00     0.276 C 
HETATM    9  O2  UNL     1      17.691   0.078  16.164  1.00  0.00    -0.263 OA
BRANCH   8  10
HETATM   10  O1  UNL     1      15.738  -1.026  16.362  1.00  0.00    -0.325 OA
HETATM   11  C1  UNL     1      15.140  -0.152  17.304  1.00  0.00     0.213 C 
ENDBRANCH   8  10
ENDBRANCH   7   8
ENDBRANCH   5   7
ENDBRANCH   1   5
BRANCH   1  12
HETATM   12  C5  UNL     1      16.722   2.487  13.218  1.00  0.00     0.170 A 
HETATM   13 CL1  UNL     1      15.675   2.696  14.663  1.00  0.00    -0.104 Cl
HETATM   14  C6  UNL     1      16.947   3.675  12.376  1.00  0.00     0.182 A 
HETATM   15 CL2  UNL     1      16.158   5.172  12.922  1.00  0.00    -0.095 Cl
HETATM   16 CL3  UNL     1      17.113   3.528  10.621  1.00  0.00    -0.095 Cl
HETATM   17  C7  UNL     1      18.071   3.217  13.238  1.00  0.00     0.182 A 
HETATM   18 CL4  UNL     1      18.438   4.101  14.740  1.00  0.00    -0.095 Cl
HETATM   19 CL5  UNL     1      19.450   2.558  12.371  1.00  0.00    -0.095 Cl
ENDBRANCH   1  12
TORSDOF 5
ENDMDL
MODEL 4
REMARK VINA RESULT: -6.007455693      1.274      1.498
REMARK  5 active torsions:
REMARK  status: ('A' for Active; 'I' for Inactive)
REMARK    1  A    between atoms: O1_2  and  C2_3 
REMARK    2  A    between atoms: C2_3  and  C3_5 
REMARK    3  A    between atoms: C3_5  and  N1_6 
REMARK    4  A    between atoms: N1_6  and  C4_8 
REMARK    5  A    between atoms: C4_8  and  C5_12 
ROOT
HETATM    1  C4  UNL     1      17.860   2.835  14.624  1.00  0.00     0.102 C 
HETATM    2  N2  UNL     1      18.918   2.811  15.344  1.00  0.00    -0.387 N 
ATOM      3  H21 UNL     1      19.380   3.704  15.516  1.00  0.00     0.157 HD
ATOM      4  H22 UNL     1      19.253   1.918  15.704  1.00  0.00     0.157 HD
ENDROOT
BRANCH   1   5
HETATM    5  N1  UNL     1      17.211   1.582  14.382  1.00  0.00    -0.369 N 
ATOM      6  H1  UNL     1      17.524   0.991  13.614  1.00  0.00     0.161 HD
BRANCH   5   7
HETATM    7  C3  UNL     1      16.117   1.151  15.220  1.00  0.00     0.232 C 
BRANCH   7   8
HETATM    8  C2  UNL     1      16.466  -0.075  15.986  1.00  0.00     0.276 C 
HETATM    9  O2  UNL     1      17.617  -0.486  16.182  1.00  0.00    -0.263 OA
BRANCH   8  10
HETATM   10  O1  UNL     1      15.414  -0.809  16.519  1.00  0.00    -0.325 OA
HETATM   11  C1  UNL     1      14.365  -0.136  17.193  1.00  0.00     0.213 C 
ENDBRANCH   8  10
ENDBRANCH   7   8
ENDBRANCH   5   7
ENDBRANCH   1   5
BRANCH   1  12
HETATM   12  C5  UNL     1      17.383   4.109  14.110  1.00  0.00     0.170 A 
HETATM   13 CL1  UNL     1      16.533   5.101  15.345  1.00  0.00    -0.104 Cl
HETATM   14  C6  UNL     1      17.038   4.357  12.700  1.00  0.00     0.182 A 
HETATM   15 CL2  UNL     1      15.831   5.630  12.408  1.00  0.00    -0.095 Cl
HETATM   16 CL3  UNL     1      17.013   3.035  11.524  1.00  0.00    -0.095 Cl
HETATM   17  C7  UNL     1      18.355   4.851  13.186  1.00  0.00     0.182 A 
HETATM   18 CL4  UNL     1      18.565   6.586  13.533  1.00  0.00    -0.095 Cl
HETATM   19 CL5  UNL     1      19.753   4.022  12.517  1.00  0.00    -0.095 Cl
ENDBRANCH   1  12
TORSDOF 5
ENDMDL
MODEL 5
REMARK VINA RESULT: -6.003464107      1.122      2.227
REMARK  5 active torsions:
REMARK  status: ('A' for Active; 'I' for Inactive)
REMARK    1  A    between atoms: O1_2  and  C2_3 
REMARK    2  A    between atoms: C2_3  and  C3_5 
REMARK    3  A    between atoms: C3_5  and  N1_6 
REMARK    4  A    between atoms: N1_6  and  C4_8 
REMARK    5  A    between atoms: C4_8  and  C5_12 
ROOT
HETATM    1  C4  UNL     1      16.713   2.308  14.472  1.00  0.00     0.102 C 
HETATM    2  N2  UNL     1      15.482   2.572  14.704  1.00  0.00    -0.387 N 
ATOM      3  H21 UNL     1      15.004   3.173  14.033  1.00  0.00     0.157 HD
ATOM      4  H22 UNL     1      15.041   2.184  15.537  1.00  0.00     0.157 HD
ENDROOT
BRANCH   1   5
HETATM    5  N1  UNL     1      17.385   1.466  15.413  1.00  0.00    -0.369 N 
ATOM      6  H1  UNL     1      18.378   1.269  15.297  1.00  0.00     0.161 HD
BRANCH   5   7
HETATM    7  C3  UNL     1      16.665   0.892  16.526  1.00  0.00     0.232 C 
BRANCH   7   8
HETATM    8  C2  UNL     1      16.079  -0.429  16.176  1.00  0.00     0.276 C 
HETATM    9  O2  UNL     1      16.596  -1.253  15.410  1.00  0.00    -0.263 OA
BRANCH   8  10
HETATM   10  O1  UNL     1      14.860  -0.755  16.756  1.00  0.00    -0.325 OA
HETATM   11  C1  UNL     1      13.985   0.280  17.167  1.00  0.00     0.213 C 
ENDBRANCH   8  10
ENDBRANCH   7   8
ENDBRANCH   5   7
ENDBRANCH   1   5
BRANCH   1  12
HETATM   12  C5  UNL     1      17.343   2.862  13.284  1.00  0.00     0.170 A 
HETATM   13 CL1  UNL     1      16.805   2.075  11.761  1.00  0.00    -0.104 Cl
HETATM   14  C6  UNL     1      18.667   3.508  13.273  1.00  0.00     0.182 A 
HETATM   15 CL2  UNL     1      19.552   3.435  11.732  1.00  0.00    -0.095 Cl
HETATM   16 CL3  UNL     1      19.694   3.501  14.713  1.00  0.00    -0.095 Cl
HETATM   17  C7  UNL     1      17.469   4.390  13.257  1.00  0.00     0.182 A 
HETATM   18 CL4  UNL     1      16.975   5.171  11.734  1.00  0.00    -0.095 Cl
HETATM   19 CL5  UNL     1      17.218   5.327  14.723  1.00  0.00    -0.095 Cl
ENDBRANCH   1  12
TORSDOF 5
ENDMDL
