MODEL 1
REMARK VINA RESULT: -7.203492534      0.000      0.000
REMARK  6 active torsions:
REMARK  status: ('A' for Active; 'I' for Inactive)
REMARK    1  A    between atoms: O1_1  and  C1_3 
REMARK    2  A    between atoms: C1_3  and  C2_4 
REMARK    3  A    between atoms: C2_4  and  O2_5 
REMARK    4  A    between atoms: C2_4  and  C3_7 
REMARK    5  A    between atoms: N1_11  and  C7_12 
REMARK    6  A    between atoms: C7_12  and  C8_13 
ROOT
HETATM    1  C7  UNL     1      16.374   3.330  13.877  1.00  0.00     0.318 C 
ENDROOT
BRANCH   1   2
HETATM    2  N1  UNL     1      17.611   3.968  14.211  1.00  0.00     0.100 N 
HETATM    3  C3  UNL     1      18.595   4.418  13.316  1.00  0.00     0.254 C 
HETATM    4  C4  UNL     1      17.806   4.904  12.155  1.00  0.00     0.040 C 
HETATM    5  C5  UNL     1      16.778   5.754  12.980  1.00  0.00     0.032 C 
HETATM    6  C6  UNL     1      17.095   5.417  14.393  1.00  0.00     0.273 C 
BRANCH   3   7
HETATM    7  C2  UNL     1      19.895   3.821  13.235  1.00  0.00     0.175 C 
BRANCH   7   8
HETATM    8  C1  UNL     1      20.212   2.886  12.143  1.00  0.00     0.198 C 
BRANCH   8   9
HETATM    9  O1  UNL     1      21.081   1.880  12.535  1.00  0.00    -0.398 OA
ATOM     10  H1  UNL     1      21.368   1.341  11.808  1.00  0.00     0.209 HD
ENDBRANCH   8   9
ENDBRANCH   7   8
BRANCH   7  11
HETATM   11  O2  UNL     1      20.037   3.010  14.428  1.00  0.00    -0.391 OA
ATOM     12  H2  UNL     1      20.650   2.334  14.166  1.00  0.00     0.210 HD
ENDBRANCH   7  11
ENDBRANCH   3   7
ENDBRANCH   1   2
BRANCH   1  13
HETATM   13  C8  UNL     1      16.098   2.163  14.802  1.00  0.00     0.054 A 
HETATM   14  C9  UNL     1      16.637   0.953  14.533  1.00  0.00     0.169 A 
HETATM   15  F1  UNL     1      17.433   0.629  13.454  1.00  0.00    -0.202 F 
HETATM   16  C10 UNL     1      16.443  -0.098  15.418  1.00  0.00     0.197 A 
HETATM   17  F2  UNL     1      16.969  -1.316  15.138  1.00  0.00    -0.199 F 
HETATM   18  C11 UNL     1      15.703   0.069  16.561  1.00  0.00     0.199 A 
HETATM   19  F3  UNL     1      15.470  -0.921  17.464  1.00  0.00    -0.199 F 
HETATM   20  C12 UNL     1      15.141   1.306  16.872  1.00  0.00     0.197 A 
HETATM   21  F4  UNL     1      14.441   1.464  17.991  1.00  0.00    -0.199 F 
HETATM   22  C13 UNL     1      15.358   2.348  15.957  1.00  0.00     0.169 A 
HETATM   23  F5  UNL     1      14.911   3.538  16.355  1.00  0.00    -0.202 F 
ENDBRANCH   1  13
TORSDOF 6
ENDMDL
MODEL 2
REMARK VINA RESULT: -7.186965035      0.093      2.329
REMARK  6 active torsions:
REMARK  status: ('A' for Active; 'I' for Inactive)
REMARK    1  A    between atoms: O1_1  and  C1_3 
REMARK    2  A    between atoms: C1_3  and  C2_4 
REMARK    3  A    between atoms: C2_4  and  O2_5 
REMARK    4  A    between atoms: C2_4  and  C3_7 
REMARK    5  A    between atoms: N1_11  and  C7_12 
REMARK    6  A    between atoms: C7_12  and  C8_13 
ROOT
HETATM    1  C7  UNL     1      16.380   3.363  13.924  1.00  0.00     0.318 C 
ENDROOT
BRANCH   1   2
HETATM    2  N1  UNL     1      17.621   4.025  14.186  1.00  0.00     0.100 N 
HETATM    3  C3  UNL     1      18.579   4.423  13.240  1.00  0.00     0.254 C 
HETATM    4  C4  UNL     1      17.758   4.835  12.073  1.00  0.00     0.040 C 
HETATM    5  C5  UNL     1      16.747   5.729  12.872  1.00  0.00     0.032 C 
HETATM    6  C6  UNL     1      17.102   5.480  14.294  1.00  0.00     0.273 C 
BRANCH   3   7
HETATM    7  C2  UNL     1      19.880   3.828  13.162  1.00  0.00     0.175 C 
BRANCH   7   8
HETATM    8  C1  UNL     1      20.174   2.832  12.119  1.00  0.00     0.198 C 
BRANCH   8   9
HETATM    9  O1  UNL     1      21.099   1.884  12.529  1.00  0.00    -0.398 OA
ATOM     10  H1  UNL     1      21.933   2.268  12.770  1.00  0.00     0.209 HD
ENDBRANCH   8   9
ENDBRANCH   7   8
BRANCH   7  11
HETATM   11  O2  UNL     1      20.056   3.088  14.396  1.00  0.00    -0.391 OA
ATOM     12  H2  UNL     1      20.989   3.151  14.562  1.00  0.00     0.210 HD
ENDBRANCH   7  11
ENDBRANCH   3   7
ENDBRANCH   1   2
BRANCH   1  13
HETATM   13  C8  UNL     1      16.159   2.219  14.892  1.00  0.00     0.054 A 
HETATM   14  C9  UNL     1      15.392   2.408  15.989  1.00  0.00     0.169 A 
HETATM   15  F1  UNL     1      14.769   3.580  16.365  1.00  0.00    -0.202 F 
HETATM   16  C10 UNL     1      15.132   1.341  16.837  1.00  0.00     0.197 A 
HETATM   17  F2  UNL     1      14.378   1.536  17.946  1.00  0.00    -0.199 F 
HETATM   18  C11 UNL     1      15.648   0.096  16.584  1.00  0.00     0.199 A 
HETATM   19  F3  UNL     1      15.436  -0.987  17.379  1.00  0.00    -0.199 F 
HETATM   20  C12 UNL     1      16.436  -0.135  15.457  1.00  0.00     0.197 A 
HETATM   21  F4  UNL     1      16.918  -1.349  15.210  1.00  0.00    -0.199 F 
HETATM   22  C13 UNL     1      16.679   0.965  14.619  1.00  0.00     0.169 A 
HETATM   23  F5  UNL     1      17.327   0.672  13.494  1.00  0.00    -0.202 F 
ENDBRANCH   1  13
TORSDOF 6
ENDMDL
MODEL 3
REMARK VINA RESULT: -7.113107738      2.927      5.343
REMARK  6 active torsions:
REMARK  status: ('A' for Active; 'I' for Inactive)
REMARK    1  A    between atoms: O1_1  and  C1_3 
REMARK    2  A    between atoms: C1_3  and  C2_4 
REMARK    3  A    between atoms: C2_4  and  O2_5 
REMARK    4  A    between atoms: C2_4  and  C3_7 
REMARK    5  A    between atoms: N1_11  and  C7_12 
REMARK    6  A    between atoms: C7_12  and  C8_13 
ROOT
HETATM    1  C7  UNL     1      15.447   3.067  15.972  1.00  0.00     0.318 C 
ENDROOT
BRANCH   1   2
HETATM    2  N1  UNL     1      15.262   1.714  15.544  1.00  0.00     0.100 N 
HETATM    3  C3  UNL     1      15.948   0.582  16.014  1.00  0.00     0.254 C 
HETATM    4  C4  UNL     1      16.150   0.878  17.455  1.00  0.00     0.040 C 
HETATM    5  C5  UNL     1      14.676   1.319  17.757  1.00  0.00     0.032 C 
HETATM    6  C6  UNL     1      14.035   1.350  16.416  1.00  0.00     0.273 C 
BRANCH   3   7
HETATM    7  C2  UNL     1      16.850  -0.169  15.193  1.00  0.00     0.175 C 
BRANCH   7   8
HETATM    8  C1  UNL     1      16.819  -0.014  13.729  1.00  0.00     0.198 C 
BRANCH   8   9
HETATM    9  O1  UNL     1      16.835  -1.229  13.063  1.00  0.00    -0.398 OA
ATOM     10  H1  UNL     1      16.118  -1.796  13.319  1.00  0.00     0.209 HD
ENDBRANCH   8   9
ENDBRANCH   7   8
BRANCH   7  11
HETATM   11  O2  UNL     1      16.508  -1.563  15.394  1.00  0.00    -0.391 OA
ATOM     12  H2  UNL     1      15.929  -1.543  16.146  1.00  0.00     0.210 HD
ENDBRANCH   7  11
ENDBRANCH   3   7
ENDBRANCH   1   2
BRANCH   1  13
HETATM   13  C8  UNL     1      16.334   3.825  15.006  1.00  0.00     0.054 A 
HETATM   14  C9  UNL     1      17.661   3.568  14.971  1.00  0.00     0.169 A 
HETATM   15  F1  UNL     1      18.344   2.667  15.762  1.00  0.00    -0.202 F 
HETATM   16  C10 UNL     1      18.462   4.211  14.038  1.00  0.00     0.197 A 
HETATM   17  F2  UNL     1      19.794   3.965  14.017  1.00  0.00    -0.199 F 
HETATM   18  C11 UNL     1      17.929   5.112  13.152  1.00  0.00     0.199 A 
HETATM   19  F3  UNL     1      18.660   5.780  12.219  1.00  0.00    -0.199 F 
HETATM   20  C12 UNL     1      16.563   5.394  13.155  1.00  0.00     0.197 A 
HETATM   21  F4  UNL     1      16.052   6.255  12.281  1.00  0.00    -0.199 F 
HETATM   22  C13 UNL     1      15.782   4.726  14.111  1.00  0.00     0.169 A 
HETATM   23  F5  UNL     1      14.471   4.929  13.995  1.00  0.00    -0.202 F 
ENDBRANCH   1  13
TORSDOF 6
ENDMDL
MODEL 4
REMARK VINA RESULT: -7.082357174      2.949      5.602
REMARK  6 active torsions:
REMARK  status: ('A' for Active; 'I' for Inactive)
REMARK    1  A    between atoms: O1_1  and  C1_3 
REMARK    2  A    between atoms: C1_3  and  C2_4 
REMARK    3  A    between atoms: C2_4  and  O2_5 
REMARK    4  A    between atoms: C2_4  and  C3_7 
REMARK    5  A    between atoms: N1_11  and  C7_12 
REMARK    6  A    between atoms: C7_12  and  C8_13 
ROOT
HETATM    1  C7  UNL     1      15.473   3.072  15.844  1.00  0.00     0.318 C 
ENDROOT
BRANCH   1   2
HETATM    2  N1  UNL     1      15.286   1.702  15.476  1.00  0.00     0.100 N 
HETATM    3  C3  UNL     1      15.982   0.592  15.982  1.00  0.00     0.254 C 
HETATM    4  C4  UNL     1      16.206   0.948  17.406  1.00  0.00     0.040 C 
HETATM    5  C5  UNL     1      14.735   1.398  17.712  1.00  0.00     0.032 C 
HETATM    6  C6  UNL     1      14.073   1.372  16.381  1.00  0.00     0.273 C 
BRANCH   3   7
HETATM    7  C2  UNL     1      16.874  -0.190  15.178  1.00  0.00     0.175 C 
BRANCH   7   8
HETATM    8  C1  UNL     1      16.846  -0.067  13.712  1.00  0.00     0.198 C 
BRANCH   8   9
HETATM    9  O1  UNL     1      16.865  -1.297  13.072  1.00  0.00    -0.398 OA
ATOM     10  H1  UNL     1      16.113  -1.427  12.506  1.00  0.00     0.209 HD
ENDBRANCH   8   9
ENDBRANCH   7   8
BRANCH   7  11
HETATM   11  O2  UNL     1      16.511  -1.574  15.410  1.00  0.00    -0.391 OA
ATOM     12  H2  UNL     1      16.005  -1.540  16.213  1.00  0.00     0.210 HD
ENDBRANCH   7  11
ENDBRANCH   3   7
ENDBRANCH   1   2
BRANCH   1  13
HETATM   13  C8  UNL     1      16.363   3.785  14.847  1.00  0.00     0.054 A 
HETATM   14  C9  UNL     1      15.831   4.703  14.009  1.00  0.00     0.169 A 
HETATM   15  F1  UNL     1      14.505   5.075  13.933  1.00  0.00    -0.202 F 
HETATM   16  C10 UNL     1      16.658   5.407  13.146  1.00  0.00     0.197 A 
HETATM   17  F2  UNL     1      16.121   6.313  12.294  1.00  0.00    -0.199 F 
HETATM   18  C11 UNL     1      18.011   5.181  13.123  1.00  0.00     0.199 A 
HETATM   19  F3  UNL     1      18.874   5.831  12.297  1.00  0.00    -0.199 F 
HETATM   20  C12 UNL     1      18.593   4.247  13.980  1.00  0.00     0.197 A 
HETATM   21  F4  UNL     1      19.907   4.047  13.964  1.00  0.00    -0.199 F 
HETATM   22  C13 UNL     1      17.728   3.554  14.841  1.00  0.00     0.169 A 
HETATM   23  F5  UNL     1      18.340   2.768  15.725  1.00  0.00    -0.202 F 
ENDBRANCH   1  13
TORSDOF 6
ENDMDL
MODEL 5
REMARK VINA RESULT: -7.018863607      2.013      2.392
REMARK  6 active torsions:
REMARK  status: ('A' for Active; 'I' for Inactive)
REMARK    1  A    between atoms: O1_1  and  C1_3 
REMARK    2  A    between atoms: C1_3  and  C2_4 
REMARK    3  A    between atoms: C2_4  and  O2_5 
REMARK    4  A    between atoms: C2_4  and  C3_7 
REMARK    5  A    between atoms: N1_11  and  C7_12 
REMARK    6  A    between atoms: C7_12  and  C8_13 
ROOT
HETATM    1  C7  UNL     1      15.744   3.437  14.482  1.00  0.00     0.318 C 
ENDROOT
BRANCH   1   2
HETATM    2  N1  UNL     1      16.891   3.392  13.627  1.00  0.00     0.100 N 
HETATM    3  C3  UNL     1      17.220   4.303  12.611  1.00  0.00     0.254 C 
HETATM    4  C4  UNL     1      16.759   5.606  13.156  1.00  0.00     0.040 C 
HETATM    5  C5  UNL     1      17.413   5.449  14.573  1.00  0.00     0.032 C 
HETATM    6  C6  UNL     1      17.924   4.053  14.573  1.00  0.00     0.273 C 
BRANCH   3   7
HETATM    7  C2  UNL     1      17.218   3.945  11.224  1.00  0.00     0.175 C 
BRANCH   7   8
HETATM    8  C1  UNL     1      16.693   4.885  10.220  1.00  0.00     0.198 C 
BRANCH   8   9
HETATM    9  O1  UNL     1      15.313   4.825  10.102  1.00  0.00    -0.398 OA
ATOM     10  H1  UNL     1      15.033   4.449   9.276  1.00  0.00     0.209 HD
ENDBRANCH   8   9
ENDBRANCH   7   8
BRANCH   7  11
HETATM   11  O2  UNL     1      16.340   2.798  11.108  1.00  0.00    -0.391 OA
ATOM     12  H2  UNL     1      16.125   2.775  10.183  1.00  0.00     0.210 HD
ENDBRANCH   7  11
ENDBRANCH   3   7
ENDBRANCH   1   2
BRANCH   1  13
HETATM   13  C8  UNL     1      15.645   2.182  15.324  1.00  0.00     0.054 A 
HETATM   14  C9  UNL     1      16.281   1.057  14.927  1.00  0.00     0.169 A 
HETATM   15  F1  UNL     1      17.031   0.898  13.781  1.00  0.00    -0.202 F 
HETATM   16  C10 UNL     1      16.248  -0.072  15.734  1.00  0.00     0.197 A 
HETATM   17  F2  UNL     1      16.871  -1.205  15.327  1.00  0.00    -0.199 F 
HETATM   18  C11 UNL     1      15.574  -0.067  16.929  1.00  0.00     0.199 A 
HETATM   19  F3  UNL     1      15.498  -1.140  17.760  1.00  0.00    -0.199 F 
HETATM   20  C12 UNL     1      14.915   1.080  17.371  1.00  0.00     0.197 A 
HETATM   21  F4  UNL     1      14.278   1.081  18.538  1.00  0.00    -0.199 F 
HETATM   22  C13 UNL     1      14.968   2.204  16.532  1.00  0.00     0.169 A 
HETATM   23  F5  UNL     1      14.435   3.308  17.050  1.00  0.00    -0.202 F 
ENDBRANCH   1  13
TORSDOF 6
ENDMDL
