MODEL 1
REMARK VINA RESULT: -6.740982107      0.000      0.000
REMARK  7 active torsions:
REMARK  status: ('A' for Active; 'I' for Inactive)
REMARK    1  A    between atoms: C2_2  and  C3_3 
REMARK    2  A    between atoms: C3_3  and  C4_4 
REMARK    3  A    between atoms: C4_4  and  C5_5 
REMARK    4  A    between atoms: C4_4  and  N1_8 
REMARK    5  A    between atoms: C5_5  and  O1_6 
REMARK    6  A    between atoms: C13_16  and  C14_17 
REMARK    7  A    between atoms: C14_17  and  O2_18 
ROOT
HETATM    1  N1  UNL     1      15.529   3.006  14.723  1.00  0.00     0.101 N 
HETATM    2  C6  UNL     1      14.596   4.015  15.174  1.00  0.00     0.274 C 
HETATM    3  C7  UNL     1      15.039   5.343  14.589  1.00  0.00     0.042 C 
HETATM    4  C8  UNL     1      16.483   5.137  14.337  1.00  0.00    -0.003 C 
HETATM    5  C9  UNL     1      17.436   6.120  14.953  1.00  0.00     0.012 C 
HETATM    6  C10 UNL     1      17.759   7.032  13.768  1.00  0.00     0.001 C 
HETATM    7  C11 UNL     1      18.010   6.026  12.667  1.00  0.00     0.006 C 
HETATM    8  C12 UNL     1      16.930   5.003  12.919  1.00  0.00     0.004 C 
HETATM    9  C13 UNL     1      17.476   3.617  13.289  1.00  0.00     0.048 C 
HETATM   10  C15 UNL     1      16.782   3.680  14.630  1.00  0.00     0.239 C 
ENDROOT
BRANCH   1  11
HETATM   11  C4  UNL     1      15.523   1.952  15.743  1.00  0.00     0.250 C 
BRANCH  11  12
HETATM   12  C3  UNL     1      14.514   2.221  16.799  1.00  0.00     0.064 C 
BRANCH  12  13
HETATM   13  C2  UNL     1      15.005   1.808  18.128  1.00  0.00    -0.035 C 
HETATM   14  C1  UNL     1      14.678   2.432  19.257  1.00  0.00     0.007 C 
ENDBRANCH  12  13
ENDBRANCH  11  12
BRANCH  11  15
HETATM   15  C5  UNL     1      16.890   1.839  16.312  1.00  0.00     0.200 C 
BRANCH  15  16
HETATM   16  O1  UNL     1      17.410   0.579  16.097  1.00  0.00    -0.399 OA
ATOM     17  H1  UNL     1      18.175   0.431  16.641  1.00  0.00     0.209 HD
ENDBRANCH  15  16
ENDBRANCH  11  15
ENDBRANCH   1  11
BRANCH   9  18
HETATM   18  C14 UNL     1      16.950   2.615  12.318  1.00  0.00     0.171 C 
BRANCH  18  19
HETATM   19  O2  UNL     1      17.593   1.406  12.516  1.00  0.00    -0.400 OA
ATOM     20  H2  UNL     1      17.897   1.072  11.680  1.00  0.00     0.209 HD
ENDBRANCH  18  19
ENDBRANCH   9  18
TORSDOF 7
ENDMDL
MODEL 2
REMARK VINA RESULT: -6.495103893      1.285      1.678
REMARK  7 active torsions:
REMARK  status: ('A' for Active; 'I' for Inactive)
REMARK    1  A    between atoms: C2_2  and  C3_3 
REMARK    2  A    between atoms: C3_3  and  C4_4 
REMARK    3  A    between atoms: C4_4  and  C5_5 
REMARK    4  A    between atoms: C4_4  and  N1_8 
REMARK    5  A    between atoms: C5_5  and  O1_6 
REMARK    6  A    between atoms: C13_16  and  C14_17 
REMARK    7  A    between atoms: C14_17  and  O2_18 
ROOT
HETATM    1  N1  UNL     1      15.816   2.764  14.288  1.00  0.00     0.101 N 
HETATM    2  C6  UNL     1      15.691   4.020  14.992  1.00  0.00     0.274 C 
HETATM    3  C7  UNL     1      16.443   5.070  14.195  1.00  0.00     0.042 C 
HETATM    4  C8  UNL     1      17.422   4.271  13.423  1.00  0.00    -0.003 C 
HETATM    5  C9  UNL     1      18.870   4.640  13.560  1.00  0.00     0.012 C 
HETATM    6  C10 UNL     1      19.113   5.448  12.283  1.00  0.00     0.001 C 
HETATM    7  C11 UNL     1      18.446   4.578  11.241  1.00  0.00     0.006 C 
HETATM    8  C12 UNL     1      17.198   4.125  11.955  1.00  0.00     0.004 C 
HETATM    9  C13 UNL     1      17.140   2.608  12.180  1.00  0.00     0.048 C 
HETATM   10  C15 UNL     1      17.103   2.811  13.677  1.00  0.00     0.239 C 
ENDROOT
BRANCH   1  11
HETATM   11  C4  UNL     1      15.703   1.709  15.300  1.00  0.00     0.250 C 
BRANCH  11  12
HETATM   12  C3  UNL     1      15.955   2.235  16.666  1.00  0.00     0.064 C 
BRANCH  12  13
HETATM   13  C2  UNL     1      14.889   1.828  17.603  1.00  0.00    -0.035 C 
HETATM   14  C1  UNL     1      13.796   1.168  17.227  1.00  0.00     0.007 C 
ENDBRANCH  12  13
ENDBRANCH  11  12
BRANCH  11  15
HETATM   15  C5  UNL     1      16.650   0.619  14.952  1.00  0.00     0.200 C 
BRANCH  15  16
HETATM   16  O1  UNL     1      17.433   0.281  16.038  1.00  0.00    -0.399 OA
ATOM     17  H1  UNL     1      18.341   0.176  15.780  1.00  0.00     0.209 HD
ENDBRANCH  15  16
ENDBRANCH  11  15
ENDBRANCH   1  11
BRANCH   9  18
HETATM   18  C14 UNL     1      15.896   2.073  11.554  1.00  0.00     0.171 C 
BRANCH  18  19
HETATM   19  O2  UNL     1      16.198   1.552  10.308  1.00  0.00    -0.400 OA
ATOM     20  H2  UNL     1      16.259   2.261   9.679  1.00  0.00     0.209 HD
ENDBRANCH  18  19
ENDBRANCH   9  18
TORSDOF 7
ENDMDL
MODEL 3
REMARK VINA RESULT: -6.271172784      1.647      4.984
REMARK  7 active torsions:
REMARK  status: ('A' for Active; 'I' for Inactive)
REMARK    1  A    between atoms: C2_2  and  C3_3 
REMARK    2  A    between atoms: C3_3  and  C4_4 
REMARK    3  A    between atoms: C4_4  and  C5_5 
REMARK    4  A    between atoms: C4_4  and  N1_8 
REMARK    5  A    between atoms: C5_5  and  O1_6 
REMARK    6  A    between atoms: C13_16  and  C14_17 
REMARK    7  A    between atoms: C14_17  and  O2_18 
ROOT
HETATM    1  N1  UNL     1      17.220   2.823  13.553  1.00  0.00     0.101 N 
HETATM    2  C6  UNL     1      17.550   4.212  13.784  1.00  0.00     0.274 C 
HETATM    3  C7  UNL     1      16.940   4.612  15.115  1.00  0.00     0.042 C 
HETATM    4  C8  UNL     1      15.832   3.646  15.283  1.00  0.00    -0.003 C 
HETATM    5  C9  UNL     1      14.459   4.208  15.512  1.00  0.00     0.012 C 
HETATM    6  C10 UNL     1      14.302   4.053  17.026  1.00  0.00     0.001 C 
HETATM    7  C11 UNL     1      14.801   2.642  17.242  1.00  0.00     0.006 C 
HETATM    8  C12 UNL     1      15.989   2.579  16.315  1.00  0.00     0.004 C 
HETATM    9  C13 UNL     1      15.827   1.552  15.185  1.00  0.00     0.048 C 
HETATM   10  C15 UNL     1      15.937   2.646  14.148  1.00  0.00     0.239 C 
ENDROOT
BRANCH   1  11
HETATM   11  C4  UNL     1      17.204   2.640  12.098  1.00  0.00     0.250 C 
BRANCH  11  12
HETATM   12  C3  UNL     1      16.766   3.873  11.397  1.00  0.00     0.064 C 
BRANCH  12  13
HETATM   13  C2  UNL     1      17.656   4.191  10.263  1.00  0.00    -0.035 C 
HETATM   14  C1  UNL     1      18.879   4.695  10.411  1.00  0.00     0.007 C 
ENDBRANCH  12  13
ENDBRANCH  11  12
BRANCH  11  15
HETATM   15  C5  UNL     1      16.321   1.488  11.778  1.00  0.00     0.200 C 
BRANCH  15  16
HETATM   16  O1  UNL     1      15.265   1.883  10.982  1.00  0.00    -0.399 OA
ATOM     17  H1  UNL     1      14.500   1.342  11.141  1.00  0.00     0.209 HD
ENDBRANCH  15  16
ENDBRANCH  11  15
ENDBRANCH   1  11
BRANCH   9  18
HETATM   18  C14 UNL     1      16.958   0.583  15.247  1.00  0.00     0.171 C 
BRANCH  18  19
HETATM   19  O2  UNL     1      16.507  -0.671  14.873  1.00  0.00    -0.400 OA
ATOM     20  H2  UNL     1      17.123  -1.056  14.261  1.00  0.00     0.209 HD
ENDBRANCH  18  19
ENDBRANCH   9  18
TORSDOF 7
ENDMDL
MODEL 4
REMARK VINA RESULT: -6.092701415      1.641      1.995
REMARK  7 active torsions:
REMARK  status: ('A' for Active; 'I' for Inactive)
REMARK    1  A    between atoms: C2_2  and  C3_3 
REMARK    2  A    between atoms: C3_3  and  C4_4 
REMARK    3  A    between atoms: C4_4  and  C5_5 
REMARK    4  A    between atoms: C4_4  and  N1_8 
REMARK    5  A    between atoms: C5_5  and  O1_6 
REMARK    6  A    between atoms: C13_16  and  C14_17 
REMARK    7  A    between atoms: C14_17  and  O2_18 
ROOT
HETATM    1  N1  UNL     1      16.801   3.997  14.020  1.00  0.00     0.101 N 
HETATM    2  C6  UNL     1      15.671   4.892  13.904  1.00  0.00     0.274 C 
HETATM    3  C7  UNL     1      16.215   6.290  13.677  1.00  0.00     0.042 C 
HETATM    4  C8  UNL     1      17.577   6.219  14.251  1.00  0.00    -0.003 C 
HETATM    5  C9  UNL     1      17.933   7.230  15.303  1.00  0.00     0.012 C 
HETATM    6  C10 UNL     1      18.747   8.248  14.502  1.00  0.00     0.001 C 
HETATM    7  C11 UNL     1      19.660   7.346  13.701  1.00  0.00     0.006 C 
HETATM    8  C12 UNL     1      18.732   6.224  13.306  1.00  0.00     0.004 C 
HETATM    9  C13 UNL     1      19.136   4.864  13.892  1.00  0.00     0.048 C 
HETATM   10  C15 UNL     1      17.823   4.774  14.637  1.00  0.00     0.239 C 
ENDROOT
BRANCH   1  11
HETATM   11  C4  UNL     1      16.355   2.875  14.854  1.00  0.00     0.250 C 
BRANCH  11  12
HETATM   12  C3  UNL     1      14.924   3.008  15.227  1.00  0.00     0.064 C 
BRANCH  12  13
HETATM   13  C2  UNL     1      14.686   2.548  16.610  1.00  0.00    -0.035 C 
HETATM   14  C1  UNL     1      13.848   1.561  16.920  1.00  0.00     0.007 C 
ENDBRANCH  12  13
ENDBRANCH  11  12
BRANCH  11  15
HETATM   15  C5  UNL     1      17.227   2.805  16.055  1.00  0.00     0.200 C 
BRANCH  15  16
HETATM   16  O1  UNL     1      17.676   1.517  16.263  1.00  0.00    -0.399 OA
ATOM     17  H1  UNL     1      17.470   1.225  17.143  1.00  0.00     0.209 HD
ENDBRANCH  15  16
ENDBRANCH  11  15
ENDBRANCH   1  11
BRANCH   9  18
HETATM   18  C14 UNL     1      19.330   3.894  12.776  1.00  0.00     0.171 C 
BRANCH  18  19
HETATM   19  O2  UNL     1      20.565   3.285  12.910  1.00  0.00    -0.400 OA
ATOM     20  H2  UNL     1      21.158   3.631  12.253  1.00  0.00     0.209 HD
ENDBRANCH  18  19
ENDBRANCH   9  18
TORSDOF 7
ENDMDL
MODEL 5
REMARK VINA RESULT: -5.817717934      1.748      4.861
REMARK  7 active torsions:
REMARK  status: ('A' for Active; 'I' for Inactive)
REMARK    1  A    between atoms: C2_2  and  C3_3 
REMARK    2  A    between atoms: C3_3  and  C4_4 
REMARK    3  A    between atoms: C4_4  and  C5_5 
REMARK    4  A    between atoms: C4_4  and  N1_8 
REMARK    5  A    between atoms: C5_5  and  O1_6 
REMARK    6  A    between atoms: C13_16  and  C14_17 
REMARK    7  A    between atoms: C14_17  and  O2_18 
ROOT
HETATM    1  N1  UNL     1      16.716   2.827  13.899  1.00  0.00     0.101 N 
HETATM    2  C6  UNL     1      16.956   4.230  14.155  1.00  0.00     0.274 C 
HETATM    3  C7  UNL     1      16.508   4.520  15.576  1.00  0.00     0.042 C 
HETATM    4  C8  UNL     1      15.520   3.451  15.843  1.00  0.00    -0.003 C 
HETATM    5  C9  UNL     1      14.151   3.876  16.287  1.00  0.00     0.012 C 
HETATM    6  C10 UNL     1      14.223   3.648  17.799  1.00  0.00     0.001 C 
HETATM    7  C11 UNL     1      14.865   2.281  17.871  1.00  0.00     0.006 C 
HETATM    8  C12 UNL     1      15.911   2.363  16.787  1.00  0.00     0.004 C 
HETATM    9  C13 UNL     1      15.679   1.371  15.639  1.00  0.00     0.048 C 
HETATM   10  C15 UNL     1      15.549   2.511  14.655  1.00  0.00     0.239 C 
ENDROOT
BRANCH   1  11
HETATM   11  C4  UNL     1      16.510   2.701  12.453  1.00  0.00     0.250 C 
BRANCH  11  12
HETATM   12  C3  UNL     1      17.295   1.575  11.886  1.00  0.00     0.064 C 
BRANCH  12  13
HETATM   13  C2  UNL     1      16.440   0.401  11.628  1.00  0.00    -0.035 C 
HETATM   14  C1  UNL     1      16.820  -0.851  11.874  1.00  0.00     0.007 C 
ENDBRANCH  12  13
ENDBRANCH  11  12
BRANCH  11  15
HETATM   15  C5  UNL     1      16.868   3.993  11.812  1.00  0.00     0.200 C 
BRANCH  15  16
HETATM   16  O1  UNL     1      16.123   4.198  10.669  1.00  0.00    -0.399 OA
ATOM     17  H1  UNL     1      15.364   4.739  10.852  1.00  0.00     0.209 HD
ENDBRANCH  15  16
ENDBRANCH  11  15
ENDBRANCH   1  11
BRANCH   9  18
HETATM   18  C14 UNL     1      16.887   0.507  15.495  1.00  0.00     0.171 C 
BRANCH  18  19
HETATM   19  O2  UNL     1      16.490  -0.801  15.283  1.00  0.00    -0.400 OA
ATOM     20  H2  UNL     1      15.551  -0.825  15.143  1.00  0.00     0.209 HD
ENDBRANCH  18  19
ENDBRANCH   9  18
TORSDOF 7
ENDMDL
