MODEL 1
REMARK VINA RESULT: -5.570776269      0.000      0.000
REMARK  4 active torsions:
REMARK  status: ('A' for Active; 'I' for Inactive)
REMARK       I    between atoms: C2_4  and  N2_5 
REMARK       I    between atoms: C2_4  and  N3_8 
REMARK    1  A    between atoms: C6_11  and  N4_12 
REMARK    2  A    between atoms: N4_12  and  C8_14 
REMARK    3  A    between atoms: C8_14  and  C9_15 
REMARK    4  A    between atoms: C9_15  and  O1_16 
ROOT
HETATM    1  C1  UNL     1      22.290   7.163  11.756  1.00  0.00     0.165 C 
HETATM    2  N1  UNL     1      21.033   6.673  12.208  1.00  0.00    -0.231 N 
ATOM      3  H1  UNL     1      20.371   7.386  12.512  1.00  0.00     0.177 HD
HETATM    4  C2  UNL     1      20.620   5.481  12.286  1.00  0.00     0.671 C 
HETATM    5  N2  UNL     1      21.444   4.399  11.894  1.00  0.00    -0.231 N 
ATOM      6  H2  UNL     1      21.681   3.698  12.597  1.00  0.00     0.177 HD
HETATM    7  C3  UNL     1      21.965   4.231  10.570  1.00  0.00     0.165 C 
HETATM    8  N3  UNL     1      19.313   5.148  12.783  1.00  0.00    -0.218 N 
HETATM    9  C4  UNL     1      19.001   5.554  14.115  1.00  0.00     0.143 C 
HETATM   10  C5  UNL     1      17.610   5.323  14.559  1.00  0.00     0.045 C 
HETATM   11  C6  UNL     1      16.792   4.352  13.785  1.00  0.00     0.086 C 
HETATM   12  C11 UNL     1      17.607   3.489  12.867  1.00  0.00     0.045 C 
HETATM   13  C12 UNL     1      18.396   4.437  11.947  1.00  0.00     0.143 C 
ENDROOT
BRANCH  11  14
HETATM   14  N4  UNL     1      15.976   3.640  14.688  1.00  0.00    -0.391 N 
HETATM   15  C7  UNL     1      14.932   4.308  15.351  1.00  0.00     0.149 C 
BRANCH  14  16
HETATM   16  C8  UNL     1      16.140   2.259  14.853  1.00  0.00     0.084 C 
BRANCH  16  17
HETATM   17  C9  UNL     1      16.778   1.997  16.215  1.00  0.00     0.211 C 
BRANCH  17  18
HETATM   18  O1  UNL     1      17.327   0.722  16.210  1.00  0.00    -0.391 OA
HETATM   19  C10 UNL     1      16.804   0.007  15.120  1.00  0.00     0.201 C 
ENDBRANCH  17  18
ENDBRANCH  16  17
ENDBRANCH  14  16
ENDBRANCH  11  14
TORSDOF 4
ENDMDL
MODEL 2
REMARK VINA RESULT: -5.454069545      0.956      1.005
REMARK  4 active torsions:
REMARK  status: ('A' for Active; 'I' for Inactive)
REMARK       I    between atoms: C2_4  and  N2_5 
REMARK       I    between atoms: C2_4  and  N3_8 
REMARK    1  A    between atoms: C6_11  and  N4_12 
REMARK    2  A    between atoms: N4_12  and  C8_14 
REMARK    3  A    between atoms: C8_14  and  C9_15 
REMARK    4  A    between atoms: C9_15  and  O1_16 
ROOT
HETATM    1  C1  UNL     1      22.233   6.954  11.920  1.00  0.00     0.165 C 
HETATM    2  N1  UNL     1      20.997   6.380  12.327  1.00  0.00    -0.231 N 
ATOM      3  H1  UNL     1      20.337   7.025  12.760  1.00  0.00     0.177 HD
HETATM    4  C2  UNL     1      20.600   5.185  12.227  1.00  0.00     0.671 C 
HETATM    5  N2  UNL     1      21.422   4.190  11.645  1.00  0.00    -0.231 N 
ATOM      6  H2  UNL     1      21.688   3.391  12.220  1.00  0.00     0.177 HD
HETATM    7  C3  UNL     1      21.901   4.241  10.296  1.00  0.00     0.165 C 
HETATM    8  N3  UNL     1      19.312   4.757  12.705  1.00  0.00    -0.218 N 
HETATM    9  C4  UNL     1      19.040   4.942  14.094  1.00  0.00     0.143 C 
HETATM   10  C5  UNL     1      17.667   4.623  14.538  1.00  0.00     0.045 C 
HETATM   11  C6  UNL     1      16.834   3.773  13.644  1.00  0.00     0.086 C 
HETATM   12  C11 UNL     1      17.628   3.079  12.577  1.00  0.00     0.045 C 
HETATM   13  C12 UNL     1      18.376   4.172  11.796  1.00  0.00     0.143 C 
ENDROOT
BRANCH  11  14
HETATM   14  N4  UNL     1      16.055   2.916  14.448  1.00  0.00    -0.391 N 
HETATM   15  C7  UNL     1      14.956   3.437  15.152  1.00  0.00     0.149 C 
BRANCH  14  16
HETATM   16  C8  UNL     1      16.313   1.539  14.470  1.00  0.00     0.084 C 
BRANCH  16  17
HETATM   17  C9  UNL     1      16.549   1.104  15.915  1.00  0.00     0.211 C 
BRANCH  17  18
HETATM   18  O1  UNL     1      15.651   0.093  16.226  1.00  0.00    -0.391 OA
HETATM   19  C10 UNL     1      14.983   0.430  17.415  1.00  0.00     0.201 C 
ENDBRANCH  17  18
ENDBRANCH  16  17
ENDBRANCH  14  16
ENDBRANCH  11  14
TORSDOF 4
ENDMDL
MODEL 3
REMARK VINA RESULT: -5.312105948      1.481      1.857
REMARK  4 active torsions:
REMARK  status: ('A' for Active; 'I' for Inactive)
REMARK       I    between atoms: C2_4  and  N2_5 
REMARK       I    between atoms: C2_4  and  N3_8 
REMARK    1  A    between atoms: C6_11  and  N4_12 
REMARK    2  A    between atoms: N4_12  and  C8_14 
REMARK    3  A    between atoms: C8_14  and  C9_15 
REMARK    4  A    between atoms: C9_15  and  O1_16 
ROOT
HETATM    1  C1  UNL     1      21.336   7.688  12.612  1.00  0.00     0.165 C 
HETATM    2  N1  UNL     1      20.284   6.777  12.911  1.00  0.00    -0.231 N 
ATOM      3  H1  UNL     1      19.517   7.162  13.461  1.00  0.00     0.177 HD
HETATM    4  C2  UNL     1      20.166   5.560  12.593  1.00  0.00     0.671 C 
HETATM    5  N2  UNL     1      21.163   4.907  11.830  1.00  0.00    -0.231 N 
ATOM      6  H2  UNL     1      21.633   4.102  12.244  1.00  0.00     0.177 HD
HETATM    7  C3  UNL     1      21.552   5.311  10.512  1.00  0.00     0.165 C 
HETATM    8  N3  UNL     1      19.035   4.765  12.989  1.00  0.00    -0.218 N 
HETATM    9  C4  UNL     1      18.795   4.628  14.390  1.00  0.00     0.143 C 
HETATM   10  C5  UNL     1      17.554   3.923  14.773  1.00  0.00     0.045 C 
HETATM   11  C6  UNL     1      16.894   3.078  13.742  1.00  0.00     0.086 C 
HETATM   12  C11 UNL     1      17.773   2.792  12.559  1.00  0.00     0.045 C 
HETATM   13  C12 UNL     1      18.214   4.152  11.991  1.00  0.00     0.143 C 
ENDROOT
BRANCH  11  14
HETATM   14  N4  UNL     1      16.372   1.932  14.375  1.00  0.00    -0.391 N 
HETATM   15  C7  UNL     1      16.659   0.661  13.850  1.00  0.00     0.149 C 
BRANCH  14  16
HETATM   16  C8  UNL     1      15.656   2.050  15.573  1.00  0.00     0.084 C 
BRANCH  16  17
HETATM   17  C9  UNL     1      15.806   0.755  16.368  1.00  0.00     0.211 C 
BRANCH  17  18
HETATM   18  O1  UNL     1      14.542   0.275  16.678  1.00  0.00    -0.391 OA
HETATM   19  C10 UNL     1      13.696   1.363  16.945  1.00  0.00     0.201 C 
ENDBRANCH  17  18
ENDBRANCH  16  17
ENDBRANCH  14  16
ENDBRANCH  11  14
TORSDOF 4
ENDMDL
MODEL 4
REMARK VINA RESULT: -5.289930593      2.815      3.659
REMARK  4 active torsions:
REMARK  status: ('A' for Active; 'I' for Inactive)
REMARK       I    between atoms: C2_4  and  N2_5 
REMARK       I    between atoms: C2_4  and  N3_8 
REMARK    1  A    between atoms: C6_11  and  N4_12 
REMARK    2  A    between atoms: N4_12  and  C8_14 
REMARK    3  A    between atoms: C8_14  and  C9_15 
REMARK    4  A    between atoms: C9_15  and  O1_16 
ROOT
HETATM    1  C1  UNL     1      17.995   8.195  11.928  1.00  0.00     0.165 C 
HETATM    2  N1  UNL     1      17.641   7.189  12.870  1.00  0.00    -0.231 N 
ATOM      3  H1  UNL     1      18.226   7.147  13.704  1.00  0.00     0.177 HD
HETATM    4  C2  UNL     1      16.706   6.341  12.820  1.00  0.00     0.671 C 
HETATM    5  N2  UNL     1      15.823   6.294  11.714  1.00  0.00    -0.231 N 
ATOM      6  H2  UNL     1      15.785   5.435  11.167  1.00  0.00     0.177 HD
HETATM    7  C3  UNL     1      14.981   7.384  11.319  1.00  0.00     0.165 C 
HETATM    8  N3  UNL     1      16.488   5.371  13.859  1.00  0.00    -0.218 N 
HETATM    9  C4  UNL     1      17.558   4.470  14.144  1.00  0.00     0.143 C 
HETATM   10  C5  UNL     1      17.365   3.573  15.302  1.00  0.00     0.045 C 
HETATM   11  C6  UNL     1      15.978   3.382  15.803  1.00  0.00     0.086 C 
HETATM   12  C11 UNL     1      14.930   3.862  14.842  1.00  0.00     0.045 C 
HETATM   13  C12 UNL     1      15.236   5.341  14.550  1.00  0.00     0.143 C 
ENDROOT
BRANCH  11  14
HETATM   14  N4  UNL     1      15.833   2.039  16.206  1.00  0.00    -0.391 N 
HETATM   15  C7  UNL     1      14.582   1.582  16.653  1.00  0.00     0.149 C 
BRANCH  14  16
HETATM   16  C8  UNL     1      16.899   1.141  16.070  1.00  0.00     0.084 C 
BRANCH  16  17
HETATM   17  C9  UNL     1      16.573   0.151  14.955  1.00  0.00     0.211 C 
BRANCH  17  18
HETATM   18  O1  UNL     1      16.965   0.702  13.743  1.00  0.00    -0.391 OA
HETATM   19  C10 UNL     1      17.008  -0.315  12.775  1.00  0.00     0.201 C 
ENDBRANCH  17  18
ENDBRANCH  16  17
ENDBRANCH  14  16
ENDBRANCH  11  14
TORSDOF 4
ENDMDL
MODEL 5
REMARK VINA RESULT: -5.263085980      2.373      3.262
REMARK  4 active torsions:
REMARK  status: ('A' for Active; 'I' for Inactive)
REMARK       I    between atoms: C2_4  and  N2_5 
REMARK       I    between atoms: C2_4  and  N3_8 
REMARK    1  A    between atoms: C6_11  and  N4_12 
REMARK    2  A    between atoms: N4_12  and  C8_14 
REMARK    3  A    between atoms: C8_14  and  C9_15 
REMARK    4  A    between atoms: C9_15  and  O1_16 
ROOT
HETATM    1  C1  UNL     1      19.044   9.791  12.707  1.00  0.00     0.165 C 
HETATM    2  N1  UNL     1      18.744   8.401  12.736  1.00  0.00    -0.231 N 
ATOM      3  H1  UNL     1      18.735   7.938  11.827  1.00  0.00     0.177 HD
HETATM    4  C2  UNL     1      18.486   7.658  13.725  1.00  0.00     0.671 C 
HETATM    5  N2  UNL     1      18.466   8.180  15.040  1.00  0.00    -0.231 N 
ATOM      6  H2  UNL     1      17.595   8.117  15.568  1.00  0.00     0.177 HD
HETATM    7  C3  UNL     1      19.597   8.790  15.674  1.00  0.00     0.165 C 
HETATM    8  N3  UNL     1      18.186   6.259  13.582  1.00  0.00    -0.218 N 
HETATM    9  C4  UNL     1      17.060   5.914  12.776  1.00  0.00     0.143 C 
HETATM   10  C5  UNL     1      16.849   4.472  12.532  1.00  0.00     0.045 C 
HETATM   11  C6  UNL     1      17.533   3.512  13.439  1.00  0.00     0.086 C 
HETATM   12  C11 UNL     1      18.066   4.153  14.687  1.00  0.00     0.045 C 
HETATM   13  C12 UNL     1      19.004   5.288  14.240  1.00  0.00     0.143 C 
ENDROOT
BRANCH  11  14
HETATM   14  N4  UNL     1      16.668   2.422  13.664  1.00  0.00    -0.391 N 
HETATM   15  C7  UNL     1      16.398   1.526  12.616  1.00  0.00     0.149 C 
BRANCH  14  16
HETATM   16  C8  UNL     1      16.157   2.176  14.945  1.00  0.00     0.084 C 
BRANCH  16  17
HETATM   17  C9  UNL     1      16.470   0.733  15.333  1.00  0.00     0.211 C 
BRANCH  17  18
HETATM   18  O1  UNL     1      16.534   0.649  16.717  1.00  0.00    -0.391 OA
HETATM   19  C10 UNL     1      15.231   0.722  17.235  1.00  0.00     0.201 C 
ENDBRANCH  17  18
ENDBRANCH  16  17
ENDBRANCH  14  16
ENDBRANCH  11  14
TORSDOF 4
ENDMDL
