MODEL 1
REMARK VINA RESULT: -6.065837821      0.000      0.000
REMARK  5 active torsions:
REMARK  status: ('A' for Active; 'I' for Inactive)
REMARK    1  A    between atoms: O1_1  and  C1_3 
REMARK    2  A    between atoms: C1_3  and  C2_4 
REMARK    3  A    between atoms: N1_7  and  C5_8 
REMARK    4  A    between atoms: C5_8  and  C6_9 
REMARK    5  A    between atoms: C6_9  and  N2_10 
ROOT
HETATM    1  C5  UNL     1      16.948   5.177  14.759  1.00  0.00     0.161 C 
ENDROOT
BRANCH   1   2
HETATM    2  N1  UNL     1      16.315   4.043  15.337  1.00  0.00    -0.408 N 
HETATM    3  C4  UNL     1      14.926   3.904  15.246  1.00  0.00     0.117 C 
HETATM    4  C3  UNL     1      14.399   3.218  16.508  1.00  0.00     0.026 C 
HETATM    5  C2  UNL     1      15.247   2.079  16.964  1.00  0.00     0.012 C 
HETATM    6  C13 UNL     1      16.210   1.707  15.864  1.00  0.00     0.026 C 
HETATM    7  C12 UNL     1      17.111   2.934  15.672  1.00  0.00     0.117 C 
BRANCH   5   8
HETATM    8  C1  UNL     1      14.352   0.907  17.305  1.00  0.00     0.168 C 
BRANCH   8   9
HETATM    9  O1  UNL     1      15.112  -0.284  17.284  1.00  0.00    -0.400 OA
ATOM     10  H1  UNL     1      15.659  -0.322  18.060  1.00  0.00     0.209 HD
ENDBRANCH   8   9
ENDBRANCH   5   8
ENDBRANCH   1   2
BRANCH   1  11
HETATM   11  C6  UNL     1      17.280   4.877  13.326  1.00  0.00     0.082 C 
BRANCH  11  12
HETATM   12  N2  UNL     1      18.646   4.650  13.110  1.00  0.00    -0.371 N 
HETATM   13  C7  UNL     1      19.516   5.688  13.594  1.00  0.00     0.129 C 
HETATM   14  C8  UNL     1      20.044   6.633  12.581  1.00  0.00     0.048 C 
HETATM   15  C9  UNL     1      21.433   6.244  12.080  1.00  0.00     0.234 C 
HETATM   16  N3  UNL     1      21.415   4.797  11.935  1.00  0.00    -0.071 N 
HETATM   17  C10 UNL     1      20.212   4.477  11.202  1.00  0.00     0.277 C 
ATOM     18  H32 UNL     1      22.262   4.423  11.507  1.00  0.00     0.277 HD
ATOM     19  H31 UNL     1      21.493   4.299  12.823  1.00  0.00     0.277 HD
HETATM   20  C11 UNL     1      19.138   3.858  12.080  1.00  0.00     0.090 C 
ENDBRANCH  11  12
ENDBRANCH   1  11
TORSDOF 5
ENDMDL
MODEL 2
REMARK VINA RESULT: -6.015798188      1.550      2.144
REMARK  5 active torsions:
REMARK  status: ('A' for Active; 'I' for Inactive)
REMARK    1  A    between atoms: O1_1  and  C1_3 
REMARK    2  A    between atoms: C1_3  and  C2_4 
REMARK    3  A    between atoms: N1_7  and  C5_8 
REMARK    4  A    between atoms: C5_8  and  C6_9 
REMARK    5  A    between atoms: C6_9  and  N2_10 
ROOT
HETATM    1  C5  UNL     1      17.027   5.091  14.778  1.00  0.00     0.161 C 
ENDROOT
BRANCH   1   2
HETATM    2  N1  UNL     1      16.373   3.968  15.353  1.00  0.00    -0.408 N 
HETATM    3  C4  UNL     1      14.988   3.828  15.217  1.00  0.00     0.117 C 
HETATM    4  C3  UNL     1      14.417   3.163  16.471  1.00  0.00     0.026 C 
HETATM    5  C2  UNL     1      15.249   2.033  16.976  1.00  0.00     0.012 C 
HETATM    6  C13 UNL     1      16.249   1.641  15.917  1.00  0.00     0.026 C 
HETATM    7  C12 UNL     1      17.156   2.864  15.735  1.00  0.00     0.117 C 
BRANCH   5   8
HETATM    8  C1  UNL     1      14.341   0.866  17.306  1.00  0.00     0.168 C 
BRANCH   8   9
HETATM    9  O1  UNL     1      15.104  -0.322  17.352  1.00  0.00    -0.400 OA
ATOM     10  H1  UNL     1      15.801  -0.224  17.990  1.00  0.00     0.209 HD
ENDBRANCH   8   9
ENDBRANCH   5   8
ENDBRANCH   1   2
BRANCH   1  11
HETATM   11  C6  UNL     1      18.346   4.655  14.211  1.00  0.00     0.082 C 
BRANCH  11  12
HETATM   12  N2  UNL     1      18.340   4.546  12.815  1.00  0.00    -0.371 N 
HETATM   13  C7  UNL     1      18.192   5.792  12.110  1.00  0.00     0.129 C 
HETATM   14  C8  UNL     1      16.843   6.090  11.573  1.00  0.00     0.048 C 
HETATM   15  C9  UNL     1      16.693   5.694  10.106  1.00  0.00     0.234 C 
HETATM   16  N3  UNL     1      17.380   4.420   9.963  1.00  0.00    -0.071 N 
HETATM   17  C10 UNL     1      16.909   3.581  11.042  1.00  0.00     0.277 C 
ATOM     18  H32 UNL     1      17.263   3.999   9.041  1.00  0.00     0.277 HD
ATOM     19  H31 UNL     1      18.396   4.508   9.932  1.00  0.00     0.277 HD
HETATM   20  C11 UNL     1      17.946   3.399  12.137  1.00  0.00     0.090 C 
ENDBRANCH  11  12
ENDBRANCH   1  11
TORSDOF 5
ENDMDL
MODEL 3
REMARK VINA RESULT: -5.995966905      0.478      1.269
REMARK  5 active torsions:
REMARK  status: ('A' for Active; 'I' for Inactive)
REMARK    1  A    between atoms: O1_1  and  C1_3 
REMARK    2  A    between atoms: C1_3  and  C2_4 
REMARK    3  A    between atoms: N1_7  and  C5_8 
REMARK    4  A    between atoms: C5_8  and  C6_9 
REMARK    5  A    between atoms: C6_9  and  N2_10 
ROOT
HETATM    1  C5  UNL     1      16.863   4.856  14.336  1.00  0.00     0.161 C 
ENDROOT
BRANCH   1   2
HETATM    2  N1  UNL     1      16.179   3.905  15.140  1.00  0.00    -0.408 N 
HETATM    3  C4  UNL     1      16.902   2.906  15.799  1.00  0.00     0.117 C 
HETATM    4  C3  UNL     1      16.063   1.627  15.864  1.00  0.00     0.026 C 
HETATM    5  C2  UNL     1      14.630   1.873  16.198  1.00  0.00     0.012 C 
HETATM    6  C13 UNL     1      14.475   3.283  16.709  1.00  0.00     0.026 C 
HETATM    7  C12 UNL     1      14.859   4.191  15.534  1.00  0.00     0.117 C 
BRANCH   5   8
HETATM    8  C1  UNL     1      14.195   0.875  17.251  1.00  0.00     0.168 C 
BRANCH   8   9
HETATM    9  O1  UNL     1      15.092  -0.217  17.259  1.00  0.00    -0.400 OA
ATOM     10  H1  UNL     1      14.655  -0.980  17.619  1.00  0.00     0.209 HD
ENDBRANCH   8   9
ENDBRANCH   5   8
ENDBRANCH   1   2
BRANCH   1  11
HETATM   11  C6  UNL     1      17.504   4.150  13.177  1.00  0.00     0.082 C 
BRANCH  11  12
HETATM   12  N2  UNL     1      18.888   4.352  13.103  1.00  0.00    -0.371 N 
HETATM   13  C7  UNL     1      19.342   5.625  13.596  1.00  0.00     0.129 C 
HETATM   14  C8  UNL     1      19.661   6.653  12.577  1.00  0.00     0.048 C 
HETATM   15  C9  UNL     1      21.148   6.698  12.231  1.00  0.00     0.234 C 
HETATM   16  N3  UNL     1      21.589   5.313  12.179  1.00  0.00    -0.071 N 
HETATM   17  C10 UNL     1      20.627   4.611  11.361  1.00  0.00     0.277 C 
ATOM     18  H32 UNL     1      22.551   5.207  11.856  1.00  0.00     0.277 HD
ATOM     19  H31 UNL     1      21.720   4.894  13.101  1.00  0.00     0.277 HD
HETATM   20  C11 UNL     1      19.707   3.718  12.176  1.00  0.00     0.090 C 
ENDBRANCH  11  12
ENDBRANCH   1  11
TORSDOF 5
ENDMDL
MODEL 4
REMARK VINA RESULT: -5.973773014      1.285      1.869
REMARK  5 active torsions:
REMARK  status: ('A' for Active; 'I' for Inactive)
REMARK    1  A    between atoms: O1_1  and  C1_3 
REMARK    2  A    between atoms: C1_3  and  C2_4 
REMARK    3  A    between atoms: N1_7  and  C5_8 
REMARK    4  A    between atoms: C5_8  and  C6_9 
REMARK    5  A    between atoms: C6_9  and  N2_10 
ROOT
HETATM    1  C5  UNL     1      16.945   5.171  14.758  1.00  0.00     0.161 C 
ENDROOT
BRANCH   1   2
HETATM    2  N1  UNL     1      16.312   4.037  15.334  1.00  0.00    -0.408 N 
HETATM    3  C4  UNL     1      14.920   3.915  15.273  1.00  0.00     0.117 C 
HETATM    4  C3  UNL     1      14.413   3.215  16.536  1.00  0.00     0.026 C 
HETATM    5  C2  UNL     1      15.258   2.061  16.956  1.00  0.00     0.012 C 
HETATM    6  C13 UNL     1      16.192   1.693  15.829  1.00  0.00     0.026 C 
HETATM    7  C12 UNL     1      17.102   2.913  15.635  1.00  0.00     0.117 C 
BRANCH   5   8
HETATM    8  C1  UNL     1      14.357   0.893  17.300  1.00  0.00     0.168 C 
BRANCH   8   9
HETATM    9  O1  UNL     1      15.107  -0.304  17.261  1.00  0.00    -0.400 OA
ATOM     10  H1  UNL     1      14.740  -0.926  17.878  1.00  0.00     0.209 HD
ENDBRANCH   8   9
ENDBRANCH   5   8
ENDBRANCH   1   2
BRANCH   1  11
HETATM   11  C6  UNL     1      18.281   4.763  14.211  1.00  0.00     0.082 C 
BRANCH  11  12
HETATM   12  N2  UNL     1      18.518   5.240  12.916  1.00  0.00    -0.371 N 
HETATM   13  C7  UNL     1      17.377   5.208  12.039  1.00  0.00     0.129 C 
HETATM   14  C8  UNL     1      17.328   4.095  11.061  1.00  0.00     0.048 C 
HETATM   15  C9  UNL     1      17.875   4.491   9.692  1.00  0.00     0.234 C 
HETATM   16  N3  UNL     1      19.044   5.317   9.950  1.00  0.00    -0.071 N 
HETATM   17  C10 UNL     1      19.839   4.601  10.922  1.00  0.00     0.277 C 
ATOM     18  H32 UNL     1      19.561   5.563   9.106  1.00  0.00     0.277 HD
ATOM     19  H31 UNL     1      18.813   6.268  10.238  1.00  0.00     0.277 HD
HETATM   20  C11 UNL     1      19.768   5.221  12.308  1.00  0.00     0.090 C 
ENDBRANCH  11  12
ENDBRANCH   1  11
TORSDOF 5
ENDMDL
MODEL 5
REMARK VINA RESULT: -5.923441056      1.182      1.562
REMARK  5 active torsions:
REMARK  status: ('A' for Active; 'I' for Inactive)
REMARK    1  A    between atoms: O1_1  and  C1_3 
REMARK    2  A    between atoms: C1_3  and  C2_4 
REMARK    3  A    between atoms: N1_7  and  C5_8 
REMARK    4  A    between atoms: C5_8  and  C6_9 
REMARK    5  A    between atoms: C6_9  and  N2_10 
ROOT
HETATM    1  C5  UNL     1      17.065   5.042  14.701  1.00  0.00     0.161 C 
ENDROOT
BRANCH   1   2
HETATM    2  N1  UNL     1      16.401   3.939  15.304  1.00  0.00    -0.408 N 
HETATM    3  C4  UNL     1      15.017   3.803  15.163  1.00  0.00     0.117 C 
HETATM    4  C3  UNL     1      14.434   3.177  16.432  1.00  0.00     0.026 C 
HETATM    5  C2  UNL     1      15.256   2.056  16.973  1.00  0.00     0.012 C 
HETATM    6  C13 UNL     1      16.260   1.629  15.931  1.00  0.00     0.026 C 
HETATM    7  C12 UNL     1      17.175   2.841  15.721  1.00  0.00     0.117 C 
BRANCH   5   8
HETATM    8  C1  UNL     1      14.339   0.905  17.330  1.00  0.00     0.168 C 
BRANCH   8   9
HETATM    9  O1  UNL     1      15.079  -0.299  17.331  1.00  0.00    -0.400 OA
ATOM     10  H1  UNL     1      15.977  -0.117  17.081  1.00  0.00     0.209 HD
ENDBRANCH   8   9
ENDBRANCH   5   8
ENDBRANCH   1   2
BRANCH   1  11
HETATM   11  C6  UNL     1      18.386   4.582  14.156  1.00  0.00     0.082 C 
BRANCH  11  12
HETATM   12  N2  UNL     1      18.360   4.337  12.777  1.00  0.00    -0.371 N 
HETATM   13  C7  UNL     1      19.610   3.900  12.215  1.00  0.00     0.129 C 
HETATM   14  C8  UNL     1      20.402   4.924  11.492  1.00  0.00     0.048 C 
HETATM   15  C9  UNL     1      20.164   4.895   9.984  1.00  0.00     0.234 C 
HETATM   16  N3  UNL     1      18.738   4.672   9.807  1.00  0.00    -0.071 N 
HETATM   17  C10 UNL     1      18.070   5.614  10.677  1.00  0.00     0.277 C 
ATOM     18  H32 UNL     1      18.436   4.733   8.835  1.00  0.00     0.277 HD
ATOM     19  H31 UNL     1      18.455   3.704   9.965  1.00  0.00     0.277 HD
HETATM   20  C11 UNL     1      17.469   4.951  11.905  1.00  0.00     0.090 C 
ENDBRANCH  11  12
ENDBRANCH   1  11
TORSDOF 5
ENDMDL
