MODEL 1
REMARK VINA RESULT: -7.607045814      0.000      0.000
REMARK  6 active torsions:
REMARK  status: ('A' for Active; 'I' for Inactive)
REMARK    1  A    between atoms: C4_7  and  N1_8 
REMARK    2  A    between atoms: N1_8  and  C5_10 
REMARK    3  A    between atoms: N2_11  and  N3_13 
REMARK    4  A    between atoms: N3_13  and  C6_15 
REMARK    5  A    between atoms: C6_15  and  C7_16 
REMARK    6  A    between atoms: C7_16  and  N4_17 
ROOT
HETATM    1  C5  UNL     1      17.176   3.110  12.872  1.00  0.00     0.197 C 
HETATM    2  N2  UNL     1      18.442   3.075  12.707  1.00  0.00    -0.295 N 
ATOM      3  H2  UNL     1      18.980   2.278  13.048  1.00  0.00     0.187 HD
ENDROOT
BRANCH   2   4
HETATM    4  N3  UNL     1      19.086   4.124  12.061  1.00  0.00    -0.286 N 
ATOM      5  H3  UNL     1      18.895   4.298  11.074  1.00  0.00     0.188 HD
BRANCH   4   6
HETATM    6  C6  UNL     1      19.997   4.953  12.748  1.00  0.00     0.135 C 
HETATM    7  N5  UNL     1      21.229   4.914  12.365  1.00  0.00    -0.285 N 
HETATM    8 CL1  UNL     1      21.772   3.904  11.070  1.00  0.00     0.012 Cl
ATOM      9  H5  UNL     1      21.909   5.504  12.844  1.00  0.00     0.181 HD
BRANCH   6  10
HETATM   10  C7  UNL     1      19.517   5.788  13.853  1.00  0.00     0.351 C 
BRANCH  10  11
HETATM   11  N4  UNL     1      18.492   6.746  13.477  1.00  0.00     0.098 N 
HETATM   12  C8  UNL     1      18.966   7.543  12.357  1.00  0.00     0.276 C 
HETATM   13  C9  UNL     1      18.903   8.991  12.797  1.00  0.00     0.069 C 
HETATM   14  C10 UNL     1      19.207   8.800  14.289  1.00  0.00     0.200 C 
HETATM   15  F4  UNL     1      18.926   9.904  15.029  1.00  0.00    -0.248 F 
HETATM   16  C11 UNL     1      18.264   7.627  14.583  1.00  0.00     0.309 C 
ENDBRANCH  10  11
ENDBRANCH   6  10
ENDBRANCH   4   6
ENDBRANCH   2   4
BRANCH   1  17
HETATM   17  N1  UNL     1      16.569   2.005  13.541  1.00  0.00    -0.346 N 
ATOM     18  H1  UNL     1      16.577   1.095  13.081  1.00  0.00     0.167 HD
BRANCH  17  19
HETATM   19  C4  UNL     1      15.955   2.111  14.819  1.00  0.00     0.117 A 
HETATM   20  C3  UNL     1      16.034   1.028  15.685  1.00  0.00     0.188 A 
HETATM   21  C2  UNL     1      15.447   1.101  16.932  1.00  0.00     0.199 A 
HETATM   22  F3  UNL     1      16.698  -0.081  15.259  1.00  0.00    -0.200 F 
HETATM   23  C1  UNL     1      14.771   2.218  17.376  1.00  0.00     0.199 A 
HETATM   24  F2  UNL     1      15.538   0.034  17.753  1.00  0.00    -0.199 F 
HETATM   25  F1  UNL     1      14.195   2.293  18.602  1.00  0.00    -0.199 F 
HETATM   26  C13 UNL     1      14.697   3.290  16.513  1.00  0.00     0.199 A 
HETATM   27  C12 UNL     1      15.285   3.232  15.249  1.00  0.00     0.188 A 
HETATM   28  F6  UNL     1      14.046   4.442  16.870  1.00  0.00    -0.199 F 
HETATM   29  F5  UNL     1      15.205   4.290  14.415  1.00  0.00    -0.200 F 
ENDBRANCH  17  19
ENDBRANCH   1  17
TORSDOF 6
ENDMDL
MODEL 2
REMARK VINA RESULT: -7.536109903      1.110      2.431
REMARK  6 active torsions:
REMARK  status: ('A' for Active; 'I' for Inactive)
REMARK    1  A    between atoms: C4_7  and  N1_8 
REMARK    2  A    between atoms: N1_8  and  C5_10 
REMARK    3  A    between atoms: N2_11  and  N3_13 
REMARK    4  A    between atoms: N3_13  and  C6_15 
REMARK    5  A    between atoms: C6_15  and  C7_16 
REMARK    6  A    between atoms: C7_16  and  N4_17 
ROOT
HETATM    1  C5  UNL     1      17.661   3.533  13.113  1.00  0.00     0.197 C 
HETATM    2  N2  UNL     1      18.336   3.907  14.131  1.00  0.00    -0.295 N 
ATOM      3  H2  UNL     1      17.902   3.922  15.054  1.00  0.00     0.187 HD
ENDROOT
BRANCH   2   4
HETATM    4  N3  UNL     1      19.662   4.296  13.978  1.00  0.00    -0.286 N 
ATOM      5  H3  UNL     1      20.404   3.705  14.354  1.00  0.00     0.188 HD
BRANCH   4   6
HETATM    6  C6  UNL     1      19.999   5.492  13.311  1.00  0.00     0.135 C 
HETATM    7  N5  UNL     1      20.628   5.382  12.190  1.00  0.00    -0.285 N 
HETATM    8 CL1  UNL     1      21.053   3.852  11.505  1.00  0.00     0.012 Cl
ATOM      9  H5  UNL     1      20.884   6.232  11.687  1.00  0.00     0.181 HD
BRANCH   6  10
HETATM   10  C7  UNL     1      19.644   6.778  13.920  1.00  0.00     0.351 C 
BRANCH  10  11
HETATM   11  N4  UNL     1      19.950   7.934  13.096  1.00  0.00     0.098 N 
HETATM   12  C8  UNL     1      21.162   8.570  13.587  1.00  0.00     0.276 C 
HETATM   13  C9  UNL     1      20.801  10.005  13.907  1.00  0.00     0.069 C 
HETATM   14  C10 UNL     1      19.347   9.792  14.350  1.00  0.00     0.200 C 
HETATM   15  F4  UNL     1      18.643  10.952  14.420  1.00  0.00    -0.248 F 
HETATM   16  C11 UNL     1      18.878   8.875  13.215  1.00  0.00     0.309 C 
ENDBRANCH  10  11
ENDBRANCH   6  10
ENDBRANCH   4   6
ENDBRANCH   2   4
BRANCH   1  17
HETATM   17  N1  UNL     1      16.305   3.144  13.330  1.00  0.00    -0.346 N 
ATOM     18  H1  UNL     1      15.679   3.098  12.526  1.00  0.00     0.167 HD
BRANCH  17  19
HETATM   19  C4  UNL     1      15.785   2.820  14.613  1.00  0.00     0.117 A 
HETATM   20  C3  UNL     1      15.043   3.778  15.289  1.00  0.00     0.188 A 
HETATM   21  C2  UNL     1      14.525   3.493  16.536  1.00  0.00     0.199 A 
HETATM   22  F3  UNL     1      14.854   4.983  14.683  1.00  0.00    -0.200 F 
HETATM   23  C1  UNL     1      14.708   2.277  17.162  1.00  0.00     0.199 A 
HETATM   24  F2  UNL     1      13.808   4.442  17.172  1.00  0.00    -0.199 F 
HETATM   25  F1  UNL     1      14.199   1.993  18.386  1.00  0.00    -0.199 F 
HETATM   26  C13 UNL     1      15.446   1.329  16.485  1.00  0.00     0.199 A 
HETATM   27  C12 UNL     1      15.975   1.603  15.223  1.00  0.00     0.188 A 
HETATM   28  F6  UNL     1      15.677   0.093  17.029  1.00  0.00    -0.199 F 
HETATM   29  F5  UNL     1      16.694   0.664  14.573  1.00  0.00    -0.200 F 
ENDBRANCH  17  19
ENDBRANCH   1  17
TORSDOF 6
ENDMDL
MODEL 3
REMARK VINA RESULT: -7.490783206      1.117      1.404
REMARK  6 active torsions:
REMARK  status: ('A' for Active; 'I' for Inactive)
REMARK    1  A    between atoms: C4_7  and  N1_8 
REMARK    2  A    between atoms: N1_8  and  C5_10 
REMARK    3  A    between atoms: N2_11  and  N3_13 
REMARK    4  A    between atoms: N3_13  and  C6_15 
REMARK    5  A    between atoms: C6_15  and  C7_16 
REMARK    6  A    between atoms: C7_16  and  N4_17 
ROOT
HETATM    1  C5  UNL     1      17.505   3.472  13.090  1.00  0.00     0.197 C 
HETATM    2  N2  UNL     1      18.228   3.792  14.094  1.00  0.00    -0.295 N 
ATOM      3  H2  UNL     1      17.872   3.664  15.041  1.00  0.00     0.187 HD
ENDROOT
BRANCH   2   4
HETATM    4  N3  UNL     1      19.501   4.314  13.892  1.00  0.00    -0.286 N 
ATOM      5  H3  UNL     1      20.304   3.855  14.322  1.00  0.00     0.188 HD
BRANCH   4   6
HETATM    6  C6  UNL     1      19.699   5.466  13.103  1.00  0.00     0.135 C 
HETATM    7  N5  UNL     1      20.403   5.328  12.031  1.00  0.00    -0.285 N 
HETATM    8 CL1  UNL     1      21.087   3.813  11.551  1.00  0.00     0.012 Cl
ATOM      9  H5  UNL     1      20.563   6.146  11.442  1.00  0.00     0.181 HD
BRANCH   6  10
HETATM   10  C7  UNL     1      19.125   6.743  13.539  1.00  0.00     0.351 C 
BRANCH  10  11
HETATM   11  N4  UNL     1      20.109   7.751  13.892  1.00  0.00     0.098 N 
HETATM   12  C8  UNL     1      19.680   8.443  15.097  1.00  0.00     0.276 C 
HETATM   13  C9  UNL     1      19.603   9.915  14.749  1.00  0.00     0.069 C 
HETATM   14  C10 UNL     1      19.185   9.790  13.277  1.00  0.00     0.200 C 
HETATM   15  F4  UNL     1      19.324  10.954  12.590  1.00  0.00    -0.248 F 
HETATM   16  C11 UNL     1      20.179   8.710  12.831  1.00  0.00     0.309 C 
ENDBRANCH  10  11
ENDBRANCH   6  10
ENDBRANCH   4   6
ENDBRANCH   2   4
BRANCH   1  17
HETATM   17  N1  UNL     1      16.208   2.940  13.357  1.00  0.00    -0.346 N 
ATOM     18  H1  UNL     1      15.619   2.676  12.567  1.00  0.00     0.167 HD
BRANCH  17  19
HETATM   19  C4  UNL     1      15.697   2.760  14.672  1.00  0.00     0.117 A 
HETATM   20  C3  UNL     1      15.931   1.552  15.315  1.00  0.00     0.188 A 
HETATM   21  C2  UNL     1      15.447   1.348  16.591  1.00  0.00     0.199 A 
HETATM   22  F3  UNL     1      16.640   0.602  14.646  1.00  0.00    -0.200 F 
HETATM   23  C1  UNL     1      14.727   2.302  17.280  1.00  0.00     0.199 A 
HETATM   24  F2  UNL     1      15.688   0.164  17.193  1.00  0.00    -0.199 F 
HETATM   25  F1  UNL     1      14.252   2.104  18.534  1.00  0.00    -0.199 F 
HETATM   26  C13 UNL     1      14.498   3.500  16.636  1.00  0.00     0.199 A 
HETATM   27  C12 UNL     1      14.981   3.721  15.346  1.00  0.00     0.188 A 
HETATM   28  F6  UNL     1      13.794   4.505  17.244  1.00  0.00    -0.199 F 
HETATM   29  F5  UNL     1      14.750   4.899  14.730  1.00  0.00    -0.200 F 
ENDBRANCH  17  19
ENDBRANCH   1  17
TORSDOF 6
ENDMDL
MODEL 4
REMARK VINA RESULT: -7.483583168      1.512      2.714
REMARK  6 active torsions:
REMARK  status: ('A' for Active; 'I' for Inactive)
REMARK    1  A    between atoms: C4_7  and  N1_8 
REMARK    2  A    between atoms: N1_8  and  C5_10 
REMARK    3  A    between atoms: N2_11  and  N3_13 
REMARK    4  A    between atoms: N3_13  and  C6_15 
REMARK    5  A    between atoms: C6_15  and  C7_16 
REMARK    6  A    between atoms: C7_16  and  N4_17 
ROOT
HETATM    1  C5  UNL     1      17.372   3.114  13.011  1.00  0.00     0.197 C 
HETATM    2  N2  UNL     1      17.533   3.527  11.813  1.00  0.00    -0.295 N 
ATOM      3  H2  UNL     1      16.747   3.527  11.162  1.00  0.00     0.187 HD
ENDROOT
BRANCH   2   4
HETATM    4  N3  UNL     1      18.781   3.977  11.397  1.00  0.00    -0.286 N 
ATOM      5  H3  UNL     1      19.514   3.299  11.186  1.00  0.00     0.188 HD
BRANCH   4   6
HETATM    6  C6  UNL     1      19.051   5.355  11.262  1.00  0.00     0.135 C 
HETATM    7  N5  UNL     1      18.877   5.875  10.094  1.00  0.00    -0.285 N 
HETATM    8 CL1  UNL     1      18.335   4.954   8.734  1.00  0.00     0.012 Cl
ATOM      9  H5  UNL     1      19.065   6.869   9.968  1.00  0.00     0.181 HD
BRANCH   6  10
HETATM   10  C7  UNL     1      19.527   6.111  12.425  1.00  0.00     0.351 C 
BRANCH  10  11
HETATM   11  N4  UNL     1      18.726   7.280  12.745  1.00  0.00     0.098 N 
HETATM   12  C8  UNL     1      19.409   8.070  13.757  1.00  0.00     0.276 C 
HETATM   13  C9  UNL     1      18.456   8.196  14.927  1.00  0.00     0.069 C 
HETATM   14  C10 UNL     1      17.747   6.840  14.803  1.00  0.00     0.200 C 
HETATM   15  F4  UNL     1      16.609   6.772  15.543  1.00  0.00    -0.248 F 
HETATM   16  C11 UNL     1      17.479   6.841  13.294  1.00  0.00     0.309 C 
ENDBRANCH  10  11
ENDBRANCH   6  10
ENDBRANCH   4   6
ENDBRANCH   2   4
BRANCH   1  17
HETATM   17  N1  UNL     1      16.069   2.665  13.381  1.00  0.00    -0.346 N 
ATOM     18  H1  UNL     1      15.410   2.422  12.642  1.00  0.00     0.167 HD
BRANCH  17  19
HETATM   19  C4  UNL     1      15.644   2.541  14.733  1.00  0.00     0.117 A 
HETATM   20  C3  UNL     1      14.960   3.600  15.313  1.00  0.00     0.188 A 
HETATM   21  C2  UNL     1      14.536   3.509  16.623  1.00  0.00     0.199 A 
HETATM   22  F3  UNL     1      14.733   4.706  14.551  1.00  0.00    -0.200 F 
HETATM   23  C1  UNL     1      14.758   2.395  17.406  1.00  0.00     0.199 A 
HETATM   24  F2  UNL     1      13.872   4.553  17.163  1.00  0.00    -0.199 F 
HETATM   25  F1  UNL     1      14.341   2.302  18.692  1.00  0.00    -0.199 F 
HETATM   26  C13 UNL     1      15.438   1.346  16.824  1.00  0.00     0.199 A 
HETATM   27  C12 UNL     1      15.873   1.424  15.500  1.00  0.00     0.188 A 
HETATM   28  F6  UNL     1      15.703   0.199  17.526  1.00  0.00    -0.199 F 
HETATM   29  F5  UNL     1      16.536   0.388  14.945  1.00  0.00    -0.200 F 
ENDBRANCH  17  19
ENDBRANCH   1  17
TORSDOF 6
ENDMDL
MODEL 5
REMARK VINA RESULT: -7.469765489      1.519      1.741
REMARK  6 active torsions:
REMARK  status: ('A' for Active; 'I' for Inactive)
REMARK    1  A    between atoms: C4_7  and  N1_8 
REMARK    2  A    between atoms: N1_8  and  C5_10 
REMARK    3  A    between atoms: N2_11  and  N3_13 
REMARK    4  A    between atoms: N3_13  and  C6_15 
REMARK    5  A    between atoms: C6_15  and  C7_16 
REMARK    6  A    between atoms: C7_16  and  N4_17 
ROOT
HETATM    1  C5  UNL     1      17.442   3.122  12.984  1.00  0.00     0.197 C 
HETATM    2  N2  UNL     1      17.613   3.530  11.786  1.00  0.00    -0.295 N 
ATOM      3  H2  UNL     1      16.842   3.493  11.119  1.00  0.00     0.187 HD
ENDROOT
BRANCH   2   4
HETATM    4  N3  UNL     1      18.851   4.026  11.393  1.00  0.00    -0.286 N 
ATOM      5  H3  UNL     1      19.610   3.376  11.192  1.00  0.00     0.188 HD
BRANCH   4   6
HETATM    6  C6  UNL     1      19.074   5.413  11.268  1.00  0.00     0.135 C 
HETATM    7  N5  UNL     1      18.849   5.942  10.113  1.00  0.00    -0.285 N 
HETATM    8 CL1  UNL     1      18.296   5.021   8.757  1.00  0.00     0.012 Cl
ATOM      9  H5  UNL     1      19.003   6.943   9.995  1.00  0.00     0.181 HD
BRANCH   6  10
HETATM   10  C7  UNL     1      19.560   6.170  12.427  1.00  0.00     0.351 C 
BRANCH  10  11
HETATM   11  N4  UNL     1      18.746   7.321  12.772  1.00  0.00     0.098 N 
HETATM   12  C8  UNL     1      19.398   8.073  13.833  1.00  0.00     0.276 C 
HETATM   13  C9  UNL     1      18.414   8.149  14.981  1.00  0.00     0.069 C 
HETATM   14  C10 UNL     1      17.715   6.796  14.785  1.00  0.00     0.200 C 
HETATM   15  F4  UNL     1      16.559   6.693  15.492  1.00  0.00    -0.248 F 
HETATM   16  C11 UNL     1      17.486   6.856  13.270  1.00  0.00     0.309 C 
ENDBRANCH  10  11
ENDBRANCH   6  10
ENDBRANCH   4   6
ENDBRANCH   2   4
BRANCH   1  17
HETATM   17  N1  UNL     1      16.150   2.624  13.331  1.00  0.00    -0.346 N 
ATOM     18  H1  UNL     1      15.539   2.297  12.583  1.00  0.00     0.167 HD
BRANCH  17  19
HETATM   19  C4  UNL     1      15.674   2.562  14.669  1.00  0.00     0.117 A 
HETATM   20  C3  UNL     1      15.910   1.408  15.404  1.00  0.00     0.188 A 
HETATM   21  C2  UNL     1      15.459   1.318  16.706  1.00  0.00     0.199 A 
HETATM   22  F3  UNL     1      16.589   0.395  14.799  1.00  0.00    -0.200 F 
HETATM   23  C1  UNL     1      14.772   2.337  17.331  1.00  0.00     0.199 A 
HETATM   24  F2  UNL     1      15.703   0.185  17.398  1.00  0.00    -0.199 F 
HETATM   25  F1  UNL     1      14.330   2.252  18.610  1.00  0.00    -0.199 F 
HETATM   26  C13 UNL     1      14.540   3.480  16.596  1.00  0.00     0.199 A 
HETATM   27  C12 UNL     1      14.990   3.586  15.280  1.00  0.00     0.188 A 
HETATM   28  F6  UNL     1      13.866   4.544  17.137  1.00  0.00    -0.199 F 
HETATM   29  F5  UNL     1      14.757   4.713  14.574  1.00  0.00    -0.200 F 
ENDBRANCH  17  19
ENDBRANCH   1  17
TORSDOF 6
ENDMDL
