MODEL 1
REMARK VINA RESULT: -8.065398798      0.000      0.000
REMARK  7 active torsions:
REMARK  status: ('A' for Active; 'I' for Inactive)
REMARK    1  A    between atoms: O1_1  and  C1_3 
REMARK    2  A    between atoms: C1_3  and  C2_4 
REMARK    3  A    between atoms: C1_3  and  C8_17 
REMARK    4  A    between atoms: C2_4  and  N1_5 
REMARK    5  A    between atoms: N1_5  and  C3_7 
REMARK    6  A    between atoms: C8_17  and  O2_18 
REMARK    7  A    between atoms: O2_18  and  C9_19 
ROOT
HETATM    1  C1  UNL     1      16.485   2.162  11.402  1.00  0.00     0.160 C 
ENDROOT
BRANCH   1   2
HETATM    2  O1  UNL     1      15.211   1.951  10.947  1.00  0.00    -0.392 OA
ATOM      3  H1  UNL     1      14.750   1.272  11.424  1.00  0.00     0.210 HD
ENDBRANCH   1   2
BRANCH   1   4
HETATM    4  C2  UNL     1      16.777   3.635  11.729  1.00  0.00     0.153 C 
BRANCH   4   5
HETATM    5  N1  UNL     1      18.166   3.773  11.858  1.00  0.00    -0.382 N 
ATOM      6  H1  UNL     1      18.638   2.868  11.856  1.00  0.00     0.160 HD
BRANCH   5   7
HETATM    7  C3  UNL     1      18.970   4.710  11.972  1.00  0.00     0.112 A 
HETATM    8  C4  UNL     1      19.834   5.156  11.005  1.00  0.00     0.161 A 
HETATM    9  F1  UNL     1      19.917   4.612   9.771  1.00  0.00    -0.202 F 
HETATM   10  C5  UNL     1      20.688   6.227  11.276  1.00  0.00     0.135 A 
HETATM   11  N2  UNL     1      20.694   6.845  12.462  1.00  0.00    -0.337 N 
HETATM   12  C6  UNL     1      19.854   6.422  13.424  1.00  0.00     0.229 A 
ATOM     13  H2  UNL     1      21.328   7.626  12.635  1.00  0.00     0.167 HD
HETATM   14  F2  UNL     1      19.851   7.039  14.630  1.00  0.00    -0.183 F 
HETATM   15  C7  UNL     1      18.991   5.370  13.210  1.00  0.00     0.201 A 
HETATM   16  F3  UNL     1      18.163   4.982  14.217  1.00  0.00    -0.199 F 
ENDBRANCH   5   7
ENDBRANCH   4   5
ENDBRANCH   1   4
BRANCH   1  17
HETATM   17  C8  UNL     1      16.721   1.288  12.615  1.00  0.00     0.209 C 
BRANCH  17  18
HETATM   18  O2  UNL     1      16.863   2.142  13.724  1.00  0.00    -0.343 OA
BRANCH  18  19
HETATM   19  C9  UNL     1      16.138   2.068  14.879  1.00  0.00     0.152 A 
HETATM   20  C10 UNL     1      16.147   0.939  15.656  1.00  0.00     0.194 A 
HETATM   21  F4  UNL     1      16.861  -0.158  15.340  1.00  0.00    -0.200 F 
HETATM   22  C11 UNL     1      15.394   0.914  16.817  1.00  0.00     0.199 A 
HETATM   23  F5  UNL     1      15.387  -0.183  17.597  1.00  0.00    -0.199 F 
HETATM   24  C12 UNL     1      14.628   1.990  17.227  1.00  0.00     0.199 A 
HETATM   25  F6  UNL     1      13.912   1.935  18.352  1.00  0.00    -0.199 F 
HETATM   26  C13 UNL     1      14.643   3.109  16.418  1.00  0.00     0.199 A 
HETATM   27  F7  UNL     1      13.895   4.165  16.815  1.00  0.00    -0.199 F 
HETATM   28  C14 UNL     1      15.386   3.162  15.252  1.00  0.00     0.194 A 
HETATM   29  F8  UNL     1      15.336   4.306  14.526  1.00  0.00    -0.200 F 
ENDBRANCH  18  19
ENDBRANCH  17  18
ENDBRANCH   1  17
TORSDOF 7
ENDMDL
MODEL 2
REMARK VINA RESULT: -8.045209148      0.030      2.074
REMARK  7 active torsions:
REMARK  status: ('A' for Active; 'I' for Inactive)
REMARK    1  A    between atoms: O1_1  and  C1_3 
REMARK    2  A    between atoms: C1_3  and  C2_4 
REMARK    3  A    between atoms: C1_3  and  C8_17 
REMARK    4  A    between atoms: C2_4  and  N1_5 
REMARK    5  A    between atoms: N1_5  and  C3_7 
REMARK    6  A    between atoms: C8_17  and  O2_18 
REMARK    7  A    between atoms: O2_18  and  C9_19 
ROOT
HETATM    1  C1  UNL     1      16.476   2.154  11.415  1.00  0.00     0.160 C 
ENDROOT
BRANCH   1   2
HETATM    2  O1  UNL     1      15.204   1.946  10.952  1.00  0.00    -0.392 OA
ATOM      3  H1  UNL     1      14.602   1.654  11.627  1.00  0.00     0.210 HD
ENDBRANCH   1   2
BRANCH   1   4
HETATM    4  C2  UNL     1      16.766   3.625  11.753  1.00  0.00     0.153 C 
BRANCH   4   5
HETATM    5  N1  UNL     1      18.155   3.766  11.869  1.00  0.00    -0.382 N 
ATOM      6  H1  UNL     1      18.630   2.863  11.856  1.00  0.00     0.160 HD
BRANCH   5   7
HETATM    7  C3  UNL     1      18.958   4.705  11.983  1.00  0.00     0.112 A 
HETATM    8  C4  UNL     1      19.828   5.146  11.019  1.00  0.00     0.161 A 
HETATM    9  F1  UNL     1      19.920   4.594   9.790  1.00  0.00    -0.202 F 
HETATM   10  C5  UNL     1      20.678   6.220  11.289  1.00  0.00     0.135 A 
HETATM   11  N2  UNL     1      20.675   6.846  12.471  1.00  0.00    -0.337 N 
HETATM   12  C6  UNL     1      19.828   6.428  13.430  1.00  0.00     0.229 A 
ATOM     13  H2  UNL     1      21.306   7.629  12.644  1.00  0.00     0.167 HD
HETATM   14  F2  UNL     1      19.816   7.053  14.631  1.00  0.00    -0.183 F 
HETATM   15  C7  UNL     1      18.968   5.373  13.217  1.00  0.00     0.201 A 
HETATM   16  F3  UNL     1      18.133   4.991  14.219  1.00  0.00    -0.199 F 
ENDBRANCH   5   7
ENDBRANCH   4   5
ENDBRANCH   1   4
BRANCH   1  17
HETATM   17  C8  UNL     1      16.705   1.273  12.624  1.00  0.00     0.209 C 
BRANCH  17  18
HETATM   18  O2  UNL     1      16.871   2.120  13.734  1.00  0.00    -0.343 OA
BRANCH  18  19
HETATM   19  C9  UNL     1      16.119   2.090  14.874  1.00  0.00     0.152 A 
HETATM   20  C10 UNL     1      15.359   3.164  15.257  1.00  0.00     0.194 A 
HETATM   21  F4  UNL     1      15.302   4.306  14.546  1.00  0.00    -0.200 F 
HETATM   22  C11 UNL     1      14.615   3.083  16.420  1.00  0.00     0.199 A 
HETATM   23  F5  UNL     1      13.860   4.124  16.816  1.00  0.00    -0.199 F 
HETATM   24  C12 UNL     1      14.608   1.953  17.218  1.00  0.00     0.199 A 
HETATM   25  F6  UNL     1      13.879   1.905  18.335  1.00  0.00    -0.199 F 
HETATM   26  C13 UNL     1      15.386   0.891  16.801  1.00  0.00     0.199 A 
HETATM   27  F7  UNL     1      15.382  -0.217  17.579  1.00  0.00    -0.199 F 
HETATM   28  C14 UNL     1      16.140   0.945  15.642  1.00  0.00     0.194 A 
HETATM   29  F8  UNL     1      16.872  -0.150  15.317  1.00  0.00    -0.200 F 
ENDBRANCH  18  19
ENDBRANCH  17  18
ENDBRANCH   1  17
TORSDOF 7
ENDMDL
MODEL 3
REMARK VINA RESULT: -7.944923198      0.529      1.859
REMARK  7 active torsions:
REMARK  status: ('A' for Active; 'I' for Inactive)
REMARK    1  A    between atoms: O1_1  and  C1_3 
REMARK    2  A    between atoms: C1_3  and  C2_4 
REMARK    3  A    between atoms: C1_3  and  C8_17 
REMARK    4  A    between atoms: C2_4  and  N1_5 
REMARK    5  A    between atoms: N1_5  and  C3_7 
REMARK    6  A    between atoms: C8_17  and  O2_18 
REMARK    7  A    between atoms: O2_18  and  C9_19 
ROOT
HETATM    1  C1  UNL     1      16.449   2.145  11.365  1.00  0.00     0.160 C 
ENDROOT
BRANCH   1   2
HETATM    2  O1  UNL     1      15.164   1.926  10.945  1.00  0.00    -0.392 OA
ATOM      3  H1  UNL     1      14.578   1.671  11.648  1.00  0.00     0.210 HD
ENDBRANCH   1   2
BRANCH   1   4
HETATM    4  C2  UNL     1      16.741   3.619  11.684  1.00  0.00     0.153 C 
BRANCH   4   5
HETATM    5  N1  UNL     1      18.133   3.770  11.752  1.00  0.00    -0.382 N 
ATOM      6  H1  UNL     1      18.620   2.915  11.481  1.00  0.00     0.160 HD
BRANCH   5   7
HETATM    7  C3  UNL     1      18.926   4.673  12.057  1.00  0.00     0.112 A 
HETATM    8  C4  UNL     1      19.042   5.265  13.288  1.00  0.00     0.161 A 
HETATM    9  F1  UNL     1      18.283   4.926  14.353  1.00  0.00    -0.202 F 
HETATM   10  C5  UNL     1      19.985   6.275  13.488  1.00  0.00     0.135 A 
HETATM   11  N2  UNL     1      20.793   6.694  12.507  1.00  0.00    -0.337 N 
HETATM   12  C6  UNL     1      20.694   6.125  11.292  1.00  0.00     0.229 A 
ATOM     13  H2  UNL     1      21.474   7.434  12.679  1.00  0.00     0.167 HD
HETATM   14  F2  UNL     1      21.506   6.540  10.291  1.00  0.00    -0.183 F 
HETATM   15  C7  UNL     1      19.782   5.124  11.040  1.00  0.00     0.201 A 
HETATM   16  F3  UNL     1      19.723   4.584   9.794  1.00  0.00    -0.199 F 
ENDBRANCH   5   7
ENDBRANCH   4   5
ENDBRANCH   1   4
BRANCH   1  17
HETATM   17  C8  UNL     1      16.723   1.273  12.571  1.00  0.00     0.209 C 
BRANCH  17  18
HETATM   18  O2  UNL     1      16.883   2.127  13.677  1.00  0.00    -0.343 OA
BRANCH  18  19
HETATM   19  C9  UNL     1      16.162   2.066  14.835  1.00  0.00     0.152 A 
HETATM   20  C10 UNL     1      16.146   0.935  15.608  1.00  0.00     0.194 A 
HETATM   21  F4  UNL     1      16.831  -0.179  15.284  1.00  0.00    -0.200 F 
HETATM   22  C11 UNL     1      15.399   0.923  16.773  1.00  0.00     0.199 A 
HETATM   23  F5  UNL     1      15.368  -0.176  17.548  1.00  0.00    -0.199 F 
HETATM   24  C12 UNL     1      14.662   2.017  17.191  1.00  0.00     0.199 A 
HETATM   25  F6  UNL     1      13.952   1.975  18.320  1.00  0.00    -0.199 F 
HETATM   26  C13 UNL     1      14.702   3.139  16.387  1.00  0.00     0.199 A 
HETATM   27  F7  UNL     1      13.983   4.212  16.792  1.00  0.00    -0.199 F 
HETATM   28  C14 UNL     1      15.440   3.178  15.217  1.00  0.00     0.194 A 
HETATM   29  F8  UNL     1      15.415   4.326  14.496  1.00  0.00    -0.200 F 
ENDBRANCH  18  19
ENDBRANCH  17  18
ENDBRANCH   1  17
TORSDOF 7
ENDMDL
MODEL 4
REMARK VINA RESULT: -7.927588508      0.527      2.782
REMARK  7 active torsions:
REMARK  status: ('A' for Active; 'I' for Inactive)
REMARK    1  A    between atoms: O1_1  and  C1_3 
REMARK    2  A    between atoms: C1_3  and  C2_4 
REMARK    3  A    between atoms: C1_3  and  C8_17 
REMARK    4  A    between atoms: C2_4  and  N1_5 
REMARK    5  A    between atoms: N1_5  and  C3_7 
REMARK    6  A    between atoms: C8_17  and  O2_18 
REMARK    7  A    between atoms: O2_18  and  C9_19 
ROOT
HETATM    1  C1  UNL     1      16.450   2.140  11.381  1.00  0.00     0.160 C 
ENDROOT
BRANCH   1   2
HETATM    2  O1  UNL     1      15.173   1.917  10.940  1.00  0.00    -0.392 OA
ATOM      3  H1  UNL     1      14.850   2.600  10.364  1.00  0.00     0.210 HD
ENDBRANCH   1   2
BRANCH   1   4
HETATM    4  C2  UNL     1      16.731   3.615  11.707  1.00  0.00     0.153 C 
BRANCH   4   5
HETATM    5  N1  UNL     1      18.121   3.773  11.789  1.00  0.00    -0.382 N 
ATOM      6  H1  UNL     1      18.615   2.918  11.532  1.00  0.00     0.160 HD
BRANCH   5   7
HETATM    7  C3  UNL     1      18.907   4.683  12.093  1.00  0.00     0.112 A 
HETATM    8  C4  UNL     1      18.997   5.298  13.316  1.00  0.00     0.161 A 
HETATM    9  F1  UNL     1      18.215   4.977  14.370  1.00  0.00    -0.202 F 
HETATM   10  C5  UNL     1      19.934   6.313  13.516  1.00  0.00     0.135 A 
HETATM   11  N2  UNL     1      20.762   6.714  12.545  1.00  0.00    -0.337 N 
HETATM   12  C6  UNL     1      20.689   6.123  11.339  1.00  0.00     0.229 A 
ATOM     13  H2  UNL     1      21.438   7.459  12.717  1.00  0.00     0.167 HD
HETATM   14  F2  UNL     1      21.521   6.521  10.347  1.00  0.00    -0.183 F 
HETATM   15  C7  UNL     1      19.783   5.116  11.087  1.00  0.00     0.201 A 
HETATM   16  F3  UNL     1      19.751   4.553   9.850  1.00  0.00    -0.199 F 
ENDBRANCH   5   7
ENDBRANCH   4   5
ENDBRANCH   1   4
BRANCH   1  17
HETATM   17  C8  UNL     1      16.707   1.267  12.591  1.00  0.00     0.209 C 
BRANCH  17  18
HETATM   18  O2  UNL     1      16.886   2.122  13.693  1.00  0.00    -0.343 OA
BRANCH  18  19
HETATM   19  C9  UNL     1      16.141   2.105  14.838  1.00  0.00     0.152 A 
HETATM   20  C10 UNL     1      15.411   3.196  15.230  1.00  0.00     0.194 A 
HETATM   21  F4  UNL     1      15.376   4.343  14.524  1.00  0.00    -0.200 F 
HETATM   22  C11 UNL     1      14.672   3.129  16.398  1.00  0.00     0.199 A 
HETATM   23  F5  UNL     1      13.946   4.187  16.804  1.00  0.00    -0.199 F 
HETATM   24  C12 UNL     1      14.642   1.996  17.192  1.00  0.00     0.199 A 
HETATM   25  F6  UNL     1      13.920   1.962  18.314  1.00  0.00    -0.199 F 
HETATM   26  C13 UNL     1      15.391   0.917  16.765  1.00  0.00     0.199 A 
HETATM   27  F7  UNL     1      15.365  -0.194  17.538  1.00  0.00    -0.199 F 
HETATM   28  C14 UNL     1      16.139   0.957  15.602  1.00  0.00     0.194 A 
HETATM   29  F8  UNL     1      16.841  -0.155  15.267  1.00  0.00    -0.200 F 
ENDBRANCH  18  19
ENDBRANCH  17  18
ENDBRANCH   1  17
TORSDOF 7
ENDMDL
MODEL 5
REMARK VINA RESULT: -7.883468332      1.145      1.263
REMARK  7 active torsions:
REMARK  status: ('A' for Active; 'I' for Inactive)
REMARK    1  A    between atoms: O1_1  and  C1_3 
REMARK    2  A    between atoms: C1_3  and  C2_4 
REMARK    3  A    between atoms: C1_3  and  C8_17 
REMARK    4  A    between atoms: C2_4  and  N1_5 
REMARK    5  A    between atoms: N1_5  and  C3_7 
REMARK    6  A    between atoms: C8_17  and  O2_18 
REMARK    7  A    between atoms: O2_18  and  C9_19 
ROOT
HETATM    1  C1  UNL     1      17.062   3.251  11.500  1.00  0.00     0.160 C 
ENDROOT
BRANCH   1   2
HETATM    2  O1  UNL     1      16.664   3.052  10.205  1.00  0.00    -0.392 OA
ATOM      3  H1  UNL     1      15.977   2.401  10.119  1.00  0.00     0.210 HD
ENDBRANCH   1   2
BRANCH   1   4
HETATM    4  C2  UNL     1      16.857   4.695  11.984  1.00  0.00     0.153 C 
BRANCH   4   5
HETATM    5  N1  UNL     1      17.883   4.986  12.893  1.00  0.00    -0.382 N 
ATOM      6  H1  UNL     1      18.022   4.229  13.563  1.00  0.00     0.160 HD
BRANCH   5   7
HETATM    7  C3  UNL     1      18.666   5.926  13.094  1.00  0.00     0.112 A 
HETATM    8  C4  UNL     1      19.794   6.208  12.367  1.00  0.00     0.161 A 
HETATM    9  F1  UNL     1      20.203   5.472  11.310  1.00  0.00    -0.202 F 
HETATM   10  C5  UNL     1      20.587   7.305  12.710  1.00  0.00     0.135 A 
HETATM   11  N2  UNL     1      20.281   8.106  13.736  1.00  0.00    -0.337 N 
HETATM   12  C6  UNL     1      19.178   7.846  14.462  1.00  0.00     0.229 A 
ATOM     13  H2  UNL     1      20.876   8.902  13.966  1.00  0.00     0.167 HD
HETATM   14  F2  UNL     1      18.858   8.649  15.504  1.00  0.00    -0.183 F 
HETATM   15  C7  UNL     1      18.361   6.777  14.167  1.00  0.00     0.201 A 
HETATM   16  F3  UNL     1      17.259   6.559  14.933  1.00  0.00    -0.199 F 
ENDBRANCH   5   7
ENDBRANCH   4   5
ENDBRANCH   1   4
BRANCH   1  17
HETATM   17  C8  UNL     1      16.321   2.278  12.393  1.00  0.00     0.209 C 
BRANCH  17  18
HETATM   18  O2  UNL     1      16.820   2.445  13.697  1.00  0.00    -0.343 OA
BRANCH  18  19
HETATM   19  C9  UNL     1      16.103   2.271  14.847  1.00  0.00     0.152 A 
HETATM   20  C10 UNL     1      16.133   1.086  15.534  1.00  0.00     0.194 A 
HETATM   21  F4  UNL     1      16.861   0.027  15.130  1.00  0.00    -0.200 F 
HETATM   22  C11 UNL     1      15.389   0.960  16.694  1.00  0.00     0.199 A 
HETATM   23  F5  UNL     1      15.403  -0.193  17.387  1.00  0.00    -0.199 F 
HETATM   24  C12 UNL     1      14.611   1.990  17.191  1.00  0.00     0.199 A 
HETATM   25  F6  UNL     1      13.904   1.838  18.313  1.00  0.00    -0.199 F 
HETATM   26  C13 UNL     1      14.605   3.169  16.471  1.00  0.00     0.199 A 
HETATM   27  F7  UNL     1      13.844   4.180  16.953  1.00  0.00    -0.199 F 
HETATM   28  C14 UNL     1      15.339   3.322  15.308  1.00  0.00     0.194 A 
HETATM   29  F8  UNL     1      15.268   4.519  14.673  1.00  0.00    -0.200 F 
ENDBRANCH  18  19
ENDBRANCH  17  18
ENDBRANCH   1  17
TORSDOF 7
ENDMDL
