MODEL 1
REMARK VINA RESULT: -7.938126449      0.000      0.000
REMARK  6 active torsions:
REMARK  status: ('A' for Active; 'I' for Inactive)
REMARK    1  A    between atoms: C2_5  and  C3_6 
REMARK    2  A    between atoms: C2_5  and  N4_13 
REMARK    3  A    between atoms: C3_6  and  N3_7 
REMARK       I    between atoms: N3_7  and  C4_8 
REMARK    4  A    between atoms: C4_8  and  C5_10 
REMARK    5  A    between atoms: N4_13  and  C6_15 
REMARK    6  A    between atoms: C6_15  and  C7_16 
ROOT
HETATM    1  N1  UNL     1      17.210  -1.928  11.561  1.00  0.00    -0.172 NA
HETATM    2  C1  UNL     1      16.986  -0.816  11.725  1.00  0.00     0.183 C 
HETATM    3  N2  UNL     1      16.692   0.527  11.936  1.00  0.00    -0.277 N 
ATOM      4  H2  UNL     1      16.550   1.149  11.140  1.00  0.00     0.179 HD
HETATM    5  C2  UNL     1      16.599   0.981  13.120  1.00  0.00     0.143 C 
ENDROOT
BRANCH   5   6
HETATM    6  C3  UNL     1      16.802   0.085  14.268  1.00  0.00     0.235 C 
BRANCH   6   7
HETATM    7  N3  UNL     1      16.185   0.389  15.471  1.00  0.00    -0.377 NA
HETATM    8  C4  UNL     1      15.587   0.684  16.638  1.00  0.00     0.324 C 
HETATM    9  O1  UNL     1      14.995  -0.086  17.480  1.00  0.00    -0.254 OA
BRANCH   8  10
HETATM   10  C5  UNL     1      15.548   2.143  17.143  1.00  0.00     0.284 C 
HETATM   11 CL1  UNL     1      14.451   3.034  16.090  1.00  0.00    -0.097 Cl
HETATM   12 CL2  UNL     1      14.854   2.002  18.782  1.00  0.00    -0.097 Cl
ENDBRANCH   8  10
ENDBRANCH   6   7
ENDBRANCH   5   6
BRANCH   5  13
HETATM   13  N4  UNL     1      16.286   2.389  13.238  1.00  0.00    -0.349 N 
ATOM     14  H4  UNL     1      15.597   2.694  13.925  1.00  0.00     0.167 HD
BRANCH  13  15
HETATM   15  C6  UNL     1      16.913   3.341  12.424  1.00  0.00     0.107 C 
BRANCH  15  16
HETATM   16  C7  UNL     1      17.628   4.476  12.996  1.00  0.00     0.063 A 
HETATM   17  C8  UNL     1      18.994   4.644  12.651  1.00  0.00     0.172 A 
HETATM   18  F1  UNL     1      19.512   3.730  11.782  1.00  0.00    -0.202 F 
HETATM   19  C9  UNL     1      19.760   5.655  13.150  1.00  0.00     0.197 A 
HETATM   20  F2  UNL     1      21.058   5.748  12.771  1.00  0.00    -0.199 F 
HETATM   21  C10 UNL     1      19.226   6.574  14.029  1.00  0.00     0.199 A 
HETATM   22  F3  UNL     1      20.014   7.556  14.500  1.00  0.00    -0.199 F 
HETATM   23  C11 UNL     1      17.905   6.426  14.373  1.00  0.00     0.197 A 
HETATM   24  F4  UNL     1      17.364   7.326  15.241  1.00  0.00    -0.199 F 
HETATM   25  C12 UNL     1      17.106   5.377  13.858  1.00  0.00     0.172 A 
HETATM   26  F5  UNL     1      15.821   5.368  14.306  1.00  0.00    -0.202 F 
ENDBRANCH  15  16
ENDBRANCH  13  15
ENDBRANCH   5  13
TORSDOF 6
ENDMDL
MODEL 2
REMARK VINA RESULT: -7.830321074      0.094      2.162
REMARK  6 active torsions:
REMARK  status: ('A' for Active; 'I' for Inactive)
REMARK    1  A    between atoms: C2_5  and  C3_6 
REMARK    2  A    between atoms: C2_5  and  N4_13 
REMARK    3  A    between atoms: C3_6  and  N3_7 
REMARK       I    between atoms: N3_7  and  C4_8 
REMARK    4  A    between atoms: C4_8  and  C5_10 
REMARK    5  A    between atoms: N4_13  and  C6_15 
REMARK    6  A    between atoms: C6_15  and  C7_16 
ROOT
HETATM    1  N1  UNL     1      17.218  -1.893  11.548  1.00  0.00    -0.172 NA
HETATM    2  C1  UNL     1      16.971  -0.786  11.712  1.00  0.00     0.183 C 
HETATM    3  N2  UNL     1      16.649   0.551  11.923  1.00  0.00    -0.277 N 
ATOM      4  H2  UNL     1      16.481   1.166  11.127  1.00  0.00     0.179 HD
HETATM    5  C2  UNL     1      16.565   1.007  13.107  1.00  0.00     0.143 C 
ENDROOT
BRANCH   5   6
HETATM    6  C3  UNL     1      16.807   0.120  14.254  1.00  0.00     0.235 C 
BRANCH   6   7
HETATM    7  N3  UNL     1      16.193   0.408  15.463  1.00  0.00    -0.377 NA
HETATM    8  C4  UNL     1      15.599   0.689  16.635  1.00  0.00     0.324 C 
HETATM    9  O1  UNL     1      15.014  -0.093  17.472  1.00  0.00    -0.254 OA
BRANCH   8  10
HETATM   10  C5  UNL     1      15.556   2.143  17.156  1.00  0.00     0.284 C 
HETATM   11 CL1  UNL     1      14.464   3.044  16.107  1.00  0.00    -0.097 Cl
HETATM   12 CL2  UNL     1      14.852   1.983  18.789  1.00  0.00    -0.097 Cl
ENDBRANCH   8  10
ENDBRANCH   6   7
ENDBRANCH   5   6
BRANCH   5  13
HETATM   13  N4  UNL     1      16.222   2.408  13.224  1.00  0.00    -0.349 N 
ATOM     14  H4  UNL     1      15.548   2.701  13.931  1.00  0.00     0.167 HD
BRANCH  13  15
HETATM   15  C6  UNL     1      16.799   3.369  12.385  1.00  0.00     0.107 C 
BRANCH  15  16
HETATM   16  C7  UNL     1      17.700   4.390  12.907  1.00  0.00     0.063 A 
HETATM   17  C8  UNL     1      17.169   5.345  13.812  1.00  0.00     0.172 A 
HETATM   18  F1  UNL     1      15.852   5.202  14.133  1.00  0.00    -0.202 F 
HETATM   19  C9  UNL     1      17.917   6.356  14.339  1.00  0.00     0.197 A 
HETATM   20  F2  UNL     1      17.335   7.229  15.197  1.00  0.00    -0.199 F 
HETATM   21  C10 UNL     1      19.248   6.492  14.005  1.00  0.00     0.199 A 
HETATM   22  F3  UNL     1      19.952   7.502  14.545  1.00  0.00    -0.199 F 
HETATM   23  C11 UNL     1      19.778   5.576  13.131  1.00  0.00     0.197 A 
HETATM   24  F4  UNL     1      21.093   5.698  12.793  1.00  0.00    -0.199 F 
HETATM   25  C12 UNL     1      19.005   4.525  12.582  1.00  0.00     0.172 A 
HETATM   26  F5  UNL     1      19.679   3.710  11.726  1.00  0.00    -0.202 F 
ENDBRANCH  15  16
ENDBRANCH  13  15
ENDBRANCH   5  13
TORSDOF 6
ENDMDL
MODEL 3
REMARK VINA RESULT: -7.749377719      2.956      4.136
REMARK  6 active torsions:
REMARK  status: ('A' for Active; 'I' for Inactive)
REMARK    1  A    between atoms: C2_5  and  C3_6 
REMARK    2  A    between atoms: C2_5  and  N4_13 
REMARK    3  A    between atoms: C3_6  and  N3_7 
REMARK       I    between atoms: N3_7  and  C4_8 
REMARK    4  A    between atoms: C4_8  and  C5_10 
REMARK    5  A    between atoms: N4_13  and  C6_15 
REMARK    6  A    between atoms: C6_15  and  C7_16 
ROOT
HETATM    1  N1  UNL     1      15.103  -0.227  17.561  1.00  0.00    -0.172 NA
HETATM    2  C1  UNL     1      14.797   0.761  17.068  1.00  0.00     0.183 C 
HETATM    3  N2  UNL     1      14.446   1.973  16.481  1.00  0.00    -0.277 N 
ATOM      4  H2  UNL     1      13.562   2.419  16.724  1.00  0.00     0.179 HD
HETATM    5  C2  UNL     1      15.226   2.523  15.642  1.00  0.00     0.143 C 
ENDROOT
BRANCH   5   6
HETATM    6  C3  UNL     1      16.500   1.880  15.291  1.00  0.00     0.235 C 
BRANCH   6   7
HETATM    7  N3  UNL     1      16.679   1.409  14.000  1.00  0.00    -0.377 NA
HETATM    8  C4  UNL     1      16.851   0.952  12.747  1.00  0.00     0.324 C 
HETATM    9  O1  UNL     1      17.652   0.051  12.300  1.00  0.00    -0.254 OA
BRANCH   8  10
HETATM   10  C5  UNL     1      16.007   1.527  11.588  1.00  0.00     0.284 C 
HETATM   11 CL1  UNL     1      16.813   2.990  11.027  1.00  0.00    -0.097 Cl
HETATM   12 CL2  UNL     1      16.091   0.257  10.337  1.00  0.00    -0.097 Cl
ENDBRANCH   8  10
ENDBRANCH   6   7
ENDBRANCH   5   6
BRANCH   5  13
HETATM   13  N4  UNL     1      14.775   3.783  15.088  1.00  0.00    -0.349 N 
ATOM     14  H4  UNL     1      13.874   3.828  14.613  1.00  0.00     0.167 HD
BRANCH  13  15
HETATM   15  C6  UNL     1      15.555   4.941  15.195  1.00  0.00     0.107 C 
BRANCH  15  16
HETATM   16  C7  UNL     1      16.367   5.415  14.078  1.00  0.00     0.063 A 
HETATM   17  C8  UNL     1      17.752   5.109  14.088  1.00  0.00     0.172 A 
HETATM   18  F1  UNL     1      18.198   4.369  15.143  1.00  0.00    -0.202 F 
HETATM   19  C9  UNL     1      18.604   5.525  13.108  1.00  0.00     0.197 A 
HETATM   20  F2  UNL     1      19.915   5.192  13.189  1.00  0.00    -0.199 F 
HETATM   21  C10 UNL     1      18.141   6.275  12.047  1.00  0.00     0.199 A 
HETATM   22  F3  UNL     1      19.013   6.667  11.101  1.00  0.00    -0.199 F 
HETATM   23  C11 UNL     1      16.803   6.578  12.022  1.00  0.00     0.197 A 
HETATM   24  F4  UNL     1      16.332   7.318  10.979  1.00  0.00    -0.199 F 
HETATM   25  C12 UNL     1      15.916   6.149  13.038  1.00  0.00     0.172 A 
HETATM   26  F5  UNL     1      14.624   6.542  12.868  1.00  0.00    -0.202 F 
ENDBRANCH  15  16
ENDBRANCH  13  15
ENDBRANCH   5  13
TORSDOF 6
ENDMDL
MODEL 4
REMARK VINA RESULT: -7.714311554      4.566      7.006
REMARK  6 active torsions:
REMARK  status: ('A' for Active; 'I' for Inactive)
REMARK    1  A    between atoms: C2_5  and  C3_6 
REMARK    2  A    between atoms: C2_5  and  N4_13 
REMARK    3  A    between atoms: C3_6  and  N3_7 
REMARK       I    between atoms: N3_7  and  C4_8 
REMARK    4  A    between atoms: C4_8  and  C5_10 
REMARK    5  A    between atoms: N4_13  and  C6_15 
REMARK    6  A    between atoms: C6_15  and  C7_16 
ROOT
HETATM    1  N1  UNL     1      20.402   5.174  12.761  1.00  0.00    -0.172 NA
HETATM    2  C1  UNL     1      19.476   5.089  13.431  1.00  0.00     0.183 C 
HETATM    3  N2  UNL     1      18.356   5.012  14.253  1.00  0.00    -0.277 N 
ATOM      4  H2  UNL     1      18.330   4.335  15.015  1.00  0.00     0.179 HD
HETATM    5  C2  UNL     1      17.366   5.784  14.054  1.00  0.00     0.143 C 
ENDROOT
BRANCH   5   6
HETATM    6  C3  UNL     1      17.404   6.760  12.956  1.00  0.00     0.235 C 
BRANCH   6   7
HETATM    7  N3  UNL     1      16.563   6.578  11.869  1.00  0.00    -0.377 NA
HETATM    8  C4  UNL     1      15.747   6.402  10.816  1.00  0.00     0.324 C 
HETATM    9  O1  UNL     1      15.616   5.390  10.033  1.00  0.00    -0.254 OA
BRANCH   8  10
HETATM   10  C5  UNL     1      14.773   7.523  10.392  1.00  0.00     0.284 C 
HETATM   11 CL1  UNL     1      13.938   6.973   8.942  1.00  0.00    -0.097 Cl
HETATM   12 CL2  UNL     1      13.632   7.628  11.761  1.00  0.00    -0.097 Cl
ENDBRANCH   8  10
ENDBRANCH   6   7
ENDBRANCH   5   6
BRANCH   5  13
HETATM   13  N4  UNL     1      16.249   5.631  14.963  1.00  0.00    -0.349 N 
ATOM     14  H4  UNL     1      16.180   6.238  15.779  1.00  0.00     0.167 HD
BRANCH  13  15
HETATM   15  C6  UNL     1      15.262   4.663  14.740  1.00  0.00     0.107 C 
BRANCH  15  16
HETATM   16  C7  UNL     1      15.316   3.359  15.394  1.00  0.00     0.063 A 
HETATM   17  C8  UNL     1      14.615   3.199  16.616  1.00  0.00     0.172 A 
HETATM   18  F1  UNL     1      13.924   4.287  17.061  1.00  0.00    -0.202 F 
HETATM   19  C9  UNL     1      14.621   2.031  17.321  1.00  0.00     0.197 A 
HETATM   20  F2  UNL     1      13.926   1.958  18.481  1.00  0.00    -0.199 F 
HETATM   21  C10 UNL     1      15.326   0.938  16.861  1.00  0.00     0.199 A 
HETATM   22  F3  UNL     1      15.309  -0.195  17.585  1.00  0.00    -0.199 F 
HETATM   23  C11 UNL     1      16.009   1.077  15.680  1.00  0.00     0.197 A 
HETATM   24  F4  UNL     1      16.709   0.004  15.214  1.00  0.00    -0.199 F 
HETATM   25  C12 UNL     1      16.006   2.287  14.946  1.00  0.00     0.172 A 
HETATM   26  F5  UNL     1      16.740   2.260  13.800  1.00  0.00    -0.202 F 
ENDBRANCH  15  16
ENDBRANCH  13  15
ENDBRANCH   5  13
TORSDOF 6
ENDMDL
MODEL 5
REMARK VINA RESULT: -7.704688115      4.039      6.432
REMARK  6 active torsions:
REMARK  status: ('A' for Active; 'I' for Inactive)
REMARK    1  A    between atoms: C2_5  and  C3_6 
REMARK    2  A    between atoms: C2_5  and  N4_13 
REMARK    3  A    between atoms: C3_6  and  N3_7 
REMARK       I    between atoms: N3_7  and  C4_8 
REMARK    4  A    between atoms: C4_8  and  C5_10 
REMARK    5  A    between atoms: N4_13  and  C6_15 
REMARK    6  A    between atoms: C6_15  and  C7_16 
ROOT
HETATM    1  N1  UNL     1      20.604   6.120  12.676  1.00  0.00    -0.172 NA
HETATM    2  C1  UNL     1      19.976   5.206  12.968  1.00  0.00     0.183 C 
HETATM    3  N2  UNL     1      19.192   4.111  13.319  1.00  0.00    -0.277 N 
ATOM      4  H2  UNL     1      19.284   3.695  14.245  1.00  0.00     0.179 HD
HETATM    5  C2  UNL     1      18.362   3.629  12.485  1.00  0.00     0.143 C 
ENDROOT
BRANCH   5   6
HETATM    6  C3  UNL     1      18.229   4.230  11.150  1.00  0.00     0.235 C 
BRANCH   6   7
HETATM    7  N3  UNL     1      17.147   5.059  10.895  1.00  0.00    -0.377 NA
HETATM    8  C4  UNL     1      16.099   5.863  10.648  1.00  0.00     0.324 C 
HETATM    9  O1  UNL     1      15.135   5.728   9.807  1.00  0.00    -0.254 OA
BRANCH   8  10
HETATM   10  C5  UNL     1      15.926   7.178  11.440  1.00  0.00     0.284 C 
HETATM   11 CL1  UNL     1      14.196   7.449  11.635  1.00  0.00    -0.097 Cl
HETATM   12 CL2  UNL     1      16.678   6.819  13.019  1.00  0.00    -0.097 Cl
ENDBRANCH   8  10
ENDBRANCH   6   7
ENDBRANCH   5   6
BRANCH   5  13
HETATM   13  N4  UNL     1      17.590   2.493  12.944  1.00  0.00    -0.349 N 
ATOM     14  H4  UNL     1      18.041   1.583  13.030  1.00  0.00     0.167 HD
BRANCH  13  15
HETATM   15  C6  UNL     1      16.234   2.623  13.270  1.00  0.00     0.107 C 
BRANCH  15  16
HETATM   16  C7  UNL     1      15.760   2.430  14.636  1.00  0.00     0.063 A 
HETATM   17  C8  UNL     1      15.052   3.495  15.250  1.00  0.00     0.172 A 
HETATM   18  F1  UNL     1      14.855   4.606  14.487  1.00  0.00    -0.202 F 
HETATM   19  C9  UNL     1      14.589   3.428  16.531  1.00  0.00     0.197 A 
HETATM   20  F2  UNL     1      13.921   4.488  17.047  1.00  0.00    -0.199 F 
HETATM   21  C10 UNL     1      14.796   2.298  17.295  1.00  0.00     0.199 A 
HETATM   22  F3  UNL     1      14.326   2.272  18.555  1.00  0.00    -0.199 F 
HETATM   23  C11 UNL     1      15.480   1.259  16.715  1.00  0.00     0.197 A 
HETATM   24  F4  UNL     1      15.692   0.136  17.458  1.00  0.00    -0.199 F 
HETATM   25  C12 UNL     1      15.963   1.325  15.386  1.00  0.00     0.172 A 
HETATM   26  F5  UNL     1      16.626   0.213  14.967  1.00  0.00    -0.202 F 
ENDBRANCH  15  16
ENDBRANCH  13  15
ENDBRANCH   5  13
TORSDOF 6
ENDMDL
