MODEL 1
REMARK VINA RESULT: -7.964338140      0.000      0.000
REMARK  7 active torsions:
REMARK  status: ('A' for Active; 'I' for Inactive)
REMARK    1  A    between atoms: C2_4  and  C3_5 
REMARK    2  A    between atoms: C2_4  and  N4_19 
REMARK    3  A    between atoms: C3_5  and  N2_6 
REMARK    4  A    between atoms: N2_6  and  C4_7 
REMARK    5  A    between atoms: N2_6  and  C7_10 
REMARK    6  A    between atoms: C8_11  and  N3_12 
REMARK    7  A    between atoms: N4_19  and  C10_21 
ROOT
HETATM    1  C1  UNL     1      16.195   0.718  11.244  1.00  0.00     0.120 C 
HETATM    2  N1  UNL     1      16.501   1.993  11.637  1.00  0.00    -0.361 N 
ATOM      3  H1  UNL     1      16.419   2.558  10.792  1.00  0.00     0.165 HD
HETATM    4  C2  UNL     1      16.822   2.770  12.504  1.00  0.00     0.120 C 
ENDROOT
BRANCH   4   5
HETATM    5  C3  UNL     1      16.993   4.226  12.120  1.00  0.00     0.135 C 
BRANCH   5   6
HETATM    6  N2  UNL     1      18.284   4.687  11.967  1.00  0.00    -0.369 N 
BRANCH   6   7
HETATM    7  C4  UNL     1      18.829   4.453  10.667  1.00  0.00     0.084 A 
HETATM    8  C5  UNL     1      19.264   5.472   9.718  1.00  0.00     0.027 A 
HETATM    9  C6  UNL     1      18.023   4.682   9.471  1.00  0.00     0.027 A 
ENDBRANCH   6   7
BRANCH   6  10
HETATM   10  C7  UNL     1      18.831   5.729  12.724  1.00  0.00     0.195 A 
HETATM   11  C8  UNL     1      19.864   5.466  13.827  1.00  0.00     0.286 A 
HETATM   12  C9  UNL     1      18.521   6.083  14.111  1.00  0.00     0.295 A 
HETATM   13  F1  UNL     1      18.587   7.427  14.509  1.00  0.00    -0.202 F 
HETATM   14  F2  UNL     1      17.712   5.357  14.940  1.00  0.00    -0.202 F 
BRANCH  11  15
HETATM   15  N3  UNL     1      20.092   4.137  14.328  1.00  0.00    -0.067 N 
ATOM     16  H33 UNL     1      19.273   3.571  14.107  1.00  0.00     0.275 HD
ATOM     17  H32 UNL     1      20.810   3.699  13.750  1.00  0.00     0.275 HD
ATOM     18  H31 UNL     1      20.333   3.977  15.306  1.00  0.00     0.275 HD
ENDBRANCH  11  15
ENDBRANCH   6  10
ENDBRANCH   5   6
ENDBRANCH   4   5
BRANCH   4  19
HETATM   19  N4  UNL     1      17.071   2.455  13.852  1.00  0.00    -0.336 N 
ATOM     20  H4  UNL     1      18.056   2.309  14.075  1.00  0.00     0.168 HD
BRANCH  19  21
HETATM   21  C10 UNL     1      16.209   2.309  14.936  1.00  0.00     0.118 A 
HETATM   22  C11 UNL     1      16.162   1.125  15.636  1.00  0.00     0.188 A 
HETATM   23  F3  UNL     1      16.938   0.102  15.281  1.00  0.00    -0.200 F 
HETATM   24  C12 UNL     1      15.315   0.906  16.713  1.00  0.00     0.199 A 
HETATM   25  F4  UNL     1      15.290  -0.270  17.383  1.00  0.00    -0.199 F 
HETATM   26  C13 UNL     1      14.465   1.903  17.125  1.00  0.00     0.199 A 
HETATM   27  F5  UNL     1      13.635   1.672  18.190  1.00  0.00    -0.199 F 
HETATM   28  C14 UNL     1      14.479   3.097  16.456  1.00  0.00     0.199 A 
HETATM   29  F6  UNL     1      13.646   4.084  16.853  1.00  0.00    -0.199 F 
HETATM   30  C15 UNL     1      15.347   3.294  15.368  1.00  0.00     0.188 A 
HETATM   31  F7  UNL     1      15.258   4.500  14.745  1.00  0.00    -0.200 F 
ENDBRANCH  19  21
ENDBRANCH   4  19
TORSDOF 7
ENDMDL
MODEL 2
REMARK VINA RESULT: -7.867080253      0.093      2.066
REMARK  7 active torsions:
REMARK  status: ('A' for Active; 'I' for Inactive)
REMARK    1  A    between atoms: C2_4  and  C3_5 
REMARK    2  A    between atoms: C2_4  and  N4_19 
REMARK    3  A    between atoms: C3_5  and  N2_6 
REMARK    4  A    between atoms: N2_6  and  C4_7 
REMARK    5  A    between atoms: N2_6  and  C7_10 
REMARK    6  A    between atoms: C8_11  and  N3_12 
REMARK    7  A    between atoms: N4_19  and  C10_21 
ROOT
HETATM    1  C1  UNL     1      16.140   0.830  11.275  1.00  0.00     0.120 C 
HETATM    2  N1  UNL     1      16.485   2.100  11.653  1.00  0.00    -0.361 N 
ATOM      3  H1  UNL     1      16.403   2.660  10.805  1.00  0.00     0.165 HD
HETATM    4  C2  UNL     1      16.839   2.875  12.509  1.00  0.00     0.120 C 
ENDROOT
BRANCH   4   5
HETATM    5  C3  UNL     1      17.039   4.324  12.111  1.00  0.00     0.135 C 
BRANCH   5   6
HETATM    6  N2  UNL     1      18.339   4.752  11.939  1.00  0.00    -0.369 N 
BRANCH   6   7
HETATM    7  C4  UNL     1      18.858   4.509  10.631  1.00  0.00     0.084 A 
HETATM    8  C5  UNL     1      19.247   5.522   9.656  1.00  0.00     0.027 A 
HETATM    9  C6  UNL     1      18.019   4.702   9.451  1.00  0.00     0.027 A 
ENDBRANCH   6   7
BRANCH   6  10
HETATM   10  C7  UNL     1      18.925   5.777  12.691  1.00  0.00     0.195 A 
HETATM   11  C8  UNL     1      19.922   5.479  13.819  1.00  0.00     0.286 A 
HETATM   12  C9  UNL     1      18.607   6.168  14.067  1.00  0.00     0.295 A 
HETATM   13  F1  UNL     1      18.734   7.513  14.445  1.00  0.00    -0.202 F 
HETATM   14  F2  UNL     1      17.746   5.498  14.890  1.00  0.00    -0.202 F 
BRANCH  11  15
HETATM   15  N3  UNL     1      20.071   4.148  14.344  1.00  0.00    -0.067 N 
ATOM     16  H33 UNL     1      19.871   4.178  15.343  1.00  0.00     0.275 HD
ATOM     17  H32 UNL     1      19.299   3.580  13.992  1.00  0.00     0.275 HD
ATOM     18  H31 UNL     1      20.936   3.624  14.209  1.00  0.00     0.275 HD
ENDBRANCH  11  15
ENDBRANCH   6  10
ENDBRANCH   5   6
ENDBRANCH   4   5
BRANCH   4  19
HETATM   19  N4  UNL     1      17.100   2.565  13.855  1.00  0.00    -0.336 N 
ATOM     20  H4  UNL     1      18.092   2.521  14.092  1.00  0.00     0.168 HD
BRANCH  19  21
HETATM   21  C10 UNL     1      16.243   2.306  14.923  1.00  0.00     0.118 A 
HETATM   22  C11 UNL     1      15.388   3.281  15.383  1.00  0.00     0.188 A 
HETATM   23  F3  UNL     1      15.373   4.486  14.816  1.00  0.00    -0.200 F 
HETATM   24  C12 UNL     1      14.522   3.096  16.451  1.00  0.00     0.199 A 
HETATM   25  F4  UNL     1      13.691   4.074  16.884  1.00  0.00    -0.199 F 
HETATM   26  C13 UNL     1      14.495   1.889  17.106  1.00  0.00     0.199 A 
HETATM   27  F5  UNL     1      13.635   1.722  18.158  1.00  0.00    -0.199 F 
HETATM   28  C14 UNL     1      15.331   0.892  16.681  1.00  0.00     0.199 A 
HETATM   29  F6  UNL     1      15.312  -0.299  17.318  1.00  0.00    -0.199 F 
HETATM   30  C15 UNL     1      16.199   1.104  15.596  1.00  0.00     0.188 A 
HETATM   31  F7  UNL     1      17.016   0.065  15.274  1.00  0.00    -0.200 F 
ENDBRANCH  19  21
ENDBRANCH   4  19
TORSDOF 7
ENDMDL
MODEL 3
REMARK VINA RESULT: -7.517801178      1.476      2.726
REMARK  7 active torsions:
REMARK  status: ('A' for Active; 'I' for Inactive)
REMARK    1  A    between atoms: C2_4  and  C3_5 
REMARK    2  A    between atoms: C2_4  and  N4_19 
REMARK    3  A    between atoms: C3_5  and  N2_6 
REMARK    4  A    between atoms: N2_6  and  C4_7 
REMARK    5  A    between atoms: N2_6  and  C7_10 
REMARK    6  A    between atoms: C8_11  and  N3_12 
REMARK    7  A    between atoms: N4_19  and  C10_21 
ROOT
HETATM    1  C1  UNL     1      16.976  -0.132  12.290  1.00  0.00     0.120 C 
HETATM    2  N1  UNL     1      16.900   1.230  12.175  1.00  0.00    -0.361 N 
ATOM      3  H1  UNL     1      16.774   1.406  11.179  1.00  0.00     0.165 HD
HETATM    4  C2  UNL     1      16.911   2.324  12.687  1.00  0.00     0.120 C 
ENDROOT
BRANCH   4   5
HETATM    5  C3  UNL     1      16.747   3.529  11.783  1.00  0.00     0.135 C 
BRANCH   5   6
HETATM    6  N2  UNL     1      17.724   4.501  11.851  1.00  0.00    -0.369 N 
BRANCH   6   7
HETATM    7  C4  UNL     1      19.042   4.011  11.600  1.00  0.00     0.084 A 
HETATM    8  C5  UNL     1      20.239   4.320  12.375  1.00  0.00     0.027 A 
HETATM    9  C6  UNL     1      20.056   4.877  11.005  1.00  0.00     0.027 A 
ENDBRANCH   6   7
BRANCH   6  10
HETATM   10  C7  UNL     1      17.482   5.862  11.630  1.00  0.00     0.195 A 
HETATM   11  C8  UNL     1      17.643   6.900  12.748  1.00  0.00     0.286 A 
HETATM   12  C9  UNL     1      16.325   6.645  12.069  1.00  0.00     0.295 A 
HETATM   13  F1  UNL     1      15.880   7.715  11.277  1.00  0.00    -0.202 F 
HETATM   14  F2  UNL     1      15.331   6.181  12.884  1.00  0.00    -0.202 F 
BRANCH  11  15
HETATM   15  N3  UNL     1      17.758   6.496  14.124  1.00  0.00    -0.067 N 
ATOM     16  H33 UNL     1      17.444   5.528  14.197  1.00  0.00     0.275 HD
ATOM     17  H32 UNL     1      18.750   6.411  14.348  1.00  0.00     0.275 HD
ATOM     18  H31 UNL     1      17.311   7.030  14.869  1.00  0.00     0.275 HD
ENDBRANCH  11  15
ENDBRANCH   6  10
ENDBRANCH   5   6
ENDBRANCH   4   5
BRANCH   4  19
HETATM   19  N4  UNL     1      17.076   2.599  14.057  1.00  0.00    -0.336 N 
ATOM     20  H4  UNL     1      17.963   3.044  14.293  1.00  0.00     0.168 HD
BRANCH  19  21
HETATM   21  C10 UNL     1      16.239   2.371  15.148  1.00  0.00     0.118 A 
HETATM   22  C11 UNL     1      15.439   3.379  15.636  1.00  0.00     0.188 A 
HETATM   23  F3  UNL     1      15.458   4.586  15.074  1.00  0.00    -0.200 F 
HETATM   24  C12 UNL     1      14.598   3.224  16.728  1.00  0.00     0.199 A 
HETATM   25  F4  UNL     1      13.821   4.234  17.188  1.00  0.00    -0.199 F 
HETATM   26  C13 UNL     1      14.539   2.017  17.379  1.00  0.00     0.199 A 
HETATM   27  F5  UNL     1      13.703   1.880  18.455  1.00  0.00    -0.199 F 
HETATM   28  C14 UNL     1      15.320   0.987  16.926  1.00  0.00     0.199 A 
HETATM   29  F6  UNL     1      15.269  -0.205  17.559  1.00  0.00    -0.199 F 
HETATM   30  C15 UNL     1      16.164   1.169  15.817  1.00  0.00     0.188 A 
HETATM   31  F7  UNL     1      16.928   0.099  15.468  1.00  0.00    -0.200 F 
ENDBRANCH  19  21
ENDBRANCH   4  19
TORSDOF 7
ENDMDL
MODEL 4
REMARK VINA RESULT: -7.417744429      1.267      1.370
REMARK  7 active torsions:
REMARK  status: ('A' for Active; 'I' for Inactive)
REMARK    1  A    between atoms: C2_4  and  C3_5 
REMARK    2  A    between atoms: C2_4  and  N4_19 
REMARK    3  A    between atoms: C3_5  and  N2_6 
REMARK    4  A    between atoms: N2_6  and  C4_7 
REMARK    5  A    between atoms: N2_6  and  C7_10 
REMARK    6  A    between atoms: C8_11  and  N3_12 
REMARK    7  A    between atoms: N4_19  and  C10_21 
ROOT
HETATM    1  C1  UNL     1      16.988  -0.343  12.269  1.00  0.00     0.120 C 
HETATM    2  N1  UNL     1      17.309   0.970  12.488  1.00  0.00    -0.361 N 
ATOM      3  H1  UNL     1      18.251   1.079  12.113  1.00  0.00     0.165 HD
HETATM    4  C2  UNL     1      17.012   2.060  12.913  1.00  0.00     0.120 C 
ENDROOT
BRANCH   4   5
HETATM    5  C3  UNL     1      18.031   3.174  12.776  1.00  0.00     0.135 C 
BRANCH   5   6
HETATM    6  N2  UNL     1      17.588   4.367  12.245  1.00  0.00    -0.369 N 
BRANCH   6   7
HETATM    7  C4  UNL     1      17.008   4.240  10.946  1.00  0.00     0.084 A 
HETATM    8  C5  UNL     1      17.648   4.577   9.679  1.00  0.00     0.027 A 
HETATM    9  C6  UNL     1      16.542   5.418  10.220  1.00  0.00     0.027 A 
ENDBRANCH   6   7
BRANCH   6  10
HETATM   10  C7  UNL     1      17.212   5.470  13.020  1.00  0.00     0.195 A 
HETATM   11  C8  UNL     1      18.215   6.567  13.400  1.00  0.00     0.286 A 
HETATM   12  C9  UNL     1      17.522   5.717  14.431  1.00  0.00     0.295 A 
HETATM   13  F1  UNL     1      16.604   6.423  15.222  1.00  0.00    -0.202 F 
HETATM   14  F2  UNL     1      18.348   4.943  15.196  1.00  0.00    -0.202 F 
BRANCH  11  15
HETATM   15  N3  UNL     1      19.630   6.368  13.232  1.00  0.00    -0.067 N 
ATOM     16  H33 UNL     1      20.012   7.188  12.762  1.00  0.00     0.275 HD
ATOM     17  H32 UNL     1      20.069   6.430  14.151  1.00  0.00     0.275 HD
ATOM     18  H31 UNL     1      19.992   5.537  12.764  1.00  0.00     0.275 HD
ENDBRANCH  11  15
ENDBRANCH   6  10
ENDBRANCH   5   6
ENDBRANCH   4   5
BRANCH   4  19
HETATM   19  N4  UNL     1      15.803   2.406  13.543  1.00  0.00    -0.336 N 
ATOM     20  H4  UNL     1      15.049   2.650  12.901  1.00  0.00     0.168 HD
BRANCH  19  21
HETATM   21  C10 UNL     1      15.455   2.473  14.890  1.00  0.00     0.118 A 
HETATM   22  C11 UNL     1      15.740   1.427  15.738  1.00  0.00     0.188 A 
HETATM   23  F3  UNL     1      16.349   0.335  15.279  1.00  0.00    -0.200 F 
HETATM   24  C12 UNL     1      15.406   1.421  17.084  1.00  0.00     0.199 A 
HETATM   25  F4  UNL     1      15.699   0.378  17.896  1.00  0.00    -0.199 F 
HETATM   26  C13 UNL     1      14.754   2.500  17.630  1.00  0.00     0.199 A 
HETATM   27  F5  UNL     1      14.431   2.479  18.961  1.00  0.00    -0.199 F 
HETATM   28  C14 UNL     1      14.450   3.562  16.821  1.00  0.00     0.199 A 
HETATM   29  F6  UNL     1      13.809   4.628  17.348  1.00  0.00    -0.199 F 
HETATM   30  C15 UNL     1      14.800   3.544  15.460  1.00  0.00     0.188 A 
HETATM   31  F7  UNL     1      14.421   4.629  14.732  1.00  0.00    -0.200 F 
ENDBRANCH  19  21
ENDBRANCH   4  19
TORSDOF 7
ENDMDL
MODEL 5
REMARK VINA RESULT: -7.390831547      2.016      3.293
REMARK  7 active torsions:
REMARK  status: ('A' for Active; 'I' for Inactive)
REMARK    1  A    between atoms: C2_4  and  C3_5 
REMARK    2  A    between atoms: C2_4  and  N4_19 
REMARK    3  A    between atoms: C3_5  and  N2_6 
REMARK    4  A    between atoms: N2_6  and  C4_7 
REMARK    5  A    between atoms: N2_6  and  C7_10 
REMARK    6  A    between atoms: C8_11  and  N3_12 
REMARK    7  A    between atoms: N4_19  and  C10_21 
ROOT
HETATM    1  C1  UNL     1      15.603   6.873  11.753  1.00  0.00     0.120 C 
HETATM    2  N1  UNL     1      16.400   6.277  12.694  1.00  0.00    -0.361 N 
ATOM      3  H1  UNL     1      17.155   6.942  12.861  1.00  0.00     0.165 HD
HETATM    4  C2  UNL     1      16.639   5.343  13.420  1.00  0.00     0.120 C 
ENDROOT
BRANCH   4   5
HETATM    5  C3  UNL     1      17.876   5.422  14.291  1.00  0.00     0.135 C 
BRANCH   5   6
HETATM    6  N2  UNL     1      19.015   5.946  13.716  1.00  0.00    -0.369 N 
BRANCH   6   7
HETATM    7  C4  UNL     1      19.420   7.196  14.275  1.00  0.00     0.084 A 
HETATM    8  C5  UNL     1      18.563   8.144  14.979  1.00  0.00     0.027 A 
HETATM    9  C6  UNL     1      19.076   8.452  13.613  1.00  0.00     0.027 A 
ENDBRANCH   6   7
BRANCH   6  10
HETATM   10  C7  UNL     1      19.992   5.169  13.082  1.00  0.00     0.195 A 
HETATM   11  C8  UNL     1      20.264   5.290  11.577  1.00  0.00     0.286 A 
HETATM   12  C9  UNL     1      19.784   4.011  12.209  1.00  0.00     0.295 A 
HETATM   13  F1  UNL     1      20.735   2.981  12.196  1.00  0.00    -0.202 F 
HETATM   14  F2  UNL     1      18.565   3.570  11.774  1.00  0.00    -0.202 F 
BRANCH  11  15
HETATM   15  N3  UNL     1      19.344   5.976  10.710  1.00  0.00    -0.067 N 
ATOM     16  H33 UNL     1      18.462   6.089  11.209  1.00  0.00     0.275 HD
ATOM     17  H32 UNL     1      19.657   6.943  10.617  1.00  0.00     0.275 HD
ATOM     18  H31 UNL     1      19.135   5.620   9.777  1.00  0.00     0.275 HD
ENDBRANCH  11  15
ENDBRANCH   6  10
ENDBRANCH   5   6
ENDBRANCH   4   5
BRANCH   4  19
HETATM   19  N4  UNL     1      15.881   4.163  13.533  1.00  0.00    -0.336 N 
ATOM     20  H4  UNL     1      15.301   3.956  12.719  1.00  0.00     0.168 HD
BRANCH  19  21
HETATM   21  C10 UNL     1      15.783   3.227  14.560  1.00  0.00     0.118 A 
HETATM   22  C11 UNL     1      16.331   1.972  14.415  1.00  0.00     0.188 A 
HETATM   23  F3  UNL     1      16.955   1.636  13.288  1.00  0.00    -0.200 F 
HETATM   24  C12 UNL     1      16.254   0.989  15.390  1.00  0.00     0.199 A 
HETATM   25  F4  UNL     1      16.802  -0.238  15.221  1.00  0.00    -0.199 F 
HETATM   26  C13 UNL     1      15.604   1.248  16.572  1.00  0.00     0.199 A 
HETATM   27  F5  UNL     1      15.538   0.267  17.525  1.00  0.00    -0.199 F 
HETATM   28  C14 UNL     1      15.045   2.484  16.757  1.00  0.00     0.199 A 
HETATM   29  F6  UNL     1      14.403   2.749  17.915  1.00  0.00    -0.199 F 
HETATM   30  C15 UNL     1      15.136   3.464  15.753  1.00  0.00     0.188 A 
HETATM   31  F7  UNL     1      14.515   4.646  16.016  1.00  0.00    -0.200 F 
ENDBRANCH  19  21
ENDBRANCH   4  19
TORSDOF 7
ENDMDL
