MODEL 1
REMARK VINA RESULT: -5.956802279      0.000      0.000
REMARK  7 active torsions:
REMARK  status: ('A' for Active; 'I' for Inactive)
REMARK    1  A    between atoms: C2_2  and  C3_3 
REMARK    2  A    between atoms: C3_3  and  N1_4 
REMARK    3  A    between atoms: N1_4  and  C4_6 
REMARK    4  A    between atoms: C4_6  and  N2_8 
REMARK    5  A    between atoms: C7_12  and  C8_13 
REMARK    6  A    between atoms: C8_13  and  N3_14 
REMARK    7  A    between atoms: N3_14  and  C9_17 
ROOT
HETATM    1  N2  UNL     1      17.624   3.666  13.605  1.00  0.00    -0.354 N 
HETATM    2  C5  UNL     1      17.705   2.692  12.561  1.00  0.00     0.151 C 
HETATM    3  C6  UNL     1      16.705   1.587  12.954  1.00  0.00     0.188 C 
HETATM    4  O1  UNL     1      17.136   1.072  14.160  1.00  0.00    -0.381 OA
HETATM    5  C7  UNL     1      16.862   2.051  15.141  1.00  0.00     0.165 C 
HETATM    6  C12 UNL     1      17.838   3.164  14.972  1.00  0.00     0.159 C 
ENDROOT
BRANCH   1   7
HETATM    7  C4  UNL     1      17.346   5.019  13.336  1.00  0.00     0.170 C 
HETATM    8  S1  UNL     1      16.700   5.451  11.868  1.00  0.00    -0.041 SA
BRANCH   7   9
HETATM    9  N1  UNL     1      17.611   6.033  14.282  1.00  0.00    -0.364 N 
ATOM     10  H1  UNL     1      16.911   6.262  14.988  1.00  0.00     0.162 HD
BRANCH   9  11
HETATM   11  C3  UNL     1      18.874   6.755  14.258  1.00  0.00     0.148 C 
BRANCH  11  12
HETATM   12  C2  UNL     1      18.979   7.807  15.291  1.00  0.00    -0.018 C 
HETATM   13  C1  UNL     1      20.158   8.306  15.614  1.00  0.00     0.008 C 
ENDBRANCH  11  12
ENDBRANCH   9  11
ENDBRANCH   7   9
ENDBRANCH   1   7
BRANCH   5  14
HETATM   14  C8  UNL     1      16.861   1.357  16.455  1.00  0.00     0.266 C 
BRANCH  14  15
HETATM   15  N3  UNL     1      16.395   0.001  16.449  1.00  0.00    -0.069 N 
ATOM     16  H32 UNL     1      16.101  -0.322  15.527  1.00  0.00     0.277 HD
ATOM     17  H31 UNL     1      17.138  -0.682  16.592  1.00  0.00     0.277 HD
BRANCH  15  18
HETATM   18  C9  UNL     1      15.336  -0.078  17.454  1.00  0.00     0.186 A 
HETATM   19  C10 UNL     1      14.013   0.528  17.177  1.00  0.00     0.035 A 
HETATM   20  C11 UNL     1      14.952   1.144  18.176  1.00  0.00     0.035 A 
ENDBRANCH  15  18
ENDBRANCH  14  15
ENDBRANCH   5  14
TORSDOF 7
ENDMDL
MODEL 2
REMARK VINA RESULT: -5.880192579      1.790      2.600
REMARK  7 active torsions:
REMARK  status: ('A' for Active; 'I' for Inactive)
REMARK    1  A    between atoms: C2_2  and  C3_3 
REMARK    2  A    between atoms: C3_3  and  N1_4 
REMARK    3  A    between atoms: N1_4  and  C4_6 
REMARK    4  A    between atoms: C4_6  and  N2_8 
REMARK    5  A    between atoms: C7_12  and  C8_13 
REMARK    6  A    between atoms: C8_13  and  N3_14 
REMARK    7  A    between atoms: N3_14  and  C9_17 
ROOT
HETATM    1  N2  UNL     1      17.609   3.813  13.679  1.00  0.00    -0.354 N 
HETATM    2  C5  UNL     1      17.720   2.880  12.601  1.00  0.00     0.151 C 
HETATM    3  C6  UNL     1      16.754   1.732  12.951  1.00  0.00     0.188 C 
HETATM    4  O1  UNL     1      17.198   1.187  14.138  1.00  0.00    -0.381 OA
HETATM    5  C7  UNL     1      16.893   2.122  15.154  1.00  0.00     0.165 C 
HETATM    6  C12 UNL     1      17.837   3.268  15.028  1.00  0.00     0.159 C 
ENDROOT
BRANCH   1   7
HETATM    7  C4  UNL     1      17.292   5.166  13.458  1.00  0.00     0.170 C 
HETATM    8  S1  UNL     1      18.318   6.352  14.004  1.00  0.00    -0.041 SA
BRANCH   7   9
HETATM    9  N1  UNL     1      16.111   5.551  12.785  1.00  0.00    -0.364 N 
ATOM     10  H1  UNL     1      15.210   5.464  13.255  1.00  0.00     0.162 HD
BRANCH   9  11
HETATM   11  C3  UNL     1      16.171   6.070  11.428  1.00  0.00     0.148 C 
BRANCH  11  12
HETATM   12  C2  UNL     1      15.287   7.232  11.195  1.00  0.00    -0.018 C 
HETATM   13  C1  UNL     1      14.016   7.184  11.551  1.00  0.00     0.008 C 
ENDBRANCH  11  12
ENDBRANCH   9  11
ENDBRANCH   7   9
ENDBRANCH   1   7
BRANCH   5  14
HETATM   14  C8  UNL     1      16.911   1.382  16.441  1.00  0.00     0.266 C 
BRANCH  14  15
HETATM   15  N3  UNL     1      16.414   0.037  16.401  1.00  0.00    -0.069 N 
ATOM     16  H32 UNL     1      16.099  -0.249  15.474  1.00  0.00     0.277 HD
ATOM     17  H31 UNL     1      17.145  -0.667  16.509  1.00  0.00     0.277 HD
BRANCH  15  18
HETATM   18  C9  UNL     1      15.371  -0.051  17.420  1.00  0.00     0.186 A 
HETATM   19  C10 UNL     1      14.035   0.530  17.158  1.00  0.00     0.035 A 
HETATM   20  C11 UNL     1      14.977   1.169  18.139  1.00  0.00     0.035 A 
ENDBRANCH  15  18
ENDBRANCH  14  15
ENDBRANCH   5  14
TORSDOF 7
ENDMDL
MODEL 3
REMARK VINA RESULT: -5.661033366      1.114      1.129
REMARK  7 active torsions:
REMARK  status: ('A' for Active; 'I' for Inactive)
REMARK    1  A    between atoms: C2_2  and  C3_3 
REMARK    2  A    between atoms: C3_3  and  N1_4 
REMARK    3  A    between atoms: N1_4  and  C4_6 
REMARK    4  A    between atoms: C4_6  and  N2_8 
REMARK    5  A    between atoms: C7_12  and  C8_13 
REMARK    6  A    between atoms: C8_13  and  N3_14 
REMARK    7  A    between atoms: N3_14  and  C9_17 
ROOT
HETATM    1  N2  UNL     1      17.323   3.414  14.065  1.00  0.00    -0.354 N 
HETATM    2  C5  UNL     1      17.915   2.986  12.836  1.00  0.00     0.151 C 
HETATM    3  C6  UNL     1      17.165   1.698  12.446  1.00  0.00     0.188 C 
HETATM    4  O1  UNL     1      17.387   0.786  13.458  1.00  0.00    -0.381 OA
HETATM    5  C7  UNL     1      16.629   1.220  14.570  1.00  0.00     0.165 C 
HETATM    6  C12 UNL     1      17.299   2.418  15.149  1.00  0.00     0.159 C 
ENDROOT
BRANCH   1   7
HETATM    7  C4  UNL     1      16.789   4.706  14.219  1.00  0.00     0.170 C 
HETATM    8  S1  UNL     1      15.359   4.914  15.038  1.00  0.00    -0.041 SA
BRANCH   7   9
HETATM    9  N1  UNL     1      17.434   5.844  13.686  1.00  0.00    -0.364 N 
ATOM     10  H1  UNL     1      16.993   6.367  12.929  1.00  0.00     0.162 HD
BRANCH   9  11
HETATM   11  C3  UNL     1      18.721   6.276  14.207  1.00  0.00     0.148 C 
BRANCH  11  12
HETATM   12  C2  UNL     1      18.629   7.389  15.176  1.00  0.00    -0.018 C 
HETATM   13  C1  UNL     1      19.710   8.067  15.515  1.00  0.00     0.008 C 
ENDBRANCH  11  12
ENDBRANCH   9  11
ENDBRANCH   7   9
ENDBRANCH   1   7
BRANCH   5  14
HETATM   14  C8  UNL     1      16.467   0.047  15.466  1.00  0.00     0.266 C 
BRANCH  14  15
HETATM   15  N3  UNL     1      16.781   0.263  16.848  1.00  0.00    -0.069 N 
ATOM     16  H32 UNL     1      17.535  -0.333  17.189  1.00  0.00     0.277 HD
ATOM     17  H31 UNL     1      17.237   1.158  17.024  1.00  0.00     0.277 HD
BRANCH  15  18
HETATM   18  C9  UNL     1      15.532   0.095  17.589  1.00  0.00     0.186 A 
HETATM   19  C10 UNL     1      14.271   0.640  17.037  1.00  0.00     0.035 A 
HETATM   20  C11 UNL     1      14.927   1.270  18.233  1.00  0.00     0.035 A 
ENDBRANCH  15  18
ENDBRANCH  14  15
ENDBRANCH   5  14
TORSDOF 7
ENDMDL
MODEL 4
REMARK VINA RESULT: -5.571366695      2.234      4.454
REMARK  7 active torsions:
REMARK  status: ('A' for Active; 'I' for Inactive)
REMARK    1  A    between atoms: C2_2  and  C3_3 
REMARK    2  A    between atoms: C3_3  and  N1_4 
REMARK    3  A    between atoms: N1_4  and  C4_6 
REMARK    4  A    between atoms: C4_6  and  N2_8 
REMARK    5  A    between atoms: C7_12  and  C8_13 
REMARK    6  A    between atoms: C8_13  and  N3_14 
REMARK    7  A    between atoms: N3_14  and  C9_17 
ROOT
HETATM    1  N2  UNL     1      16.883   3.039  13.096  1.00  0.00    -0.354 N 
HETATM    2  C5  UNL     1      17.717   4.161  13.392  1.00  0.00     0.151 C 
HETATM    3  C6  UNL     1      18.696   3.670  14.476  1.00  0.00     0.188 C 
HETATM    4  O1  UNL     1      17.931   3.308  15.567  1.00  0.00    -0.381 OA
HETATM    5  C7  UNL     1      17.276   2.103  15.222  1.00  0.00     0.165 C 
HETATM    6  C12 UNL     1      16.197   2.425  14.245  1.00  0.00     0.159 C 
ENDROOT
BRANCH   1   7
HETATM    7  C4  UNL     1      16.737   2.550  11.785  1.00  0.00     0.170 C 
HETATM    8  S1  UNL     1      17.589   3.252  10.545  1.00  0.00    -0.041 SA
BRANCH   7   9
HETATM    9  N1  UNL     1      15.872   1.473  11.486  1.00  0.00    -0.364 N 
ATOM     10  H1  UNL     1      14.863   1.619  11.490  1.00  0.00     0.162 HD
BRANCH   9  11
HETATM   11  C3  UNL     1      16.411   0.158  11.175  1.00  0.00     0.148 C 
BRANCH  11  12
HETATM   12  C2  UNL     1      17.003  -0.534  12.338  1.00  0.00    -0.018 C 
HETATM   13  C1  UNL     1      17.304  -1.818  12.266  1.00  0.00     0.008 C 
ENDBRANCH  11  12
ENDBRANCH   9  11
ENDBRANCH   7   9
ENDBRANCH   1   7
BRANCH   5  14
HETATM   14  C8  UNL     1      16.856   1.461  16.493  1.00  0.00     0.266 C 
BRANCH  14  15
HETATM   15  N3  UNL     1      16.421   0.098  16.396  1.00  0.00    -0.069 N 
ATOM     16  H32 UNL     1      16.141  -0.170  15.453  1.00  0.00     0.277 HD
ATOM     17  H31 UNL     1      17.179  -0.576  16.501  1.00  0.00     0.277 HD
BRANCH  15  18
HETATM   18  C9  UNL     1      15.357  -0.069  17.385  1.00  0.00     0.186 A 
HETATM   19  C10 UNL     1      14.023   0.524  17.137  1.00  0.00     0.035 A 
HETATM   20  C11 UNL     1      14.941   1.093  18.182  1.00  0.00     0.035 A 
ENDBRANCH  15  18
ENDBRANCH  14  15
ENDBRANCH   5  14
TORSDOF 7
ENDMDL
MODEL 5
REMARK VINA RESULT: -5.468594916      1.689      2.216
REMARK  7 active torsions:
REMARK  status: ('A' for Active; 'I' for Inactive)
REMARK    1  A    between atoms: C2_2  and  C3_3 
REMARK    2  A    between atoms: C3_3  and  N1_4 
REMARK    3  A    between atoms: N1_4  and  C4_6 
REMARK    4  A    between atoms: C4_6  and  N2_8 
REMARK    5  A    between atoms: C7_12  and  C8_13 
REMARK    6  A    between atoms: C8_13  and  N3_14 
REMARK    7  A    between atoms: N3_14  and  C9_17 
ROOT
HETATM    1  N2  UNL     1      18.321   3.547  13.721  1.00  0.00    -0.354 N 
HETATM    2  C5  UNL     1      18.176   2.622  12.641  1.00  0.00     0.151 C 
HETATM    3  C6  UNL     1      16.918   1.796  12.975  1.00  0.00     0.188 C 
HETATM    4  O1  UNL     1      17.175   1.146  14.166  1.00  0.00    -0.381 OA
HETATM    5  C7  UNL     1      17.136   2.129  15.182  1.00  0.00     0.165 C 
HETATM    6  C12 UNL     1      18.368   2.960  15.071  1.00  0.00     0.159 C 
ENDROOT
BRANCH   1   7
HETATM    7  C4  UNL     1      18.404   4.934  13.502  1.00  0.00     0.170 C 
HETATM    8  S1  UNL     1      19.816   5.593  12.927  1.00  0.00    -0.041 SA
BRANCH   7   9
HETATM    9  N1  UNL     1      17.315   5.794  13.766  1.00  0.00    -0.364 N 
ATOM     10  H1  UNL     1      17.448   6.608  14.367  1.00  0.00     0.162 HD
BRANCH   9  11
HETATM   11  C3  UNL     1      16.007   5.528  13.190  1.00  0.00     0.148 C 
BRANCH  11  12
HETATM   12  C2  UNL     1      15.008   5.054  14.171  1.00  0.00    -0.018 C 
HETATM   13  C1  UNL     1      15.293   5.048  15.461  1.00  0.00     0.008 C 
ENDBRANCH  11  12
ENDBRANCH   9  11
ENDBRANCH   7   9
ENDBRANCH   1   7
BRANCH   5  14
HETATM   14  C8  UNL     1      16.927   1.413  16.466  1.00  0.00     0.266 C 
BRANCH  14  15
HETATM   15  N3  UNL     1      16.417   0.076  16.366  1.00  0.00    -0.069 N 
ATOM     16  H32 UNL     1      16.101  -0.166  15.427  1.00  0.00     0.277 HD
ATOM     17  H31 UNL     1      17.141  -0.639  16.445  1.00  0.00     0.277 HD
BRANCH  15  18
HETATM   18  C9  UNL     1      15.371  -0.047  17.378  1.00  0.00     0.186 A 
HETATM   19  C10 UNL     1      14.036   0.544  17.132  1.00  0.00     0.035 A 
HETATM   20  C11 UNL     1      14.975   1.149  18.137  1.00  0.00     0.035 A 
ENDBRANCH  15  18
ENDBRANCH  14  15
ENDBRANCH   5  14
TORSDOF 7
ENDMDL
