MODEL 1
REMARK VINA RESULT: -6.525976029      0.000      0.000
REMARK  5 active torsions:
REMARK  status: ('A' for Active; 'I' for Inactive)
REMARK    1  A    between atoms: C3_3  and  C4_4 
REMARK    2  A    between atoms: C4_4  and  O1_5 
REMARK    3  A    between atoms: C4_4  and  C10_14 
REMARK    4  A    between atoms: O1_5  and  C5_6 
REMARK    5  A    between atoms: C5_6  and  C6_7 
REMARK       I    between atoms: C10_14  and  N2_16 
ROOT
HETATM    1  C4  UNL     1      16.748   3.879  14.579  1.00  0.00     0.236 C 
ENDROOT
BRANCH   1   2
HETATM    2  C3  UNL     1      17.980   4.702  14.417  1.00  0.00     0.010 C 
HETATM    3  C2  UNL     1      17.920   6.013  14.613  1.00  0.00    -0.032 C 
HETATM    4  C1  UNL     1      19.103   6.900  14.471  1.00  0.00     0.036 C 
ENDBRANCH   1   2
BRANCH   1   5
HETATM    5  O1  UNL     1      16.431   3.385  13.320  1.00  0.00    -0.372 OA
BRANCH   5   6
HETATM    6  C5  UNL     1      17.113   2.258  12.961  1.00  0.00     0.175 C 
BRANCH   6   7
HETATM    7  C6  UNL     1      16.274   1.039  12.715  1.00  0.00     0.037 C 
HETATM    8  C7  UNL     1      16.928  -0.107  13.466  1.00  0.00     0.036 C 
HETATM    9  C8  UNL     1      17.418  -0.979  12.307  1.00  0.00     0.232 C 
HETATM   10  N1  UNL     1      16.428  -0.733  11.246  1.00  0.00    -0.075 N 
HETATM   11  C9  UNL     1      16.347   0.694  11.254  1.00  0.00     0.239 C 
ATOM     12  H12 UNL     1      16.647  -1.151  10.342  1.00  0.00     0.277 HD
ATOM     13  H11 UNL     1      15.538  -1.219  11.361  1.00  0.00     0.277 HD
ENDBRANCH   6   7
ENDBRANCH   5   6
ENDBRANCH   1   5
BRANCH   1  14
HETATM   14  C10 UNL     1      17.106   2.781  15.521  1.00  0.00     0.252 C 
HETATM   15  O2  UNL     1      18.326   2.546  15.696  1.00  0.00    -0.270 OA
HETATM   16  N2  UNL     1      16.151   2.005  16.213  1.00  0.00    -0.350 N 
HETATM   17  C11 UNL     1      16.433   0.927  17.141  1.00  0.00     0.126 C 
HETATM   18  C14 UNL     1      14.713   2.144  16.118  1.00  0.00     0.126 C 
HETATM   19  C12 UNL     1      15.189   0.065  17.132  1.00  0.00     0.021 C 
HETATM   20  C13 UNL     1      14.098   1.102  17.004  1.00  0.00     0.021 C 
ENDBRANCH   1  14
TORSDOF 5
ENDMDL
MODEL 2
REMARK VINA RESULT: -6.483515794      1.989      5.426
REMARK  5 active torsions:
REMARK  status: ('A' for Active; 'I' for Inactive)
REMARK    1  A    between atoms: C3_3  and  C4_4 
REMARK    2  A    between atoms: C4_4  and  O1_5 
REMARK    3  A    between atoms: C4_4  and  C10_14 
REMARK    4  A    between atoms: O1_5  and  C5_6 
REMARK    5  A    between atoms: C5_6  and  C6_7 
REMARK       I    between atoms: C10_14  and  N2_16 
ROOT
HETATM    1  C4  UNL     1      17.298   2.672  13.504  1.00  0.00     0.236 C 
ENDROOT
BRANCH   1   2
HETATM    2  C3  UNL     1      17.246   1.594  12.476  1.00  0.00     0.010 C 
HETATM    3  C2  UNL     1      16.953   0.354  12.845  1.00  0.00    -0.032 C 
HETATM    4  C1  UNL     1      16.882  -0.775  11.881  1.00  0.00     0.036 C 
ENDBRANCH   1   2
BRANCH   1   5
HETATM    5  O1  UNL     1      17.327   2.040  14.740  1.00  0.00    -0.372 OA
BRANCH   5   6
HETATM    6  C5  UNL     1      16.364   2.454  15.616  1.00  0.00     0.175 C 
BRANCH   6   7
HETATM    7  C6  UNL     1      15.387   1.404  16.053  1.00  0.00     0.037 C 
HETATM    8  C7  UNL     1      14.722   1.919  17.318  1.00  0.00     0.036 C 
HETATM    9  C8  UNL     1      15.275   0.945  18.361  1.00  0.00     0.232 C 
HETATM   10  N1  UNL     1      15.467  -0.302  17.604  1.00  0.00    -0.075 N 
HETATM   11  C9  UNL     1      16.152   0.170  16.441  1.00  0.00     0.239 C 
ATOM     12  H12 UNL     1      15.938  -1.051  18.112  1.00  0.00     0.277 HD
ATOM     13  H11 UNL     1      14.616  -0.834  17.421  1.00  0.00     0.277 HD
ENDBRANCH   6   7
ENDBRANCH   5   6
ENDBRANCH   1   5
BRANCH   1  14
HETATM   14  C10 UNL     1      18.558   3.426  13.248  1.00  0.00     0.252 C 
HETATM   15  O2  UNL     1      19.494   2.810  12.681  1.00  0.00    -0.270 OA
HETATM   16  N2  UNL     1      18.744   4.778  13.609  1.00  0.00    -0.350 N 
HETATM   17  C11 UNL     1      19.941   5.567  13.387  1.00  0.00     0.126 C 
HETATM   18  C14 UNL     1      17.773   5.623  14.269  1.00  0.00     0.126 C 
HETATM   19  C12 UNL     1      19.885   6.666  14.425  1.00  0.00     0.021 C 
HETATM   20  C13 UNL     1      18.405   6.966  14.474  1.00  0.00     0.021 C 
ENDBRANCH   1  14
TORSDOF 5
ENDMDL
MODEL 3
REMARK VINA RESULT: -6.429255250      1.366      4.171
REMARK  5 active torsions:
REMARK  status: ('A' for Active; 'I' for Inactive)
REMARK    1  A    between atoms: C3_3  and  C4_4 
REMARK    2  A    between atoms: C4_4  and  O1_5 
REMARK    3  A    between atoms: C4_4  and  C10_14 
REMARK    4  A    between atoms: O1_5  and  C5_6 
REMARK    5  A    between atoms: C5_6  and  C6_7 
REMARK       I    between atoms: C10_14  and  N2_16 
ROOT
HETATM    1  C4  UNL     1      17.102   3.451  14.442  1.00  0.00     0.236 C 
ENDROOT
BRANCH   1   2
HETATM    2  C3  UNL     1      17.992   4.647  14.451  1.00  0.00     0.010 C 
HETATM    3  C2  UNL     1      17.555   5.782  14.982  1.00  0.00    -0.032 C 
HETATM    4  C1  UNL     1      18.381   7.015  15.030  1.00  0.00     0.036 C 
ENDBRANCH   1   2
BRANCH   1   5
HETATM    5  O1  UNL     1      15.933   3.821  15.093  1.00  0.00    -0.372 OA
BRANCH   5   6
HETATM    6  C5  UNL     1      15.053   2.800  15.312  1.00  0.00     0.175 C 
BRANCH   6   7
HETATM    7  C6  UNL     1      15.090   2.190  16.682  1.00  0.00     0.037 C 
HETATM    8  C7  UNL     1      16.393   1.416  16.785  1.00  0.00     0.036 C 
HETATM    9  C8  UNL     1      15.878  -0.024  16.842  1.00  0.00     0.232 C 
HETATM   10  N1  UNL     1      14.573   0.101  17.511  1.00  0.00    -0.075 N 
HETATM   11  C9  UNL     1      13.980   1.182  16.787  1.00  0.00     0.239 C 
ATOM     12  H12 UNL     1      14.019  -0.755  17.546  1.00  0.00     0.277 HD
ATOM     13  H11 UNL     1      14.614   0.226  18.523  1.00  0.00     0.277 HD
ENDBRANCH   6   7
ENDBRANCH   5   6
ENDBRANCH   1   5
BRANCH   1  14
HETATM   14  C10 UNL     1      16.850   3.136  13.007  1.00  0.00     0.252 C 
HETATM   15  O2  UNL     1      16.601   4.098  12.241  1.00  0.00    -0.270 OA
HETATM   16  N2  UNL     1      16.876   1.826  12.480  1.00  0.00    -0.350 N 
HETATM   17  C11 UNL     1      16.641   1.454  11.098  1.00  0.00     0.126 C 
HETATM   18  C14 UNL     1      17.140   0.615  13.227  1.00  0.00     0.126 C 
HETATM   19  C12 UNL     1      16.190   0.011  11.151  1.00  0.00     0.021 C 
HETATM   20  C13 UNL     1      17.044  -0.536  12.272  1.00  0.00     0.021 C 
ENDBRANCH   1  14
TORSDOF 5
ENDMDL
MODEL 4
REMARK VINA RESULT: -6.397147693      2.121      5.661
REMARK  5 active torsions:
REMARK  status: ('A' for Active; 'I' for Inactive)
REMARK    1  A    between atoms: C3_3  and  C4_4 
REMARK    2  A    between atoms: C4_4  and  O1_5 
REMARK    3  A    between atoms: C4_4  and  C10_14 
REMARK    4  A    between atoms: O1_5  and  C5_6 
REMARK    5  A    between atoms: C5_6  and  C6_7 
REMARK       I    between atoms: C10_14  and  N2_16 
ROOT
HETATM    1  C4  UNL     1      17.039   2.287  13.233  1.00  0.00     0.236 C 
ENDROOT
BRANCH   1   2
HETATM    2  C3  UNL     1      17.049   1.061  12.385  1.00  0.00     0.010 C 
HETATM    3  C2  UNL     1      17.126  -0.131  12.962  1.00  0.00    -0.032 C 
HETATM    4  C1  UNL     1      17.142  -1.398  12.187  1.00  0.00     0.036 C 
ENDBRANCH   1   2
BRANCH   1   5
HETATM    5  O1  UNL     1      17.292   1.872  14.534  1.00  0.00    -0.372 OA
BRANCH   5   6
HETATM    6  C5  UNL     1      16.453   2.397  15.475  1.00  0.00     0.175 C 
BRANCH   6   7
HETATM    7  C6  UNL     1      15.372   1.481  15.966  1.00  0.00     0.037 C 
HETATM    8  C7  UNL     1      14.690   2.184  17.127  1.00  0.00     0.036 C 
HETATM    9  C8  UNL     1      15.110   1.294  18.300  1.00  0.00     0.232 C 
HETATM   10  N1  UNL     1      15.234  -0.041  17.694  1.00  0.00    -0.075 N 
HETATM   11  C9  UNL     1      16.012   0.242  16.529  1.00  0.00     0.239 C 
ATOM     12  H12 UNL     1      15.615  -0.762  18.307  1.00  0.00     0.277 HD
ATOM     13  H11 UNL     1      14.351  -0.524  17.521  1.00  0.00     0.277 HD
ENDBRANCH   6   7
ENDBRANCH   5   6
ENDBRANCH   1   5
BRANCH   1  14
HETATM   14  C10 UNL     1      18.134   3.156  12.716  1.00  0.00     0.252 C 
HETATM   15  O2  UNL     1      19.273   2.642  12.601  1.00  0.00    -0.270 OA
HETATM   16  N2  UNL     1      17.951   4.509  12.356  1.00  0.00    -0.350 N 
HETATM   17  C11 UNL     1      18.971   5.405  11.847  1.00  0.00     0.126 C 
HETATM   18  C14 UNL     1      16.710   5.249  12.434  1.00  0.00     0.126 C 
HETATM   19  C12 UNL     1      18.476   6.795  12.182  1.00  0.00     0.021 C 
HETATM   20  C13 UNL     1      16.987   6.649  11.974  1.00  0.00     0.021 C 
ENDBRANCH   1  14
TORSDOF 5
ENDMDL
MODEL 5
REMARK VINA RESULT: -6.302781722      1.870      4.807
REMARK  5 active torsions:
REMARK  status: ('A' for Active; 'I' for Inactive)
REMARK    1  A    between atoms: C3_3  and  C4_4 
REMARK    2  A    between atoms: C4_4  and  O1_5 
REMARK    3  A    between atoms: C4_4  and  C10_14 
REMARK    4  A    between atoms: O1_5  and  C5_6 
REMARK    5  A    between atoms: C5_6  and  C6_7 
REMARK       I    between atoms: C10_14  and  N2_16 
ROOT
HETATM    1  C4  UNL     1      16.877   2.310  13.842  1.00  0.00     0.236 C 
ENDROOT
BRANCH   1   2
HETATM    2  C3  UNL     1      16.439   1.286  12.852  1.00  0.00     0.010 C 
HETATM    3  C2  UNL     1      17.125   0.156  12.733  1.00  0.00    -0.032 C 
HETATM    4  C1  UNL     1      16.753  -0.912  11.770  1.00  0.00     0.036 C 
ENDBRANCH   1   2
BRANCH   1   5
HETATM    5  O1  UNL     1      17.167   3.461  13.122  1.00  0.00    -0.372 OA
BRANCH   5   6
HETATM    6  C5  UNL     1      18.492   3.788  13.076  1.00  0.00     0.175 C 
BRANCH   6   7
HETATM    7  C6  UNL     1      18.981   4.685  14.174  1.00  0.00     0.037 C 
HETATM    8  C7  UNL     1      17.861   5.666  14.474  1.00  0.00     0.036 C 
HETATM    9  C8  UNL     1      18.477   6.978  13.982  1.00  0.00     0.232 C 
HETATM   10  N1  UNL     1      19.919   6.792  14.214  1.00  0.00    -0.075 N 
HETATM   11  C9  UNL     1      20.135   5.495  13.653  1.00  0.00     0.239 C 
ATOM     12  H12 UNL     1      20.517   7.531  13.844  1.00  0.00     0.277 HD
ATOM     13  H11 UNL     1      20.221   6.903  15.182  1.00  0.00     0.277 HD
ENDBRANCH   6   7
ENDBRANCH   5   6
ENDBRANCH   1   5
BRANCH   1  14
HETATM   14  C10 UNL     1      15.722   2.517  14.760  1.00  0.00     0.252 C 
HETATM   15  O2  UNL     1      14.943   3.468  14.501  1.00  0.00    -0.270 OA
HETATM   16  N2  UNL     1      15.467   1.709  15.889  1.00  0.00    -0.350 N 
HETATM   17  C11 UNL     1      14.362   1.857  16.817  1.00  0.00     0.126 C 
HETATM   18  C14 UNL     1      16.266   0.585  16.326  1.00  0.00     0.126 C 
HETATM   19  C12 UNL     1      14.838   1.210  18.099  1.00  0.00     0.021 C 
HETATM   20  C13 UNL     1      15.638   0.041  17.574  1.00  0.00     0.021 C 
ENDBRANCH   1  14
TORSDOF 5
ENDMDL
