MODEL 1
REMARK VINA RESULT: -6.313601401      0.000      0.000
REMARK  5 active torsions:
REMARK  status: ('A' for Active; 'I' for Inactive)
REMARK    1  A    between atoms: C2_2  and  C3_3 
REMARK    2  A    between atoms: N1_7  and  C7_8 
REMARK    3  A    between atoms: C10_14  and  C11_15 
REMARK       I    between atoms: C11_15  and  N3_17 
REMARK    4  A    between atoms: N3_17  and  C12_19 
REMARK    5  A    between atoms: C12_19  and  C13_20 
ROOT
HETATM    1  C7  UNL     1      16.879   2.091  13.012  1.00  0.00     0.264 C 
HETATM    2  C8  UNL     1      16.451   1.769  11.595  1.00  0.00     0.269 C 
HETATM    3  N2  UNL     1      16.147   0.358  11.670  1.00  0.00    -0.072 N 
ATOM      4  H21 UNL     1      15.891  -0.084  10.787  1.00  0.00     0.277 HD
ATOM      5  H22 UNL     1      15.274   0.120  12.142  1.00  0.00     0.277 HD
HETATM    6  C9  UNL     1      17.372  -0.152  12.304  1.00  0.00     0.248 C 
HETATM    7  C10 UNL     1      17.574   0.852  13.447  1.00  0.00     0.138 C 
ENDROOT
BRANCH   7   8
HETATM    8  C11 UNL     1      16.982   0.233  14.650  1.00  0.00     0.225 C 
HETATM    9  O1  UNL     1      16.482  -0.900  14.618  1.00  0.00    -0.273 OA
HETATM   10  N3  UNL     1      17.006   0.996  15.869  1.00  0.00    -0.360 N 
ATOM     11  H3  UNL     1      17.422   1.927  15.872  1.00  0.00     0.162 HD
BRANCH  10  12
HETATM   12  C12 UNL     1      16.448   0.463  17.089  1.00  0.00     0.127 C 
BRANCH  12  13
HETATM   13  C13 UNL     1      15.226   1.125  17.582  1.00  0.00     0.003 A 
HETATM   14  C14 UNL     1      13.877   0.804  17.056  1.00  0.00     0.007 A 
HETATM   15  C15 UNL     1      14.485   2.147  16.819  1.00  0.00     0.007 A 
ENDBRANCH  12  13
ENDBRANCH  10  12
ENDBRANCH   7   8
BRANCH   1  16
HETATM   16  N1  UNL     1      17.726   3.254  12.966  1.00  0.00     0.103 N 
HETATM   17  C3  UNL     1      18.225   3.638  14.266  1.00  0.00     0.245 C 
HETATM   18  C4  UNL     1      17.055   4.260  15.012  1.00  0.00     0.041 C 
HETATM   19  C5  UNL     1      16.111   4.654  13.908  1.00  0.00     0.033 C 
HETATM   20  C6  UNL     1      16.899   4.398  12.631  1.00  0.00     0.274 C 
BRANCH  17  21
HETATM   21  C2  UNL     1      19.234   4.711  14.055  1.00  0.00    -0.002 C 
HETATM   22  C1  UNL     1      20.281   4.488  13.265  1.00  0.00     0.009 C 
ENDBRANCH  17  21
ENDBRANCH   1  16
TORSDOF 5
ENDMDL
MODEL 2
REMARK VINA RESULT: -5.954063193      2.042      3.524
REMARK  5 active torsions:
REMARK  status: ('A' for Active; 'I' for Inactive)
REMARK    1  A    between atoms: C2_2  and  C3_3 
REMARK    2  A    between atoms: N1_7  and  C7_8 
REMARK    3  A    between atoms: C10_14  and  C11_15 
REMARK       I    between atoms: C11_15  and  N3_17 
REMARK    4  A    between atoms: N3_17  and  C12_19 
REMARK    5  A    between atoms: C12_19  and  C13_20 
ROOT
HETATM    1  C7  UNL     1      17.945   4.630  13.900  1.00  0.00     0.264 C 
HETATM    2  C8  UNL     1      17.471   5.970  14.422  1.00  0.00     0.269 C 
HETATM    3  N2  UNL     1      16.666   5.599  15.563  1.00  0.00    -0.072 N 
ATOM      4  H21 UNL     1      16.191   6.367  16.036  1.00  0.00     0.277 HD
ATOM      5  H22 UNL     1      17.184   5.297  16.388  1.00  0.00     0.277 HD
HETATM    6  C9  UNL     1      15.788   4.585  14.959  1.00  0.00     0.248 C 
HETATM    7  C10 UNL     1      16.790   3.733  14.168  1.00  0.00     0.138 C 
ENDROOT
BRANCH   7   8
HETATM    8  C11 UNL     1      17.123   2.581  15.030  1.00  0.00     0.225 C 
HETATM    9  O1  UNL     1      18.174   2.544  15.687  1.00  0.00    -0.273 OA
HETATM   10  N3  UNL     1      16.181   1.495  15.080  1.00  0.00    -0.360 N 
ATOM     11  H3  UNL     1      15.324   1.548  14.531  1.00  0.00     0.162 HD
BRANCH  10  12
HETATM   12  C12 UNL     1      16.432   0.333  15.898  1.00  0.00     0.127 C 
BRANCH  12  13
HETATM   13  C13 UNL     1      15.572   0.184  17.087  1.00  0.00     0.003 A 
HETATM   14  C14 UNL     1      14.152   0.613  17.105  1.00  0.00     0.007 A 
HETATM   15  C15 UNL     1      15.167   1.311  17.949  1.00  0.00     0.007 A 
ENDBRANCH  12  13
ENDBRANCH  10  12
ENDBRANCH   7   8
BRANCH   1  16
HETATM   16  N1  UNL     1      18.256   4.783  12.503  1.00  0.00     0.103 N 
HETATM   17  C3  UNL     1      18.752   3.566  11.901  1.00  0.00     0.245 C 
HETATM   18  C4  UNL     1      20.172   3.378  12.414  1.00  0.00     0.041 C 
HETATM   19  C5  UNL     1      20.565   4.760  12.861  1.00  0.00     0.033 C 
HETATM   20  C6  UNL     1      19.417   5.646  12.395  1.00  0.00     0.274 C 
BRANCH  17  21
HETATM   21  C2  UNL     1      18.840   3.802  10.435  1.00  0.00    -0.002 C 
HETATM   22  C1  UNL     1      17.729   3.986   9.726  1.00  0.00     0.009 C 
ENDBRANCH  17  21
ENDBRANCH   1  16
TORSDOF 5
ENDMDL
MODEL 3
REMARK VINA RESULT: -5.937804290      1.623      1.975
REMARK  5 active torsions:
REMARK  status: ('A' for Active; 'I' for Inactive)
REMARK    1  A    between atoms: C2_2  and  C3_3 
REMARK    2  A    between atoms: N1_7  and  C7_8 
REMARK    3  A    between atoms: C10_14  and  C11_15 
REMARK       I    between atoms: C11_15  and  N3_17 
REMARK    4  A    between atoms: N3_17  and  C12_19 
REMARK    5  A    between atoms: C12_19  and  C13_20 
ROOT
HETATM    1  C7  UNL     1      17.099   3.355  12.590  1.00  0.00     0.264 C 
HETATM    2  C8  UNL     1      17.034   2.457  11.372  1.00  0.00     0.269 C 
HETATM    3  N2  UNL     1      16.234   1.347  11.839  1.00  0.00    -0.072 N 
ATOM      4  H21 UNL     1      16.115   0.580  11.177  1.00  0.00     0.277 HD
ATOM      5  H22 UNL     1      15.235   1.534  11.934  1.00  0.00     0.277 HD
HETATM    6  C9  UNL     1      16.939   1.008  13.085  1.00  0.00     0.248 C 
HETATM    7  C10 UNL     1      17.133   2.391  13.721  1.00  0.00     0.138 C 
ENDROOT
BRANCH   7   8
HETATM    8  C11 UNL     1      16.024   2.565  14.680  1.00  0.00     0.225 C 
HETATM    9  O1  UNL     1      14.893   2.910  14.309  1.00  0.00    -0.273 OA
HETATM   10  N3  UNL     1      16.303   2.320  16.070  1.00  0.00    -0.360 N 
ATOM     11  H3  UNL     1      17.241   2.038  16.352  1.00  0.00     0.162 HD
BRANCH  10  12
HETATM   12  C12 UNL     1      15.273   2.467  17.070  1.00  0.00     0.127 C 
BRANCH  12  13
HETATM   13  C13 UNL     1      14.868   1.231  17.765  1.00  0.00     0.003 A 
HETATM   14  C14 UNL     1      15.329  -0.113  17.338  1.00  0.00     0.007 A 
HETATM   15  C15 UNL     1      13.891   0.270  17.221  1.00  0.00     0.007 A 
ENDBRANCH  12  13
ENDBRANCH  10  12
ENDBRANCH   7   8
BRANCH   1  16
HETATM   16  N1  UNL     1      18.280   4.170  12.477  1.00  0.00     0.103 N 
HETATM   17  C3  UNL     1      18.484   5.025  13.624  1.00  0.00     0.245 C 
HETATM   18  C4  UNL     1      17.450   6.136  13.525  1.00  0.00     0.041 C 
HETATM   19  C5  UNL     1      17.072   6.127  12.068  1.00  0.00     0.033 C 
HETATM   20  C6  UNL     1      18.050   5.149  11.432  1.00  0.00     0.274 C 
BRANCH  17  21
HETATM   21  C2  UNL     1      19.824   5.653  13.475  1.00  0.00    -0.002 C 
HETATM   22  C1  UNL     1      20.066   6.835  14.036  1.00  0.00     0.009 C 
ENDBRANCH  17  21
ENDBRANCH   1  16
TORSDOF 5
ENDMDL
MODEL 4
REMARK VINA RESULT: -5.933527470      2.184      3.607
REMARK  5 active torsions:
REMARK  status: ('A' for Active; 'I' for Inactive)
REMARK    1  A    between atoms: C2_2  and  C3_3 
REMARK    2  A    between atoms: N1_7  and  C7_8 
REMARK    3  A    between atoms: C10_14  and  C11_15 
REMARK       I    between atoms: C11_15  and  N3_17 
REMARK    4  A    between atoms: N3_17  and  C12_19 
REMARK    5  A    between atoms: C12_19  and  C13_20 
ROOT
HETATM    1  C7  UNL     1      18.363   4.323  12.777  1.00  0.00     0.264 C 
HETATM    2  C8  UNL     1      19.876   4.282  12.752  1.00  0.00     0.269 C 
HETATM    3  N2  UNL     1      20.184   3.327  13.792  1.00  0.00    -0.072 N 
ATOM      4  H21 UNL     1      21.176   3.192  13.988  1.00  0.00     0.277 HD
ATOM      5  H22 UNL     1      20.009   2.349  13.559  1.00  0.00     0.277 HD
HETATM    6  C9  UNL     1      19.386   3.867  14.903  1.00  0.00     0.248 C 
HETATM    7  C10 UNL     1      18.042   4.145  14.217  1.00  0.00     0.138 C 
ENDROOT
BRANCH   7   8
HETATM    8  C11 UNL     1      17.187   2.972  14.492  1.00  0.00     0.225 C 
HETATM    9  O1  UNL     1      16.251   2.661  13.741  1.00  0.00    -0.273 OA
HETATM   10  N3  UNL     1      17.479   2.199  15.669  1.00  0.00    -0.360 N 
ATOM     11  H3  UNL     1      18.253   2.475  16.273  1.00  0.00     0.162 HD
BRANCH  10  12
HETATM   12  C12 UNL     1      16.691   1.039  16.009  1.00  0.00     0.127 C 
BRANCH  12  13
HETATM   13  C13 UNL     1      15.742   1.207  17.126  1.00  0.00     0.003 A 
HETATM   14  C14 UNL     1      14.376   0.631  17.106  1.00  0.00     0.007 A 
HETATM   15  C15 UNL     1      14.577   2.110  17.079  1.00  0.00     0.007 A 
ENDBRANCH  12  13
ENDBRANCH  10  12
ENDBRANCH   7   8
BRANCH   1  16
HETATM   16  N1  UNL     1      17.945   5.590  12.236  1.00  0.00     0.103 N 
HETATM   17  C3  UNL     1      16.563   5.591  11.812  1.00  0.00     0.245 C 
HETATM   18  C4  UNL     1      16.504   4.782  10.526  1.00  0.00     0.041 C 
HETATM   19  C5  UNL     1      17.926   4.811  10.033  1.00  0.00     0.033 C 
HETATM   20  C6  UNL     1      18.629   5.783  10.971  1.00  0.00     0.274 C 
BRANCH  17  21
HETATM   21  C2  UNL     1      16.207   6.994  11.468  1.00  0.00    -0.002 C 
HETATM   22  C1  UNL     1      14.948   7.303  11.169  1.00  0.00     0.009 C 
ENDBRANCH  17  21
ENDBRANCH   1  16
TORSDOF 5
ENDMDL
MODEL 5
REMARK VINA RESULT: -5.877094728      1.385      1.527
REMARK  5 active torsions:
REMARK  status: ('A' for Active; 'I' for Inactive)
REMARK    1  A    between atoms: C2_2  and  C3_3 
REMARK    2  A    between atoms: N1_7  and  C7_8 
REMARK    3  A    between atoms: C10_14  and  C11_15 
REMARK       I    between atoms: C11_15  and  N3_17 
REMARK    4  A    between atoms: N3_17  and  C12_19 
REMARK    5  A    between atoms: C12_19  and  C13_20 
ROOT
HETATM    1  C7  UNL     1      17.010   3.019  12.227  1.00  0.00     0.264 C 
HETATM    2  C8  UNL     1      16.823   2.446  10.838  1.00  0.00     0.269 C 
HETATM    3  N2  UNL     1      16.214   1.163  11.103  1.00  0.00    -0.072 N 
ATOM      4  H21 UNL     1      16.055   0.574  10.286  1.00  0.00     0.277 HD
ATOM      5  H22 UNL     1      15.233   1.191  11.381  1.00  0.00     0.277 HD
HETATM    6  C9  UNL     1      17.143   0.622  12.106  1.00  0.00     0.248 C 
HETATM    7  C10 UNL     1      17.318   1.820  13.050  1.00  0.00     0.138 C 
ENDROOT
BRANCH   7   8
HETATM    8  C11 UNL     1      16.373   1.609  14.165  1.00  0.00     0.225 C 
HETATM    9  O1  UNL     1      15.299   2.225  14.230  1.00  0.00    -0.273 OA
HETATM   10  N3  UNL     1      16.744   0.660  15.179  1.00  0.00    -0.360 N 
ATOM     11  H3  UNL     1      17.633   0.166  15.105  1.00  0.00     0.162 HD
BRANCH  10  12
HETATM   12  C12 UNL     1      15.876   0.396  16.302  1.00  0.00     0.127 C 
BRANCH  12  13
HETATM   13  C13 UNL     1      15.793   1.462  17.317  1.00  0.00     0.003 A 
HETATM   14  C14 UNL     1      15.017   1.311  18.572  1.00  0.00     0.007 A 
HETATM   15  C15 UNL     1      14.595   2.295  17.532  1.00  0.00     0.007 A 
ENDBRANCH  12  13
ENDBRANCH  10  12
ENDBRANCH   7   8
BRANCH   1  16
HETATM   16  N1  UNL     1      18.080   3.981  12.170  1.00  0.00     0.103 N 
HETATM   17  C3  UNL     1      18.364   4.581  13.454  1.00  0.00     0.245 C 
HETATM   18  C4  UNL     1      17.225   5.548  13.741  1.00  0.00     0.041 C 
HETATM   19  C5  UNL     1      16.644   5.812  12.378  1.00  0.00     0.033 C 
HETATM   20  C6  UNL     1      17.609   5.129  11.419  1.00  0.00     0.274 C 
BRANCH  17  21
HETATM   21  C2  UNL     1      19.602   5.391  13.299  1.00  0.00    -0.002 C 
HETATM   22  C1  UNL     1      19.813   6.436  14.095  1.00  0.00     0.009 C 
ENDBRANCH  17  21
ENDBRANCH   1  16
TORSDOF 5
ENDMDL
