MODEL 1
REMARK VINA RESULT: -6.310699371      0.000      0.000
REMARK  6 active torsions:
REMARK  status: ('A' for Active; 'I' for Inactive)
REMARK    1  A    between atoms: N1_1  and  C1_5 
REMARK    2  A    between atoms: N2_7  and  C3_8 
REMARK    3  A    between atoms: C3_8  and  C4_9 
REMARK    4  A    between atoms: C4_9  and  C5_10 
REMARK    5  A    between atoms: C5_10  and  N3_11 
REMARK    6  A    between atoms: C11_18  and  C12_19 
ROOT
HETATM    1  C1  UNL     1      17.077   5.778  13.283  1.00  0.00     0.226 C 
HETATM    2  C2  UNL     1      16.423   4.806  14.237  1.00  0.00     0.096 C 
HETATM    3  N2  UNL     1      17.202   3.772  14.690  1.00  0.00    -0.372 N 
HETATM    4  C9  UNL     1      18.599   3.969  14.881  1.00  0.00     0.127 C 
HETATM    5  C10 UNL     1      19.240   4.787  13.799  1.00  0.00     0.027 C 
HETATM    6  C11 UNL     1      18.513   6.075  13.621  1.00  0.00     0.027 C 
ENDROOT
BRANCH   3   7
HETATM    7  C3  UNL     1      16.744   2.458  14.843  1.00  0.00     0.064 C 
BRANCH   7   8
HETATM    8  C4  UNL     1      17.232   1.728  16.075  1.00  0.00     0.061 C 
BRANCH   8   9
HETATM    9  C5  UNL     1      16.578   0.343  15.997  1.00  0.00     0.126 C 
BRANCH   9  10
HETATM   10  N3  UNL     1      15.932  -0.035  17.204  1.00  0.00    -0.197 NA
HETATM   11  C6  UNL     1      15.711   1.044  18.136  1.00  0.00     0.123 C 
HETATM   12  C7  UNL     1      14.354   1.566  17.716  1.00  0.00     0.045 C 
HETATM   13  C8  UNL     1      13.822   0.443  16.858  1.00  0.00     0.195 C 
HETATM   14  O1  UNL     1      14.755  -0.601  16.978  1.00  0.00    -0.303 OA
ENDBRANCH   9  10
ENDBRANCH   8   9
ENDBRANCH   7   8
ENDBRANCH   3   7
BRANCH   1  15
HETATM   15  N1  UNL     1      16.952   5.280  11.926  1.00  0.00    -0.070 N 
ATOM     16  H13 UNL     1      16.175   4.627  11.825  1.00  0.00     0.275 HD
ATOM     17  H12 UNL     1      16.625   5.998  11.281  1.00  0.00     0.275 HD
ATOM     18  H11 UNL     1      17.840   4.871  11.632  1.00  0.00     0.275 HD
ENDBRANCH   1  15
BRANCH   6  19
HETATM   19  C12 UNL     1      18.629   7.021  14.764  1.00  0.00    -0.008 A 
HETATM   20  C13 UNL     1      19.895   7.522  15.310  1.00  0.00     0.005 A 
HETATM   21  C14 UNL     1      19.175   8.419  14.364  1.00  0.00     0.005 A 
ENDBRANCH   6  19
TORSDOF 6
ENDMDL
MODEL 2
REMARK VINA RESULT: -6.298772825      1.791      2.590
REMARK  6 active torsions:
REMARK  status: ('A' for Active; 'I' for Inactive)
REMARK    1  A    between atoms: N1_1  and  C1_5 
REMARK    2  A    between atoms: N2_7  and  C3_8 
REMARK    3  A    between atoms: C3_8  and  C4_9 
REMARK    4  A    between atoms: C4_9  and  C5_10 
REMARK    5  A    between atoms: C5_10  and  N3_11 
REMARK    6  A    between atoms: C11_18  and  C12_19 
ROOT
HETATM    1  C1  UNL     1      19.978   4.158  14.057  1.00  0.00     0.226 C 
HETATM    2  C2  UNL     1      19.430   3.400  12.872  1.00  0.00     0.096 C 
HETATM    3  N2  UNL     1      18.067   3.407  12.716  1.00  0.00    -0.372 N 
HETATM    4  C9  UNL     1      17.315   4.549  13.113  1.00  0.00     0.127 C 
HETATM    5  C10 UNL     1      17.785   5.156  14.402  1.00  0.00     0.027 C 
HETATM    6  C11 UNL     1      19.245   5.442  14.340  1.00  0.00     0.027 C 
ENDROOT
BRANCH   3   7
HETATM    7  C3  UNL     1      17.320   2.290  12.323  1.00  0.00     0.064 C 
BRANCH   7   8
HETATM    8  C4  UNL     1      16.265   1.824  13.302  1.00  0.00     0.061 C 
BRANCH   8   9
HETATM    9  C5  UNL     1      16.946   0.718  14.118  1.00  0.00     0.126 C 
BRANCH   9  10
HETATM   10  N3  UNL     1      17.353   1.150  15.407  1.00  0.00    -0.197 NA
HETATM   11  C6  UNL     1      16.493   2.135  16.017  1.00  0.00     0.123 C 
HETATM   12  C7  UNL     1      15.488   1.278  16.756  1.00  0.00     0.045 C 
HETATM   13  C8  UNL     1      16.168  -0.071  16.787  1.00  0.00     0.195 C 
HETATM   14  O1  UNL     1      17.452   0.140  16.260  1.00  0.00    -0.303 OA
ENDBRANCH   9  10
ENDBRANCH   8   9
ENDBRANCH   7   8
ENDBRANCH   3   7
BRANCH   1  15
HETATM   15  N1  UNL     1      19.985   3.293  15.222  1.00  0.00    -0.070 N 
ATOM     16  H13 UNL     1      19.675   2.347  15.002  1.00  0.00     0.275 HD
ATOM     17  H12 UNL     1      20.931   3.069  15.530  1.00  0.00     0.275 HD
ATOM     18  H11 UNL     1      19.428   3.718  15.963  1.00  0.00     0.275 HD
ENDBRANCH   1  15
BRANCH   6  19
HETATM   19  C12 UNL     1      19.631   6.520  13.391  1.00  0.00    -0.008 A 
HETATM   20  C13 UNL     1      19.035   7.861  13.361  1.00  0.00     0.005 A 
HETATM   21  C14 UNL     1      20.338   7.726  14.070  1.00  0.00     0.005 A 
ENDBRANCH   6  19
TORSDOF 6
ENDMDL
MODEL 3
REMARK VINA RESULT: -6.272077275      2.942      6.654
REMARK  6 active torsions:
REMARK  status: ('A' for Active; 'I' for Inactive)
REMARK    1  A    between atoms: N1_1  and  C1_5 
REMARK    2  A    between atoms: N2_7  and  C3_8 
REMARK    3  A    between atoms: C3_8  and  C4_9 
REMARK    4  A    between atoms: C4_9  and  C5_10 
REMARK    5  A    between atoms: C5_10  and  N3_11 
REMARK    6  A    between atoms: C11_18  and  C12_19 
ROOT
HETATM    1  C1  UNL     1      17.154   1.869  14.945  1.00  0.00     0.226 C 
HETATM    2  C2  UNL     1      17.710   3.271  15.031  1.00  0.00     0.096 C 
HETATM    3  N2  UNL     1      16.812   4.297  14.882  1.00  0.00    -0.372 N 
HETATM    4  C9  UNL     1      15.473   4.140  15.342  1.00  0.00     0.127 C 
HETATM    5  C10 UNL     1      14.901   2.782  15.061  1.00  0.00     0.027 C 
HETATM    6  C11 UNL     1      15.802   1.719  15.587  1.00  0.00     0.027 C 
ENDROOT
BRANCH   3   7
HETATM    7  C3  UNL     1      17.075   5.466  14.158  1.00  0.00     0.064 C 
BRANCH   7   8
HETATM    8  C4  UNL     1      17.336   5.282  12.679  1.00  0.00     0.061 C 
BRANCH   8   9
HETATM    9  C5  UNL     1      16.494   6.365  11.993  1.00  0.00     0.126 C 
BRANCH   9  10
HETATM   10  N3  UNL     1      15.185   5.924  11.663  1.00  0.00    -0.197 NA
HETATM   11  C6  UNL     1      14.190   6.968  11.609  1.00  0.00     0.123 C 
HETATM   12  C7  UNL     1      14.268   7.420  10.168  1.00  0.00     0.045 C 
HETATM   13  C8  UNL     1      15.019   6.287   9.509  1.00  0.00     0.195 C 
HETATM   14  O1  UNL     1      15.153   5.297  10.496  1.00  0.00    -0.303 OA
ENDBRANCH   9  10
ENDBRANCH   8   9
ENDBRANCH   7   8
ENDBRANCH   3   7
BRANCH   1  15
HETATM   15  N1  UNL     1      17.123   1.447  13.557  1.00  0.00    -0.070 N 
ATOM     16  H13 UNL     1      17.498   2.158  12.929  1.00  0.00     0.275 HD
ATOM     17  H12 UNL     1      17.801   0.710  13.364  1.00  0.00     0.275 HD
ATOM     18  H11 UNL     1      16.173   1.174  13.307  1.00  0.00     0.275 HD
ENDBRANCH   1  15
BRANCH   6  19
HETATM   19  C12 UNL     1      15.897   1.658  17.070  1.00  0.00    -0.008 A 
HETATM   20  C13 UNL     1      14.747   1.609  17.981  1.00  0.00     0.005 A 
HETATM   21  C14 UNL     1      15.410   0.310  17.672  1.00  0.00     0.005 A 
ENDBRANCH   6  19
TORSDOF 6
ENDMDL
MODEL 4
REMARK VINA RESULT: -6.262522016      1.436      2.079
REMARK  6 active torsions:
REMARK  status: ('A' for Active; 'I' for Inactive)
REMARK    1  A    between atoms: N1_1  and  C1_5 
REMARK    2  A    between atoms: N2_7  and  C3_8 
REMARK    3  A    between atoms: C3_8  and  C4_9 
REMARK    4  A    between atoms: C4_9  and  C5_10 
REMARK    5  A    between atoms: C5_10  and  N3_11 
REMARK    6  A    between atoms: C11_18  and  C12_19 
ROOT
HETATM    1  C1  UNL     1      19.261   4.002  13.258  1.00  0.00     0.226 C 
HETATM    2  C2  UNL     1      18.115   3.020  13.211  1.00  0.00     0.096 C 
HETATM    3  N2  UNL     1      17.034   3.298  14.009  1.00  0.00    -0.372 N 
HETATM    4  C9  UNL     1      16.669   4.652  14.260  1.00  0.00     0.127 C 
HETATM    5  C10 UNL     1      17.845   5.554  14.489  1.00  0.00     0.027 C 
HETATM    6  C11 UNL     1      18.818   5.436  13.367  1.00  0.00     0.027 C 
ENDROOT
BRANCH   3   7
HETATM    7  C3  UNL     1      16.330   2.331  14.735  1.00  0.00     0.064 C 
BRANCH   7   8
HETATM    8  C4  UNL     1      17.055   1.742  15.926  1.00  0.00     0.061 C 
BRANCH   8   9
HETATM    9  C5  UNL     1      16.534   0.304  16.033  1.00  0.00     0.126 C 
BRANCH   9  10
HETATM   10  N3  UNL     1      15.979   0.007  17.306  1.00  0.00    -0.197 NA
HETATM   11  C6  UNL     1      15.717   1.158  18.136  1.00  0.00     0.123 C 
HETATM   12  C7  UNL     1      14.304   1.529  17.743  1.00  0.00     0.045 C 
HETATM   13  C8  UNL     1      13.823   0.284  17.034  1.00  0.00     0.195 C 
HETATM   14  O1  UNL     1      14.842  -0.667  17.206  1.00  0.00    -0.303 OA
ENDBRANCH   9  10
ENDBRANCH   8   9
ENDBRANCH   7   8
ENDBRANCH   3   7
BRANCH   1  15
HETATM   15  N1  UNL     1      20.154   3.649  14.345  1.00  0.00    -0.070 N 
ATOM     16  H13 UNL     1      19.694   3.696  15.254  1.00  0.00     0.275 HD
ATOM     17  H12 UNL     1      20.382   2.655  14.349  1.00  0.00     0.275 HD
ATOM     18  H11 UNL     1      20.987   4.236  14.304  1.00  0.00     0.275 HD
ENDBRANCH   1  15
BRANCH   6  19
HETATM   19  C12 UNL     1      18.335   5.966  12.063  1.00  0.00    -0.008 A 
HETATM   20  C13 UNL     1      17.742   7.294  11.868  1.00  0.00     0.005 A 
HETATM   21  C14 UNL     1      19.182   7.149  11.517  1.00  0.00     0.005 A 
ENDBRANCH   6  19
TORSDOF 6
ENDMDL
MODEL 5
REMARK VINA RESULT: -6.212130769      1.554      2.304
REMARK  6 active torsions:
REMARK  status: ('A' for Active; 'I' for Inactive)
REMARK    1  A    between atoms: N1_1  and  C1_5 
REMARK    2  A    between atoms: N2_7  and  C3_8 
REMARK    3  A    between atoms: C3_8  and  C4_9 
REMARK    4  A    between atoms: C4_9  and  C5_10 
REMARK    5  A    between atoms: C5_10  and  N3_11 
REMARK    6  A    between atoms: C11_18  and  C12_19 
ROOT
HETATM    1  C1  UNL     1      19.854   4.115  13.793  1.00  0.00     0.226 C 
HETATM    2  C2  UNL     1      18.978   3.277  12.893  1.00  0.00     0.096 C 
HETATM    3  N2  UNL     1      17.625   3.352  13.111  1.00  0.00    -0.372 N 
HETATM    4  C9  UNL     1      17.047   4.572  13.564  1.00  0.00     0.127 C 
HETATM    5  C10 UNL     1      17.872   5.274  14.602  1.00  0.00     0.027 C 
HETATM    6  C11 UNL     1      19.268   5.463  14.116  1.00  0.00     0.027 C 
ENDROOT
BRANCH   3   7
HETATM    7  C3  UNL     1      16.764   2.249  13.063  1.00  0.00     0.064 C 
BRANCH   7   8
HETATM    8  C4  UNL     1      15.778   2.131  14.204  1.00  0.00     0.061 C 
BRANCH   8   9
HETATM    9  C5  UNL     1      16.469   1.223  15.229  1.00  0.00     0.126 C 
BRANCH   9  10
HETATM   10  N3  UNL     1      16.179   1.580  16.572  1.00  0.00    -0.197 NA
HETATM   11  C6  UNL     1      14.811   1.970  16.814  1.00  0.00     0.123 C 
HETATM   12  C7  UNL     1      14.149   0.651  17.150  1.00  0.00     0.045 C 
HETATM   13  C8  UNL     1      15.331  -0.242  17.445  1.00  0.00     0.195 C 
HETATM   14  O1  UNL     1      16.457   0.597  17.417  1.00  0.00    -0.303 OA
ENDBRANCH   9  10
ENDBRANCH   8   9
ENDBRANCH   7   8
ENDBRANCH   3   7
BRANCH   1  15
HETATM   15  N1  UNL     1      20.154   3.372  15.002  1.00  0.00    -0.070 N 
ATOM     16  H13 UNL     1      20.256   3.981  15.814  1.00  0.00     0.275 HD
ATOM     17  H12 UNL     1      19.355   2.828  15.328  1.00  0.00     0.275 HD
ATOM     18  H11 UNL     1      20.979   2.792  14.849  1.00  0.00     0.275 HD
ENDBRANCH   1  15
BRANCH   6  19
HETATM   19  C12 UNL     1      19.412   6.416  12.983  1.00  0.00    -0.008 A 
HETATM   20  C13 UNL     1      18.876   7.781  12.965  1.00  0.00     0.005 A 
HETATM   21  C14 UNL     1      20.319   7.635  13.304  1.00  0.00     0.005 A 
ENDBRANCH   6  19
TORSDOF 6
ENDMDL
