MODEL 1
REMARK VINA RESULT: -6.233559873      0.000      0.000
REMARK  5 active torsions:
REMARK  status: ('A' for Active; 'I' for Inactive)
REMARK    1  A    between atoms: C1_2  and  C2_3 
REMARK       I    between atoms: C1_2  and  N2_10 
REMARK    2  A    between atoms: C2_3  and  N1_4 
REMARK    3  A    between atoms: N1_4  and  C3_7 
REMARK    4  A    between atoms: N2_10  and  C6_12 
REMARK    5  A    between atoms: N3_15  and  C9_16 
ROOT
HETATM    1  O1  UNL     1      16.061   1.892  13.320  1.00  0.00    -0.272 OA
HETATM    2  C1  UNL     1      16.725   1.839  14.382  1.00  0.00     0.243 C 
HETATM    3  N2  UNL     1      17.692   2.814  14.711  1.00  0.00    -0.355 N 
ATOM      4  H2  UNL     1      18.198   2.714  15.591  1.00  0.00     0.162 HD
ENDROOT
BRANCH   3   5
HETATM    5  C6  UNL     1      18.001   3.943  13.871  1.00  0.00     0.087 C 
HETATM    6  C7  UNL     1      19.478   4.240  13.770  1.00  0.00     0.055 C 
HETATM    7  C8  UNL     1      19.825   5.655  14.110  1.00  0.00     0.275 C 
HETATM    8  N3  UNL     1      19.067   6.653  13.403  1.00  0.00     0.093 N 
HETATM    9  C13 UNL     1      17.658   6.265  13.280  1.00  0.00     0.275 C 
HETATM   10  C14 UNL     1      17.322   5.213  14.343  1.00  0.00     0.055 C 
BRANCH   8  11
HETATM   11  C9  UNL     1      19.068   7.863  14.204  1.00  0.00     0.223 C 
HETATM   12  C10 UNL     1      19.855   7.801  15.492  1.00  0.00     0.036 C 
HETATM   13  C11 UNL     1      20.327   9.227  15.183  1.00  0.00     0.004 C 
HETATM   14  C12 UNL     1      20.090   8.901  13.723  1.00  0.00     0.036 C 
ENDBRANCH   8  11
ENDBRANCH   3   5
BRANCH   2  15
HETATM   15  C2  UNL     1      16.443   0.679  15.297  1.00  0.00     0.335 C 
BRANCH  15  16
HETATM   16  N1  UNL     1      16.666   1.034  16.656  1.00  0.00    -0.063 N 
ATOM     17  H12 UNL     1      17.594   0.749  16.974  1.00  0.00     0.278 HD
ATOM     18  H11 UNL     1      16.767   2.042  16.772  1.00  0.00     0.278 HD
BRANCH  16  19
HETATM   19  C3  UNL     1      15.630   0.503  17.500  1.00  0.00     0.186 A 
HETATM   20  C4  UNL     1      14.862   1.485  18.330  1.00  0.00     0.035 A 
HETATM   21  C5  UNL     1      14.225   0.780  17.106  1.00  0.00     0.035 A 
ENDBRANCH  16  19
ENDBRANCH  15  16
ENDBRANCH   2  15
TORSDOF 5
ENDMDL
MODEL 2
REMARK VINA RESULT: -6.159329973      1.801      7.119
REMARK  5 active torsions:
REMARK  status: ('A' for Active; 'I' for Inactive)
REMARK    1  A    between atoms: C1_2  and  C2_3 
REMARK       I    between atoms: C1_2  and  N2_10 
REMARK    2  A    between atoms: C2_3  and  N1_4 
REMARK    3  A    between atoms: N1_4  and  C3_7 
REMARK    4  A    between atoms: N2_10  and  C6_12 
REMARK    5  A    between atoms: N3_15  and  C9_16 
ROOT
HETATM    1  O1  UNL     1      17.943   5.708  11.732  1.00  0.00    -0.272 OA
HETATM    2  C1  UNL     1      18.121   6.236  12.855  1.00  0.00     0.243 C 
HETATM    3  N2  UNL     1      17.534   5.715  14.029  1.00  0.00    -0.355 N 
ATOM      4  H2  UNL     1      17.718   6.191  14.913  1.00  0.00     0.162 HD
ENDROOT
BRANCH   3   5
HETATM    5  C6  UNL     1      16.690   4.548  14.047  1.00  0.00     0.087 C 
HETATM    6  C7  UNL     1      15.330   4.789  14.655  1.00  0.00     0.055 C 
HETATM    7  C8  UNL     1      14.992   3.834  15.756  1.00  0.00     0.275 C 
HETATM    8  N3  UNL     1      15.148   2.443  15.423  1.00  0.00     0.093 N 
HETATM    9  C13 UNL     1      16.354   2.219  14.618  1.00  0.00     0.275 C 
HETATM   10  C14 UNL     1      17.320   3.396  14.804  1.00  0.00     0.055 C 
BRANCH   8  11
HETATM   11  C9  UNL     1      15.365   1.711  16.657  1.00  0.00     0.223 C 
HETATM   12  C10 UNL     1      14.218   0.841  17.117  1.00  0.00     0.036 C 
HETATM   13  C11 UNL     1      15.269  -0.203  17.512  1.00  0.00     0.004 C 
HETATM   14  C12 UNL     1      16.161   0.417  16.456  1.00  0.00     0.036 C 
ENDBRANCH   8  11
ENDBRANCH   3   5
BRANCH   2  15
HETATM   15  C2  UNL     1      18.994   7.460  12.896  1.00  0.00     0.335 C 
BRANCH  15  16
HETATM   16  N1  UNL     1      20.251   7.172  13.496  1.00  0.00    -0.063 N 
ATOM     17  H12 UNL     1      20.277   6.230  13.884  1.00  0.00     0.278 HD
ATOM     18  H11 UNL     1      20.989   7.071  12.798  1.00  0.00     0.278 HD
BRANCH  16  19
HETATM   19  C3  UNL     1      20.585   8.164  14.482  1.00  0.00     0.186 A 
HETATM   20  C4  UNL     1      19.572   9.238  14.734  1.00  0.00     0.035 A 
HETATM   21  C5  UNL     1      19.845   8.118  15.769  1.00  0.00     0.035 A 
ENDBRANCH  16  19
ENDBRANCH  15  16
ENDBRANCH   2  15
TORSDOF 5
ENDMDL
MODEL 3
REMARK VINA RESULT: -5.821038483      2.087      3.211
REMARK  5 active torsions:
REMARK  status: ('A' for Active; 'I' for Inactive)
REMARK    1  A    between atoms: C1_2  and  C2_3 
REMARK       I    between atoms: C1_2  and  N2_10 
REMARK    2  A    between atoms: C2_3  and  N1_4 
REMARK    3  A    between atoms: N1_4  and  C3_7 
REMARK    4  A    between atoms: N2_10  and  C6_12 
REMARK    5  A    between atoms: N3_15  and  C9_16 
ROOT
HETATM    1  O1  UNL     1      16.004   3.047  14.994  1.00  0.00    -0.272 OA
HETATM    2  C1  UNL     1      17.104   2.529  15.295  1.00  0.00     0.243 C 
HETATM    3  N2  UNL     1      18.311   2.915  14.670  1.00  0.00    -0.355 N 
ATOM      4  H2  UNL     1      19.174   2.455  14.961  1.00  0.00     0.162 HD
ENDROOT
BRANCH   3   5
HETATM    5  C6  UNL     1      18.388   3.923  13.645  1.00  0.00     0.087 C 
HETATM    6  C7  UNL     1      18.090   5.319  14.139  1.00  0.00     0.055 C 
HETATM    7  C8  UNL     1      17.020   6.011  13.355  1.00  0.00     0.275 C 
HETATM    8  N3  UNL     1      17.219   6.020  11.930  1.00  0.00     0.093 N 
HETATM    9  C13 UNL     1      17.743   4.734  11.457  1.00  0.00     0.275 C 
HETATM   10  C14 UNL     1      17.442   3.645  12.494  1.00  0.00     0.055 C 
BRANCH   8  11
HETATM   11  C9  UNL     1      15.921   6.166  11.299  1.00  0.00     0.223 C 
HETATM   12  C10 UNL     1      14.750   6.351  12.236  1.00  0.00     0.036 C 
HETATM   13  C11 UNL     1      14.212   7.383  11.238  1.00  0.00     0.004 C 
HETATM   14  C12 UNL     1      15.650   7.593  10.807  1.00  0.00     0.036 C 
ENDBRANCH   8  11
ENDBRANCH   3   5
BRANCH   2  15
HETATM   15  C2  UNL     1      17.083   1.467  16.361  1.00  0.00     0.335 C 
BRANCH  15  16
HETATM   16  N1  UNL     1      16.161   0.434  16.035  1.00  0.00    -0.063 N 
ATOM     17  H12 UNL     1      15.606   0.669  15.212  1.00  0.00     0.278 HD
ATOM     18  H11 UNL     1      16.635  -0.393  15.670  1.00  0.00     0.278 HD
BRANCH  16  19
HETATM   19  C3  UNL     1      15.330   0.115  17.164  1.00  0.00     0.186 A 
HETATM   20  C4  UNL     1      14.995   1.238  18.098  1.00  0.00     0.035 A 
HETATM   21  C5  UNL     1      13.935   0.626  17.147  1.00  0.00     0.035 A 
ENDBRANCH  16  19
ENDBRANCH  15  16
ENDBRANCH   2  15
TORSDOF 5
ENDMDL
MODEL 4
REMARK VINA RESULT: -5.812751741      2.774      3.346
REMARK  5 active torsions:
REMARK  status: ('A' for Active; 'I' for Inactive)
REMARK    1  A    between atoms: C1_2  and  C2_3 
REMARK       I    between atoms: C1_2  and  N2_10 
REMARK    2  A    between atoms: C2_3  and  N1_4 
REMARK    3  A    between atoms: N1_4  and  C3_7 
REMARK    4  A    between atoms: N2_10  and  C6_12 
REMARK    5  A    between atoms: N3_15  and  C9_16 
ROOT
HETATM    1  O1  UNL     1      17.858   2.060  15.892  1.00  0.00    -0.272 OA
HETATM    2  C1  UNL     1      16.983   1.598  15.123  1.00  0.00     0.243 C 
HETATM    3  N2  UNL     1      16.541   2.302  13.981  1.00  0.00    -0.355 N 
ATOM      4  H2  UNL     1      15.826   1.871  13.395  1.00  0.00     0.162 HD
ENDROOT
BRANCH   3   5
HETATM    5  C6  UNL     1      17.046   3.596  13.599  1.00  0.00     0.087 C 
HETATM    6  C7  UNL     1      16.302   4.750  14.228  1.00  0.00     0.055 C 
HETATM    7  C8  UNL     1      15.802   5.748  13.232  1.00  0.00     0.275 C 
HETATM    8  N3  UNL     1      16.794   6.237  12.312  1.00  0.00     0.093 N 
HETATM    9  C13 UNL     1      17.688   5.162  11.869  1.00  0.00     0.275 C 
HETATM   10  C14 UNL     1      17.011   3.806  12.099  1.00  0.00     0.055 C 
BRANCH   8  11
HETATM   11  C9  UNL     1      16.107   6.689  11.116  1.00  0.00     0.223 C 
HETATM   12  C10 UNL     1      14.654   7.064  11.291  1.00  0.00     0.036 C 
HETATM   13  C11 UNL     1      14.922   8.240  10.345  1.00  0.00     0.004 C 
HETATM   14  C12 UNL     1      16.367   8.166  10.796  1.00  0.00     0.036 C 
ENDBRANCH   8  11
ENDBRANCH   3   5
BRANCH   2  15
HETATM   15  C2  UNL     1      16.418   0.248  15.474  1.00  0.00     0.335 C 
BRANCH  15  16
HETATM   16  N1  UNL     1      16.621  -0.049  16.850  1.00  0.00    -0.063 N 
ATOM     17  H12 UNL     1      17.125  -0.927  16.977  1.00  0.00     0.278 HD
ATOM     18  H11 UNL     1      17.301   0.581  17.276  1.00  0.00     0.278 HD
BRANCH  16  19
HETATM   19  C3  UNL     1      15.373  -0.044  17.564  1.00  0.00     0.186 A 
HETATM   20  C4  UNL     1      14.980   1.236  18.234  1.00  0.00     0.035 A 
HETATM   21  C5  UNL     1      14.251   0.725  16.966  1.00  0.00     0.035 A 
ENDBRANCH  16  19
ENDBRANCH  15  16
ENDBRANCH   2  15
TORSDOF 5
ENDMDL
MODEL 5
REMARK VINA RESULT: -5.795235697      1.707      2.286
REMARK  5 active torsions:
REMARK  status: ('A' for Active; 'I' for Inactive)
REMARK    1  A    between atoms: C1_2  and  C2_3 
REMARK       I    between atoms: C1_2  and  N2_10 
REMARK    2  A    between atoms: C2_3  and  N1_4 
REMARK    3  A    between atoms: N1_4  and  C3_7 
REMARK    4  A    between atoms: N2_10  and  C6_12 
REMARK    5  A    between atoms: N3_15  and  C9_16 
ROOT
HETATM    1  O1  UNL     1      18.170   1.411  16.470  1.00  0.00    -0.272 OA
HETATM    2  C1  UNL     1      17.275   1.438  15.593  1.00  0.00     0.243 C 
HETATM    3  N2  UNL     1      17.182   2.486  14.650  1.00  0.00    -0.355 N 
ATOM      4  H2  UNL     1      16.431   2.450  13.961  1.00  0.00     0.162 HD
ENDROOT
BRANCH   3   5
HETATM    5  C6  UNL     1      18.092   3.602  14.609  1.00  0.00     0.087 C 
HETATM    6  C7  UNL     1      17.459   4.917  14.997  1.00  0.00     0.055 C 
HETATM    7  C8  UNL     1      17.652   5.994  13.977  1.00  0.00     0.275 C 
HETATM    8  N3  UNL     1      19.013   6.201  13.560  1.00  0.00     0.093 N 
HETATM    9  C13 UNL     1      19.724   4.926  13.407  1.00  0.00     0.275 C 
HETATM   10  C14 UNL     1      18.707   3.791  13.237  1.00  0.00     0.055 C 
BRANCH   8  11
HETATM   11  C9  UNL     1      18.989   6.793  12.236  1.00  0.00     0.223 C 
HETATM   12  C10 UNL     1      17.619   7.026  11.643  1.00  0.00     0.036 C 
HETATM   13  C11 UNL     1      18.159   8.360  11.113  1.00  0.00     0.004 C 
HETATM   14  C12 UNL     1      19.151   8.318  12.257  1.00  0.00     0.036 C 
ENDBRANCH   8  11
ENDBRANCH   3   5
BRANCH   2  15
HETATM   15  C2  UNL     1      16.296   0.296  15.590  1.00  0.00     0.335 C 
BRANCH  15  16
HETATM   16  N1  UNL     1      16.319  -0.401  16.829  1.00  0.00    -0.063 N 
ATOM     17  H12 UNL     1      16.470  -1.401  16.697  1.00  0.00     0.278 HD
ATOM     18  H11 UNL     1      17.160  -0.189  17.366  1.00  0.00     0.278 HD
BRANCH  16  19
HETATM   19  C3  UNL     1      15.124  -0.139  17.585  1.00  0.00     0.186 A 
HETATM   20  C4  UNL     1      14.974   1.236  18.161  1.00  0.00     0.035 A 
HETATM   21  C5  UNL     1      14.111   0.754  16.967  1.00  0.00     0.035 A 
ENDBRANCH  16  19
ENDBRANCH  15  16
ENDBRANCH   2  15
TORSDOF 5
ENDMDL
