MODEL 1
REMARK VINA RESULT: -7.706034856      0.000      0.000
REMARK  7 active torsions:
REMARK  status: ('A' for Active; 'I' for Inactive)
REMARK    1  A    between atoms: N1_1  and  C1_5 
REMARK    2  A    between atoms: C1_5  and  C2_6 
REMARK    3  A    between atoms: C1_5  and  C10_21 
REMARK    4  A    between atoms: C2_6  and  C3_7 
REMARK    5  A    between atoms: C3_7  and  N2_8 
REMARK    6  A    between atoms: C5_10  and  C6_12 
REMARK    7  A    between atoms: C10_21  and  C11_22 
ROOT
HETATM    1  C1  UNL     1      17.659   4.618  13.709  1.00  0.00     0.189 C 
ENDROOT
BRANCH   1   2
HETATM    2  N1  UNL     1      18.892   3.939  13.727  1.00  0.00    -0.075 N 
ATOM      3  H13 UNL     1      19.161   3.570  12.814  1.00  0.00     0.274 HD
ATOM      4  H12 UNL     1      19.691   4.561  13.854  1.00  0.00     0.274 HD
ATOM      5  H11 UNL     1      18.824   3.220  14.447  1.00  0.00     0.274 HD
ENDBRANCH   1   2
BRANCH   1   6
HETATM    6  C2  UNL     1      17.829   5.828  12.773  1.00  0.00     0.053 C 
BRANCH   6   7
HETATM    7  C3  UNL     1      16.429   6.261  12.411  1.00  0.00     0.125 C 
BRANCH   7   8
HETATM    8  N2  UNL     1      16.125   6.248  11.023  1.00  0.00    -0.373 N 
HETATM    9  C4  UNL     1      16.709   5.438   9.957  1.00  0.00     0.185 C 
HETATM   10  C5  UNL     1      16.950   6.521   8.902  1.00  0.00     0.277 C 
HETATM   11  F1  UNL     1      18.014   7.297   9.262  1.00  0.00    -0.222 F 
HETATM   12  C7  UNL     1      15.636   7.268   8.960  1.00  0.00     0.334 C 
HETATM   13  F2  UNL     1      15.903   8.601   8.702  1.00  0.00    -0.195 F 
HETATM   14  F3  UNL     1      14.701   6.774   8.103  1.00  0.00    -0.195 F 
HETATM   15  C8  UNL     1      15.151   7.060  10.359  1.00  0.00     0.111 C 
HETATM   16  C9  UNL     1      14.035   7.539  10.869  1.00  0.00     0.219 C 
HETATM   17  F4  UNL     1      13.707   7.287  12.132  1.00  0.00    -0.217 F 
BRANCH  10  18
HETATM   18  C6  UNL     1      17.196   5.955   7.564  1.00  0.00     0.223 C 
HETATM   19  O1  UNL     1      17.167   4.711   7.405  1.00  0.00    -0.645 OA
HETATM   20  O2  UNL     1      17.460   6.729   6.460  1.00  0.00    -0.645 OA
ENDBRANCH  10  18
ENDBRANCH   7   8
ENDBRANCH   6   7
ENDBRANCH   1   6
BRANCH   1  21
HETATM   21  C10 UNL     1      16.424   3.830  13.416  1.00  0.00     0.077 C 
BRANCH  21  22
HETATM   22  C11 UNL     1      15.782   3.275  14.645  1.00  0.00     0.028 A 
HETATM   23  C12 UNL     1      15.989   1.982  15.043  1.00  0.00     0.167 A 
HETATM   24  F5  UNL     1      16.742   1.118  14.325  1.00  0.00    -0.202 F 
HETATM   25  C13 UNL     1      15.421   1.460  16.207  1.00  0.00     0.197 A 
HETATM   26  F6  UNL     1      15.639   0.193  16.571  1.00  0.00    -0.199 F 
HETATM   27  C14 UNL     1      14.622   2.287  16.977  1.00  0.00     0.199 A 
HETATM   28  F7  UNL     1      14.084   1.749  18.105  1.00  0.00    -0.199 F 
HETATM   29  C15 UNL     1      14.409   3.585  16.584  1.00  0.00     0.197 A 
HETATM   30  F8  UNL     1      13.625   4.382  17.351  1.00  0.00    -0.199 F 
HETATM   31  C16 UNL     1      14.976   4.076  15.442  1.00  0.00     0.167 A 
HETATM   32  F9  UNL     1      14.752   5.350  15.081  1.00  0.00    -0.202 F 
ENDBRANCH  21  22
ENDBRANCH   1  21
TORSDOF 7
ENDMDL
MODEL 2
REMARK VINA RESULT: -7.675287296      0.053      1.964
REMARK  7 active torsions:
REMARK  status: ('A' for Active; 'I' for Inactive)
REMARK    1  A    between atoms: N1_1  and  C1_5 
REMARK    2  A    between atoms: C1_5  and  C2_6 
REMARK    3  A    between atoms: C1_5  and  C10_21 
REMARK    4  A    between atoms: C2_6  and  C3_7 
REMARK    5  A    between atoms: C3_7  and  N2_8 
REMARK    6  A    between atoms: C5_10  and  C6_12 
REMARK    7  A    between atoms: C10_21  and  C11_22 
ROOT
HETATM    1  C1  UNL     1      17.684   4.627  13.675  1.00  0.00     0.189 C 
ENDROOT
BRANCH   1   2
HETATM    2  N1  UNL     1      18.921   3.954  13.636  1.00  0.00    -0.075 N 
ATOM      3  H13 UNL     1      19.676   4.474  14.084  1.00  0.00     0.274 HD
ATOM      4  H12 UNL     1      18.951   3.135  14.243  1.00  0.00     0.274 HD
ATOM      5  H11 UNL     1      19.108   3.736  12.657  1.00  0.00     0.274 HD
ENDBRANCH   1   2
BRANCH   1   6
HETATM    6  C2  UNL     1      17.816   5.856  12.757  1.00  0.00     0.053 C 
BRANCH   6   7
HETATM    7  C3  UNL     1      16.404   6.249  12.399  1.00  0.00     0.125 C 
BRANCH   7   8
HETATM    8  N2  UNL     1      16.100   6.245  11.011  1.00  0.00    -0.373 N 
HETATM    9  C4  UNL     1      16.681   5.439   9.941  1.00  0.00     0.185 C 
HETATM   10  C5  UNL     1      16.928   6.526   8.892  1.00  0.00     0.277 C 
HETATM   11  F1  UNL     1      17.995   7.296   9.257  1.00  0.00    -0.222 F 
HETATM   12  C7  UNL     1      15.618   7.279   8.953  1.00  0.00     0.334 C 
HETATM   13  F2  UNL     1      15.890   8.612   8.704  1.00  0.00    -0.195 F 
HETATM   14  F3  UNL     1      14.681   6.794   8.094  1.00  0.00    -0.195 F 
HETATM   15  C8  UNL     1      15.131   7.065  10.351  1.00  0.00     0.111 C 
HETATM   16  C9  UNL     1      14.017   7.546  10.864  1.00  0.00     0.219 C 
HETATM   17  F4  UNL     1      13.686   7.288  12.125  1.00  0.00    -0.217 F 
BRANCH  10  18
HETATM   18  C6  UNL     1      17.173   5.967   7.551  1.00  0.00     0.223 C 
HETATM   19  O1  UNL     1      17.156   4.723   7.389  1.00  0.00    -0.645 OA
HETATM   20  O2  UNL     1      17.421   6.747   6.448  1.00  0.00    -0.645 OA
ENDBRANCH  10  18
ENDBRANCH   7   8
ENDBRANCH   6   7
ENDBRANCH   1   6
BRANCH   1  21
HETATM   21  C10 UNL     1      16.444   3.839  13.410  1.00  0.00     0.077 C 
BRANCH  21  22
HETATM   22  C11 UNL     1      15.823   3.295  14.655  1.00  0.00     0.028 A 
HETATM   23  C12 UNL     1      15.016   4.063  15.450  1.00  0.00     0.167 A 
HETATM   24  F5  UNL     1      14.774   5.368  15.186  1.00  0.00    -0.202 F 
HETATM   25  C13 UNL     1      14.403   3.559  16.599  1.00  0.00     0.197 A 
HETATM   26  F6  UNL     1      13.621   4.333  17.357  1.00  0.00    -0.199 F 
HETATM   27  C14 UNL     1      14.626   2.236  16.937  1.00  0.00     0.199 A 
HETATM   28  F7  UNL     1      14.014   1.775  18.060  1.00  0.00    -0.199 F 
HETATM   29  C15 UNL     1      15.435   1.459  16.144  1.00  0.00     0.197 A 
HETATM   30  F8  UNL     1      15.641   0.165  16.490  1.00  0.00    -0.199 F 
HETATM   31  C16 UNL     1      16.024   1.972  15.024  1.00  0.00     0.167 A 
HETATM   32  F9  UNL     1      16.809   1.190  14.266  1.00  0.00    -0.202 F 
ENDBRANCH  21  22
ENDBRANCH   1  21
TORSDOF 7
ENDMDL
MODEL 3
REMARK VINA RESULT: -7.644385502      1.880      3.475
REMARK  7 active torsions:
REMARK  status: ('A' for Active; 'I' for Inactive)
REMARK    1  A    between atoms: N1_1  and  C1_5 
REMARK    2  A    between atoms: C1_5  and  C2_6 
REMARK    3  A    between atoms: C1_5  and  C10_21 
REMARK    4  A    between atoms: C2_6  and  C3_7 
REMARK    5  A    between atoms: C3_7  and  N2_8 
REMARK    6  A    between atoms: C5_10  and  C6_12 
REMARK    7  A    between atoms: C10_21  and  C11_22 
ROOT
HETATM    1  C1  UNL     1      16.494   5.389  14.684  1.00  0.00     0.189 C 
ENDROOT
BRANCH   1   2
HETATM    2  N1  UNL     1      17.780   4.939  15.042  1.00  0.00    -0.075 N 
ATOM      3  H13 UNL     1      18.076   4.112  14.522  1.00  0.00     0.274 HD
ATOM      4  H12 UNL     1      18.525   5.561  14.730  1.00  0.00     0.274 HD
ATOM      5  H11 UNL     1      17.773   4.797  16.052  1.00  0.00     0.274 HD
ENDBRANCH   1   2
BRANCH   1   6
HETATM    6  C2  UNL     1      16.687   6.508  13.646  1.00  0.00     0.053 C 
BRANCH   6   7
HETATM    7  C3  UNL     1      18.110   6.372  13.162  1.00  0.00     0.125 C 
BRANCH   7   8
HETATM    8  N2  UNL     1      18.260   5.938  11.817  1.00  0.00    -0.373 N 
HETATM    9  C4  UNL     1      18.021   6.673  10.577  1.00  0.00     0.185 C 
HETATM   10  C5  UNL     1      17.215   5.629   9.801  1.00  0.00     0.277 C 
HETATM   11  F1  UNL     1      15.951   5.540  10.308  1.00  0.00    -0.222 F 
HETATM   12  C7  UNL     1      18.037   4.386  10.062  1.00  0.00     0.334 C 
HETATM   13  F2  UNL     1      17.166   3.314  10.118  1.00  0.00    -0.195 F 
HETATM   14  F3  UNL     1      19.014   4.186   9.136  1.00  0.00    -0.195 F 
HETATM   15  C8  UNL     1      18.687   4.643  11.385  1.00  0.00     0.111 C 
HETATM   16  C9  UNL     1      19.498   3.821  12.019  1.00  0.00     0.219 C 
HETATM   17  F4  UNL     1      20.018   4.159  13.195  1.00  0.00    -0.217 F 
BRANCH  10  18
HETATM   18  C6  UNL     1      17.138   5.937   8.362  1.00  0.00     0.223 C 
HETATM   19  O1  UNL     1      17.396   7.099   7.965  1.00  0.00    -0.645 OA
HETATM   20  O2  UNL     1      16.793   5.005   7.413  1.00  0.00    -0.645 OA
ENDBRANCH  10  18
ENDBRANCH   7   8
ENDBRANCH   6   7
ENDBRANCH   1   6
BRANCH   1  21
HETATM   21  C10 UNL     1      15.486   4.372  14.259  1.00  0.00     0.077 C 
BRANCH  21  22
HETATM   22  C11 UNL     1      15.467   3.167  15.141  1.00  0.00     0.028 A 
HETATM   23  C12 UNL     1      14.755   3.143  16.309  1.00  0.00     0.167 A 
HETATM   24  F5  UNL     1      14.071   4.219  16.760  1.00  0.00    -0.202 F 
HETATM   25  C13 UNL     1      14.702   2.012  17.127  1.00  0.00     0.197 A 
HETATM   26  F6  UNL     1      13.999   2.017  18.264  1.00  0.00    -0.199 F 
HETATM   27  C14 UNL     1      15.397   0.882  16.733  1.00  0.00     0.199 A 
HETATM   28  F7  UNL     1      15.325  -0.203  17.550  1.00  0.00    -0.199 F 
HETATM   29  C15 UNL     1      16.114   0.899  15.562  1.00  0.00     0.197 A 
HETATM   30  F8  UNL     1      16.788  -0.217  15.191  1.00  0.00    -0.199 F 
HETATM   31  C16 UNL     1      16.151   2.016  14.777  1.00  0.00     0.167 A 
HETATM   32  F9  UNL     1      16.860   2.005  13.636  1.00  0.00    -0.202 F 
ENDBRANCH  21  22
ENDBRANCH   1  21
TORSDOF 7
ENDMDL
MODEL 4
REMARK VINA RESULT: -7.625277612      3.337      7.724
REMARK  7 active torsions:
REMARK  status: ('A' for Active; 'I' for Inactive)
REMARK    1  A    between atoms: N1_1  and  C1_5 
REMARK    2  A    between atoms: C1_5  and  C2_6 
REMARK    3  A    between atoms: C1_5  and  C10_21 
REMARK    4  A    between atoms: C2_6  and  C3_7 
REMARK    5  A    between atoms: C3_7  and  N2_8 
REMARK    6  A    between atoms: C5_10  and  C6_12 
REMARK    7  A    between atoms: C10_21  and  C11_22 
ROOT
HETATM    1  C1  UNL     1      17.194   4.294  11.981  1.00  0.00     0.189 C 
ENDROOT
BRANCH   1   2
HETATM    2  N1  UNL     1      16.788   3.339  11.029  1.00  0.00    -0.075 N 
ATOM      3  H13 UNL     1      17.504   2.638  10.832  1.00  0.00     0.274 HD
ATOM      4  H12 UNL     1      16.076   2.699  11.381  1.00  0.00     0.274 HD
ATOM      5  H11 UNL     1      16.491   3.854  10.201  1.00  0.00     0.274 HD
ENDBRANCH   1   2
BRANCH   1   6
HETATM    6  C2  UNL     1      18.318   3.648  12.811  1.00  0.00     0.053 C 
BRANCH   6   7
HETATM    7  C3  UNL     1      18.248   4.303  14.168  1.00  0.00     0.125 C 
BRANCH   7   8
HETATM    8  N2  UNL     1      17.202   3.848  15.015  1.00  0.00    -0.373 N 
HETATM    9  C4  UNL     1      17.173   2.694  15.909  1.00  0.00     0.185 C 
HETATM   10  C5  UNL     1      15.814   2.100  15.535  1.00  0.00     0.277 C 
HETATM   11  F1  UNL     1      15.888   1.491  14.315  1.00  0.00    -0.222 F 
HETATM   12  C7  UNL     1      14.957   3.347  15.514  1.00  0.00     0.334 C 
HETATM   13  F2  UNL     1      13.994   3.175  14.536  1.00  0.00    -0.195 F 
HETATM   14  F3  UNL     1      14.396   3.631  16.720  1.00  0.00    -0.195 F 
HETATM   15  C8  UNL     1      15.910   4.446  15.166  1.00  0.00     0.111 C 
HETATM   16  C9  UNL     1      15.604   5.719  15.029  1.00  0.00     0.219 C 
HETATM   17  F4  UNL     1      16.540   6.610  14.717  1.00  0.00    -0.217 F 
BRANCH  10  18
HETATM   18  C6  UNL     1      15.333   1.126  16.531  1.00  0.00     0.223 C 
HETATM   19  O1  UNL     1      16.069   0.822  17.501  1.00  0.00    -0.645 OA
HETATM   20  O2  UNL     1      14.101   0.523  16.456  1.00  0.00    -0.645 OA
ENDBRANCH  10  18
ENDBRANCH   7   8
ENDBRANCH   6   7
ENDBRANCH   1   6
BRANCH   1  21
HETATM   21  C10 UNL     1      17.546   5.663  11.499  1.00  0.00     0.077 C 
BRANCH  21  22
HETATM   22  C11 UNL     1      16.633   6.154  10.424  1.00  0.00     0.028 A 
HETATM   23  C12 UNL     1      15.408   6.692  10.712  1.00  0.00     0.167 A 
HETATM   24  F5  UNL     1      14.931   6.766  11.976  1.00  0.00    -0.202 F 
HETATM   25  C13 UNL     1      14.557   7.185   9.720  1.00  0.00     0.197 A 
HETATM   26  F6  UNL     1      13.366   7.704  10.031  1.00  0.00    -0.199 F 
HETATM   27  C14 UNL     1      14.977   7.121   8.403  1.00  0.00     0.199 A 
HETATM   28  F7  UNL     1      14.126   7.610   7.461  1.00  0.00    -0.199 F 
HETATM   29  C15 UNL     1      16.204   6.582   8.106  1.00  0.00     0.197 A 
HETATM   30  F8  UNL     1      16.599   6.529   6.811  1.00  0.00    -0.199 F 
HETATM   31  C16 UNL     1      17.020   6.107   9.092  1.00  0.00     0.167 A 
HETATM   32  F9  UNL     1      18.216   5.585   8.774  1.00  0.00    -0.202 F 
ENDBRANCH  21  22
ENDBRANCH   1  21
TORSDOF 7
ENDMDL
MODEL 5
REMARK VINA RESULT: -7.609555506      1.933      2.926
REMARK  7 active torsions:
REMARK  status: ('A' for Active; 'I' for Inactive)
REMARK    1  A    between atoms: N1_1  and  C1_5 
REMARK    2  A    between atoms: C1_5  and  C2_6 
REMARK    3  A    between atoms: C1_5  and  C10_21 
REMARK    4  A    between atoms: C2_6  and  C3_7 
REMARK    5  A    between atoms: C3_7  and  N2_8 
REMARK    6  A    between atoms: C5_10  and  C6_12 
REMARK    7  A    between atoms: C10_21  and  C11_22 
ROOT
HETATM    1  C1  UNL     1      18.340   4.543  14.622  1.00  0.00     0.189 C 
ENDROOT
BRANCH   1   2
HETATM    2  N1  UNL     1      19.657   4.129  14.339  1.00  0.00    -0.075 N 
ATOM      3  H13 UNL     1      19.934   4.303  13.373  1.00  0.00     0.274 HD
ATOM      4  H12 UNL     1      20.365   4.714  14.783  1.00  0.00     0.274 HD
ATOM      5  H11 UNL     1      19.721   3.147  14.607  1.00  0.00     0.274 HD
ENDBRANCH   1   2
BRANCH   1   6
HETATM    6  C2  UNL     1      18.284   6.059  14.362  1.00  0.00     0.053 C 
BRANCH   6   7
HETATM    7  C3  UNL     1      19.102   6.287  13.114  1.00  0.00     0.125 C 
BRANCH   7   8
HETATM    8  N2  UNL     1      18.379   6.242  11.891  1.00  0.00    -0.373 N 
HETATM    9  C4  UNL     1      17.407   7.192  11.358  1.00  0.00     0.185 C 
HETATM   10  C5  UNL     1      16.303   6.227  10.920  1.00  0.00     0.277 C 
HETATM   11  F1  UNL     1      15.639   5.749  12.012  1.00  0.00    -0.222 F 
HETATM   12  C7  UNL     1      17.121   5.162  10.223  1.00  0.00     0.334 C 
HETATM   13  F2  UNL     1      16.489   3.949  10.429  1.00  0.00    -0.195 F 
HETATM   14  F3  UNL     1      17.301   5.409   8.897  1.00  0.00    -0.195 F 
HETATM   15  C8  UNL     1      18.454   5.215  10.899  1.00  0.00     0.111 C 
HETATM   16  C9  UNL     1      19.492   4.454  10.619  1.00  0.00     0.219 C 
HETATM   17  F4  UNL     1      20.631   4.592  11.290  1.00  0.00    -0.217 F 
BRANCH  10  18
HETATM   18  C6  UNL     1      15.337   6.858  10.004  1.00  0.00     0.223 C 
HETATM   19  O1  UNL     1      15.463   8.072   9.715  1.00  0.00    -0.645 OA
HETATM   20  O2  UNL     1      14.286   6.177   9.439  1.00  0.00    -0.645 OA
ENDBRANCH  10  18
ENDBRANCH   7   8
ENDBRANCH   6   7
ENDBRANCH   1   6
BRANCH   1  21
HETATM   21  C10 UNL     1      17.216   3.803  13.974  1.00  0.00     0.077 C 
BRANCH  21  22
HETATM   22  C11 UNL     1      16.261   3.215  14.962  1.00  0.00     0.028 A 
HETATM   23  C12 UNL     1      16.305   1.890  15.301  1.00  0.00     0.167 A 
HETATM   24  F5  UNL     1      17.176   1.027  14.730  1.00  0.00    -0.202 F 
HETATM   25  C13 UNL     1      15.441   1.333  16.246  1.00  0.00     0.197 A 
HETATM   26  F6  UNL     1      15.505   0.036  16.558  1.00  0.00    -0.199 F 
HETATM   27  C14 UNL     1      14.510   2.159  16.854  1.00  0.00     0.199 A 
HETATM   28  F7  UNL     1      13.684   1.587  17.770  1.00  0.00    -0.199 F 
HETATM   29  C15 UNL     1      14.460   3.489  16.517  1.00  0.00     0.197 A 
HETATM   30  F8  UNL     1      13.544   4.283  17.123  1.00  0.00    -0.199 F 
HETATM   31  C16 UNL     1      15.316   4.013  15.591  1.00  0.00     0.167 A 
HETATM   32  F9  UNL     1      15.246   5.318  15.281  1.00  0.00    -0.202 F 
ENDBRANCH  21  22
ENDBRANCH   1  21
TORSDOF 7
ENDMDL
