MODEL 1
REMARK VINA RESULT: -7.764345404      0.000      0.000
REMARK  8 active torsions:
REMARK  status: ('A' for Active; 'I' for Inactive)
REMARK    1  A    between atoms: C2_2  and  C4_4 
REMARK    2  A    between atoms: C4_4  and  N1_5 
REMARK    3  A    between atoms: C4_4  and  C14_25 
REMARK    4  A    between atoms: N1_5  and  C5_7 
REMARK    5  A    between atoms: C5_7  and  C6_8 
REMARK    6  A    between atoms: C5_7  and  C7_11 
REMARK    7  A    between atoms: C6_8  and  O1_9 
REMARK    8  A    between atoms: C14_25  and  C15_27 
ROOT
HETATM    1  C5  UNL     1      16.527   4.086  12.469  1.00  0.00     0.150 C 
ENDROOT
BRANCH   1   2
HETATM    2  N1  UNL     1      17.361   5.257  12.603  1.00  0.00    -0.404 N 
ATOM      3  H1  UNL     1      18.276   5.213  13.052  1.00  0.00     0.154 HD
BRANCH   2   4
HETATM    4  C4  UNL     1      16.837   6.494  12.070  1.00  0.00     0.123 C 
BRANCH   4   5
HETATM    5  C2  UNL     1      17.551   7.572  12.833  1.00  0.00     0.003 C 
HETATM    6  C1  UNL     1      18.475   8.444  12.067  1.00  0.00     0.011 C 
HETATM    7  C3  UNL     1      18.031   7.173  14.206  1.00  0.00     0.011 C 
ENDBRANCH   4   5
BRANCH   4   8
HETATM    8  C14 UNL     1      15.389   6.436  12.097  1.00  0.00     0.299 C 
HETATM    9  F6  UNL     1      14.827   6.488  13.381  1.00  0.00    -0.238 F 
BRANCH   8  10
HETATM   10  C15 UNL     1      14.573   7.365  11.246  1.00  0.00     0.419 C 
HETATM   11  F7  UNL     1      14.104   6.779  10.099  1.00  0.00    -0.168 F 
HETATM   12  F8  UNL     1      15.062   8.625  11.108  1.00  0.00    -0.168 F 
HETATM   13  F9  UNL     1      13.391   7.561  12.007  1.00  0.00    -0.168 F 
ENDBRANCH   8  10
ENDBRANCH   4   8
ENDBRANCH   2   4
ENDBRANCH   1   2
BRANCH   1  14
HETATM   14  C6  UNL     1      17.012   3.233  11.333  1.00  0.00     0.192 C 
BRANCH  14  15
HETATM   15  O1  UNL     1      16.064   2.845  10.419  1.00  0.00    -0.399 OA
ATOM     16  H1  UNL     1      15.668   1.993  10.562  1.00  0.00     0.209 HD
ENDBRANCH  14  15
ENDBRANCH   1  14
BRANCH   1  17
HETATM   17  C7  UNL     1      16.719   3.377  13.800  1.00  0.00     0.207 C 
HETATM   18  F1  UNL     1      18.109   3.447  14.074  1.00  0.00    -0.230 F 
HETATM   19  C8  UNL     1      16.031   3.934  14.970  1.00  0.00     0.087 C 
HETATM   20  C9  UNL     1      16.178   2.793  15.975  1.00  0.00     0.170 C 
HETATM   21  N2  UNL     1      16.169   1.579  15.146  1.00  0.00    -0.332 N 
HETATM   22  C12 UNL     1      14.977   2.586  16.827  1.00  0.00     0.329 C 
HETATM   23  C10 UNL     1      15.983   0.500  16.083  1.00  0.00     0.212 C 
HETATM   24  C13 UNL     1      16.345   1.963  13.790  1.00  0.00     0.263 C 
HETATM   25  C11 UNL     1      14.939   1.074  17.021  1.00  0.00     0.325 C 
HETATM   26  F2  UNL     1      15.302   0.716  18.302  1.00  0.00    -0.198 F 
HETATM   27  F3  UNL     1      13.725   0.539  16.657  1.00  0.00    -0.198 F 
HETATM   28  O2  UNL     1      16.194   1.192  12.810  1.00  0.00    -0.270 OA
HETATM   29  F4  UNL     1      13.829   3.067  16.271  1.00  0.00    -0.197 F 
HETATM   30  F5  UNL     1      15.158   3.149  18.094  1.00  0.00    -0.197 F 
ENDBRANCH   1  17
TORSDOF 8
ENDMDL
MODEL 2
REMARK VINA RESULT: -7.722771956      2.220      6.945
REMARK  8 active torsions:
REMARK  status: ('A' for Active; 'I' for Inactive)
REMARK    1  A    between atoms: C2_2  and  C4_4 
REMARK    2  A    between atoms: C4_4  and  N1_5 
REMARK    3  A    between atoms: C4_4  and  C14_25 
REMARK    4  A    between atoms: N1_5  and  C5_7 
REMARK    5  A    between atoms: C5_7  and  C6_8 
REMARK    6  A    between atoms: C5_7  and  C7_11 
REMARK    7  A    between atoms: C6_8  and  O1_9 
REMARK    8  A    between atoms: C14_25  and  C15_27 
ROOT
HETATM    1  C5  UNL     1      17.730   4.699  13.859  1.00  0.00     0.150 C 
ENDROOT
BRANCH   1   2
HETATM    2  N1  UNL     1      17.293   3.604  13.026  1.00  0.00    -0.404 N 
ATOM      3  H1  UNL     1      17.213   3.701  12.014  1.00  0.00     0.154 HD
BRANCH   2   4
HETATM    4  C4  UNL     1      16.975   2.363  13.695  1.00  0.00     0.123 C 
BRANCH   4   5
HETATM    5  C2  UNL     1      16.414   1.480  12.618  1.00  0.00     0.003 C 
HETATM    6  C1  UNL     1      16.943   0.096  12.536  1.00  0.00     0.011 C 
HETATM    7  C3  UNL     1      16.178   2.159  11.293  1.00  0.00     0.011 C 
ENDBRANCH   4   5
BRANCH   4   8
HETATM    8  C14 UNL     1      16.175   2.659  14.867  1.00  0.00     0.299 C 
HETATM    9  F6  UNL     1      14.794   2.728  14.630  1.00  0.00    -0.238 F 
BRANCH   8  10
HETATM   10  C15 UNL     1      16.343   1.858  16.127  1.00  0.00     0.419 C 
HETATM   11  F7  UNL     1      16.260   0.506  15.925  1.00  0.00    -0.168 F 
HETATM   12  F8  UNL     1      15.692   2.334  17.221  1.00  0.00    -0.168 F 
HETATM   13  F9  UNL     1      17.710   2.047  16.460  1.00  0.00    -0.168 F 
ENDBRANCH   8  10
ENDBRANCH   4   8
ENDBRANCH   2   4
ENDBRANCH   1   2
BRANCH   1  14
HETATM   14  C6  UNL     1      19.227   4.698  13.971  1.00  0.00     0.192 C 
BRANCH  14  15
HETATM   15  O1  UNL     1      19.757   3.951  14.994  1.00  0.00    -0.399 OA
ATOM     16  H1  UNL     1      20.656   3.664  14.881  1.00  0.00     0.209 HD
ENDBRANCH  14  15
ENDBRANCH   1  14
BRANCH   1  17
HETATM   17  C7  UNL     1      17.244   5.921  13.097  1.00  0.00     0.207 C 
HETATM   18  F1  UNL     1      17.735   7.041  13.817  1.00  0.00    -0.230 F 
HETATM   19  C8  UNL     1      17.698   6.081  11.711  1.00  0.00     0.087 C 
HETATM   20  C9  UNL     1      16.754   7.173  11.210  1.00  0.00     0.170 C 
HETATM   21  N2  UNL     1      15.510   6.946  11.960  1.00  0.00    -0.332 N 
HETATM   22  C12 UNL     1      16.302   6.977   9.807  1.00  0.00     0.329 C 
HETATM   23  C10 UNL     1      14.525   7.746  11.279  1.00  0.00     0.212 C 
HETATM   24  C13 UNL     1      15.788   6.049  13.026  1.00  0.00     0.263 C 
HETATM   25  C11 UNL     1      14.870   7.499   9.824  1.00  0.00     0.325 C 
HETATM   26  F2  UNL     1      14.762   8.708   9.170  1.00  0.00    -0.198 F 
HETATM   27  F3  UNL     1      13.977   6.569   9.344  1.00  0.00    -0.198 F 
HETATM   28  O2  UNL     1      14.911   5.501  13.738  1.00  0.00    -0.270 OA
HETATM   29  F4  UNL     1      16.377   5.681   9.390  1.00  0.00    -0.197 F 
HETATM   30  F5  UNL     1      17.019   7.796   8.931  1.00  0.00    -0.197 F 
ENDBRANCH   1  17
TORSDOF 8
ENDMDL
MODEL 3
REMARK VINA RESULT: -7.680273073      2.525      3.932
REMARK  8 active torsions:
REMARK  status: ('A' for Active; 'I' for Inactive)
REMARK    1  A    between atoms: C2_2  and  C4_4 
REMARK    2  A    between atoms: C4_4  and  N1_5 
REMARK    3  A    between atoms: C4_4  and  C14_25 
REMARK    4  A    between atoms: N1_5  and  C5_7 
REMARK    5  A    between atoms: C5_7  and  C6_8 
REMARK    6  A    between atoms: C5_7  and  C7_11 
REMARK    7  A    between atoms: C6_8  and  O1_9 
REMARK    8  A    between atoms: C14_25  and  C15_27 
ROOT
HETATM    1  C5  UNL     1      16.365   6.181   9.573  1.00  0.00     0.150 C 
ENDROOT
BRANCH   1   2
HETATM    2  N1  UNL     1      16.198   7.600   9.783  1.00  0.00    -0.404 N 
ATOM      3  H1  UNL     1      16.818   8.125  10.400  1.00  0.00     0.154 HD
BRANCH   2   4
HETATM    4  C4  UNL     1      15.110   8.239   9.079  1.00  0.00     0.123 C 
BRANCH   4   5
HETATM    5  C2  UNL     1      15.065   9.635   9.630  1.00  0.00     0.003 C 
HETATM    6  C1  UNL     1      14.402  10.669   8.798  1.00  0.00     0.011 C 
HETATM    7  C3  UNL     1      16.318  10.083  10.339  1.00  0.00     0.011 C 
ENDBRANCH   4   5
BRANCH   4   8
HETATM    8  C14 UNL     1      13.936   7.394   9.171  1.00  0.00     0.299 C 
HETATM    9  F6  UNL     1      13.227   7.509  10.375  1.00  0.00    -0.238 F 
BRANCH   8  10
HETATM   10  C15 UNL     1      12.907   7.397   8.078  1.00  0.00     0.419 C 
HETATM   11  F7  UNL     1      13.377   7.895   6.891  1.00  0.00    -0.168 F 
HETATM   12  F8  UNL     1      11.662   7.805   8.439  1.00  0.00    -0.168 F 
HETATM   13  F9  UNL     1      12.722   6.019   7.793  1.00  0.00    -0.168 F 
ENDBRANCH   8  10
ENDBRANCH   4   8
ENDBRANCH   2   4
ENDBRANCH   1   2
BRANCH   1  14
HETATM   14  C6  UNL     1      17.410   5.935   8.523  1.00  0.00     0.192 C 
BRANCH  14  15
HETATM   15  O1  UNL     1      17.353   4.721   7.885  1.00  0.00    -0.399 OA
ATOM     16  H1  UNL     1      18.142   4.192   7.919  1.00  0.00     0.209 HD
ENDBRANCH  14  15
ENDBRANCH   1  14
BRANCH   1  17
HETATM   17  C7  UNL     1      16.836   5.688  10.931  1.00  0.00     0.207 C 
HETATM   18  F1  UNL     1      18.251   5.786  10.905  1.00  0.00    -0.230 F 
HETATM   19  C8  UNL     1      16.385   6.430  12.115  1.00  0.00     0.087 C 
HETATM   20  C9  UNL     1      16.755   5.460  13.235  1.00  0.00     0.170 C 
HETATM   21  N2  UNL     1      16.606   4.130  12.625  1.00  0.00    -0.332 N 
HETATM   22  C12 UNL     1      15.754   5.402  14.333  1.00  0.00     0.329 C 
HETATM   23  C10 UNL     1      16.635   3.215  13.737  1.00  0.00     0.212 C 
HETATM   24  C13 UNL     1      16.498   4.294  11.219  1.00  0.00     0.263 C 
HETATM   25  C11 UNL     1      15.788   3.940  14.764  1.00  0.00     0.325 C 
HETATM   26  F2  UNL     1      16.408   3.784  15.986  1.00  0.00    -0.198 F 
HETATM   27  F3  UNL     1      14.537   3.367  14.741  1.00  0.00    -0.198 F 
HETATM   28  O2  UNL     1      16.170   3.381  10.422  1.00  0.00    -0.270 OA
HETATM   29  F4  UNL     1      14.508   5.802  13.952  1.00  0.00    -0.197 F 
HETATM   30  F5  UNL     1      16.174   6.155  15.434  1.00  0.00    -0.197 F 
ENDBRANCH   1  17
TORSDOF 8
ENDMDL
MODEL 4
REMARK VINA RESULT: -7.661615199      2.479      6.532
REMARK  8 active torsions:
REMARK  status: ('A' for Active; 'I' for Inactive)
REMARK    1  A    between atoms: C2_2  and  C4_4 
REMARK    2  A    between atoms: C4_4  and  N1_5 
REMARK    3  A    between atoms: C4_4  and  C14_25 
REMARK    4  A    between atoms: N1_5  and  C5_7 
REMARK    5  A    between atoms: C5_7  and  C6_8 
REMARK    6  A    between atoms: C5_7  and  C7_11 
REMARK    7  A    between atoms: C6_8  and  O1_9 
REMARK    8  A    between atoms: C14_25  and  C15_27 
ROOT
HETATM    1  C5  UNL     1      16.912   2.889  12.474  1.00  0.00     0.150 C 
ENDROOT
BRANCH   1   2
HETATM    2  N1  UNL     1      15.796   3.515  13.143  1.00  0.00    -0.404 N 
ATOM      3  H1  UNL     1      15.315   4.319  12.740  1.00  0.00     0.154 HD
BRANCH   2   4
HETATM    4  C4  UNL     1      15.394   2.947  14.410  1.00  0.00     0.123 C 
BRANCH   4   5
HETATM    5  C2  UNL     1      14.789   4.093  15.168  1.00  0.00     0.003 C 
HETATM    6  C1  UNL     1      15.463   5.409  15.055  1.00  0.00     0.011 C 
HETATM    7  C3  UNL     1      14.272   3.749  16.542  1.00  0.00     0.011 C 
ENDBRANCH   4   5
BRANCH   4   8
HETATM    8  C14 UNL     1      16.519   2.228  14.975  1.00  0.00     0.299 C 
HETATM    9  F6  UNL     1      17.250   2.947  15.931  1.00  0.00    -0.238 F 
BRANCH   8  10
HETATM   10  C15 UNL     1      16.336   0.849  15.539  1.00  0.00     0.419 C 
HETATM   11  F7  UNL     1      16.695  -0.146  14.669  1.00  0.00    -0.168 F 
HETATM   12  F8  UNL     1      15.186   0.641  16.232  1.00  0.00    -0.168 F 
HETATM   13  F9  UNL     1      17.335   0.767  16.544  1.00  0.00    -0.168 F 
ENDBRANCH   8  10
ENDBRANCH   4   8
ENDBRANCH   2   4
ENDBRANCH   1   2
BRANCH   1  14
HETATM   14  C6  UNL     1      16.418   1.936  11.426  1.00  0.00     0.192 C 
BRANCH  14  15
HETATM   15  O1  UNL     1      15.104   2.075  11.052  1.00  0.00    -0.399 OA
ATOM     16  H1  UNL     1      14.853   1.653  10.238  1.00  0.00     0.209 HD
ENDBRANCH  14  15
ENDBRANCH   1  14
BRANCH   1  17
HETATM   17  C7  UNL     1      17.633   4.067  11.840  1.00  0.00     0.207 C 
HETATM   18  F1  UNL     1      17.691   3.778  10.452  1.00  0.00    -0.230 F 
HETATM   19  C8  UNL     1      17.012   5.390  11.968  1.00  0.00     0.087 C 
HETATM   20  C9  UNL     1      18.160   6.302  11.538  1.00  0.00     0.170 C 
HETATM   21  N2  UNL     1      19.370   5.588  11.971  1.00  0.00    -0.332 N 
HETATM   22  C12 UNL     1      18.253   7.561  12.325  1.00  0.00     0.329 C 
HETATM   23  C10 UNL     1      20.424   6.565  11.868  1.00  0.00     0.212 C 
HETATM   24  C13 UNL     1      19.007   4.257  12.306  1.00  0.00     0.263 C 
HETATM   25  C11 UNL     1      19.754   7.811  12.412  1.00  0.00     0.325 C 
HETATM   26  F2  UNL     1      20.142   8.864  11.610  1.00  0.00    -0.198 F 
HETATM   27  F3  UNL     1      20.176   7.967  13.712  1.00  0.00    -0.198 F 
HETATM   28  O2  UNL     1      19.762   3.442  12.891  1.00  0.00    -0.270 OA
HETATM   29  F4  UNL     1      17.669   7.475  13.554  1.00  0.00    -0.197 F 
HETATM   30  F5  UNL     1      17.707   8.636  11.618  1.00  0.00    -0.197 F 
ENDBRANCH   1  17
TORSDOF 8
ENDMDL
MODEL 5
REMARK VINA RESULT: -7.650299015      2.184      6.438
REMARK  8 active torsions:
REMARK  status: ('A' for Active; 'I' for Inactive)
REMARK    1  A    between atoms: C2_2  and  C4_4 
REMARK    2  A    between atoms: C4_4  and  N1_5 
REMARK    3  A    between atoms: C4_4  and  C14_25 
REMARK    4  A    between atoms: N1_5  and  C5_7 
REMARK    5  A    between atoms: C5_7  and  C6_8 
REMARK    6  A    between atoms: C5_7  and  C7_11 
REMARK    7  A    between atoms: C6_8  and  O1_9 
REMARK    8  A    between atoms: C14_25  and  C15_27 
ROOT
HETATM    1  C5  UNL     1      16.792   2.663  13.150  1.00  0.00     0.150 C 
ENDROOT
BRANCH   1   2
HETATM    2  N1  UNL     1      15.642   3.409  13.604  1.00  0.00    -0.404 N 
ATOM      3  H1  UNL     1      15.264   4.188  13.065  1.00  0.00     0.154 HD
BRANCH   2   4
HETATM    4  C4  UNL     1      15.053   2.999  14.859  1.00  0.00     0.123 C 
BRANCH   4   5
HETATM    5  C2  UNL     1      14.596   4.275  15.502  1.00  0.00     0.003 C 
HETATM    6  C1  UNL     1      15.376   5.501  15.202  1.00  0.00     0.011 C 
HETATM    7  C3  UNL     1      14.131   4.141  16.930  1.00  0.00     0.011 C 
ENDBRANCH   4   5
BRANCH   4   8
HETATM    8  C14 UNL     1      15.993   2.142  15.555  1.00  0.00     0.299 C 
HETATM    9  F6  UNL     1      16.910   2.821  16.370  1.00  0.00    -0.238 F 
BRANCH   8  10
HETATM   10  C15 UNL     1      15.505   0.971  16.359  1.00  0.00     0.419 C 
HETATM   11  F7  UNL     1      16.205  -0.182  16.119  1.00  0.00    -0.168 F 
HETATM   12  F8  UNL     1      14.156   0.836  16.449  1.00  0.00    -0.168 F 
HETATM   13  F9  UNL     1      15.883   1.301  17.687  1.00  0.00    -0.168 F 
ENDBRANCH   8  10
ENDBRANCH   4   8
ENDBRANCH   2   4
ENDBRANCH   1   2
BRANCH   1  14
HETATM   14  C6  UNL     1      16.388   1.692  12.080  1.00  0.00     0.192 C 
BRANCH  14  15
HETATM   15  O1  UNL     1      15.277   2.027  11.346  1.00  0.00    -0.399 OA
ATOM     16  H1  UNL     1      15.437   2.480  10.527  1.00  0.00     0.209 HD
ENDBRANCH  14  15
ENDBRANCH   1  14
BRANCH   1  17
HETATM   17  C7  UNL     1      17.699   3.745  12.586  1.00  0.00     0.207 C 
HETATM   18  F1  UNL     1      18.565   3.084  11.678  1.00  0.00    -0.230 F 
HETATM   19  C8  UNL     1      17.066   4.840  11.842  1.00  0.00     0.087 C 
HETATM   20  C9  UNL     1      18.211   5.848  11.760  1.00  0.00     0.170 C 
HETATM   21  N2  UNL     1      18.971   5.632  13.000  1.00  0.00    -0.332 N 
HETATM   22  C12 UNL     1      17.776   7.262  11.913  1.00  0.00     0.329 C 
HETATM   23  C10 UNL     1      19.847   6.772  13.092  1.00  0.00     0.212 C 
HETATM   24  C13 UNL     1      18.536   4.413  13.583  1.00  0.00     0.263 C 
HETATM   25  C11 UNL     1      18.935   7.906  12.667  1.00  0.00     0.325 C 
HETATM   26  F2  UNL     1      19.673   8.737  11.851  1.00  0.00    -0.198 F 
HETATM   27  F3  UNL     1      18.515   8.543  13.812  1.00  0.00    -0.198 F 
HETATM   28  O2  UNL     1      18.842   4.032  14.740  1.00  0.00    -0.270 OA
HETATM   29  F4  UNL     1      16.590   7.396  12.573  1.00  0.00    -0.197 F 
HETATM   30  F5  UNL     1      17.700   7.901  10.672  1.00  0.00    -0.197 F 
ENDBRANCH   1  17
TORSDOF 8
ENDMDL
