MODEL 1
REMARK VINA RESULT: -8.371619224      0.000      0.000
REMARK  7 active torsions:
REMARK  status: ('A' for Active; 'I' for Inactive)
REMARK    1  A    between atoms: C2_5  and  C3_6 
REMARK    2  A    between atoms: C3_6  and  C4_9 
REMARK    3  A    between atoms: N2_13  and  C6_14 
REMARK    4  A    between atoms: C6_14  and  C7_15 
REMARK    5  A    between atoms: C13_26  and  C14_27 
REMARK    6  A    between atoms: C14_27  and  C15_28 
REMARK    7  A    between atoms: C15_28  and  O2_29 
ROOT
HETATM    1  O1  UNL     1      19.919   3.747  12.857  1.00  0.00    -0.271 OA
HETATM    2  C1  UNL     1      19.021   4.566  13.141  1.00  0.00     0.245 C 
HETATM    3  N1  UNL     1      19.384   5.801  13.716  1.00  0.00    -0.322 N 
ATOM      4  H1  UNL     1      20.356   5.979  13.969  1.00  0.00     0.169 HD
HETATM    5  C2  UNL     1      18.395   6.801  13.943  1.00  0.00     0.105 C 
HETATM    6  C5  UNL     1      17.083   6.210  14.370  1.00  0.00     0.123 C 
HETATM    7  N2  UNL     1      16.869   4.876  14.004  1.00  0.00    -0.350 N 
HETATM    8  C13 UNL     1      17.582   4.317  12.914  1.00  0.00     0.183 C 
ENDROOT
BRANCH   7   9
HETATM    9  C6  UNL     1      15.657   4.331  14.400  1.00  0.00     0.109 C 
BRANCH   9  10
HETATM   10  C7  UNL     1      15.622   3.096  15.193  1.00  0.00     0.063 A 
HETATM   11  C8  UNL     1      14.879   3.163  16.374  1.00  0.00     0.172 A 
HETATM   12  F5  UNL     1      14.301   4.322  16.731  1.00  0.00    -0.202 F 
HETATM   13  C9  UNL     1      14.711   2.078  17.197  1.00  0.00     0.197 A 
HETATM   14  F6  UNL     1      13.986   2.162  18.339  1.00  0.00    -0.199 F 
HETATM   15  C10 UNL     1      15.274   0.859  16.894  1.00  0.00     0.199 A 
HETATM   16  F7  UNL     1      15.094  -0.196  17.723  1.00  0.00    -0.199 F 
HETATM   17  C11 UNL     1      16.003   0.785  15.738  1.00  0.00     0.197 A 
HETATM   18  F8  UNL     1      16.566  -0.404  15.420  1.00  0.00    -0.199 F 
HETATM   19  C12 UNL     1      16.182   1.887  14.885  1.00  0.00     0.172 A 
HETATM   20  F9  UNL     1      16.874   1.698  13.740  1.00  0.00    -0.202 F 
ENDBRANCH   9  10
ENDBRANCH   7   9
BRANCH   8  21
HETATM   21  C14 UNL     1      17.053   4.685  11.577  1.00  0.00     0.061 C 
BRANCH  21  22
HETATM   22  C15 UNL     1      16.953   3.580  10.573  1.00  0.00     0.166 C 
BRANCH  22  23
HETATM   23  O2  UNL     1      15.821   2.789  10.691  1.00  0.00    -0.401 OA
ATOM     24  H2  UNL     1      15.265   2.772   9.921  1.00  0.00     0.209 HD
ENDBRANCH  22  23
ENDBRANCH  21  22
ENDBRANCH   8  21
BRANCH   5  25
HETATM   25  C3  UNL     1      18.839   8.015  14.672  1.00  0.00     0.344 C 
HETATM   26  F1  UNL     1      17.877   8.263  15.675  1.00  0.00    -0.193 F 
HETATM   27  F2  UNL     1      20.021   7.710  15.329  1.00  0.00    -0.193 F 
BRANCH  25  28
HETATM   28  C4  UNL     1      19.000   9.272  13.913  1.00  0.00     0.431 C 
HETATM   29  F3  UNL     1      18.433   9.317  12.667  1.00  0.00    -0.207 F 
HETATM   30  F4  UNL     1      18.681  10.407  14.653  1.00  0.00    -0.207 F 
ENDBRANCH  25  28
ENDBRANCH   5  25
TORSDOF 7
ENDMDL
MODEL 2
REMARK VINA RESULT: -8.256449648      3.285      6.943
REMARK  7 active torsions:
REMARK  status: ('A' for Active; 'I' for Inactive)
REMARK    1  A    between atoms: C2_5  and  C3_6 
REMARK    2  A    between atoms: C3_6  and  C4_9 
REMARK    3  A    between atoms: N2_13  and  C6_14 
REMARK    4  A    between atoms: C6_14  and  C7_15 
REMARK    5  A    between atoms: C13_26  and  C14_27 
REMARK    6  A    between atoms: C14_27  and  C15_28 
REMARK    7  A    between atoms: C15_28  and  O2_29 
ROOT
HETATM    1  O1  UNL     1      16.831   0.731  17.112  1.00  0.00    -0.271 OA
HETATM    2  C1  UNL     1      16.542   1.342  16.063  1.00  0.00     0.245 C 
HETATM    3  N1  UNL     1      16.775   0.715  14.823  1.00  0.00    -0.322 N 
ATOM      4  H1  UNL     1      17.250  -0.187  14.790  1.00  0.00     0.169 HD
HETATM    5  C2  UNL     1      16.348   1.338  13.616  1.00  0.00     0.105 C 
HETATM    6  C5  UNL     1      16.505   2.830  13.665  1.00  0.00     0.123 C 
HETATM    7  N2  UNL     1      16.536   3.397  14.945  1.00  0.00    -0.350 N 
HETATM    8  C13 UNL     1      15.965   2.703  16.041  1.00  0.00     0.183 C 
ENDROOT
BRANCH   7   9
HETATM    9  C6  UNL     1      16.683   4.775  14.989  1.00  0.00     0.109 C 
BRANCH   9  10
HETATM   10  C7  UNL     1      17.535   5.463  14.011  1.00  0.00     0.063 A 
HETATM   11  C8  UNL     1      16.867   6.313  13.127  1.00  0.00     0.172 A 
HETATM   12  F5  UNL     1      15.528   6.413  13.185  1.00  0.00    -0.202 F 
HETATM   13  C9  UNL     1      17.531   7.063  12.188  1.00  0.00     0.197 A 
HETATM   14  F6  UNL     1      16.865   7.883  11.339  1.00  0.00    -0.199 F 
HETATM   15  C10 UNL     1      18.901   7.011  12.073  1.00  0.00     0.199 A 
HETATM   16  F7  UNL     1      19.532   7.760  11.138  1.00  0.00    -0.199 F 
HETATM   17  C11 UNL     1      19.563   6.180  12.937  1.00  0.00     0.197 A 
HETATM   18  F8  UNL     1      20.912   6.113  12.841  1.00  0.00    -0.199 F 
HETATM   19  C12 UNL     1      18.897   5.408  13.903  1.00  0.00     0.172 A 
HETATM   20  F9  UNL     1      19.645   4.660  14.745  1.00  0.00    -0.202 F 
ENDBRANCH   9  10
ENDBRANCH   7   9
BRANCH   8  21
HETATM   21  C14 UNL     1      14.486   2.793  16.124  1.00  0.00     0.061 C 
BRANCH  21  22
HETATM   22  C15 UNL     1      13.809   1.808  17.025  1.00  0.00     0.166 C 
BRANCH  22  23
HETATM   23  O2  UNL     1      13.868   0.492  16.596  1.00  0.00    -0.401 OA
ATOM     24  H2  UNL     1      13.055   0.009  16.680  1.00  0.00     0.209 HD
ENDBRANCH  22  23
ENDBRANCH  21  22
ENDBRANCH   8  21
BRANCH   5  25
HETATM   25  C3  UNL     1      16.752   0.675  12.351  1.00  0.00     0.344 C 
HETATM   26  F1  UNL     1      18.092   1.043  12.107  1.00  0.00    -0.193 F 
HETATM   27  F2  UNL     1      16.754  -0.694  12.569  1.00  0.00    -0.193 F 
BRANCH  25  28
HETATM   28  C4  UNL     1      15.992   0.983  11.122  1.00  0.00     0.431 C 
HETATM   29  F3  UNL     1      16.287   2.163  10.492  1.00  0.00    -0.207 F 
HETATM   30  F4  UNL     1      15.958  -0.075  10.217  1.00  0.00    -0.207 F 
ENDBRANCH  25  28
ENDBRANCH   5  25
TORSDOF 7
ENDMDL
MODEL 3
REMARK VINA RESULT: -8.186400921      3.199      6.849
REMARK  7 active torsions:
REMARK  status: ('A' for Active; 'I' for Inactive)
REMARK    1  A    between atoms: C2_5  and  C3_6 
REMARK    2  A    between atoms: C3_6  and  C4_9 
REMARK    3  A    between atoms: N2_13  and  C6_14 
REMARK    4  A    between atoms: C6_14  and  C7_15 
REMARK    5  A    between atoms: C13_26  and  C14_27 
REMARK    6  A    between atoms: C14_27  and  C15_28 
REMARK    7  A    between atoms: C15_28  and  O2_29 
ROOT
HETATM    1  O1  UNL     1      16.719   0.716  17.147  1.00  0.00    -0.271 OA
HETATM    2  C1  UNL     1      16.479   1.337  16.091  1.00  0.00     0.245 C 
HETATM    3  N1  UNL     1      16.712   0.696  14.857  1.00  0.00    -0.322 N 
ATOM      4  H1  UNL     1      17.149  -0.226  14.836  1.00  0.00     0.169 HD
HETATM    5  C2  UNL     1      16.339   1.334  13.639  1.00  0.00     0.105 C 
HETATM    6  C5  UNL     1      16.559   2.818  13.689  1.00  0.00     0.123 C 
HETATM    7  N2  UNL     1      16.586   3.386  14.968  1.00  0.00    -0.350 N 
HETATM    8  C13 UNL     1      15.961   2.721  16.053  1.00  0.00     0.183 C 
ENDROOT
BRANCH   7   9
HETATM    9  C6  UNL     1      16.790   4.757  15.013  1.00  0.00     0.109 C 
BRANCH   9  10
HETATM   10  C7  UNL     1      16.812   5.545  13.774  1.00  0.00     0.063 A 
HETATM   11  C8  UNL     1      15.573   6.031  13.351  1.00  0.00     0.172 A 
HETATM   12  F5  UNL     1      14.465   5.722  14.046  1.00  0.00    -0.202 F 
HETATM   13  C9  UNL     1      15.438   6.825  12.240  1.00  0.00     0.197 A 
HETATM   14  F6  UNL     1      14.227   7.288  11.845  1.00  0.00    -0.199 F 
HETATM   15  C10 UNL     1      16.529   7.182  11.481  1.00  0.00     0.199 A 
HETATM   16  F7  UNL     1      16.368   7.965  10.389  1.00  0.00    -0.199 F 
HETATM   17  C11 UNL     1      17.747   6.710  11.890  1.00  0.00     0.197 A 
HETATM   18  F8  UNL     1      18.835   7.049  11.159  1.00  0.00    -0.199 F 
HETATM   19  C12 UNL     1      17.901   5.898  13.026  1.00  0.00     0.172 A 
HETATM   20  F9  UNL     1      19.152   5.528  13.378  1.00  0.00    -0.202 F 
ENDBRANCH   9  10
ENDBRANCH   7   9
BRANCH   8  21
HETATM   21  C14 UNL     1      14.486   2.874  16.102  1.00  0.00     0.061 C 
BRANCH  21  22
HETATM   22  C15 UNL     1      13.747   1.917  16.984  1.00  0.00     0.166 C 
BRANCH  22  23
HETATM   23  O2  UNL     1      13.775   0.597  16.562  1.00  0.00    -0.401 OA
ATOM     24  H2  UNL     1      12.995   0.096  16.768  1.00  0.00     0.209 HD
ENDBRANCH  22  23
ENDBRANCH  21  22
ENDBRANCH   8  21
BRANCH   5  25
HETATM   25  C3  UNL     1      16.742   0.650  12.385  1.00  0.00     0.344 C 
HETATM   26  F1  UNL     1      18.100   0.965  12.167  1.00  0.00    -0.193 F 
HETATM   27  F2  UNL     1      16.688  -0.717  12.608  1.00  0.00    -0.193 F 
BRANCH  25  28
HETATM   28  C4  UNL     1      16.019   0.982  11.140  1.00  0.00     0.431 C 
HETATM   29  F3  UNL     1      16.362   2.154  10.521  1.00  0.00    -0.207 F 
HETATM   30  F4  UNL     1      15.975  -0.074  10.232  1.00  0.00    -0.207 F 
ENDBRANCH  25  28
ENDBRANCH   5  25
TORSDOF 7
ENDMDL
MODEL 4
REMARK VINA RESULT: -8.170005922      3.210      7.019
REMARK  7 active torsions:
REMARK  status: ('A' for Active; 'I' for Inactive)
REMARK    1  A    between atoms: C2_5  and  C3_6 
REMARK    2  A    between atoms: C3_6  and  C4_9 
REMARK    3  A    between atoms: N2_13  and  C6_14 
REMARK    4  A    between atoms: C6_14  and  C7_15 
REMARK    5  A    between atoms: C13_26  and  C14_27 
REMARK    6  A    between atoms: C14_27  and  C15_28 
REMARK    7  A    between atoms: C15_28  and  O2_29 
ROOT
HETATM    1  O1  UNL     1      16.787   0.686  17.106  1.00  0.00    -0.271 OA
HETATM    2  C1  UNL     1      16.555   1.315  16.055  1.00  0.00     0.245 C 
HETATM    3  N1  UNL     1      16.747   0.668  14.817  1.00  0.00    -0.322 N 
ATOM      4  H1  UNL     1      17.150  -0.269  14.789  1.00  0.00     0.169 HD
HETATM    5  C2  UNL     1      16.380   1.321  13.605  1.00  0.00     0.105 C 
HETATM    6  C5  UNL     1      16.655   2.796  13.653  1.00  0.00     0.123 C 
HETATM    7  N2  UNL     1      16.721   3.361  14.932  1.00  0.00    -0.350 N 
HETATM    8  C13 UNL     1      16.088   2.718  16.025  1.00  0.00     0.183 C 
ENDROOT
BRANCH   7   9
HETATM    9  C6  UNL     1      16.976   4.724  14.974  1.00  0.00     0.109 C 
BRANCH   9  10
HETATM   10  C7  UNL     1      16.687   5.570  13.810  1.00  0.00     0.063 A 
HETATM   11  C8  UNL     1      17.788   5.892  13.015  1.00  0.00     0.172 A 
HETATM   12  F5  UNL     1      19.013   5.469  13.372  1.00  0.00    -0.202 F 
HETATM   13  C9  UNL     1      17.671   6.634  11.866  1.00  0.00     0.197 A 
HETATM   14  F6  UNL     1      18.751   6.936  11.106  1.00  0.00    -0.199 F 
HETATM   15  C10 UNL     1      16.447   7.099  11.439  1.00  0.00     0.199 A 
HETATM   16  F7  UNL     1      16.359   7.829  10.303  1.00  0.00    -0.199 F 
HETATM   17  C11 UNL     1      15.363   6.786  12.213  1.00  0.00     0.197 A 
HETATM   18  F8  UNL     1      14.150   7.234  11.813  1.00  0.00    -0.199 F 
HETATM   19  C12 UNL     1      15.468   6.028  13.391  1.00  0.00     0.172 A 
HETATM   20  F9  UNL     1      14.331   5.726  14.056  1.00  0.00    -0.202 F 
ENDBRANCH   9  10
ENDBRANCH   7   9
BRANCH   8  21
HETATM   21  C14 UNL     1      14.620   2.925  16.096  1.00  0.00     0.061 C 
BRANCH  21  22
HETATM   22  C15 UNL     1      13.856   1.980  16.970  1.00  0.00     0.166 C 
BRANCH  22  23
HETATM   23  O2  UNL     1      13.819   0.671  16.517  1.00  0.00    -0.401 OA
ATOM     24  H2  UNL     1      14.455   0.092  16.920  1.00  0.00     0.209 HD
ENDBRANCH  22  23
ENDBRANCH  21  22
ENDBRANCH   8  21
BRANCH   5  25
HETATM   25  C3  UNL     1      16.739   0.625  12.345  1.00  0.00     0.344 C 
HETATM   26  F1  UNL     1      18.105   0.889  12.107  1.00  0.00    -0.193 F 
HETATM   27  F2  UNL     1      16.638  -0.740  12.568  1.00  0.00    -0.193 F 
BRANCH  25  28
HETATM   28  C4  UNL     1      16.011   0.984  11.111  1.00  0.00     0.431 C 
HETATM   29  F3  UNL     1      16.358   2.166  10.511  1.00  0.00    -0.207 F 
HETATM   30  F4  UNL     1      15.956  -0.054  10.183  1.00  0.00    -0.207 F 
ENDBRANCH  25  28
ENDBRANCH   5  25
TORSDOF 7
ENDMDL
MODEL 5
REMARK VINA RESULT: -8.134470761      0.239      1.998
REMARK  7 active torsions:
REMARK  status: ('A' for Active; 'I' for Inactive)
REMARK    1  A    between atoms: C2_5  and  C3_6 
REMARK    2  A    between atoms: C3_6  and  C4_9 
REMARK    3  A    between atoms: N2_13  and  C6_14 
REMARK    4  A    between atoms: C6_14  and  C7_15 
REMARK    5  A    between atoms: C13_26  and  C14_27 
REMARK    6  A    between atoms: C14_27  and  C15_28 
REMARK    7  A    between atoms: C15_28  and  O2_29 
ROOT
HETATM    1  O1  UNL     1      19.918   3.587  12.863  1.00  0.00    -0.271 OA
HETATM    2  C1  UNL     1      19.015   4.417  13.092  1.00  0.00     0.245 C 
HETATM    3  N1  UNL     1      19.352   5.635  13.717  1.00  0.00    -0.322 N 
ATOM      4  H1  UNL     1      20.304   5.791  14.047  1.00  0.00     0.169 HD
HETATM    5  C2  UNL     1      18.366   6.648  13.885  1.00  0.00     0.105 C 
HETATM    6  C5  UNL     1      17.014   6.074  14.198  1.00  0.00     0.123 C 
HETATM    7  N2  UNL     1      16.807   4.751  13.791  1.00  0.00    -0.350 N 
HETATM    8  C13 UNL     1      17.593   4.198  12.749  1.00  0.00     0.183 C 
ENDROOT
BRANCH   7   9
HETATM    9  C6  UNL     1      15.559   4.221  14.082  1.00  0.00     0.109 C 
BRANCH   9  10
HETATM   10  C7  UNL     1      15.408   3.214  15.139  1.00  0.00     0.063 A 
HETATM   11  C8  UNL     1      15.993   1.974  14.875  1.00  0.00     0.172 A 
HETATM   12  F5  UNL     1      16.595   1.762  13.692  1.00  0.00    -0.202 F 
HETATM   13  C9  UNL     1      15.979   0.947  15.785  1.00  0.00     0.197 A 
HETATM   14  F6  UNL     1      16.553  -0.249  15.510  1.00  0.00    -0.199 F 
HETATM   15  C10 UNL     1      15.381   1.093  17.016  1.00  0.00     0.199 A 
HETATM   16  F7  UNL     1      15.381   0.065  17.896  1.00  0.00    -0.199 F 
HETATM   17  C11 UNL     1      14.806   2.307  17.284  1.00  0.00     0.197 A 
HETATM   18  F8  UNL     1      14.212   2.473  18.489  1.00  0.00    -0.199 F 
HETATM   19  C12 UNL     1      14.813   3.367  16.362  1.00  0.00     0.172 A 
HETATM   20  F9  UNL     1      14.266   4.543  16.742  1.00  0.00    -0.202 F 
ENDBRANCH   9  10
ENDBRANCH   7   9
BRANCH   8  21
HETATM   21  C14 UNL     1      17.176   4.600  11.383  1.00  0.00     0.061 C 
BRANCH  21  22
HETATM   22  C15 UNL     1      16.825   3.490  10.442  1.00  0.00     0.166 C 
BRANCH  22  23
HETATM   23  O2  UNL     1      15.748   2.713  10.835  1.00  0.00    -0.401 OA
ATOM     24  H2  UNL     1      15.980   1.877  11.221  1.00  0.00     0.209 HD
ENDBRANCH  22  23
ENDBRANCH  21  22
ENDBRANCH   8  21
BRANCH   5  25
HETATM   25  C3  UNL     1      18.771   7.842  14.669  1.00  0.00     0.344 C 
HETATM   26  F1  UNL     1      17.750   8.075  15.615  1.00  0.00    -0.193 F 
HETATM   27  F2  UNL     1      19.907   7.510  15.393  1.00  0.00    -0.193 F 
BRANCH  25  28
HETATM   28  C4  UNL     1      18.991   9.114  13.951  1.00  0.00     0.431 C 
HETATM   29  F3  UNL     1      18.395   9.241  12.724  1.00  0.00    -0.207 F 
HETATM   30  F4  UNL     1      18.763  10.238  14.741  1.00  0.00    -0.207 F 
ENDBRANCH  25  28
ENDBRANCH   5  25
TORSDOF 7
ENDMDL
