MODEL 1
REMARK VINA RESULT: -7.808845355      0.000      0.000
REMARK  11 active torsions:
REMARK  status: ('A' for Active; 'I' for Inactive)
REMARK    1  A    between atoms: C2_2  and  C3_3 
REMARK    2  A    between atoms: C3_3  and  C4_4 
REMARK       I    between atoms: C4_4  and  N1_6 
REMARK    3  A    between atoms: N1_6  and  C5_8 
REMARK    4  A    between atoms: C9_13  and  N2_14 
REMARK    5  A    between atoms: N2_14  and  C10_16 
REMARK    6  A    between atoms: C10_16  and  C11_17 
REMARK    7  A    between atoms: C11_17  and  C13_20 
REMARK    8  A    between atoms: C13_20  and  C14_21 
REMARK    9  A    between atoms: C14_21  and  C15_22 
REMARK   10  A    between atoms: C16_23  and  O2_24 
REMARK   11  A    between atoms: C17_26  and  O3_27 
ROOT
HETATM    1  C11 UNL     1       1.668 -36.016 -27.191  1.00  0.00     0.115 C 
HETATM    2  C12 UNL     1       2.415 -36.620 -28.361  1.00  0.00     0.053 C 
HETATM    3  F2  UNL     1       1.286 -37.043 -26.374  1.00  0.00    -0.242 F 
ENDROOT
BRANCH   1   4
HETATM    4  C10 UNL     1       0.376 -35.438 -27.813  1.00  0.00     0.157 C 
BRANCH   4   5
HETATM    5  N2  UNL     1      -0.650 -35.404 -26.827  1.00  0.00    -0.409 N 
ATOM      6  H2  UNL     1      -0.445 -35.537 -25.837  1.00  0.00     0.153 HD
BRANCH   5   7
HETATM    7  C9  UNL     1      -1.979 -35.174 -27.291  1.00  0.00     0.133 C 
HETATM    8  C5  UNL     1      -2.485 -36.399 -28.004  1.00  0.00     0.109 C 
HETATM    9  C6  UNL     1      -2.602 -37.394 -26.842  1.00  0.00     0.030 C 
HETATM   10  C7  UNL     1      -3.293 -36.548 -25.809  1.00  0.00     0.041 C 
HETATM   11  C8  UNL     1      -2.884 -35.119 -26.075  1.00  0.00     0.194 C 
HETATM   12  F1  UNL     1      -3.934 -34.254 -26.211  1.00  0.00    -0.247 F 
BRANCH   8  13
HETATM   13  N1  UNL     1      -3.813 -36.183 -28.560  1.00  0.00    -0.354 N 
HETATM   14  C4  UNL     1      -3.928 -35.793 -29.907  1.00  0.00     0.217 C 
HETATM   15  O1  UNL     1      -2.883 -35.641 -30.600  1.00  0.00    -0.274 OA
ATOM     16  H1  UNL     1      -4.644 -36.313 -27.984  1.00  0.00     0.162 HD
BRANCH  14  17
HETATM   17  C3  UNL     1      -5.269 -35.561 -30.516  1.00  0.00     0.102 C 
BRANCH  17  18
HETATM   18  C2  UNL     1      -6.058 -36.832 -30.637  1.00  0.00     0.005 C 
HETATM   19  C1  UNL     1      -5.240 -38.020 -31.032  1.00  0.00     0.005 C 
ENDBRANCH  17  18
ENDBRANCH  14  17
ENDBRANCH   8  13
ENDBRANCH   5   7
ENDBRANCH   4   5
ENDBRANCH   1   4
BRANCH   1  20
HETATM   20  C13 UNL     1       2.414 -34.947 -26.501  1.00  0.00     0.045 C 
BRANCH  20  21
HETATM   21  C14 UNL     1       3.858 -35.105 -26.277  1.00  0.00     0.011 C 
BRANCH  21  22
HETATM   22  C15 UNL     1       4.293 -36.203 -25.333  1.00  0.00     0.024 C 
HETATM   23  C16 UNL     1       5.609 -36.729 -25.901  1.00  0.00     0.154 C 
HETATM   24  C17 UNL     1       6.344 -37.186 -24.678  1.00  0.00     0.176 C 
HETATM   25  C18 UNL     1       6.182 -35.935 -23.801  1.00  0.00     0.158 C 
HETATM   26  O4  UNL     1       6.404 -36.305 -22.516  1.00  0.00    -0.373 OA
HETATM   27  C23 UNL     1       4.724 -35.617 -23.993  1.00  0.00     0.027 C 
HETATM   28  C19 UNL     1       5.219 -36.348 -21.814  1.00  0.00     0.054 C 
HETATM   29  C20 UNL     1       5.194 -35.130 -20.905  1.00  0.00     0.045 C 
HETATM   30  C21 UNL     1       5.208 -37.579 -20.937  1.00  0.00     0.045 C 
HETATM   31  C22 UNL     1       4.094 -36.322 -22.813  1.00  0.00     0.045 C 
BRANCH  23  32
HETATM   32  O2  UNL     1       5.397 -37.753 -26.817  1.00  0.00    -0.393 OA
ATOM     33  H2  UNL     1       5.531 -37.455 -27.709  1.00  0.00     0.210 HD
ENDBRANCH  23  32
BRANCH  24  34
HETATM   34  O3  UNL     1       7.694 -37.404 -24.902  1.00  0.00    -0.390 OA
ATOM     35  H3  UNL     1       7.976 -38.279 -24.663  1.00  0.00     0.210 HD
ENDBRANCH  24  34
ENDBRANCH  21  22
ENDBRANCH  20  21
ENDBRANCH   1  20
TORSDOF 11
ENDMDL
MODEL 2
REMARK VINA RESULT: -7.730166729      3.887      8.826
REMARK  11 active torsions:
REMARK  status: ('A' for Active; 'I' for Inactive)
REMARK    1  A    between atoms: C2_2  and  C3_3 
REMARK    2  A    between atoms: C3_3  and  C4_4 
REMARK       I    between atoms: C4_4  and  N1_6 
REMARK    3  A    between atoms: N1_6  and  C5_8 
REMARK    4  A    between atoms: C9_13  and  N2_14 
REMARK    5  A    between atoms: N2_14  and  C10_16 
REMARK    6  A    between atoms: C10_16  and  C11_17 
REMARK    7  A    between atoms: C11_17  and  C13_20 
REMARK    8  A    between atoms: C13_20  and  C14_21 
REMARK    9  A    between atoms: C14_21  and  C15_22 
REMARK   10  A    between atoms: C16_23  and  O2_24 
REMARK   11  A    between atoms: C17_26  and  O3_27 
ROOT
HETATM    1  C11 UNL     1       1.245 -36.040 -27.266  1.00  0.00     0.115 C 
HETATM    2  C12 UNL     1       1.440 -37.469 -26.809  1.00  0.00     0.053 C 
HETATM    3  F2  UNL     1       1.659 -35.963 -28.566  1.00  0.00    -0.242 F 
ENDROOT
BRANCH   1   4
HETATM    4  C10 UNL     1       2.255 -35.224 -26.427  1.00  0.00     0.157 C 
BRANCH   4   5
HETATM    5  N2  UNL     1       2.307 -35.749 -25.106  1.00  0.00    -0.409 N 
ATOM      6  H2  UNL     1       2.479 -36.739 -24.930  1.00  0.00     0.153 HD
BRANCH   5   7
HETATM    7  C9  UNL     1       2.108 -34.824 -24.038  1.00  0.00     0.133 C 
HETATM    8  C5  UNL     1       0.746 -35.036 -23.433  1.00  0.00     0.109 C 
HETATM    9  C6  UNL     1       0.921 -36.414 -22.779  1.00  0.00     0.030 C 
HETATM   10  C7  UNL     1       2.246 -36.237 -22.091  1.00  0.00     0.041 C 
HETATM   11  C8  UNL     1       3.027 -35.232 -22.903  1.00  0.00     0.194 C 
HETATM   12  F1  UNL     1       3.502 -34.176 -22.175  1.00  0.00    -0.247 F 
BRANCH   8  13
HETATM   13  N1  UNL     1       0.469 -34.063 -22.386  1.00  0.00    -0.354 N 
HETATM   14  C4  UNL     1      -0.842 -33.575 -22.245  1.00  0.00     0.217 C 
HETATM   15  O1  UNL     1      -1.745 -33.990 -23.024  1.00  0.00    -0.274 OA
ATOM     16  H1  UNL     1       1.213 -33.742 -21.766  1.00  0.00     0.162 HD
BRANCH  14  17
HETATM   17  C3  UNL     1      -1.169 -32.577 -21.187  1.00  0.00     0.102 C 
BRANCH  17  18
HETATM   18  C2  UNL     1      -0.747 -31.190 -21.573  1.00  0.00     0.005 C 
HETATM   19  C1  UNL     1      -1.737 -30.469 -22.430  1.00  0.00     0.005 C 
ENDBRANCH  17  18
ENDBRANCH  14  17
ENDBRANCH   8  13
ENDBRANCH   5   7
ENDBRANCH   4   5
ENDBRANCH   1   4
BRANCH   1  20
HETATM   20  C13 UNL     1      -0.120 -35.528 -27.041  1.00  0.00     0.045 C 
BRANCH  20  21
HETATM   21  C14 UNL     1      -1.120 -36.396 -26.401  1.00  0.00     0.011 C 
BRANCH  21  22
HETATM   22  C15 UNL     1      -2.560 -36.212 -26.820  1.00  0.00     0.024 C 
HETATM   23  C16 UNL     1      -2.765 -34.703 -26.921  1.00  0.00     0.154 C 
HETATM   24  C17 UNL     1      -3.810 -34.575 -27.986  1.00  0.00     0.176 C 
HETATM   25  C18 UNL     1      -3.183 -35.470 -29.066  1.00  0.00     0.158 C 
HETATM   26  O4  UNL     1      -4.168 -35.821 -29.928  1.00  0.00    -0.373 OA
HETATM   27  C23 UNL     1      -2.762 -36.668 -28.260  1.00  0.00     0.027 C 
HETATM   28  C19 UNL     1      -4.525 -37.139 -29.742  1.00  0.00     0.054 C 
HETATM   29  C20 UNL     1      -3.947 -37.927 -30.906  1.00  0.00     0.045 C 
HETATM   30  C21 UNL     1      -6.031 -37.258 -29.806  1.00  0.00     0.045 C 
HETATM   31  C22 UNL     1      -3.951 -37.587 -28.425  1.00  0.00     0.045 C 
BRANCH  23  32
HETATM   32  O2  UNL     1      -3.164 -34.159 -25.705  1.00  0.00    -0.393 OA
ATOM     33  H2  UNL     1      -4.099 -33.987 -25.690  1.00  0.00     0.210 HD
ENDBRANCH  23  32
BRANCH  24  34
HETATM   34  O3  UNL     1      -3.928 -33.288 -28.484  1.00  0.00    -0.390 OA
ATOM     35  H3  UNL     1      -4.474 -32.727 -27.944  1.00  0.00     0.210 HD
ENDBRANCH  24  34
ENDBRANCH  21  22
ENDBRANCH  20  21
ENDBRANCH   1  20
TORSDOF 11
ENDMDL
MODEL 3
REMARK VINA RESULT: -7.719626654      3.010      5.079
REMARK  11 active torsions:
REMARK  status: ('A' for Active; 'I' for Inactive)
REMARK    1  A    between atoms: C2_2  and  C3_3 
REMARK    2  A    between atoms: C3_3  and  C4_4 
REMARK       I    between atoms: C4_4  and  N1_6 
REMARK    3  A    between atoms: N1_6  and  C5_8 
REMARK    4  A    between atoms: C9_13  and  N2_14 
REMARK    5  A    between atoms: N2_14  and  C10_16 
REMARK    6  A    between atoms: C10_16  and  C11_17 
REMARK    7  A    between atoms: C11_17  and  C13_20 
REMARK    8  A    between atoms: C13_20  and  C14_21 
REMARK    9  A    between atoms: C14_21  and  C15_22 
REMARK   10  A    between atoms: C16_23  and  O2_24 
REMARK   11  A    between atoms: C17_26  and  O3_27 
ROOT
HETATM    1  C11 UNL     1      -1.218 -36.079 -26.786  1.00  0.00     0.115 C 
HETATM    2  C12 UNL     1      -1.725 -35.423 -25.520  1.00  0.00     0.053 C 
HETATM    3  F2  UNL     1      -1.042 -35.095 -27.717  1.00  0.00    -0.242 F 
ENDROOT
BRANCH   1   4
HETATM    4  C10 UNL     1      -2.402 -36.946 -27.273  1.00  0.00     0.157 C 
BRANCH   4   5
HETATM    5  N2  UNL     1      -2.884 -36.436 -28.511  1.00  0.00    -0.409 N 
ATOM      6  H2  UNL     1      -2.310 -36.447 -29.354  1.00  0.00     0.153 HD
BRANCH   5   7
HETATM    7  C9  UNL     1      -4.209 -35.909 -28.517  1.00  0.00     0.133 C 
HETATM    8  C5  UNL     1      -4.163 -34.421 -28.294  1.00  0.00     0.109 C 
HETATM    9  C6  UNL     1      -3.507 -33.945 -29.597  1.00  0.00     0.030 C 
HETATM   10  C7  UNL     1      -4.291 -34.725 -30.614  1.00  0.00     0.041 C 
HETATM   11  C8  UNL     1      -4.732 -36.001 -29.938  1.00  0.00     0.194 C 
HETATM   12  F1  UNL     1      -6.077 -36.237 -30.014  1.00  0.00    -0.247 F 
BRANCH   8  13
HETATM   13  N1  UNL     1      -5.500 -33.850 -28.218  1.00  0.00    -0.354 N 
HETATM   14  C4  UNL     1      -5.992 -33.443 -26.965  1.00  0.00     0.217 C 
HETATM   15  O1  UNL     1      -5.267 -33.579 -25.940  1.00  0.00    -0.274 OA
ATOM     16  H1  UNL     1      -6.069 -33.747 -29.058  1.00  0.00     0.162 HD
BRANCH  14  17
HETATM   17  C3  UNL     1      -7.356 -32.854 -26.842  1.00  0.00     0.102 C 
BRANCH  17  18
HETATM   18  C2  UNL     1      -8.134 -33.471 -25.717  1.00  0.00     0.005 C 
HETATM   19  C1  UNL     1      -9.613 -33.282 -25.826  1.00  0.00     0.005 C 
ENDBRANCH  17  18
ENDBRANCH  14  17
ENDBRANCH   8  13
ENDBRANCH   5   7
ENDBRANCH   4   5
ENDBRANCH   1   4
BRANCH   1  20
HETATM   20  C13 UNL     1      -0.029 -36.927 -26.577  1.00  0.00     0.045 C 
BRANCH  20  21
HETATM   21  C14 UNL     1       1.221 -36.312 -26.108  1.00  0.00     0.011 C 
BRANCH  21  22
HETATM   22  C15 UNL     1       2.257 -35.973 -27.155  1.00  0.00     0.024 C 
HETATM   23  C16 UNL     1       3.375 -35.256 -26.402  1.00  0.00     0.154 C 
HETATM   24  C17 UNL     1       4.596 -35.610 -27.195  1.00  0.00     0.176 C 
HETATM   25  C18 UNL     1       4.408 -37.132 -27.287  1.00  0.00     0.158 C 
HETATM   26  O4  UNL     1       5.169 -37.576 -28.316  1.00  0.00    -0.373 OA
HETATM   27  C23 UNL     1       2.952 -37.236 -27.650  1.00  0.00     0.027 C 
HETATM   28  C19 UNL     1       4.378 -37.909 -29.393  1.00  0.00     0.054 C 
HETATM   29  C20 UNL     1       4.332 -39.427 -29.463  1.00  0.00     0.045 C 
HETATM   30  C21 UNL     1       5.032 -37.409 -30.662  1.00  0.00     0.045 C 
HETATM   31  C22 UNL     1       3.013 -37.320 -29.159  1.00  0.00     0.045 C 
BRANCH  23  32
HETATM   32  O2  UNL     1       3.152 -33.885 -26.338  1.00  0.00    -0.393 OA
ATOM     33  H2  UNL     1       2.723 -33.639 -25.526  1.00  0.00     0.210 HD
ENDBRANCH  23  32
BRANCH  24  34
HETATM   34  O3  UNL     1       5.779 -35.344 -26.525  1.00  0.00    -0.390 OA
ATOM     35  H3  UNL     1       5.947 -35.946 -25.810  1.00  0.00     0.210 HD
ENDBRANCH  24  34
ENDBRANCH  21  22
ENDBRANCH  20  21
ENDBRANCH   1  20
TORSDOF 11
ENDMDL
MODEL 4
REMARK VINA RESULT: -7.666878794      3.149      5.109
REMARK  11 active torsions:
REMARK  status: ('A' for Active; 'I' for Inactive)
REMARK    1  A    between atoms: C2_2  and  C3_3 
REMARK    2  A    between atoms: C3_3  and  C4_4 
REMARK       I    between atoms: C4_4  and  N1_6 
REMARK    3  A    between atoms: N1_6  and  C5_8 
REMARK    4  A    between atoms: C9_13  and  N2_14 
REMARK    5  A    between atoms: N2_14  and  C10_16 
REMARK    6  A    between atoms: C10_16  and  C11_17 
REMARK    7  A    between atoms: C11_17  and  C13_20 
REMARK    8  A    between atoms: C13_20  and  C14_21 
REMARK    9  A    between atoms: C14_21  and  C15_22 
REMARK   10  A    between atoms: C16_23  and  O2_24 
REMARK   11  A    between atoms: C17_26  and  O3_27 
ROOT
HETATM    1  C11 UNL     1      -1.171 -36.325 -26.677  1.00  0.00     0.115 C 
HETATM    2  C12 UNL     1      -1.597 -35.611 -25.413  1.00  0.00     0.053 C 
HETATM    3  F2  UNL     1      -1.207 -35.415 -27.696  1.00  0.00    -0.242 F 
ENDROOT
BRANCH   1   4
HETATM    4  C10 UNL     1      -2.304 -37.341 -26.948  1.00  0.00     0.157 C 
BRANCH   4   5
HETATM    5  N2  UNL     1      -3.102 -36.882 -28.034  1.00  0.00    -0.409 N 
ATOM      6  H2  UNL     1      -2.685 -36.571 -28.910  1.00  0.00     0.153 HD
BRANCH   5   7
HETATM    7  C9  UNL     1      -4.515 -36.879 -27.836  1.00  0.00     0.133 C 
HETATM    8  C5  UNL     1      -4.904 -35.697 -26.989  1.00  0.00     0.109 C 
HETATM    9  C6  UNL     1      -4.602 -34.534 -27.943  1.00  0.00     0.030 C 
HETATM   10  C7  UNL     1      -5.230 -35.035 -29.213  1.00  0.00     0.041 C 
HETATM   11  C8  UNL     1      -5.162 -36.543 -29.166  1.00  0.00     0.194 C 
HETATM   12  F1  UNL     1      -6.365 -37.162 -29.362  1.00  0.00    -0.247 F 
BRANCH   8  13
HETATM   13  N1  UNL     1      -6.330 -35.694 -26.698  1.00  0.00    -0.354 N 
HETATM   14  C4  UNL     1      -6.775 -36.241 -25.481  1.00  0.00     0.217 C 
HETATM   15  O1  UNL     1      -5.932 -36.718 -24.672  1.00  0.00    -0.274 OA
ATOM     16  H1  UNL     1      -6.995 -35.302 -27.365  1.00  0.00     0.162 HD
BRANCH  14  17
HETATM   17  C3  UNL     1      -8.227 -36.259 -25.144  1.00  0.00     0.102 C 
BRANCH  17  18
HETATM   18  C2  UNL     1      -8.863 -37.577 -25.474  1.00  0.00     0.005 C 
HETATM   19  C1  UNL     1     -10.357 -37.568 -25.398  1.00  0.00     0.005 C 
ENDBRANCH  17  18
ENDBRANCH  14  17
ENDBRANCH   8  13
ENDBRANCH   5   7
ENDBRANCH   4   5
ENDBRANCH   1   4
BRANCH   1  20
HETATM   20  C13 UNL     1       0.117 -37.033 -26.552  1.00  0.00     0.045 C 
BRANCH  20  21
HETATM   21  C14 UNL     1       1.309 -36.290 -26.119  1.00  0.00     0.011 C 
BRANCH  21  22
HETATM   22  C15 UNL     1       2.337 -35.959 -27.177  1.00  0.00     0.024 C 
HETATM   23  C16 UNL     1       3.468 -35.249 -26.436  1.00  0.00     0.154 C 
HETATM   24  C17 UNL     1       4.678 -35.613 -27.241  1.00  0.00     0.176 C 
HETATM   25  C18 UNL     1       4.478 -37.134 -27.328  1.00  0.00     0.158 C 
HETATM   26  O4  UNL     1       5.226 -37.585 -28.364  1.00  0.00    -0.373 OA
HETATM   27  C23 UNL     1       3.018 -37.229 -27.677  1.00  0.00     0.027 C 
HETATM   28  C19 UNL     1       4.422 -37.915 -29.432  1.00  0.00     0.054 C 
HETATM   29  C20 UNL     1       4.365 -39.433 -29.498  1.00  0.00     0.045 C 
HETATM   30  C21 UNL     1       5.066 -37.422 -30.708  1.00  0.00     0.045 C 
HETATM   31  C22 UNL     1       3.063 -37.316 -29.185  1.00  0.00     0.045 C 
BRANCH  23  32
HETATM   32  O2  UNL     1       3.254 -33.877 -26.373  1.00  0.00    -0.393 OA
ATOM     33  H2  UNL     1       4.073 -33.400 -26.298  1.00  0.00     0.210 HD
ENDBRANCH  23  32
BRANCH  24  34
HETATM   34  O3  UNL     1       5.869 -35.354 -26.584  1.00  0.00    -0.390 OA
ATOM     35  H3  UNL     1       6.443 -36.110 -26.537  1.00  0.00     0.210 HD
ENDBRANCH  24  34
ENDBRANCH  21  22
ENDBRANCH  20  21
ENDBRANCH   1  20
TORSDOF 11
ENDMDL
MODEL 5
REMARK VINA RESULT: -7.607875609      1.079      1.262
REMARK  11 active torsions:
REMARK  status: ('A' for Active; 'I' for Inactive)
REMARK    1  A    between atoms: C2_2  and  C3_3 
REMARK    2  A    between atoms: C3_3  and  C4_4 
REMARK       I    between atoms: C4_4  and  N1_6 
REMARK    3  A    between atoms: N1_6  and  C5_8 
REMARK    4  A    between atoms: C9_13  and  N2_14 
REMARK    5  A    between atoms: N2_14  and  C10_16 
REMARK    6  A    between atoms: C10_16  and  C11_17 
REMARK    7  A    between atoms: C11_17  and  C13_20 
REMARK    8  A    between atoms: C13_20  and  C14_21 
REMARK    9  A    between atoms: C14_21  and  C15_22 
REMARK   10  A    between atoms: C16_23  and  O2_24 
REMARK   11  A    between atoms: C17_26  and  O3_27 
ROOT
HETATM    1  C11 UNL     1       1.725 -35.980 -27.119  1.00  0.00     0.115 C 
HETATM    2  C12 UNL     1       2.465 -36.683 -28.236  1.00  0.00     0.053 C 
HETATM    3  F2  UNL     1       1.343 -36.932 -26.216  1.00  0.00    -0.242 F 
ENDROOT
BRANCH   1   4
HETATM    4  C10 UNL     1       0.433 -35.452 -27.783  1.00  0.00     0.157 C 
BRANCH   4   5
HETATM    5  N2  UNL     1      -0.623 -35.449 -26.828  1.00  0.00    -0.409 N 
ATOM      6  H2  UNL     1      -0.449 -35.622 -25.839  1.00  0.00     0.153 HD
BRANCH   5   7
HETATM    7  C9  UNL     1      -1.936 -35.192 -27.323  1.00  0.00     0.133 C 
HETATM    8  C5  UNL     1      -2.512 -36.453 -27.910  1.00  0.00     0.109 C 
HETATM    9  C6  UNL     1      -2.688 -37.314 -26.651  1.00  0.00     0.030 C 
HETATM   10  C7  UNL     1      -3.329 -36.326 -25.717  1.00  0.00     0.041 C 
HETATM   11  C8  UNL     1      -2.837 -34.959 -26.126  1.00  0.00     0.194 C 
HETATM   12  F1  UNL     1      -3.836 -34.053 -26.359  1.00  0.00    -0.247 F 
BRANCH   8  13
HETATM   13  N1  UNL     1      -3.824 -36.220 -28.494  1.00  0.00    -0.354 N 
HETATM   14  C4  UNL     1      -3.904 -35.802 -29.835  1.00  0.00     0.217 C 
HETATM   15  O1  UNL     1      -2.841 -35.640 -30.498  1.00  0.00    -0.274 OA
ATOM     16  H1  UNL     1      -4.671 -36.357 -27.942  1.00  0.00     0.162 HD
BRANCH  14  17
HETATM   17  C3  UNL     1      -5.227 -35.551 -30.473  1.00  0.00     0.102 C 
BRANCH  17  18
HETATM   18  C2  UNL     1      -6.013 -36.816 -30.651  1.00  0.00     0.005 C 
HETATM   19  C1  UNL     1      -5.185 -37.997 -31.046  1.00  0.00     0.005 C 
ENDBRANCH  17  18
ENDBRANCH  14  17
ENDBRANCH   8  13
ENDBRANCH   5   7
ENDBRANCH   4   5
ENDBRANCH   1   4
BRANCH   1  20
HETATM   20  C13 UNL     1       2.477 -34.858 -26.526  1.00  0.00     0.045 C 
BRANCH  20  21
HETATM   21  C14 UNL     1       3.825 -35.097 -25.989  1.00  0.00     0.011 C 
BRANCH  21  22
HETATM   22  C15 UNL     1       3.939 -36.030 -24.806  1.00  0.00     0.024 C 
HETATM   23  C16 UNL     1       5.437 -36.258 -24.613  1.00  0.00     0.154 C 
HETATM   24  C17 UNL     1       5.554 -36.489 -23.137  1.00  0.00     0.176 C 
HETATM   25  C18 UNL     1       4.758 -35.279 -22.626  1.00  0.00     0.158 C 
HETATM   26  O4  UNL     1       4.392 -35.542 -21.348  1.00  0.00    -0.373 OA
HETATM   27  C23 UNL     1       3.548 -35.313 -23.518  1.00  0.00     0.027 C 
HETATM   28  C19 UNL     1       3.046 -35.831 -21.281  1.00  0.00     0.054 C 
HETATM   29  C20 UNL     1       2.358 -34.620 -20.673  1.00  0.00     0.045 C 
HETATM   30  C21 UNL     1       2.837 -37.000 -20.344  1.00  0.00     0.045 C 
HETATM   31  C22 UNL     1       2.566 -36.102 -22.682  1.00  0.00     0.045 C 
BRANCH  23  32
HETATM   32  O2  UNL     1       5.890 -37.336 -25.365  1.00  0.00    -0.393 OA
ATOM     33  H2  UNL     1       6.427 -37.050 -26.096  1.00  0.00     0.210 HD
ENDBRANCH  23  32
BRANCH  24  34
HETATM   34  O3  UNL     1       6.856 -36.399 -22.672  1.00  0.00    -0.390 OA
ATOM     35  H3  UNL     1       6.980 -36.807 -21.824  1.00  0.00     0.210 HD
ENDBRANCH  24  34
ENDBRANCH  21  22
ENDBRANCH  20  21
ENDBRANCH   1  20
TORSDOF 11
ENDMDL
