MODEL 1
REMARK VINA RESULT: -8.368003984      0.000      0.000
REMARK  12 active torsions:
REMARK  status: ('A' for Active; 'I' for Inactive)
REMARK    1  A    between atoms: C2_2  and  C3_3 
REMARK    2  A    between atoms: C3_3  and  C4_4 
REMARK       I    between atoms: C4_4  and  N1_6 
REMARK    3  A    between atoms: N1_6  and  C5_8 
REMARK    4  A    between atoms: C5_8  and  C6_9 
REMARK    5  A    between atoms: N2_12  and  C9_13 
REMARK    6  A    between atoms: C10_16  and  N4_17 
REMARK    7  A    between atoms: N4_17  and  C11_19 
REMARK    8  A    between atoms: C11_19  and  C12_20 
REMARK    9  A    between atoms: C13_25  and  N6_26 
REMARK   10  A    between atoms: N6_26  and  C14_28 
REMARK   11  A    between atoms: C14_28  and  C15_29 
REMARK   12  A    between atoms: C15_29  and  C16_30 
ROOT
HETATM    1  C9  UNL     1      -1.214 -35.277 -27.100  1.00  0.00     0.709 A 
HETATM    2  N3  UNL     1      -2.225 -35.428 -26.242  1.00  0.00    -0.021 N 
ATOM      3  H3  UNL     1      -2.045 -35.702 -25.276  1.00  0.00     0.203 HD
HETATM    4  C10 UNL     1      -3.512 -35.212 -26.675  1.00  0.00     0.707 A 
HETATM    5  N5  UNL     1      -3.668 -34.857 -27.949  1.00  0.00    -0.022 N 
ATOM      6  H5  UNL     1      -4.619 -34.692 -28.279  1.00  0.00     0.203 HD
HETATM    7  C13 UNL     1      -2.664 -34.697 -28.837  1.00  0.00     0.707 A 
HETATM    8  N7  UNL     1      -1.413 -34.912 -28.403  1.00  0.00    -0.021 N 
ATOM      9  H7  UNL     1      -0.620 -34.805 -29.036  1.00  0.00     0.203 HD
ENDROOT
BRANCH   1  10
HETATM   10  N2  UNL     1       0.111 -35.512 -26.616  1.00  0.00    -0.217 N 
HETATM   11  C8  UNL     1       1.258 -35.470 -27.499  1.00  0.00     0.141 C 
HETATM   12  C7  UNL     1       2.349 -34.682 -26.803  1.00  0.00     0.027 C 
HETATM   13  C6  UNL     1       2.830 -35.416 -25.573  1.00  0.00     0.006 C 
HETATM   14  C21 UNL     1       1.776 -36.394 -25.097  1.00  0.00     0.027 C 
HETATM   15  C20 UNL     1       0.387 -35.803 -25.216  1.00  0.00     0.141 C 
BRANCH  13  16
HETATM   16  C5  UNL     1       4.125 -36.104 -25.908  1.00  0.00     0.127 C 
BRANCH  16  17
HETATM   17  N1  UNL     1       3.993 -36.971 -27.068  1.00  0.00    -0.361 N 
HETATM   18  C4  UNL     1       5.150 -37.558 -27.652  1.00  0.00     0.217 C 
HETATM   19  O1  UNL     1       6.304 -37.335 -27.172  1.00  0.00    -0.274 OA
ATOM     20  H1  UNL     1       3.071 -37.159 -27.462  1.00  0.00     0.162 HD
BRANCH  18  21
HETATM   21  C3  UNL     1       4.994 -38.432 -28.827  1.00  0.00     0.102 C 
BRANCH  21  22
HETATM   22  C2  UNL     1       3.863 -37.907 -29.677  1.00  0.00     0.005 C 
HETATM   23  C1  UNL     1       4.227 -37.809 -31.129  1.00  0.00     0.005 C 
ENDBRANCH  21  22
ENDBRANCH  18  21
ENDBRANCH  16  17
ENDBRANCH  13  16
ENDBRANCH   1  10
BRANCH   4  24
HETATM   24  N4  UNL     1      -4.465 -35.364 -25.827  1.00  0.00    -0.220 N 
ATOM     25  H4  UNL     1      -4.296 -35.164 -24.841  1.00  0.00     0.177 HD
BRANCH  24  26
HETATM   26  C11 UNL     1      -5.760 -35.810 -26.243  1.00  0.00     0.209 C 
BRANCH  26  27
HETATM   27  C12 UNL     1      -6.020 -37.255 -25.870  1.00  0.00     0.371 C 
HETATM   28  F1  UNL     1      -5.040 -38.118 -26.295  1.00  0.00    -0.213 F 
HETATM   29  F2  UNL     1      -7.186 -37.623 -26.548  1.00  0.00    -0.213 F 
ENDBRANCH  26  27
ENDBRANCH  24  26
ENDBRANCH   4  24
BRANCH   7  30
HETATM   30  N6  UNL     1      -2.885 -34.354 -30.050  1.00  0.00    -0.225 N 
ATOM     31  H6  UNL     1      -2.305 -33.610 -30.438  1.00  0.00     0.177 HD
BRANCH  30  32
HETATM   32  C14 UNL     1      -3.872 -34.924 -30.905  1.00  0.00     0.139 C 
BRANCH  32  33
HETATM   33  C15 UNL     1      -3.607 -36.372 -31.238  1.00  0.00     0.028 C 
BRANCH  33  34
HETATM   34  C16 UNL     1      -4.621 -37.289 -30.588  1.00  0.00    -0.050 C 
HETATM   35  C17 UNL     1      -5.802 -36.535 -30.051  1.00  0.00     0.014 C 
HETATM   36  C18 UNL     1      -3.940 -37.953 -29.386  1.00  0.00     0.014 C 
HETATM   37  C19 UNL     1      -5.095 -38.383 -31.489  1.00  0.00     0.014 C 
ENDBRANCH  33  34
ENDBRANCH  32  33
ENDBRANCH  30  32
ENDBRANCH   7  30
TORSDOF 12
ENDMDL
MODEL 2
REMARK VINA RESULT: -8.127372414      1.822      2.962
REMARK  12 active torsions:
REMARK  status: ('A' for Active; 'I' for Inactive)
REMARK    1  A    between atoms: C2_2  and  C3_3 
REMARK    2  A    between atoms: C3_3  and  C4_4 
REMARK       I    between atoms: C4_4  and  N1_6 
REMARK    3  A    between atoms: N1_6  and  C5_8 
REMARK    4  A    between atoms: C5_8  and  C6_9 
REMARK    5  A    between atoms: N2_12  and  C9_13 
REMARK    6  A    between atoms: C10_16  and  N4_17 
REMARK    7  A    between atoms: N4_17  and  C11_19 
REMARK    8  A    between atoms: C11_19  and  C12_20 
REMARK    9  A    between atoms: C13_25  and  N6_26 
REMARK   10  A    between atoms: N6_26  and  C14_28 
REMARK   11  A    between atoms: C14_28  and  C15_29 
REMARK   12  A    between atoms: C15_29  and  C16_30 
ROOT
HETATM    1  C9  UNL     1      -0.074 -35.734 -27.030  1.00  0.00     0.709 A 
HETATM    2  N3  UNL     1      -0.817 -36.212 -26.029  1.00  0.00    -0.021 N 
ATOM      3  H3  UNL     1      -0.373 -36.641 -25.217  1.00  0.00     0.203 HD
HETATM    4  C10 UNL     1      -2.186 -36.119 -26.104  1.00  0.00     0.707 A 
HETATM    5  N5  UNL     1      -2.693 -35.545 -27.193  1.00  0.00    -0.022 N 
ATOM      6  H5  UNL     1      -3.708 -35.470 -27.258  1.00  0.00     0.203 HD
HETATM    7  C13 UNL     1      -1.966 -35.054 -28.219  1.00  0.00     0.707 A 
HETATM    8  N7  UNL     1      -0.630 -35.152 -28.135  1.00  0.00    -0.021 N 
ATOM      9  H7  UNL     1      -0.037 -34.796 -28.884  1.00  0.00     0.203 HD
ENDROOT
BRANCH   1  10
HETATM   10  N2  UNL     1       1.347 -35.849 -26.919  1.00  0.00    -0.217 N 
HETATM   11  C8  UNL     1       2.030 -37.095 -27.197  1.00  0.00     0.141 C 
HETATM   12  C7  UNL     1       3.247 -36.777 -28.042  1.00  0.00     0.027 C 
HETATM   13  C6  UNL     1       4.239 -35.955 -27.254  1.00  0.00     0.006 C 
HETATM   14  C21 UNL     1       3.547 -35.250 -26.105  1.00  0.00     0.027 C 
HETATM   15  C20 UNL     1       2.189 -34.727 -26.523  1.00  0.00     0.141 C 
BRANCH  13  16
HETATM   16  C5  UNL     1       5.335 -36.867 -26.775  1.00  0.00     0.127 C 
BRANCH  16  17
HETATM   17  N1  UNL     1       5.352 -36.978 -25.325  1.00  0.00    -0.361 N 
HETATM   18  C4  UNL     1       6.534 -37.406 -24.659  1.00  0.00     0.217 C 
HETATM   19  O1  UNL     1       7.582 -37.694 -25.315  1.00  0.00    -0.274 OA
ATOM     20  H1  UNL     1       4.517 -36.748 -24.786  1.00  0.00     0.162 HD
BRANCH  18  21
HETATM   21  C3  UNL     1       6.530 -37.512 -23.190  1.00  0.00     0.102 C 
BRANCH  21  22
HETATM   22  C2  UNL     1       5.390 -36.685 -22.646  1.00  0.00     0.005 C 
HETATM   23  C1  UNL     1       5.852 -35.407 -22.012  1.00  0.00     0.005 C 
ENDBRANCH  21  22
ENDBRANCH  18  21
ENDBRANCH  16  17
ENDBRANCH  13  16
ENDBRANCH   1  10
BRANCH   4  24
HETATM   24  N4  UNL     1      -2.875 -36.586 -25.125  1.00  0.00    -0.220 N 
ATOM     25  H4  UNL     1      -2.395 -36.996 -24.324  1.00  0.00     0.177 HD
BRANCH  24  26
HETATM   26  C11 UNL     1      -4.306 -36.541 -25.141  1.00  0.00     0.209 C 
BRANCH  26  27
HETATM   27  C12 UNL     1      -4.922 -37.889 -25.457  1.00  0.00     0.371 C 
HETATM   28  F1  UNL     1      -4.319 -38.537 -26.507  1.00  0.00    -0.213 F 
HETATM   29  F2  UNL     1      -6.235 -37.626 -25.861  1.00  0.00    -0.213 F 
ENDBRANCH  26  27
ENDBRANCH  24  26
ENDBRANCH   4  24
BRANCH   7  30
HETATM   30  N6  UNL     1      -2.518 -34.514 -29.240  1.00  0.00    -0.225 N 
ATOM     31  H6  UNL     1      -1.985 -33.801 -29.737  1.00  0.00     0.177 HD
BRANCH  30  32
HETATM   32  C14 UNL     1      -3.816 -34.826 -29.741  1.00  0.00     0.139 C 
BRANCH  32  33
HETATM   33  C15 UNL     1      -3.817 -35.982 -30.711  1.00  0.00     0.028 C 
BRANCH  33  34
HETATM   34  C16 UNL     1      -4.526 -37.191 -30.138  1.00  0.00    -0.050 C 
HETATM   35  C17 UNL     1      -5.335 -37.915 -31.174  1.00  0.00     0.014 C 
HETATM   36  C18 UNL     1      -5.515 -36.688 -29.081  1.00  0.00     0.014 C 
HETATM   37  C19 UNL     1      -3.604 -38.154 -29.462  1.00  0.00     0.014 C 
ENDBRANCH  33  34
ENDBRANCH  32  33
ENDBRANCH  30  32
ENDBRANCH   7  30
TORSDOF 12
ENDMDL
MODEL 3
REMARK VINA RESULT: -7.830504179      2.390      3.512
REMARK  12 active torsions:
REMARK  status: ('A' for Active; 'I' for Inactive)
REMARK    1  A    between atoms: C2_2  and  C3_3 
REMARK    2  A    between atoms: C3_3  and  C4_4 
REMARK       I    between atoms: C4_4  and  N1_6 
REMARK    3  A    between atoms: N1_6  and  C5_8 
REMARK    4  A    between atoms: C5_8  and  C6_9 
REMARK    5  A    between atoms: N2_12  and  C9_13 
REMARK    6  A    between atoms: C10_16  and  N4_17 
REMARK    7  A    between atoms: N4_17  and  C11_19 
REMARK    8  A    between atoms: C11_19  and  C12_20 
REMARK    9  A    between atoms: C13_25  and  N6_26 
REMARK   10  A    between atoms: N6_26  and  C14_28 
REMARK   11  A    between atoms: C14_28  and  C15_29 
REMARK   12  A    between atoms: C15_29  and  C16_30 
ROOT
HETATM    1  C9  UNL     1      -0.086 -35.755 -26.993  1.00  0.00     0.709 A 
HETATM    2  N3  UNL     1      -0.814 -36.272 -26.000  1.00  0.00    -0.021 N 
ATOM      3  H3  UNL     1      -0.358 -36.730 -25.211  1.00  0.00     0.203 HD
HETATM    4  C10 UNL     1      -2.184 -36.180 -26.053  1.00  0.00     0.707 A 
HETATM    5  N5  UNL     1      -2.707 -35.568 -27.113  1.00  0.00    -0.022 N 
ATOM      6  H5  UNL     1      -3.723 -35.493 -27.161  1.00  0.00     0.203 HD
HETATM    7  C13 UNL     1      -1.995 -35.037 -28.130  1.00  0.00     0.707 A 
HETATM    8  N7  UNL     1      -0.658 -35.134 -28.067  1.00  0.00    -0.021 N 
ATOM      9  H7  UNL     1      -0.076 -34.748 -28.811  1.00  0.00     0.203 HD
ENDROOT
BRANCH   1  10
HETATM   10  N2  UNL     1       1.337 -35.869 -26.905  1.00  0.00    -0.217 N 
HETATM   11  C8  UNL     1       2.018 -37.108 -27.220  1.00  0.00     0.141 C 
HETATM   12  C7  UNL     1       3.221 -36.769 -28.076  1.00  0.00     0.027 C 
HETATM   13  C6  UNL     1       4.224 -35.963 -27.285  1.00  0.00     0.006 C 
HETATM   14  C21 UNL     1       3.548 -35.285 -26.111  1.00  0.00     0.027 C 
HETATM   15  C20 UNL     1       2.183 -34.755 -26.497  1.00  0.00     0.141 C 
BRANCH  13  16
HETATM   16  C5  UNL     1       5.328 -36.883 -26.842  1.00  0.00     0.127 C 
BRANCH  16  17
HETATM   17  N1  UNL     1       5.347 -37.051 -25.398  1.00  0.00    -0.361 N 
HETATM   18  C4  UNL     1       6.542 -37.464 -24.746  1.00  0.00     0.217 C 
HETATM   19  O1  UNL     1       7.600 -37.690 -25.410  1.00  0.00    -0.274 OA
ATOM     20  H1  UNL     1       4.504 -36.871 -24.853  1.00  0.00     0.162 HD
BRANCH  18  21
HETATM   21  C3  UNL     1       6.539 -37.629 -23.282  1.00  0.00     0.102 C 
BRANCH  21  22
HETATM   22  C2  UNL     1       5.723 -36.516 -22.670  1.00  0.00     0.005 C 
HETATM   23  C1  UNL     1       6.498 -35.713 -21.668  1.00  0.00     0.005 C 
ENDBRANCH  21  22
ENDBRANCH  18  21
ENDBRANCH  16  17
ENDBRANCH  13  16
ENDBRANCH   1  10
BRANCH   4  24
HETATM   24  N4  UNL     1      -2.858 -36.686 -25.083  1.00  0.00    -0.220 N 
ATOM     25  H4  UNL     1      -3.092 -37.678 -25.098  1.00  0.00     0.177 HD
BRANCH  24  26
HETATM   26  C11 UNL     1      -3.288 -35.878 -23.981  1.00  0.00     0.209 C 
BRANCH  26  27
HETATM   27  C12 UNL     1      -2.651 -36.301 -22.673  1.00  0.00     0.371 C 
HETATM   28  F1  UNL     1      -1.281 -36.381 -22.729  1.00  0.00    -0.213 F 
HETATM   29  F2  UNL     1      -3.109 -37.598 -22.425  1.00  0.00    -0.213 F 
ENDBRANCH  26  27
ENDBRANCH  24  26
ENDBRANCH   4  24
BRANCH   7  30
HETATM   30  N6  UNL     1      -2.563 -34.461 -29.123  1.00  0.00    -0.225 N 
ATOM     31  H6  UNL     1      -2.596 -33.442 -29.114  1.00  0.00     0.177 HD
BRANCH  30  32
HETATM   32  C14 UNL     1      -3.152 -35.124 -30.239  1.00  0.00     0.139 C 
BRANCH  32  33
HETATM   33  C15 UNL     1      -4.649 -35.272 -30.120  1.00  0.00     0.028 C 
BRANCH  33  34
HETATM   34  C16 UNL     1      -5.052 -36.713 -29.896  1.00  0.00    -0.050 C 
HETATM   35  C17 UNL     1      -3.992 -37.674 -30.351  1.00  0.00     0.014 C 
HETATM   36  C18 UNL     1      -6.290 -36.987 -30.757  1.00  0.00     0.014 C 
HETATM   37  C19 UNL     1      -5.421 -37.013 -28.479  1.00  0.00     0.014 C 
ENDBRANCH  33  34
ENDBRANCH  32  33
ENDBRANCH  30  32
ENDBRANCH   7  30
TORSDOF 12
ENDMDL
MODEL 4
REMARK VINA RESULT: -7.794577032      2.225      4.205
REMARK  12 active torsions:
REMARK  status: ('A' for Active; 'I' for Inactive)
REMARK    1  A    between atoms: C2_2  and  C3_3 
REMARK    2  A    between atoms: C3_3  and  C4_4 
REMARK       I    between atoms: C4_4  and  N1_6 
REMARK    3  A    between atoms: N1_6  and  C5_8 
REMARK    4  A    between atoms: C5_8  and  C6_9 
REMARK    5  A    between atoms: N2_12  and  C9_13 
REMARK    6  A    between atoms: C10_16  and  N4_17 
REMARK    7  A    between atoms: N4_17  and  C11_19 
REMARK    8  A    between atoms: C11_19  and  C12_20 
REMARK    9  A    between atoms: C13_25  and  N6_26 
REMARK   10  A    between atoms: N6_26  and  C14_28 
REMARK   11  A    between atoms: C14_28  and  C15_29 
REMARK   12  A    between atoms: C15_29  and  C16_30 
ROOT
HETATM    1  C9  UNL     1      -1.728 -36.476 -26.051  1.00  0.00     0.709 A 
HETATM    2  N3  UNL     1      -2.098 -37.151 -27.142  1.00  0.00    -0.021 N 
ATOM      3  H3  UNL     1      -1.401 -37.449 -27.825  1.00  0.00     0.203 HD
HETATM    4  C10 UNL     1      -3.428 -37.440 -27.336  1.00  0.00     0.707 A 
HETATM    5  N5  UNL     1      -4.279 -37.019 -26.401  1.00  0.00    -0.022 N 
ATOM      6  H5  UNL     1      -5.267 -37.229 -26.535  1.00  0.00     0.203 HD
HETATM    7  C13 UNL     1      -3.932 -36.335 -25.290  1.00  0.00     0.707 A 
HETATM    8  N7  UNL     1      -2.631 -36.058 -25.113  1.00  0.00    -0.021 N 
ATOM      9  H7  UNL     1      -2.319 -35.544 -24.289  1.00  0.00     0.203 HD
ENDROOT
BRANCH   1  10
HETATM   10  N2  UNL     1      -0.337 -36.193 -25.883  1.00  0.00    -0.217 N 
HETATM   11  C8  UNL     1       0.634 -36.536 -26.901  1.00  0.00     0.141 C 
HETATM   12  C7  UNL     1       1.562 -35.351 -27.073  1.00  0.00     0.027 C 
HETATM   13  C6  UNL     1       2.374 -35.127 -25.819  1.00  0.00     0.006 C 
HETATM   14  C21 UNL     1       1.684 -35.754 -24.625  1.00  0.00     0.027 C 
HETATM   15  C20 UNL     1       0.186 -35.545 -24.687  1.00  0.00     0.141 C 
BRANCH  13  16
HETATM   16  C5  UNL     1       3.749 -35.697 -26.037  1.00  0.00     0.127 C 
BRANCH  16  17
HETATM   17  N1  UNL     1       3.771 -36.654 -27.131  1.00  0.00    -0.361 N 
HETATM   18  C4  UNL     1       5.009 -37.195 -27.578  1.00  0.00     0.217 C 
HETATM   19  O1  UNL     1       6.102 -36.853 -27.031  1.00  0.00    -0.274 OA
ATOM     20  H1  UNL     1       2.899 -36.938 -27.578  1.00  0.00     0.162 HD
BRANCH  18  21
HETATM   21  C3  UNL     1       5.008 -38.162 -28.688  1.00  0.00     0.102 C 
BRANCH  21  22
HETATM   22  C2  UNL     1       3.854 -37.846 -29.609  1.00  0.00     0.005 C 
HETATM   23  C1  UNL     1       4.239 -37.892 -31.058  1.00  0.00     0.005 C 
ENDBRANCH  21  22
ENDBRANCH  18  21
ENDBRANCH  16  17
ENDBRANCH  13  16
ENDBRANCH   1  10
BRANCH   4  24
HETATM   24  N4  UNL     1      -3.754 -38.091 -28.394  1.00  0.00    -0.220 N 
ATOM     25  H4  UNL     1      -3.544 -39.087 -28.455  1.00  0.00     0.177 HD
BRANCH  24  26
HETATM   26  C11 UNL     1      -4.407 -37.440 -29.490  1.00  0.00     0.209 C 
BRANCH  26  27
HETATM   27  C12 UNL     1      -4.036 -38.050 -30.826  1.00  0.00     0.371 C 
HETATM   28  F1  UNL     1      -3.657 -37.124 -31.768  1.00  0.00    -0.213 F 
HETATM   29  F2  UNL     1      -5.202 -38.649 -31.313  1.00  0.00    -0.213 F 
ENDBRANCH  26  27
ENDBRANCH  24  26
ENDBRANCH   4  24
BRANCH   7  30
HETATM   30  N6  UNL     1      -4.803 -35.958 -24.431  1.00  0.00    -0.225 N 
ATOM     31  H6  UNL     1      -4.595 -36.134 -23.448  1.00  0.00     0.177 HD
BRANCH  30  32
HETATM   32  C14 UNL     1      -6.038 -35.314 -24.731  1.00  0.00     0.139 C 
BRANCH  32  33
HETATM   33  C15 UNL     1      -7.118 -35.594 -23.714  1.00  0.00     0.028 C 
BRANCH  33  34
HETATM   34  C16 UNL     1      -8.382 -36.108 -24.368  1.00  0.00    -0.050 C 
HETATM   35  C17 UNL     1      -8.096 -37.148 -25.412  1.00  0.00     0.014 C 
HETATM   36  C18 UNL     1      -9.039 -34.928 -25.093  1.00  0.00     0.014 C 
HETATM   37  C19 UNL     1      -9.381 -36.642 -23.393  1.00  0.00     0.014 C 
ENDBRANCH  33  34
ENDBRANCH  32  33
ENDBRANCH  30  32
ENDBRANCH   7  30
TORSDOF 12
ENDMDL
MODEL 5
REMARK VINA RESULT: -7.783708717      2.657      3.229
REMARK  12 active torsions:
REMARK  status: ('A' for Active; 'I' for Inactive)
REMARK    1  A    between atoms: C2_2  and  C3_3 
REMARK    2  A    between atoms: C3_3  and  C4_4 
REMARK       I    between atoms: C4_4  and  N1_6 
REMARK    3  A    between atoms: N1_6  and  C5_8 
REMARK    4  A    between atoms: C5_8  and  C6_9 
REMARK    5  A    between atoms: N2_12  and  C9_13 
REMARK    6  A    between atoms: C10_16  and  N4_17 
REMARK    7  A    between atoms: N4_17  and  C11_19 
REMARK    8  A    between atoms: C11_19  and  C12_20 
REMARK    9  A    between atoms: C13_25  and  N6_26 
REMARK   10  A    between atoms: N6_26  and  C14_28 
REMARK   11  A    between atoms: C14_28  and  C15_29 
REMARK   12  A    between atoms: C15_29  and  C16_30 
ROOT
HETATM    1  C9  UNL     1      -0.748 -36.030 -24.884  1.00  0.00     0.709 A 
HETATM    2  N3  UNL     1      -1.163 -36.005 -23.615  1.00  0.00    -0.021 N 
ATOM      3  H3  UNL     1      -0.502 -35.819 -22.861  1.00  0.00     0.203 HD
HETATM    4  C10 UNL     1      -2.489 -36.234 -23.337  1.00  0.00     0.707 A 
HETATM    5  N5  UNL     1      -3.291 -36.469 -24.374  1.00  0.00    -0.022 N 
ATOM      6  H5  UNL     1      -4.277 -36.638 -24.178  1.00  0.00     0.203 HD
HETATM    7  C13 UNL     1      -2.898 -36.499 -25.665  1.00  0.00     0.707 A 
HETATM    8  N7  UNL     1      -1.600 -36.275 -25.924  1.00  0.00    -0.021 N 
ATOM      9  H7  UNL     1      -1.255 -36.288 -26.883  1.00  0.00     0.203 HD
ENDROOT
BRANCH   1  10
HETATM   10  N2  UNL     1       0.639 -35.788 -25.136  1.00  0.00    -0.217 N 
HETATM   11  C8  UNL     1       1.264 -36.193 -26.378  1.00  0.00     0.141 C 
HETATM   12  C7  UNL     1       2.130 -35.045 -26.856  1.00  0.00     0.027 C 
HETATM   13  C6  UNL     1       3.276 -34.813 -25.899  1.00  0.00     0.006 C 
HETATM   14  C21 UNL     1       2.948 -35.382 -24.534  1.00  0.00     0.027 C 
HETATM   15  C20 UNL     1       1.502 -35.125 -24.168  1.00  0.00     0.141 C 
BRANCH  13  16
HETATM   16  C5  UNL     1       4.514 -35.434 -26.484  1.00  0.00     0.127 C 
BRANCH  16  17
HETATM   17  N1  UNL     1       4.194 -36.446 -27.479  1.00  0.00    -0.361 N 
HETATM   18  C4  UNL     1       5.115 -37.497 -27.745  1.00  0.00     0.217 C 
HETATM   19  O1  UNL     1       6.219 -37.567 -27.123  1.00  0.00    -0.274 OA
ATOM     20  H1  UNL     1       3.309 -36.402 -27.985  1.00  0.00     0.162 HD
BRANCH  18  21
HETATM   21  C3  UNL     1       4.771 -38.511 -28.757  1.00  0.00     0.102 C 
BRANCH  21  22
HETATM   22  C2  UNL     1       3.911 -37.868 -29.817  1.00  0.00     0.005 C 
HETATM   23  C1  UNL     1       4.550 -37.890 -31.174  1.00  0.00     0.005 C 
ENDBRANCH  21  22
ENDBRANCH  18  21
ENDBRANCH  16  17
ENDBRANCH  13  16
ENDBRANCH   1  10
BRANCH   4  24
HETATM   24  N4  UNL     1      -2.860 -36.203 -22.107  1.00  0.00    -0.220 N 
ATOM     25  H4  UNL     1      -2.717 -35.354 -21.561  1.00  0.00     0.177 HD
BRANCH  24  26
HETATM   26  C11 UNL     1      -3.469 -37.343 -21.491  1.00  0.00     0.209 C 
BRANCH  26  27
HETATM   27  C12 UNL     1      -2.566 -37.996 -20.465  1.00  0.00     0.371 C 
HETATM   28  F1  UNL     1      -1.749 -38.967 -20.990  1.00  0.00    -0.213 F 
HETATM   29  F2  UNL     1      -3.415 -38.645 -19.563  1.00  0.00    -0.213 F 
ENDBRANCH  26  27
ENDBRANCH  24  26
ENDBRANCH   4  24
BRANCH   7  30
HETATM   30  N6  UNL     1      -3.723 -36.732 -26.616  1.00  0.00    -0.225 N 
ATOM     31  H6  UNL     1      -4.696 -36.900 -26.360  1.00  0.00     0.177 HD
BRANCH  30  32
HETATM   32  C14 UNL     1      -3.397 -36.774 -28.003  1.00  0.00     0.139 C 
BRANCH  32  33
HETATM   33  C15 UNL     1      -4.357 -37.611 -28.814  1.00  0.00     0.028 C 
BRANCH  33  34
HETATM   34  C16 UNL     1      -4.752 -36.919 -30.101  1.00  0.00    -0.050 C 
HETATM   35  C17 UNL     1      -6.180 -37.192 -30.474  1.00  0.00     0.014 C 
HETATM   36  C18 UNL     1      -3.886 -37.503 -31.224  1.00  0.00     0.014 C 
HETATM   37  C19 UNL     1      -4.515 -35.444 -30.078  1.00  0.00     0.014 C 
ENDBRANCH  33  34
ENDBRANCH  32  33
ENDBRANCH  30  32
ENDBRANCH   7  30
TORSDOF 12
ENDMDL
