MODEL 1
REMARK VINA RESULT: -6.236447513      0.000      0.000
REMARK  6 active torsions:
REMARK  status: ('A' for Active; 'I' for Inactive)
REMARK    1  A    between atoms: C1_2  and  C2_4 
REMARK    2  A    between atoms: C2_4  and  C3_5 
REMARK    3  A    between atoms: C2_4  and  C8_10 
REMARK    4  A    between atoms: C3_5  and  C4_6 
REMARK    5  A    between atoms: C8_10  and  C9_11 
REMARK    6  A    between atoms: C8_10  and  N1_14 
ROOT
HETATM    1  C2  UNL     1      16.511   2.206  12.935  1.00  0.00     0.120 C 
ENDROOT
BRANCH   1   2
HETATM    2  C1  UNL     1      16.664   0.734  12.810  1.00  0.00     0.179 C 
HETATM    3  O1  UNL     1      16.605   0.151  11.680  1.00  0.00    -0.648 OA
HETATM    4  O2  UNL     1      16.876  -0.074  13.928  1.00  0.00    -0.648 OA
ENDBRANCH   1   2
BRANCH   1   5
HETATM    5  C3  UNL     1      16.563   2.523  14.395  1.00  0.00     0.022 C 
BRANCH   5   6
HETATM    6  C4  UNL     1      15.345   2.829  15.130  1.00  0.00    -0.014 C 
HETATM    7  C5  UNL     1      15.329   2.407  16.625  1.00  0.00     0.005 C 
HETATM    8  C6  UNL     1      14.136   3.385  16.706  1.00  0.00     0.001 C 
HETATM    9  C7  UNL     1      14.924   4.156  15.599  1.00  0.00     0.005 C 
ENDBRANCH   5   6
ENDBRANCH   1   5
BRANCH   1  10
HETATM   10  C8  UNL     1      17.661   2.898  12.198  1.00  0.00     0.200 C 
BRANCH  10  11
HETATM   11  C9  UNL     1      17.215   3.193  10.797  1.00  0.00     0.197 C 
HETATM   12  O3  UNL     1      15.986   3.220  10.568  1.00  0.00    -0.646 OA
HETATM   13  O4  UNL     1      18.074   3.440   9.747  1.00  0.00    -0.646 OA
ENDBRANCH  10  11
BRANCH  10  14
HETATM   14  N1  UNL     1      17.997   4.154  12.812  1.00  0.00    -0.359 N 
HETATM   15  C10 UNL     1      19.195   4.679  13.436  1.00  0.00     0.131 C 
HETATM   16  C11 UNL     1      18.267   5.552  14.260  1.00  0.00     0.089 C 
HETATM   17  C12 UNL     1      17.403   5.411  13.057  1.00  0.00     0.077 C 
HETATM   18  S1  UNL     1      16.281   6.389  12.400  1.00  0.00    -0.065 SA
ENDBRANCH  10  14
ENDBRANCH   1  10
TORSDOF 6
ENDMDL
MODEL 2
REMARK VINA RESULT: -6.204662704      0.214      1.076
REMARK  6 active torsions:
REMARK  status: ('A' for Active; 'I' for Inactive)
REMARK    1  A    between atoms: C1_2  and  C2_4 
REMARK    2  A    between atoms: C2_4  and  C3_5 
REMARK    3  A    between atoms: C2_4  and  C8_10 
REMARK    4  A    between atoms: C3_5  and  C4_6 
REMARK    5  A    between atoms: C8_10  and  C9_11 
REMARK    6  A    between atoms: C8_10  and  N1_14 
ROOT
HETATM    1  C2  UNL     1      16.534   2.194  13.044  1.00  0.00     0.120 C 
ENDROOT
BRANCH   1   2
HETATM    2  C1  UNL     1      16.637   0.729  12.821  1.00  0.00     0.179 C 
HETATM    3  O1  UNL     1      16.884  -0.076  13.776  1.00  0.00    -0.648 OA
HETATM    4  O2  UNL     1      16.472   0.172  11.552  1.00  0.00    -0.648 OA
ENDBRANCH   1   2
BRANCH   1   5
HETATM    5  C3  UNL     1      16.559   2.407  14.524  1.00  0.00     0.022 C 
BRANCH   5   6
HETATM    6  C4  UNL     1      15.336   2.720  15.248  1.00  0.00    -0.014 C 
HETATM    7  C5  UNL     1      15.342   2.392  16.766  1.00  0.00     0.005 C 
HETATM    8  C6  UNL     1      14.118   3.335  16.796  1.00  0.00     0.001 C 
HETATM    9  C7  UNL     1      14.876   4.060  15.636  1.00  0.00     0.005 C 
ENDBRANCH   5   6
ENDBRANCH   1   5
BRANCH   1  10
HETATM   10  C8  UNL     1      17.727   2.890  12.384  1.00  0.00     0.200 C 
BRANCH  10  11
HETATM   11  C9  UNL     1      17.399   3.123  10.941  1.00  0.00     0.197 C 
HETATM   12  O3  UNL     1      18.337   3.082  10.114  1.00  0.00    -0.646 OA
HETATM   13  O4  UNL     1      16.129   3.375  10.465  1.00  0.00    -0.646 OA
ENDBRANCH  10  11
BRANCH  10  14
HETATM   14  N1  UNL     1      17.977   4.177  12.977  1.00  0.00    -0.359 N 
HETATM   15  C10 UNL     1      19.111   4.765  13.661  1.00  0.00     0.131 C 
HETATM   16  C11 UNL     1      18.100   5.628  14.393  1.00  0.00     0.089 C 
HETATM   17  C12 UNL     1      17.323   5.417  13.142  1.00  0.00     0.077 C 
HETATM   18  S1  UNL     1      16.213   6.331  12.383  1.00  0.00    -0.065 SA
ENDBRANCH  10  14
ENDBRANCH   1  10
TORSDOF 6
ENDMDL
MODEL 3
REMARK VINA RESULT: -6.199692491      0.879      1.145
REMARK  6 active torsions:
REMARK  status: ('A' for Active; 'I' for Inactive)
REMARK    1  A    between atoms: C1_2  and  C2_4 
REMARK    2  A    between atoms: C2_4  and  C3_5 
REMARK    3  A    between atoms: C2_4  and  C8_10 
REMARK    4  A    between atoms: C3_5  and  C4_6 
REMARK    5  A    between atoms: C8_10  and  C9_11 
REMARK    6  A    between atoms: C8_10  and  N1_14 
ROOT
HETATM    1  C2  UNL     1      16.535   1.836  13.690  1.00  0.00     0.120 C 
ENDROOT
BRANCH   1   2
HETATM    2  C1  UNL     1      16.754   0.373  13.820  1.00  0.00     0.179 C 
HETATM    3  O1  UNL     1      17.297  -0.306  12.890  1.00  0.00    -0.648 OA
HETATM    4  O2  UNL     1      16.371  -0.322  14.969  1.00  0.00    -0.648 OA
ENDBRANCH   1   2
BRANCH   1   5
HETATM    5  C3  UNL     1      16.983   2.456  14.975  1.00  0.00     0.022 C 
BRANCH   5   6
HETATM    6  C4  UNL     1      16.012   3.005  15.910  1.00  0.00    -0.014 C 
HETATM    7  C5  UNL     1      14.667   3.479  15.293  1.00  0.00     0.005 C 
HETATM    8  C6  UNL     1      14.178   3.422  16.758  1.00  0.00     0.001 C 
HETATM    9  C7  UNL     1      15.196   2.241  16.863  1.00  0.00     0.005 C 
ENDBRANCH   5   6
ENDBRANCH   1   5
BRANCH   1  10
HETATM   10  C8  UNL     1      17.369   2.369  12.522  1.00  0.00     0.200 C 
BRANCH  10  11
HETATM   11  C9  UNL     1      16.471   2.524  11.332  1.00  0.00     0.197 C 
HETATM   12  O3  UNL     1      15.313   2.057  11.408  1.00  0.00    -0.646 OA
HETATM   13  O4  UNL     1      16.839   3.152  10.160  1.00  0.00    -0.646 OA
ENDBRANCH  10  11
BRANCH  10  14
HETATM   14  N1  UNL     1      17.914   3.667  12.816  1.00  0.00    -0.359 N 
HETATM   15  C10 UNL     1      19.260   4.200  12.889  1.00  0.00     0.131 C 
HETATM   16  C11 UNL     1      18.709   5.199  13.888  1.00  0.00     0.089 C 
HETATM   17  C12 UNL     1      17.458   4.970  13.114  1.00  0.00     0.077 C 
HETATM   18  S1  UNL     1      16.177   5.923  12.807  1.00  0.00    -0.065 SA
ENDBRANCH  10  14
ENDBRANCH   1  10
TORSDOF 6
ENDMDL
MODEL 4
REMARK VINA RESULT: -6.163626020      1.685      2.154
REMARK  6 active torsions:
REMARK  status: ('A' for Active; 'I' for Inactive)
REMARK    1  A    between atoms: C1_2  and  C2_4 
REMARK    2  A    between atoms: C2_4  and  C3_5 
REMARK    3  A    between atoms: C2_4  and  C8_10 
REMARK    4  A    between atoms: C3_5  and  C4_6 
REMARK    5  A    between atoms: C8_10  and  C9_11 
REMARK    6  A    between atoms: C8_10  and  N1_14 
ROOT
HETATM    1  C2  UNL     1      16.580   1.918  13.712  1.00  0.00     0.120 C 
ENDROOT
BRANCH   1   2
HETATM    2  C1  UNL     1      16.734   0.747  14.613  1.00  0.00     0.179 C 
HETATM    3  O1  UNL     1      16.347  -0.416  14.267  1.00  0.00    -0.648 OA
HETATM    4  O2  UNL     1      17.307   0.873  15.879  1.00  0.00    -0.648 OA
ENDBRANCH   1   2
BRANCH   1   5
HETATM    5  C3  UNL     1      17.156   3.095  14.432  1.00  0.00     0.022 C 
BRANCH   5   6
HETATM    6  C4  UNL     1      16.289   4.041  15.116  1.00  0.00    -0.014 C 
HETATM    7  C5  UNL     1      16.318   5.500  14.581  1.00  0.00     0.005 C 
HETATM    8  C6  UNL     1      15.000   5.632  15.377  1.00  0.00     0.001 C 
HETATM    9  C7  UNL     1      14.828   4.127  14.992  1.00  0.00     0.005 C 
ENDBRANCH   5   6
ENDBRANCH   1   5
BRANCH   1  10
HETATM   10  C8  UNL     1      17.346   1.659  12.412  1.00  0.00     0.200 C 
BRANCH  10  11
HETATM   11  C9  UNL     1      16.353   1.394  11.322  1.00  0.00     0.197 C 
HETATM   12  O3  UNL     1      15.207   1.881  11.443  1.00  0.00    -0.646 OA
HETATM   13  O4  UNL     1      16.623   0.651  10.192  1.00  0.00    -0.646 OA
ENDBRANCH  10  11
BRANCH  10  14
HETATM   14  N1  UNL     1      18.114   2.810  12.018  1.00  0.00    -0.359 N 
HETATM   15  C10 UNL     1      19.531   3.065  11.854  1.00  0.00     0.131 C 
HETATM   16  C11 UNL     1      19.212   4.512  12.180  1.00  0.00     0.089 C 
HETATM   17  C12 UNL     1      17.897   4.138  11.591  1.00  0.00     0.077 C 
HETATM   18  S1  UNL     1      16.774   5.005  10.795  1.00  0.00    -0.065 SA
ENDBRANCH  10  14
ENDBRANCH   1  10
TORSDOF 6
ENDMDL
MODEL 5
REMARK VINA RESULT: -6.061909381      2.125      2.794
REMARK  6 active torsions:
REMARK  status: ('A' for Active; 'I' for Inactive)
REMARK    1  A    between atoms: C1_2  and  C2_4 
REMARK    2  A    between atoms: C2_4  and  C3_5 
REMARK    3  A    between atoms: C2_4  and  C8_10 
REMARK    4  A    between atoms: C3_5  and  C4_6 
REMARK    5  A    between atoms: C8_10  and  C9_11 
REMARK    6  A    between atoms: C8_10  and  N1_14 
ROOT
HETATM    1  C2  UNL     1      16.515   1.900  13.865  1.00  0.00     0.120 C 
ENDROOT
BRANCH   1   2
HETATM    2  C1  UNL     1      16.705   0.758  14.797  1.00  0.00     0.179 C 
HETATM    3  O1  UNL     1      16.275  -0.407  14.519  1.00  0.00    -0.648 OA
HETATM    4  O2  UNL     1      17.359   0.917  16.019  1.00  0.00    -0.648 OA
ENDBRANCH   1   2
BRANCH   1   5
HETATM    5  C3  UNL     1      17.098   3.103  14.533  1.00  0.00     0.022 C 
BRANCH   5   6
HETATM    6  C4  UNL     1      16.239   4.075  15.191  1.00  0.00    -0.014 C 
HETATM    7  C5  UNL     1      16.379   5.545  14.707  1.00  0.00     0.005 C 
HETATM    8  C6  UNL     1      15.020   5.724  15.421  1.00  0.00     0.001 C 
HETATM    9  C7  UNL     1      14.795   4.243  14.976  1.00  0.00     0.005 C 
ENDBRANCH   5   6
ENDBRANCH   1   5
BRANCH   1  10
HETATM   10  C8  UNL     1      17.249   1.608  12.554  1.00  0.00     0.200 C 
BRANCH  10  11
HETATM   11  C9  UNL     1      16.295   0.931  11.617  1.00  0.00     0.197 C 
HETATM   12  O3  UNL     1      15.276   1.564  11.263  1.00  0.00    -0.646 OA
HETATM   13  O4  UNL     1      16.471  -0.343  11.119  1.00  0.00    -0.646 OA
ENDBRANCH  10  11
BRANCH  10  14
HETATM   14  N1  UNL     1      17.685   2.821  11.916  1.00  0.00    -0.359 N 
HETATM   15  C10 UNL     1      17.028   4.062  11.559  1.00  0.00     0.131 C 
HETATM   16  C11 UNL     1      18.050   4.171  10.443  1.00  0.00     0.089 C 
HETATM   17  C12 UNL     1      18.873   3.384  11.400  1.00  0.00     0.077 C 
HETATM   18  S1  UNL     1      20.478   3.307  11.650  1.00  0.00    -0.065 SA
ENDBRANCH  10  14
ENDBRANCH   1  10
TORSDOF 6
ENDMDL
