MODEL 1
REMARK VINA RESULT: -7.703536228      0.000      0.000
REMARK  9 active torsions:
REMARK  status: ('A' for Active; 'I' for Inactive)
REMARK    1  A    between atoms: C2_2  and  O1_3 
REMARK    2  A    between atoms: C2_2  and  N1_5 
REMARK    3  A    between atoms: C2_2  and  C7_18 
REMARK       I    between atoms: N1_5  and  C3_7 
REMARK    4  A    between atoms: C3_7  and  C4_9 
REMARK    5  A    between atoms: C4_9  and  C5_12 
REMARK    6  A    between atoms: C5_12  and  C6_14 
REMARK    7  A    between atoms: C7_18  and  C8_21 
REMARK    8  A    between atoms: C8_21  and  C9_24 
REMARK    9  A    between atoms: C9_24  and  C10_26 
ROOT
HETATM    1  C1  UNL     1      17.954   4.449  11.087  1.00  0.00     0.077 C 
HETATM    2  C2  UNL     1      18.030   3.350  12.099  1.00  0.00     0.204 C 
ENDROOT
BRANCH   2   3
HETATM    3  O1  UNL     1      19.077   3.529  13.006  1.00  0.00    -0.366 OA
ATOM      4  H1  UNL     1      19.021   2.938  13.748  1.00  0.00     0.212 HD
ENDBRANCH   2   3
BRANCH   2   5
HETATM    5  N1  UNL     1      16.825   3.281  12.872  1.00  0.00    -0.319 N 
HETATM    6  C3  UNL     1      16.921   3.447  14.280  1.00  0.00     0.294 C 
HETATM    7  O2  UNL     1      18.012   3.651  14.881  1.00  0.00    -0.267 OA
ATOM      8  H1  UNL     1      15.925   3.116  12.423  1.00  0.00     0.165 HD
BRANCH   6   9
HETATM    9  C4  UNL     1      15.698   3.389  15.150  1.00  0.00     0.343 C 
HETATM   10  F1  UNL     1      14.580   3.080  14.434  1.00  0.00    -0.194 F 
HETATM   11  F2  UNL     1      15.524   4.705  15.603  1.00  0.00    -0.194 F 
BRANCH   9  12
HETATM   12  C5  UNL     1      15.921   2.547  16.359  1.00  0.00     0.218 C 
HETATM   13 CL1  UNL     1      16.399   0.888  15.984  1.00  0.00    -0.114 Cl
BRANCH  12  14
HETATM   14  C6  UNL     1      14.710   2.511  17.228  1.00  0.00     0.211 C 
HETATM   15 CL2  UNL     1      15.207   2.185  18.926  1.00  0.00    -0.082 Cl
HETATM   16 CL3  UNL     1      13.643   1.154  16.753  1.00  0.00    -0.082 Cl
HETATM   17 CL4  UNL     1      13.775   4.023  17.189  1.00  0.00    -0.082 Cl
ENDBRANCH  12  14
ENDBRANCH   9  12
ENDBRANCH   6   9
ENDBRANCH   2   5
BRANCH   2  18
HETATM   18  C7  UNL     1      18.321   2.055  11.366  1.00  0.00     0.363 C 
HETATM   19  F3  UNL     1      19.486   1.553  11.849  1.00  0.00    -0.193 F 
HETATM   20  F4  UNL     1      18.560   2.337  10.007  1.00  0.00    -0.193 F 
BRANCH  18  21
HETATM   21  C8  UNL     1      17.158   1.113  11.374  1.00  0.00     0.377 C 
HETATM   22  F5  UNL     1      16.101   1.674  10.642  1.00  0.00    -0.190 F 
HETATM   23  F6  UNL     1      16.635   0.866  12.625  1.00  0.00    -0.190 F 
BRANCH  21  24
HETATM   24  C9  UNL     1      17.467  -0.202  10.772  1.00  0.00     0.268 C 
HETATM   25  O3  UNL     1      17.613  -0.425   9.588  1.00  0.00    -0.285 OA
BRANCH  24  26
HETATM   26  C10 UNL     1      17.613  -1.355  11.698  1.00  0.00     0.428 C 
HETATM   27  F7  UNL     1      16.367  -1.998  11.747  1.00  0.00    -0.206 F 
HETATM   28  F8  UNL     1      18.525  -2.273  11.211  1.00  0.00    -0.206 F 
ENDBRANCH  24  26
ENDBRANCH  21  24
ENDBRANCH  18  21
ENDBRANCH   2  18
TORSDOF 9
ENDMDL
MODEL 2
REMARK VINA RESULT: -7.554802318      1.079      1.775
REMARK  9 active torsions:
REMARK  status: ('A' for Active; 'I' for Inactive)
REMARK    1  A    between atoms: C2_2  and  O1_3 
REMARK    2  A    between atoms: C2_2  and  N1_5 
REMARK    3  A    between atoms: C2_2  and  C7_18 
REMARK       I    between atoms: N1_5  and  C3_7 
REMARK    4  A    between atoms: C3_7  and  C4_9 
REMARK    5  A    between atoms: C4_9  and  C5_12 
REMARK    6  A    between atoms: C5_12  and  C6_14 
REMARK    7  A    between atoms: C7_18  and  C8_21 
REMARK    8  A    between atoms: C8_21  and  C9_24 
REMARK    9  A    between atoms: C9_24  and  C10_26 
ROOT
HETATM    1  C1  UNL     1      18.271   5.374  11.929  1.00  0.00     0.077 C 
HETATM    2  C2  UNL     1      18.053   3.919  12.198  1.00  0.00     0.204 C 
ENDROOT
BRANCH   2   3
HETATM    3  O1  UNL     1      19.070   3.360  12.975  1.00  0.00    -0.366 OA
ATOM      4  H1  UNL     1      18.805   2.549  13.393  1.00  0.00     0.212 HD
ENDBRANCH   2   3
BRANCH   2   5
HETATM    5  N1  UNL     1      16.829   3.708  12.912  1.00  0.00    -0.319 N 
HETATM    6  C3  UNL     1      16.879   3.664  14.332  1.00  0.00     0.294 C 
HETATM    7  O2  UNL     1      17.946   3.799  14.991  1.00  0.00    -0.267 OA
ATOM      8  H1  UNL     1      15.946   3.593  12.415  1.00  0.00     0.165 HD
BRANCH   6   9
HETATM    9  C4  UNL     1      15.633   3.448  15.143  1.00  0.00     0.343 C 
HETATM   10  F1  UNL     1      14.584   3.053  14.367  1.00  0.00    -0.194 F 
HETATM   11  F2  UNL     1      15.304   4.723  15.629  1.00  0.00    -0.194 F 
BRANCH   9  12
HETATM   12  C5  UNL     1      15.891   2.590  16.334  1.00  0.00     0.218 C 
HETATM   13 CL1  UNL     1      16.391   0.947  15.922  1.00  0.00    -0.114 Cl
BRANCH  12  14
HETATM   14  C6  UNL     1      14.697   2.519  17.222  1.00  0.00     0.211 C 
HETATM   15 CL2  UNL     1      15.226   2.136  18.899  1.00  0.00    -0.082 Cl
HETATM   16 CL3  UNL     1      13.626   1.175  16.720  1.00  0.00    -0.082 Cl
HETATM   17 CL4  UNL     1      13.756   4.028  17.253  1.00  0.00    -0.082 Cl
ENDBRANCH  12  14
ENDBRANCH   9  12
ENDBRANCH   6   9
ENDBRANCH   2   5
BRANCH   2  18
HETATM   18  C7  UNL     1      18.082   3.186  10.871  1.00  0.00     0.363 C 
HETATM   19  F3  UNL     1      18.547   4.045   9.928  1.00  0.00    -0.193 F 
HETATM   20  F4  UNL     1      16.763   2.873  10.488  1.00  0.00    -0.193 F 
BRANCH  18  21
HETATM   21  C8  UNL     1      18.791   1.871  10.955  1.00  0.00     0.377 C 
HETATM   22  F5  UNL     1      19.934   2.009  11.756  1.00  0.00    -0.190 F 
HETATM   23  F6  UNL     1      19.256   1.397   9.747  1.00  0.00    -0.190 F 
BRANCH  21  24
HETATM   24  C9  UNL     1      17.962   0.796  11.545  1.00  0.00     0.268 C 
HETATM   25  O3  UNL     1      17.655   0.696  12.715  1.00  0.00    -0.285 OA
BRANCH  24  26
HETATM   26  C10 UNL     1      17.458  -0.255  10.624  1.00  0.00     0.428 C 
HETATM   27  F7  UNL     1      17.847  -1.490  11.164  1.00  0.00    -0.206 F 
HETATM   28  F8  UNL     1      16.076  -0.252  10.573  1.00  0.00    -0.206 F 
ENDBRANCH  24  26
ENDBRANCH  21  24
ENDBRANCH  18  21
ENDBRANCH   2  18
TORSDOF 9
ENDMDL
MODEL 3
REMARK VINA RESULT: -7.515899515      1.625      2.258
REMARK  9 active torsions:
REMARK  status: ('A' for Active; 'I' for Inactive)
REMARK    1  A    between atoms: C2_2  and  O1_3 
REMARK    2  A    between atoms: C2_2  and  N1_5 
REMARK    3  A    between atoms: C2_2  and  C7_18 
REMARK       I    between atoms: N1_5  and  C3_7 
REMARK    4  A    between atoms: C3_7  and  C4_9 
REMARK    5  A    between atoms: C4_9  and  C5_12 
REMARK    6  A    between atoms: C5_12  and  C6_14 
REMARK    7  A    between atoms: C7_18  and  C8_21 
REMARK    8  A    between atoms: C8_21  and  C9_24 
REMARK    9  A    between atoms: C9_24  and  C10_26 
ROOT
HETATM    1  C1  UNL     1      16.810   3.162  11.323  1.00  0.00     0.077 C 
HETATM    2  C2  UNL     1      17.788   2.289  12.043  1.00  0.00     0.204 C 
ENDROOT
BRANCH   2   3
HETATM    3  O1  UNL     1      18.915   2.992  12.477  1.00  0.00    -0.366 OA
ATOM      4  H1  UNL     1      18.903   3.159  13.412  1.00  0.00     0.212 HD
ENDBRANCH   2   3
BRANCH   2   5
HETATM    5  N1  UNL     1      17.194   1.708  13.210  1.00  0.00    -0.319 N 
HETATM    6  C3  UNL     1      17.197   2.465  14.413  1.00  0.00     0.294 C 
HETATM    7  O2  UNL     1      17.697   3.621  14.502  1.00  0.00    -0.267 OA
ATOM      8  H1  UNL     1      16.781   0.776  13.179  1.00  0.00     0.165 HD
BRANCH   6   9
HETATM    9  C4  UNL     1      16.588   1.918  15.673  1.00  0.00     0.343 C 
HETATM   10  F1  UNL     1      17.308   2.266  16.777  1.00  0.00    -0.194 F 
HETATM   11  F2  UNL     1      16.709   0.525  15.547  1.00  0.00    -0.194 F 
BRANCH   9  12
HETATM   12  C5  UNL     1      15.130   2.214  15.755  1.00  0.00     0.218 C 
HETATM   13 CL1  UNL     1      14.753   3.936  15.637  1.00  0.00    -0.114 Cl
BRANCH  12  14
HETATM   14  C6  UNL     1      14.536   1.679  17.013  1.00  0.00     0.211 C 
HETATM   15 CL2  UNL     1      12.775   1.406  16.770  1.00  0.00    -0.082 Cl
HETATM   16 CL3  UNL     1      14.675   2.885  18.329  1.00  0.00    -0.082 Cl
HETATM   17 CL4  UNL     1      15.280   0.154  17.546  1.00  0.00    -0.082 Cl
ENDBRANCH  12  14
ENDBRANCH   9  12
ENDBRANCH   6   9
ENDBRANCH   2   5
BRANCH   2  18
HETATM   18  C7  UNL     1      18.291   1.242  11.069  1.00  0.00     0.363 C 
HETATM   19  F3  UNL     1      19.487   0.786  11.523  1.00  0.00    -0.193 F 
HETATM   20  F4  UNL     1      18.560   1.855   9.830  1.00  0.00    -0.193 F 
BRANCH  18  21
HETATM   21  C8  UNL     1      17.267   0.191  10.773  1.00  0.00     0.377 C 
HETATM   22  F5  UNL     1      17.443  -0.274   9.462  1.00  0.00    -0.190 F 
HETATM   23  F6  UNL     1      15.964   0.635  10.823  1.00  0.00    -0.190 F 
BRANCH  21  24
HETATM   24  C9  UNL     1      17.356  -0.980  11.675  1.00  0.00     0.268 C 
HETATM   25  O3  UNL     1      16.886  -1.054  12.791  1.00  0.00    -0.285 OA
BRANCH  24  26
HETATM   26  C10 UNL     1      18.085  -2.171  11.169  1.00  0.00     0.428 C 
HETATM   27  F7  UNL     1      19.384  -2.108  11.695  1.00  0.00    -0.206 F 
HETATM   28  F8  UNL     1      17.514  -3.340  11.638  1.00  0.00    -0.206 F 
ENDBRANCH  24  26
ENDBRANCH  21  24
ENDBRANCH  18  21
ENDBRANCH   2  18
TORSDOF 9
ENDMDL
MODEL 4
REMARK VINA RESULT: -7.514334279      2.007      3.445
REMARK  9 active torsions:
REMARK  status: ('A' for Active; 'I' for Inactive)
REMARK    1  A    between atoms: C2_2  and  O1_3 
REMARK    2  A    between atoms: C2_2  and  N1_5 
REMARK    3  A    between atoms: C2_2  and  C7_18 
REMARK       I    between atoms: N1_5  and  C3_7 
REMARK    4  A    between atoms: C3_7  and  C4_9 
REMARK    5  A    between atoms: C4_9  and  C5_12 
REMARK    6  A    between atoms: C5_12  and  C6_14 
REMARK    7  A    between atoms: C7_18  and  C8_21 
REMARK    8  A    between atoms: C8_21  and  C9_24 
REMARK    9  A    between atoms: C9_24  and  C10_26 
ROOT
HETATM    1  C1  UNL     1      16.871  -0.330  12.392  1.00  0.00     0.077 C 
HETATM    2  C2  UNL     1      17.071   1.133  12.155  1.00  0.00     0.204 C 
ENDROOT
BRANCH   2   3
HETATM    3  O1  UNL     1      15.950   1.740  11.583  1.00  0.00    -0.366 OA
ATOM      4  H1  UNL     1      15.244   1.863  12.206  1.00  0.00     0.212 HD
ENDBRANCH   2   3
BRANCH   2   5
HETATM    5  N1  UNL     1      17.325   1.822  13.386  1.00  0.00    -0.319 N 
HETATM    6  C3  UNL     1      16.222   2.387  14.080  1.00  0.00     0.294 C 
HETATM    7  O2  UNL     1      15.032   2.314  13.665  1.00  0.00    -0.267 OA
ATOM      8  H1  UNL     1      18.273   1.904  13.753  1.00  0.00     0.165 HD
BRANCH   6   9
HETATM    9  C4  UNL     1      16.417   3.120  15.377  1.00  0.00     0.343 C 
HETATM   10  F1  UNL     1      15.727   4.296  15.404  1.00  0.00    -0.194 F 
HETATM   11  F2  UNL     1      17.778   3.461  15.388  1.00  0.00    -0.194 F 
BRANCH   9  12
HETATM   12  C5  UNL     1      16.190   2.232  16.551  1.00  0.00     0.218 C 
HETATM   13 CL1  UNL     1      16.362   0.514  16.179  1.00  0.00    -0.114 Cl
BRANCH  12  14
HETATM   14  C6  UNL     1      14.845   2.458  17.152  1.00  0.00     0.211 C 
HETATM   15 CL2  UNL     1      14.969   2.352  18.944  1.00  0.00    -0.082 Cl
HETATM   16 CL3  UNL     1      13.714   1.163  16.655  1.00  0.00    -0.082 Cl
HETATM   17 CL4  UNL     1      14.142   4.035  16.723  1.00  0.00    -0.082 Cl
ENDBRANCH  12  14
ENDBRANCH   9  12
ENDBRANCH   6   9
ENDBRANCH   2   5
BRANCH   2  18
HETATM   18  C7  UNL     1      18.199   1.299  11.157  1.00  0.00     0.363 C 
HETATM   19  F3  UNL     1      17.879   0.593  10.042  1.00  0.00    -0.193 F 
HETATM   20  F4  UNL     1      19.363   0.696  11.671  1.00  0.00    -0.193 F 
BRANCH  18  21
HETATM   21  C8  UNL     1      18.564   2.733  10.931  1.00  0.00     0.377 C 
HETATM   22  F5  UNL     1      18.770   3.360  12.169  1.00  0.00    -0.190 F 
HETATM   23  F6  UNL     1      17.586   3.479  10.310  1.00  0.00    -0.190 F 
BRANCH  21  24
HETATM   24  C9  UNL     1      19.801   2.902  10.136  1.00  0.00     0.268 C 
HETATM   25  O3  UNL     1      19.993   2.470   9.018  1.00  0.00    -0.285 OA
BRANCH  24  26
HETATM   26  C10 UNL     1      20.909   3.671  10.761  1.00  0.00     0.428 C 
HETATM   27  F7  UNL     1      22.056   3.430   9.992  1.00  0.00    -0.206 F 
HETATM   28  F8  UNL     1      20.663   5.030  10.709  1.00  0.00    -0.206 F 
ENDBRANCH  24  26
ENDBRANCH  21  24
ENDBRANCH  18  21
ENDBRANCH   2  18
TORSDOF 9
ENDMDL
MODEL 5
REMARK VINA RESULT: -7.441733410      1.906      3.498
REMARK  9 active torsions:
REMARK  status: ('A' for Active; 'I' for Inactive)
REMARK    1  A    between atoms: C2_2  and  O1_3 
REMARK    2  A    between atoms: C2_2  and  N1_5 
REMARK    3  A    between atoms: C2_2  and  C7_18 
REMARK       I    between atoms: N1_5  and  C3_7 
REMARK    4  A    between atoms: C3_7  and  C4_9 
REMARK    5  A    between atoms: C4_9  and  C5_12 
REMARK    6  A    between atoms: C5_12  and  C6_14 
REMARK    7  A    between atoms: C7_18  and  C8_21 
REMARK    8  A    between atoms: C8_21  and  C9_24 
REMARK    9  A    between atoms: C9_24  and  C10_26 
ROOT
HETATM    1  C1  UNL     1      16.839  -0.239  12.418  1.00  0.00     0.077 C 
HETATM    2  C2  UNL     1      17.052   1.223  12.185  1.00  0.00     0.204 C 
ENDROOT
BRANCH   2   3
HETATM    3  O1  UNL     1      15.942   1.839  11.602  1.00  0.00    -0.366 OA
ATOM      4  H1  UNL     1      15.892   2.766  11.805  1.00  0.00     0.212 HD
ENDBRANCH   2   3
BRANCH   2   5
HETATM    5  N1  UNL     1      17.300   1.907  13.419  1.00  0.00    -0.319 N 
HETATM    6  C3  UNL     1      16.187   2.420  14.137  1.00  0.00     0.294 C 
HETATM    7  O2  UNL     1      14.994   2.303  13.741  1.00  0.00    -0.267 OA
ATOM      8  H1  UNL     1      18.250   2.023  13.771  1.00  0.00     0.165 HD
BRANCH   6   9
HETATM    9  C4  UNL     1      16.374   3.146  15.439  1.00  0.00     0.343 C 
HETATM   10  F1  UNL     1      15.693   4.327  15.465  1.00  0.00    -0.194 F 
HETATM   11  F2  UNL     1      17.737   3.477  15.465  1.00  0.00    -0.194 F 
BRANCH   9  12
HETATM   12  C5  UNL     1      16.129   2.255  16.608  1.00  0.00     0.218 C 
HETATM   13 CL1  UNL     1      16.276   0.536  16.226  1.00  0.00    -0.114 Cl
BRANCH  12  14
HETATM   14  C6  UNL     1      14.786   2.499  17.206  1.00  0.00     0.211 C 
HETATM   15 CL2  UNL     1      14.909   2.412  18.998  1.00  0.00    -0.082 Cl
HETATM   16 CL3  UNL     1      13.645   1.207  16.723  1.00  0.00    -0.082 Cl
HETATM   17 CL4  UNL     1      14.096   4.076  16.758  1.00  0.00    -0.082 Cl
ENDBRANCH  12  14
ENDBRANCH   9  12
ENDBRANCH   6   9
ENDBRANCH   2   5
BRANCH   2  18
HETATM   18  C7  UNL     1      18.192   1.381  11.198  1.00  0.00     0.363 C 
HETATM   19  F3  UNL     1      17.791   0.863  10.008  1.00  0.00    -0.193 F 
HETATM   20  F4  UNL     1      19.278   0.587  11.614  1.00  0.00    -0.193 F 
BRANCH  18  21
HETATM   21  C8  UNL     1      18.722   2.780  11.148  1.00  0.00     0.377 C 
HETATM   22  F5  UNL     1      19.840   2.824  10.302  1.00  0.00    -0.190 F 
HETATM   23  F6  UNL     1      19.172   3.261  12.359  1.00  0.00    -0.190 F 
BRANCH  21  24
HETATM   24  C9  UNL     1      17.738   3.760  10.637  1.00  0.00     0.268 C 
HETATM   25  O3  UNL     1      17.064   3.634   9.636  1.00  0.00    -0.285 OA
BRANCH  24  26
HETATM   26  C10 UNL     1      17.559   5.011  11.418  1.00  0.00     0.428 C 
HETATM   27  F7  UNL     1      17.426   6.054  10.490  1.00  0.00    -0.206 F 
HETATM   28  F8  UNL     1      16.391   4.973  12.157  1.00  0.00    -0.206 F 
ENDBRANCH  24  26
ENDBRANCH  21  24
ENDBRANCH  18  21
ENDBRANCH   2  18
TORSDOF 9
ENDMDL
