MODEL 1
REMARK VINA RESULT: -6.454923960      0.000      0.000
REMARK  9 active torsions:
REMARK  status: ('A' for Active; 'I' for Inactive)
REMARK    1  A    between atoms: C2_2  and  N1_3 
REMARK    2  A    between atoms: N1_3  and  C3_4 
REMARK    3  A    between atoms: N1_3  and  C5_8 
REMARK    4  A    between atoms: C3_4  and  C4_5 
REMARK    5  A    between atoms: C5_8  and  O3_9 
REMARK    6  A    between atoms: C5_8  and  C6_11 
REMARK    7  A    between atoms: C6_11  and  N2_12 
REMARK    8  A    between atoms: N2_12  and  C7_14 
REMARK    9  A    between atoms: C7_14  and  S1_16 
ROOT
HETATM    1  C6  UNL     1      17.263   4.452  14.331  1.00  0.00     0.092 C 
HETATM    2  C10 UNL     1      16.809   5.849  14.768  1.00  0.00     0.039 C 
HETATM    3  C11 UNL     1      17.794   6.834  14.264  1.00  0.00     0.003 C 
HETATM    4  C12 UNL     1      19.023   6.098  13.891  1.00  0.00     0.003 C 
HETATM    5  C13 UNL     1      18.764   4.666  14.146  1.00  0.00     0.039 C 
ENDROOT
BRANCH   1   6
HETATM    6  C5  UNL     1      17.087   3.455  15.370  1.00  0.00     0.146 C 
BRANCH   6   7
HETATM    7  N1  UNL     1      15.942   2.930  15.985  1.00  0.00    -0.330 N 
BRANCH   7   8
HETATM    8  C2  UNL     1      14.652   3.398  15.822  1.00  0.00     0.083 C 
HETATM    9  C1  UNL     1      13.973   3.939  16.829  1.00  0.00     0.030 C 
ENDBRANCH   7   8
BRANCH   7  10
HETATM   10  C3  UNL     1      16.153   1.777  16.883  1.00  0.00     0.243 C 
BRANCH  10  11
HETATM   11  C4  UNL     1      15.464   0.584  16.385  1.00  0.00     0.191 C 
HETATM   12  O1  UNL     1      16.024  -0.182  15.568  1.00  0.00    -0.647 OA
HETATM   13  O2  UNL     1      14.179   0.251  16.788  1.00  0.00    -0.647 OA
ENDBRANCH  10  11
ENDBRANCH   7  10
ENDBRANCH   6   7
BRANCH   6  14
HETATM   14  O3  UNL     1      18.178   2.927  15.845  1.00  0.00    -0.347 OA
ATOM     15  H3  UNL     1      18.908   3.021  15.243  1.00  0.00     0.219 HD
ENDBRANCH   6  14
ENDBRANCH   1   6
BRANCH   1  16
HETATM   16  N2  UNL     1      16.710   4.139  13.087  1.00  0.00    -0.393 N 
ATOM     17  H2  UNL     1      15.753   4.464  12.952  1.00  0.00     0.155 HD
BRANCH  16  18
HETATM   18  C7  UNL     1      17.236   3.474  12.030  1.00  0.00     0.135 C 
HETATM   19  C8  UNL     1      17.543   4.025  10.690  1.00  0.00     0.043 C 
BRANCH  18  20
HETATM   20  S1  UNL     1      16.143   1.995  11.606  1.00  0.00    -0.149 SA
HETATM   21  C9  UNL     1      16.916   0.547  12.354  1.00  0.00     0.091 C 
ENDBRANCH  18  20
ENDBRANCH  16  18
ENDBRANCH   1  16
TORSDOF 9
ENDMDL
MODEL 2
REMARK VINA RESULT: -6.266620121      1.402      1.526
REMARK  9 active torsions:
REMARK  status: ('A' for Active; 'I' for Inactive)
REMARK    1  A    between atoms: C2_2  and  N1_3 
REMARK    2  A    between atoms: N1_3  and  C3_4 
REMARK    3  A    between atoms: N1_3  and  C5_8 
REMARK    4  A    between atoms: C3_4  and  C4_5 
REMARK    5  A    between atoms: C5_8  and  O3_9 
REMARK    6  A    between atoms: C5_8  and  C6_11 
REMARK    7  A    between atoms: C6_11  and  N2_12 
REMARK    8  A    between atoms: N2_12  and  C7_14 
REMARK    9  A    between atoms: C7_14  and  S1_16 
ROOT
HETATM    1  C6  UNL     1      17.353   5.054  14.105  1.00  0.00     0.092 C 
HETATM    2  C10 UNL     1      16.975   6.314  14.892  1.00  0.00     0.039 C 
HETATM    3  C11 UNL     1      18.036   7.327  14.681  1.00  0.00     0.003 C 
HETATM    4  C12 UNL     1      19.228   6.632  14.143  1.00  0.00     0.003 C 
HETATM    5  C13 UNL     1      18.870   5.206  14.004  1.00  0.00     0.039 C 
ENDROOT
BRANCH   1   6
HETATM    6  C5  UNL     1      17.082   3.833  14.839  1.00  0.00     0.146 C 
BRANCH   6   7
HETATM    7  N1  UNL     1      15.943   3.020  14.924  1.00  0.00    -0.330 N 
BRANCH   7   8
HETATM    8  C2  UNL     1      14.686   3.433  15.324  1.00  0.00     0.083 C 
HETATM    9  C1  UNL     1      14.375   3.579  16.607  1.00  0.00     0.030 C 
ENDBRANCH   7   8
BRANCH   7  10
HETATM   10  C3  UNL     1      16.122   1.603  14.553  1.00  0.00     0.243 C 
BRANCH  10  11
HETATM   11  C4  UNL     1      16.308   0.763  15.739  1.00  0.00     0.191 C 
HETATM   12  O1  UNL     1      17.449   0.596  16.229  1.00  0.00    -0.647 OA
HETATM   13  O2  UNL     1      15.249   0.123  16.365  1.00  0.00    -0.647 OA
ENDBRANCH  10  11
ENDBRANCH   7  10
ENDBRANCH   6   7
BRANCH   6  14
HETATM   14  O3  UNL     1      18.059   3.377  15.568  1.00  0.00    -0.347 OA
ATOM     15  H3  UNL     1      18.897   3.453  15.126  1.00  0.00     0.219 HD
ENDBRANCH   6  14
ENDBRANCH   1   6
BRANCH   1  16
HETATM   16  N2  UNL     1      16.821   5.121  12.816  1.00  0.00    -0.393 N 
ATOM     17  H2  UNL     1      15.882   4.734  12.721  1.00  0.00     0.155 HD
BRANCH  16  18
HETATM   18  C7  UNL     1      17.347   5.616  11.669  1.00  0.00     0.135 C 
HETATM   19  C8  UNL     1      16.867   6.783  10.895  1.00  0.00     0.043 C 
BRANCH  18  20
HETATM   20  S1  UNL     1      17.384   4.261  10.355  1.00  0.00    -0.149 SA
HETATM   21  C9  UNL     1      16.612   2.806  11.089  1.00  0.00     0.091 C 
ENDBRANCH  18  20
ENDBRANCH  16  18
ENDBRANCH   1  16
TORSDOF 9
ENDMDL
MODEL 3
REMARK VINA RESULT: -6.160406441      1.501      1.948
REMARK  9 active torsions:
REMARK  status: ('A' for Active; 'I' for Inactive)
REMARK    1  A    between atoms: C2_2  and  N1_3 
REMARK    2  A    between atoms: N1_3  and  C3_4 
REMARK    3  A    between atoms: N1_3  and  C5_8 
REMARK    4  A    between atoms: C3_4  and  C4_5 
REMARK    5  A    between atoms: C5_8  and  O3_9 
REMARK    6  A    between atoms: C5_8  and  C6_11 
REMARK    7  A    between atoms: C6_11  and  N2_12 
REMARK    8  A    between atoms: N2_12  and  C7_14 
REMARK    9  A    between atoms: C7_14  and  S1_16 
ROOT
HETATM    1  C6  UNL     1      17.829   4.661  13.634  1.00  0.00     0.092 C 
HETATM    2  C10 UNL     1      17.022   5.963  13.596  1.00  0.00     0.039 C 
HETATM    3  C11 UNL     1      17.973   7.093  13.473  1.00  0.00     0.003 C 
HETATM    4  C12 UNL     1      19.319   6.595  13.834  1.00  0.00     0.003 C 
HETATM    5  C13 UNL     1      19.179   5.158  14.146  1.00  0.00     0.039 C 
ENDROOT
BRANCH   1   6
HETATM    6  C5  UNL     1      17.315   3.712  14.603  1.00  0.00     0.146 C 
BRANCH   6   7
HETATM    7  N1  UNL     1      16.121   2.980  14.661  1.00  0.00    -0.330 N 
BRANCH   7   8
HETATM    8  C2  UNL     1      14.867   3.503  14.919  1.00  0.00     0.083 C 
HETATM    9  C1  UNL     1      14.614   4.196  16.025  1.00  0.00     0.030 C 
ENDBRANCH   7   8
BRANCH   7  10
HETATM   10  C3  UNL     1      16.231   1.528  14.427  1.00  0.00     0.243 C 
BRANCH  10  11
HETATM   11  C4  UNL     1      16.256   0.787  15.690  1.00  0.00     0.191 C 
HETATM   12  O1  UNL     1      17.334   0.603  16.301  1.00  0.00    -0.647 OA
HETATM   13  O2  UNL     1      15.107   0.261  16.262  1.00  0.00    -0.647 OA
ENDBRANCH  10  11
ENDBRANCH   7  10
ENDBRANCH   6   7
BRANCH   6  14
HETATM   14  O3  UNL     1      18.082   3.469  15.626  1.00  0.00    -0.347 OA
ATOM     15  H3  UNL     1      17.718   3.818  16.432  1.00  0.00     0.219 HD
ENDBRANCH   6  14
ENDBRANCH   1   6
BRANCH   1  16
HETATM   16  N2  UNL     1      18.006   4.172  12.337  1.00  0.00    -0.393 N 
ATOM     17  H2  UNL     1      18.964   3.909  12.108  1.00  0.00     0.155 HD
BRANCH  16  18
HETATM   18  C7  UNL     1      17.113   3.991  11.334  1.00  0.00     0.135 C 
HETATM   19  C8  UNL     1      16.500   2.714  10.903  1.00  0.00     0.043 C 
BRANCH  18  20
HETATM   20  S1  UNL     1      17.838   4.645   9.718  1.00  0.00    -0.149 SA
HETATM   21  C9  UNL     1      19.547   5.107  10.066  1.00  0.00     0.091 C 
ENDBRANCH  18  20
ENDBRANCH  16  18
ENDBRANCH   1  16
TORSDOF 9
ENDMDL
MODEL 4
REMARK VINA RESULT: -6.018158117      2.415      4.697
REMARK  9 active torsions:
REMARK  status: ('A' for Active; 'I' for Inactive)
REMARK    1  A    between atoms: C2_2  and  N1_3 
REMARK    2  A    between atoms: N1_3  and  C3_4 
REMARK    3  A    between atoms: N1_3  and  C5_8 
REMARK    4  A    between atoms: C3_4  and  C4_5 
REMARK    5  A    between atoms: C5_8  and  O3_9 
REMARK    6  A    between atoms: C5_8  and  C6_11 
REMARK    7  A    between atoms: C6_11  and  N2_12 
REMARK    8  A    between atoms: N2_12  and  C7_14 
REMARK    9  A    between atoms: C7_14  and  S1_16 
ROOT
HETATM    1  C6  UNL     1      16.207   3.374  14.684  1.00  0.00     0.092 C 
HETATM    2  C10 UNL     1      17.410   4.290  14.932  1.00  0.00     0.039 C 
HETATM    3  C11 UNL     1      16.920   5.686  15.012  1.00  0.00     0.003 C 
HETATM    4  C12 UNL     1      15.557   5.724  14.435  1.00  0.00     0.003 C 
HETATM    5  C13 UNL     1      15.219   4.343  14.035  1.00  0.00     0.039 C 
ENDROOT
BRANCH   1   6
HETATM    6  C5  UNL     1      16.488   2.326  13.723  1.00  0.00     0.146 C 
BRANCH   6   7
HETATM    7  N1  UNL     1      16.664   2.347  12.332  1.00  0.00    -0.330 N 
BRANCH   7   8
HETATM    8  C2  UNL     1      17.651   3.038  11.654  1.00  0.00     0.083 C 
HETATM    9  C1  UNL     1      17.365   4.070  10.868  1.00  0.00     0.030 C 
ENDBRANCH   7   8
BRANCH   7  10
HETATM   10  C3  UNL     1      15.700   1.558  11.539  1.00  0.00     0.243 C 
BRANCH  10  11
HETATM   11  C4  UNL     1      16.324   0.347  11.000  1.00  0.00     0.191 C 
HETATM   12  O1  UNL     1      16.319   0.122   9.767  1.00  0.00    -0.647 OA
HETATM   13  O2  UNL     1      16.937  -0.593  11.813  1.00  0.00    -0.647 OA
ENDBRANCH  10  11
ENDBRANCH   7  10
ENDBRANCH   6   7
BRANCH   6  14
HETATM   14  O3  UNL     1      16.606   1.123  14.208  1.00  0.00    -0.347 OA
ATOM     15  H3  UNL     1      17.253   1.084  14.903  1.00  0.00     0.219 HD
ENDBRANCH   6  14
ENDBRANCH   1   6
BRANCH   1  16
HETATM   16  N2  UNL     1      15.669   2.955  15.903  1.00  0.00    -0.393 N 
ATOM     17  H2  UNL     1      16.333   2.496  16.527  1.00  0.00     0.155 HD
BRANCH  16  18
HETATM   18  C7  UNL     1      14.410   3.056  16.393  1.00  0.00     0.135 C 
HETATM   19  C8  UNL     1      13.957   3.888  17.531  1.00  0.00     0.043 C 
BRANCH  18  20
HETATM   20  S1  UNL     1      13.782   1.345  16.883  1.00  0.00    -0.149 SA
HETATM   21  C9  UNL     1      15.215   0.415  17.464  1.00  0.00     0.091 C 
ENDBRANCH  18  20
ENDBRANCH  16  18
ENDBRANCH   1  16
TORSDOF 9
ENDMDL
MODEL 5
REMARK VINA RESULT: -6.017119533      1.693      2.192
REMARK  9 active torsions:
REMARK  status: ('A' for Active; 'I' for Inactive)
REMARK    1  A    between atoms: C2_2  and  N1_3 
REMARK    2  A    between atoms: N1_3  and  C3_4 
REMARK    3  A    between atoms: N1_3  and  C5_8 
REMARK    4  A    between atoms: C3_4  and  C4_5 
REMARK    5  A    between atoms: C5_8  and  O3_9 
REMARK    6  A    between atoms: C5_8  and  C6_11 
REMARK    7  A    between atoms: C6_11  and  N2_12 
REMARK    8  A    between atoms: N2_12  and  C7_14 
REMARK    9  A    between atoms: C7_14  and  S1_16 
ROOT
HETATM    1  C6  UNL     1      16.474   4.200  13.987  1.00  0.00     0.092 C 
HETATM    2  C10 UNL     1      16.063   5.594  13.503  1.00  0.00     0.039 C 
HETATM    3  C11 UNL     1      17.232   6.495  13.641  1.00  0.00     0.003 C 
HETATM    4  C12 UNL     1      18.205   5.842  14.546  1.00  0.00     0.003 C 
HETATM    5  C13 UNL     1      17.630   4.535  14.927  1.00  0.00     0.039 C 
ENDROOT
BRANCH   1   6
HETATM    6  C5  UNL     1      15.442   3.553  14.774  1.00  0.00     0.146 C 
BRANCH   6   7
HETATM    7  N1  UNL     1      15.496   2.777  15.940  1.00  0.00    -0.330 N 
BRANCH   7   8
HETATM    8  C2  UNL     1      14.553   2.774  16.951  1.00  0.00     0.083 C 
HETATM    9  C1  UNL     1      14.767   2.148  18.103  1.00  0.00     0.030 C 
ENDBRANCH   7   8
BRANCH   7  10
HETATM   10  C3  UNL     1      16.670   1.894  16.085  1.00  0.00     0.243 C 
BRANCH  10  11
HETATM   11  C4  UNL     1      16.499   0.655  15.322  1.00  0.00     0.191 C 
HETATM   12  O1  UNL     1      15.970  -0.351  15.849  1.00  0.00    -0.647 OA
HETATM   13  O2  UNL     1      16.908   0.538  14.002  1.00  0.00    -0.647 OA
ENDBRANCH  10  11
ENDBRANCH   7  10
ENDBRANCH   6   7
BRANCH   6  14
HETATM   14  O3  UNL     1      14.222   3.699  14.346  1.00  0.00    -0.347 OA
ATOM     15  H3  UNL     1      13.990   3.036  13.705  1.00  0.00     0.219 HD
ENDBRANCH   6  14
ENDBRANCH   1   6
BRANCH   1  16
HETATM   16  N2  UNL     1      16.982   3.455  12.919  1.00  0.00    -0.393 N 
ATOM     17  H2  UNL     1      17.863   2.980  13.112  1.00  0.00     0.155 HD
BRANCH  16  18
HETATM   18  C7  UNL     1      16.495   3.261  11.670  1.00  0.00     0.135 C 
HETATM   19  C8  UNL     1      16.255   1.965  10.995  1.00  0.00     0.043 C 
BRANCH  18  20
HETATM   20  S1  UNL     1      17.589   4.158  10.420  1.00  0.00    -0.149 SA
HETATM   21  C9  UNL     1      19.181   4.427  11.224  1.00  0.00     0.091 C 
ENDBRANCH  18  20
ENDBRANCH  16  18
ENDBRANCH   1  16
TORSDOF 9
ENDMDL
