MODEL 1
REMARK VINA RESULT: -7.155577031      0.000      0.000
REMARK  8 active torsions:
REMARK  status: ('A' for Active; 'I' for Inactive)
REMARK    1  A    between atoms: C3_3  and  C4_4 
REMARK    2  A    between atoms: C3_3  and  N2_17 
REMARK    3  A    between atoms: C4_4  and  O1_5 
REMARK    4  A    between atoms: O1_5  and  C5_6 
REMARK       I    between atoms: C5_6  and  N1_8 
REMARK    5  A    between atoms: N1_8  and  C6_10 
REMARK    6  A    between atoms: C6_10  and  C7_11 
REMARK    7  A    between atoms: C6_10  and  C9_13 
REMARK       I    between atoms: N2_17  and  C13_19 
REMARK    8  A    between atoms: C13_19  and  C14_21 
ROOT
HETATM    1  C1  UNL     1      16.880  -0.531  12.291  1.00  0.00     0.014 C 
HETATM    2  C2  UNL     1      16.834   0.477  12.951  1.00  0.00    -0.090 C 
HETATM    3  C3  UNL     1      16.751   1.731  13.761  1.00  0.00     0.187 C 
ENDROOT
BRANCH   3   4
HETATM    4  C4  UNL     1      16.532   2.830  12.810  1.00  0.00     0.218 C 
BRANCH   4   5
HETATM    5  O1  UNL     1      15.856   3.969  13.184  1.00  0.00    -0.301 OA
BRANCH   5   6
HETATM    6  C5  UNL     1      16.204   5.281  13.229  1.00  0.00     0.361 C 
HETATM    7  O2  UNL     1      15.286   6.128  13.120  1.00  0.00    -0.238 OA
HETATM    8  N1  UNL     1      17.558   5.735  13.396  1.00  0.00    -0.329 N 
ATOM      9  H1  UNL     1      18.302   5.042  13.484  1.00  0.00     0.165 HD
BRANCH   8  10
HETATM   10  C6  UNL     1      17.897   7.112  13.441  1.00  0.00     0.113 C 
BRANCH  10  11
HETATM   11  C7  UNL     1      18.319   7.495  12.041  1.00  0.00    -0.012 C 
HETATM   12  C8  UNL     1      17.514   8.189  11.247  1.00  0.00     0.009 C 
ENDBRANCH  10  11
BRANCH  10  13
HETATM   13  C9  UNL     1      19.050   7.460  14.340  1.00  0.00     0.012 C 
HETATM   14  C10 UNL     1      18.750   8.538  15.359  1.00  0.00     0.007 C 
HETATM   15  C11 UNL     1      19.995   9.289  14.983  1.00  0.00     0.001 C 
HETATM   16  C12 UNL     1      20.120   8.329  13.793  1.00  0.00     0.007 C 
ENDBRANCH  10  13
ENDBRANCH   8  10
ENDBRANCH   5   6
ENDBRANCH   4   5
ENDBRANCH   3   4
BRANCH   3  17
HETATM   17  N2  UNL     1      15.811   1.475  14.783  1.00  0.00    -0.344 N 
HETATM   18  C13 UNL     1      16.159   1.033  16.096  1.00  0.00     0.222 C 
HETATM   19  O3  UNL     1      17.377   0.865  16.342  1.00  0.00    -0.273 OA
ATOM     20  H2  UNL     1      14.823   1.614  14.571  1.00  0.00     0.163 HD
BRANCH  18  21
HETATM   21  C14 UNL     1      15.184   0.763  17.171  1.00  0.00     0.078 A 
HETATM   22  C15 UNL     1      14.752   2.018  17.998  1.00  0.00     0.015 A 
HETATM   23  C16 UNL     1      13.826   1.335  17.059  1.00  0.00     0.015 A 
ENDBRANCH  18  21
ENDBRANCH   3  17
TORSDOF 8
ENDMDL
MODEL 2
REMARK VINA RESULT: -7.022523875      2.846      5.970
REMARK  8 active torsions:
REMARK  status: ('A' for Active; 'I' for Inactive)
REMARK    1  A    between atoms: C3_3  and  C4_4 
REMARK    2  A    between atoms: C3_3  and  N2_17 
REMARK    3  A    between atoms: C4_4  and  O1_5 
REMARK    4  A    between atoms: O1_5  and  C5_6 
REMARK       I    between atoms: C5_6  and  N1_8 
REMARK    5  A    between atoms: N1_8  and  C6_10 
REMARK    6  A    between atoms: C6_10  and  C7_11 
REMARK    7  A    between atoms: C6_10  and  C9_13 
REMARK       I    between atoms: N2_17  and  C13_19 
REMARK    8  A    between atoms: C13_19  and  C14_21 
ROOT
HETATM    1  C1  UNL     1      15.980  -0.214   9.752  1.00  0.00     0.014 C 
HETATM    2  C2  UNL     1      16.201   0.254  10.841  1.00  0.00    -0.090 C 
HETATM    3  C3  UNL     1      16.501   0.825  12.189  1.00  0.00     0.187 C 
ENDROOT
BRANCH   3   4
HETATM    4  C4  UNL     1      16.879  -0.306  13.049  1.00  0.00     0.218 C 
BRANCH   4   5
HETATM    5  O1  UNL     1      16.521  -0.340  14.377  1.00  0.00    -0.301 OA
BRANCH   5   6
HETATM    6  C5  UNL     1      16.489   0.603  15.354  1.00  0.00     0.361 C 
HETATM    7  O2  UNL     1      17.274   0.462  16.321  1.00  0.00    -0.238 OA
HETATM    8  N1  UNL     1      15.610   1.740  15.327  1.00  0.00    -0.329 N 
ATOM      9  H1  UNL     1      14.973   1.851  14.537  1.00  0.00     0.165 HD
BRANCH   8  10
HETATM   10  C6  UNL     1      15.595   2.714  16.359  1.00  0.00     0.113 C 
BRANCH  10  11
HETATM   11  C7  UNL     1      14.222   2.651  16.987  1.00  0.00    -0.012 C 
HETATM   12  C8  UNL     1      13.564   1.503  17.086  1.00  0.00     0.009 C 
ENDBRANCH  10  11
BRANCH  10  13
HETATM   13  C9  UNL     1      15.788   4.133  15.906  1.00  0.00     0.012 C 
HETATM   14  C10 UNL     1      14.707   4.652  14.983  1.00  0.00     0.007 C 
HETATM   15  C11 UNL     1      15.732   5.160  14.009  1.00  0.00     0.001 C 
HETATM   16  C12 UNL     1      16.777   4.392  14.830  1.00  0.00     0.007 C 
ENDBRANCH  10  13
ENDBRANCH   8  10
ENDBRANCH   5   6
ENDBRANCH   4   5
ENDBRANCH   3   4
BRANCH   3  17
HETATM   17  N2  UNL     1      17.406   1.888  11.971  1.00  0.00    -0.344 N 
HETATM   18  C13 UNL     1      17.051   3.126  11.354  1.00  0.00     0.222 C 
HETATM   19  O3  UNL     1      15.859   3.264  10.987  1.00  0.00    -0.273 OA
ATOM     20  H2  UNL     1      18.373   1.763  12.272  1.00  0.00     0.163 HD
BRANCH  18  21
HETATM   21  C14 UNL     1      17.989   4.242  11.123  1.00  0.00     0.078 A 
HETATM   22  C15 UNL     1      18.266   4.568   9.620  1.00  0.00     0.015 A 
HETATM   23  C16 UNL     1      17.481   5.478  10.492  1.00  0.00     0.015 A 
ENDBRANCH  18  21
ENDBRANCH   3  17
TORSDOF 8
ENDMDL
MODEL 3
REMARK VINA RESULT: -6.984556244      2.980      3.990
REMARK  8 active torsions:
REMARK  status: ('A' for Active; 'I' for Inactive)
REMARK    1  A    between atoms: C3_3  and  C4_4 
REMARK    2  A    between atoms: C3_3  and  N2_17 
REMARK    3  A    between atoms: C4_4  and  O1_5 
REMARK    4  A    between atoms: O1_5  and  C5_6 
REMARK       I    between atoms: C5_6  and  N1_8 
REMARK    5  A    between atoms: N1_8  and  C6_10 
REMARK    6  A    between atoms: C6_10  and  C7_11 
REMARK    7  A    between atoms: C6_10  and  C9_13 
REMARK       I    between atoms: N2_17  and  C13_19 
REMARK    8  A    between atoms: C13_19  and  C14_21 
ROOT
HETATM    1  C1  UNL     1      16.479   0.539  11.936  1.00  0.00     0.014 C 
HETATM    2  C2  UNL     1      16.603   1.345  12.824  1.00  0.00    -0.090 C 
HETATM    3  C3  UNL     1      16.731   2.353  13.920  1.00  0.00     0.187 C 
ENDROOT
BRANCH   3   4
HETATM    4  C4  UNL     1      16.631   3.676  13.286  1.00  0.00     0.218 C 
BRANCH   4   5
HETATM    5  O1  UNL     1      17.230   3.930  12.073  1.00  0.00    -0.301 OA
BRANCH   5   6
HETATM    6  C5  UNL     1      16.795   4.517  10.929  1.00  0.00     0.361 C 
HETATM    7  O2  UNL     1      16.905   3.864   9.865  1.00  0.00    -0.238 OA
HETATM    8  N1  UNL     1      16.220   5.834  10.885  1.00  0.00    -0.329 N 
ATOM      9  H1  UNL     1      16.133   6.362  11.753  1.00  0.00     0.165 HD
BRANCH   8  10
HETATM   10  C6  UNL     1      15.771   6.427   9.676  1.00  0.00     0.113 C 
BRANCH  10  11
HETATM   11  C7  UNL     1      16.771   7.507   9.332  1.00  0.00    -0.012 C 
HETATM   12  C8  UNL     1      17.696   7.314   8.401  1.00  0.00     0.009 C 
ENDBRANCH  10  11
BRANCH  10  13
HETATM   13  C9  UNL     1      14.431   7.100   9.751  1.00  0.00     0.012 C 
HETATM   14  C10 UNL     1      13.591   6.970   8.499  1.00  0.00     0.007 C 
HETATM   15  C11 UNL     1      13.318   8.448   8.486  1.00  0.00     0.001 C 
HETATM   16  C12 UNL     1      14.382   8.574   9.584  1.00  0.00     0.007 C 
ENDBRANCH  10  13
ENDBRANCH   8  10
ENDBRANCH   5   6
ENDBRANCH   4   5
ENDBRANCH   3   4
BRANCH   3  17
HETATM   17  N2  UNL     1      15.805   1.969  14.915  1.00  0.00    -0.344 N 
HETATM   18  C13 UNL     1      16.142   1.175  16.055  1.00  0.00     0.222 C 
HETATM   19  O3  UNL     1      17.334   0.803  16.164  1.00  0.00    -0.273 OA
ATOM     20  H2  UNL     1      14.838   2.276  14.814  1.00  0.00     0.163 HD
BRANCH  18  21
HETATM   21  C14 UNL     1      15.182   0.769  17.101  1.00  0.00     0.078 A 
HETATM   22  C15 UNL     1      14.708   1.923  18.042  1.00  0.00     0.015 A 
HETATM   23  C16 UNL     1      13.804   1.297  17.044  1.00  0.00     0.015 A 
ENDBRANCH  18  21
ENDBRANCH   3  17
TORSDOF 8
ENDMDL
MODEL 4
REMARK VINA RESULT: -6.920440684      2.823      6.546
REMARK  8 active torsions:
REMARK  status: ('A' for Active; 'I' for Inactive)
REMARK    1  A    between atoms: C3_3  and  C4_4 
REMARK    2  A    between atoms: C3_3  and  N2_17 
REMARK    3  A    between atoms: C4_4  and  O1_5 
REMARK    4  A    between atoms: O1_5  and  C5_6 
REMARK       I    between atoms: C5_6  and  N1_8 
REMARK    5  A    between atoms: N1_8  and  C6_10 
REMARK    6  A    between atoms: C6_10  and  C7_11 
REMARK    7  A    between atoms: C6_10  and  C9_13 
REMARK       I    between atoms: N2_17  and  C13_19 
REMARK    8  A    between atoms: C13_19  and  C14_21 
ROOT
HETATM    1  C1  UNL     1      20.707   5.536  10.377  1.00  0.00     0.014 C 
HETATM    2  C2  UNL     1      19.647   5.093  10.744  1.00  0.00    -0.090 C 
HETATM    3  C3  UNL     1      18.339   4.553  11.225  1.00  0.00     0.187 C 
ENDROOT
BRANCH   3   4
HETATM    4  C4  UNL     1      18.654   3.469  12.166  1.00  0.00     0.218 C 
BRANCH   4   5
HETATM    5  O1  UNL     1      17.699   2.552  12.541  1.00  0.00    -0.301 OA
BRANCH   5   6
HETATM    6  C5  UNL     1      16.473   2.671  13.112  1.00  0.00     0.361 C 
HETATM    7  O2  UNL     1      15.477   2.365  12.414  1.00  0.00    -0.238 OA
HETATM    8  N1  UNL     1      16.269   3.124  14.461  1.00  0.00    -0.329 N 
ATOM      9  H1  UNL     1      17.082   3.372  15.025  1.00  0.00     0.165 HD
BRANCH   8  10
HETATM   10  C6  UNL     1      14.978   3.239  15.036  1.00  0.00     0.113 C 
BRANCH  10  11
HETATM   11  C7  UNL     1      14.659   4.716  15.081  1.00  0.00    -0.012 C 
HETATM   12  C8  UNL     1      15.624   5.625  15.135  1.00  0.00     0.009 C 
ENDBRANCH  10  11
BRANCH  10  13
HETATM   13  C9  UNL     1      14.856   2.738  16.447  1.00  0.00     0.012 C 
HETATM   14  C10 UNL     1      15.924   1.748  16.858  1.00  0.00     0.007 C 
HETATM   15  C11 UNL     1      14.890   0.800  17.396  1.00  0.00     0.001 C 
HETATM   16  C12 UNL     1      13.837   1.697  16.731  1.00  0.00     0.007 C 
ENDBRANCH  10  13
ENDBRANCH   8  10
ENDBRANCH   5   6
ENDBRANCH   4   5
ENDBRANCH   3   4
BRANCH   3  17
HETATM   17  N2  UNL     1      17.586   5.670  11.649  1.00  0.00    -0.344 N 
HETATM   18  C13 UNL     1      16.240   5.926  11.245  1.00  0.00     0.222 C 
HETATM   19  O3  UNL     1      15.707   5.102  10.464  1.00  0.00    -0.273 OA
ATOM     20  H2  UNL     1      18.030   6.334  12.283  1.00  0.00     0.163 HD
BRANCH  18  21
HETATM   21  C14 UNL     1      15.445   7.090  11.684  1.00  0.00     0.078 A 
HETATM   22  C15 UNL     1      15.481   8.315  10.715  1.00  0.00     0.015 A 
HETATM   23  C16 UNL     1      14.263   7.484  10.889  1.00  0.00     0.015 A 
ENDBRANCH  18  21
ENDBRANCH   3  17
TORSDOF 8
ENDMDL
MODEL 5
REMARK VINA RESULT: -6.892965777      2.908      3.505
REMARK  8 active torsions:
REMARK  status: ('A' for Active; 'I' for Inactive)
REMARK    1  A    between atoms: C3_3  and  C4_4 
REMARK    2  A    between atoms: C3_3  and  N2_17 
REMARK    3  A    between atoms: C4_4  and  O1_5 
REMARK    4  A    between atoms: O1_5  and  C5_6 
REMARK       I    between atoms: C5_6  and  N1_8 
REMARK    5  A    between atoms: N1_8  and  C6_10 
REMARK    6  A    between atoms: C6_10  and  C7_11 
REMARK    7  A    between atoms: C6_10  and  C9_13 
REMARK       I    between atoms: N2_17  and  C13_19 
REMARK    8  A    between atoms: C13_19  and  C14_21 
ROOT
HETATM    1  C1  UNL     1      16.497   0.348  11.869  1.00  0.00     0.014 C 
HETATM    2  C2  UNL     1      16.651   1.148  12.759  1.00  0.00    -0.090 C 
HETATM    3  C3  UNL     1      16.815   2.149  13.856  1.00  0.00     0.187 C 
ENDROOT
BRANCH   3   4
HETATM    4  C4  UNL     1      16.812   3.473  13.219  1.00  0.00     0.218 C 
BRANCH   4   5
HETATM    5  O1  UNL     1      17.482   3.696  12.038  1.00  0.00    -0.301 OA
BRANCH   5   6
HETATM    6  C5  UNL     1      17.124   4.276  10.863  1.00  0.00     0.361 C 
HETATM    7  O2  UNL     1      16.820   3.518   9.912  1.00  0.00    -0.238 OA
HETATM    8  N1  UNL     1      17.077   5.699  10.666  1.00  0.00    -0.329 N 
ATOM      9  H1  UNL     1      17.324   6.312  11.443  1.00  0.00     0.165 HD
BRANCH   8  10
HETATM   10  C6  UNL     1      16.698   6.282   9.429  1.00  0.00     0.113 C 
BRANCH  10  11
HETATM   11  C7  UNL     1      17.939   6.936   8.867  1.00  0.00    -0.012 C 
HETATM   12  C8  UNL     1      17.940   7.481   7.657  1.00  0.00     0.009 C 
ENDBRANCH  10  11
BRANCH  10  13
HETATM   13  C9  UNL     1      15.656   7.360   9.520  1.00  0.00     0.012 C 
HETATM   14  C10 UNL     1      15.518   7.989  10.889  1.00  0.00     0.007 C 
HETATM   15  C11 UNL     1      14.026   7.811  10.860  1.00  0.00     0.001 C 
HETATM   16  C12 UNL     1      14.233   6.947   9.609  1.00  0.00     0.007 C 
ENDBRANCH  10  13
ENDBRANCH   8  10
ENDBRANCH   5   6
ENDBRANCH   4   5
ENDBRANCH   3   4
BRANCH   3  17
HETATM   17  N2  UNL     1      15.846   1.825  14.831  1.00  0.00    -0.344 N 
HETATM   18  C13 UNL     1      16.130   1.105  16.032  1.00  0.00     0.222 C 
HETATM   19  O3  UNL     1      17.317   0.745  16.219  1.00  0.00    -0.273 OA
ATOM     20  H2  UNL     1      14.884   2.122  14.667  1.00  0.00     0.163 HD
BRANCH  18  21
HETATM   21  C14 UNL     1      15.125   0.762  17.057  1.00  0.00     0.078 A 
HETATM   22  C15 UNL     1      14.757   1.926  18.033  1.00  0.00     0.015 A 
HETATM   23  C16 UNL     1      13.806   1.427  17.008  1.00  0.00     0.015 A 
ENDBRANCH  18  21
ENDBRANCH   3  17
TORSDOF 8
ENDMDL
