MODEL 1
REMARK VINA RESULT: -6.353497016      0.000      0.000
REMARK  7 active torsions:
REMARK  status: ('A' for Active; 'I' for Inactive)
REMARK    1  A    between atoms: C2_2  and  C4_4 
REMARK    2  A    between atoms: C4_4  and  C5_5 
REMARK    3  A    between atoms: C5_5  and  C6_6 
REMARK    4  A    between atoms: C7_7  and  C8_8 
REMARK       I    between atoms: C8_8  and  N1_10 
REMARK    5  A    between atoms: C9_12  and  C10_13 
REMARK    6  A    between atoms: C10_13  and  N2_14 
REMARK    7  A    between atoms: C14_18  and  C15_19 
ROOT
HETATM    1  C6  UNL     1      17.016   3.959  15.224  1.00  0.00    -0.011 C 
HETATM    2  C7  UNL     1      17.072   4.686  14.144  1.00  0.00     0.071 C 
ENDROOT
BRANCH   1   3
HETATM    3  C5  UNL     1      16.200   2.652  15.295  1.00  0.00    -0.008 A 
HETATM    4  C13 UNL     1      15.253   2.552  14.169  1.00  0.00     0.030 A 
HETATM    5  C14 UNL     1      16.584   1.777  14.200  1.00  0.00     0.100 A 
BRANCH   3   6
HETATM    6  C4  UNL     1      15.880   2.429  16.689  1.00  0.00     0.018 C 
BRANCH   6   7
HETATM    7  C2  UNL     1      14.585   2.466  17.330  1.00  0.00    -0.022 C 
HETATM    8  C1  UNL     1      13.991   1.038  17.049  1.00  0.00     0.009 C 
HETATM    9  C3  UNL     1      14.610   2.497  18.846  1.00  0.00     0.009 C 
ENDBRANCH   6   7
ENDBRANCH   3   6
BRANCH   5  10
HETATM   10  C15 UNL     1      16.553   0.337  14.079  1.00  0.00     0.178 C 
HETATM   11  O2  UNL     1      16.454  -0.457  15.034  1.00  0.00    -0.648 OA
HETATM   12  O3  UNL     1      16.640  -0.281  12.812  1.00  0.00    -0.648 OA
ENDBRANCH   5  10
ENDBRANCH   1   3
BRANCH   2  13
HETATM   13  C8  UNL     1      17.855   5.905  14.133  1.00  0.00     0.244 C 
HETATM   14  O1  UNL     1      17.569   6.867  14.904  1.00  0.00    -0.268 OA
HETATM   15  N1  UNL     1      18.950   6.043  13.259  1.00  0.00    -0.336 N 
HETATM   16  C9  UNL     1      19.753   5.102  12.920  1.00  0.00     0.094 C 
ATOM     17  H1  UNL     1      19.119   6.967  12.862  1.00  0.00     0.168 HD
BRANCH  16  18
HETATM   18  C10 UNL     1      20.848   5.436  11.990  1.00  0.00     0.315 C 
BRANCH  18  19
HETATM   19  N2  UNL     1      21.024   4.491  10.920  1.00  0.00     0.084 N 
HETATM   20  C11 UNL     1      20.450   4.967   9.697  1.00  0.00     0.309 C 
HETATM   21  C12 UNL     1      22.452   4.288  10.719  1.00  0.00     0.309 C 
ENDBRANCH  18  19
ENDBRANCH  16  18
ENDBRANCH   2  13
TORSDOF 7
ENDMDL
MODEL 2
REMARK VINA RESULT: -6.210517955      2.910      4.370
REMARK  7 active torsions:
REMARK  status: ('A' for Active; 'I' for Inactive)
REMARK    1  A    between atoms: C2_2  and  C4_4 
REMARK    2  A    between atoms: C4_4  and  C5_5 
REMARK    3  A    between atoms: C5_5  and  C6_6 
REMARK    4  A    between atoms: C7_7  and  C8_8 
REMARK       I    between atoms: C8_8  and  N1_10 
REMARK    5  A    between atoms: C9_12  and  C10_13 
REMARK    6  A    between atoms: C10_13  and  N2_14 
REMARK    7  A    between atoms: C14_18  and  C15_19 
ROOT
HETATM    1  C6  UNL     1      16.090   3.278  13.995  1.00  0.00    -0.011 C 
HETATM    2  C7  UNL     1      15.888   4.422  14.584  1.00  0.00     0.071 C 
ENDROOT
BRANCH   1   3
HETATM    3  C5  UNL     1      16.198   1.954  14.780  1.00  0.00    -0.008 A 
HETATM    4  C13 UNL     1      17.118   2.088  15.926  1.00  0.00     0.030 A 
HETATM    5  C14 UNL     1      15.587   2.112  16.089  1.00  0.00     0.100 A 
BRANCH   3   6
HETATM    6  C4  UNL     1      16.214   0.885  13.806  1.00  0.00     0.018 C 
BRANCH   6   7
HETATM    7  C2  UNL     1      16.886   0.845  12.527  1.00  0.00    -0.022 C 
HETATM    8  C1  UNL     1      17.174  -0.685  12.305  1.00  0.00     0.009 C 
HETATM    9  C3  UNL     1      16.019   1.173  11.326  1.00  0.00     0.009 C 
ENDBRANCH   6   7
ENDBRANCH   3   6
BRANCH   5  10
HETATM   10  C15 UNL     1      14.966   1.149  16.971  1.00  0.00     0.178 C 
HETATM   11  O2  UNL     1      14.002   0.421  16.666  1.00  0.00    -0.648 OA
HETATM   12  O3  UNL     1      15.437   0.973  18.291  1.00  0.00    -0.648 OA
ENDBRANCH   5  10
ENDBRANCH   1   3
BRANCH   2  13
HETATM   13  C8  UNL     1      15.794   5.634  13.796  1.00  0.00     0.244 C 
HETATM   14  O1  UNL     1      14.689   6.004  13.302  1.00  0.00    -0.268 OA
HETATM   15  N1  UNL     1      16.936   6.424  13.563  1.00  0.00    -0.336 N 
HETATM   16  C9  UNL     1      17.890   6.617  14.399  1.00  0.00     0.094 C 
ATOM     17  H1  UNL     1      17.011   6.881  12.655  1.00  0.00     0.168 HD
BRANCH  16  18
HETATM   18  C10 UNL     1      19.008   7.480  13.977  1.00  0.00     0.315 C 
BRANCH  18  19
HETATM   19  N2  UNL     1      18.913   8.840  14.435  1.00  0.00     0.084 N 
HETATM   20  C11 UNL     1      19.794   9.087  15.537  1.00  0.00     0.309 C 
HETATM   21  C12 UNL     1      19.280   9.721  13.335  1.00  0.00     0.309 C 
ENDBRANCH  18  19
ENDBRANCH  16  18
ENDBRANCH   2  13
TORSDOF 7
ENDMDL
MODEL 3
REMARK VINA RESULT: -6.198477975      2.849      4.454
REMARK  7 active torsions:
REMARK  status: ('A' for Active; 'I' for Inactive)
REMARK    1  A    between atoms: C2_2  and  C4_4 
REMARK    2  A    between atoms: C4_4  and  C5_5 
REMARK    3  A    between atoms: C5_5  and  C6_6 
REMARK    4  A    between atoms: C7_7  and  C8_8 
REMARK       I    between atoms: C8_8  and  N1_10 
REMARK    5  A    between atoms: C9_12  and  C10_13 
REMARK    6  A    between atoms: C10_13  and  N2_14 
REMARK    7  A    between atoms: C14_18  and  C15_19 
ROOT
HETATM    1  C6  UNL     1      16.084   4.024  14.738  1.00  0.00    -0.011 C 
HETATM    2  C7  UNL     1      17.151   4.685  14.390  1.00  0.00     0.071 C 
ENDROOT
BRANCH   1   3
HETATM    3  C5  UNL     1      16.110   2.507  15.021  1.00  0.00    -0.008 A 
HETATM    4  C13 UNL     1      17.172   2.162  15.984  1.00  0.00     0.030 A 
HETATM    5  C14 UNL     1      15.689   2.258  16.390  1.00  0.00     0.100 A 
BRANCH   3   6
HETATM    6  C4  UNL     1      15.864   1.838  13.761  1.00  0.00     0.018 C 
BRANCH   6   7
HETATM    7  C2  UNL     1      16.774   1.642  12.656  1.00  0.00    -0.022 C 
HETATM    8  C1  UNL     1      16.917   0.079  12.565  1.00  0.00     0.009 C 
HETATM    9  C3  UNL     1      16.217   1.981  11.286  1.00  0.00     0.009 C 
ENDBRANCH   6   7
ENDBRANCH   3   6
BRANCH   5  10
HETATM   10  C15 UNL     1      15.058   1.108  16.996  1.00  0.00     0.178 C 
HETATM   11  O2  UNL     1      14.022   0.558  16.573  1.00  0.00    -0.648 OA
HETATM   12  O3  UNL     1      15.602   0.516  18.157  1.00  0.00    -0.648 OA
ENDBRANCH   5  10
ENDBRANCH   1   3
BRANCH   2  13
HETATM   13  C8  UNL     1      17.068   6.108  14.138  1.00  0.00     0.244 C 
HETATM   14  O1  UNL     1      17.435   6.947  15.013  1.00  0.00    -0.268 OA
HETATM   15  N1  UNL     1      16.573   6.589  12.909  1.00  0.00    -0.336 N 
HETATM   16  C9  UNL     1      16.757   6.036  11.767  1.00  0.00     0.094 C 
ATOM     17  H1  UNL     1      16.023   7.447  12.930  1.00  0.00     0.168 HD
BRANCH  16  18
HETATM   18  C10 UNL     1      16.160   6.686  10.586  1.00  0.00     0.315 C 
BRANCH  18  19
HETATM   19  N2  UNL     1      15.377   7.855  10.886  1.00  0.00     0.084 N 
HETATM   20  C11 UNL     1      15.982   9.042  10.364  1.00  0.00     0.309 C 
HETATM   21  C12 UNL     1      14.063   7.693  10.280  1.00  0.00     0.309 C 
ENDBRANCH  18  19
ENDBRANCH  16  18
ENDBRANCH   2  13
TORSDOF 7
ENDMDL
MODEL 4
REMARK VINA RESULT: -6.136820019      2.401      3.724
REMARK  7 active torsions:
REMARK  status: ('A' for Active; 'I' for Inactive)
REMARK    1  A    between atoms: C2_2  and  C4_4 
REMARK    2  A    between atoms: C4_4  and  C5_5 
REMARK    3  A    between atoms: C5_5  and  C6_6 
REMARK    4  A    between atoms: C7_7  and  C8_8 
REMARK       I    between atoms: C8_8  and  N1_10 
REMARK    5  A    between atoms: C9_12  and  C10_13 
REMARK    6  A    between atoms: C10_13  and  N2_14 
REMARK    7  A    between atoms: C14_18  and  C15_19 
ROOT
HETATM    1  C6  UNL     1      16.123   3.979  14.723  1.00  0.00    -0.011 C 
HETATM    2  C7  UNL     1      17.217   4.674  14.585  1.00  0.00     0.071 C 
ENDROOT
BRANCH   1   3
HETATM    3  C5  UNL     1      16.139   2.466  15.022  1.00  0.00    -0.008 A 
HETATM    4  C13 UNL     1      17.207   2.123  15.980  1.00  0.00     0.030 A 
HETATM    5  C14 UNL     1      15.729   2.236  16.397  1.00  0.00     0.100 A 
BRANCH   3   6
HETATM    6  C4  UNL     1      15.877   1.786  13.772  1.00  0.00     0.018 C 
BRANCH   6   7
HETATM    7  C2  UNL     1      16.763   1.608  12.643  1.00  0.00    -0.022 C 
HETATM    8  C1  UNL     1      16.945   0.049  12.555  1.00  0.00     0.009 C 
HETATM    9  C3  UNL     1      16.160   1.925  11.288  1.00  0.00     0.009 C 
ENDBRANCH   6   7
ENDBRANCH   3   6
BRANCH   5  10
HETATM   10  C15 UNL     1      15.093   1.097  17.021  1.00  0.00     0.178 C 
HETATM   11  O2  UNL     1      14.091   0.506  16.574  1.00  0.00    -0.648 OA
HETATM   12  O3  UNL     1      15.594   0.567  18.230  1.00  0.00    -0.648 OA
ENDBRANCH   5  10
ENDBRANCH   1   3
BRANCH   2  13
HETATM   13  C8  UNL     1      17.142   6.092  14.305  1.00  0.00     0.244 C 
HETATM   14  O1  UNL     1      17.219   6.944  15.238  1.00  0.00    -0.268 OA
HETATM   15  N1  UNL     1      16.979   6.552  12.984  1.00  0.00    -0.336 N 
HETATM   16  C9  UNL     1      17.491   6.011  11.940  1.00  0.00     0.094 C 
ATOM     17  H1  UNL     1      16.405   7.385  12.846  1.00  0.00     0.168 HD
BRANCH  16  18
HETATM   18  C10 UNL     1      17.209   6.636  10.635  1.00  0.00     0.315 C 
BRANCH  18  19
HETATM   19  N2  UNL     1      16.964   5.699   9.570  1.00  0.00     0.084 N 
HETATM   20  C11 UNL     1      16.957   6.345   8.292  1.00  0.00     0.309 C 
HETATM   21  C12 UNL     1      18.025   4.702   9.586  1.00  0.00     0.309 C 
ENDBRANCH  18  19
ENDBRANCH  16  18
ENDBRANCH   2  13
TORSDOF 7
ENDMDL
MODEL 5
REMARK VINA RESULT: -6.127567851      1.880      3.460
REMARK  7 active torsions:
REMARK  status: ('A' for Active; 'I' for Inactive)
REMARK    1  A    between atoms: C2_2  and  C4_4 
REMARK    2  A    between atoms: C4_4  and  C5_5 
REMARK    3  A    between atoms: C5_5  and  C6_6 
REMARK    4  A    between atoms: C7_7  and  C8_8 
REMARK       I    between atoms: C8_8  and  N1_10 
REMARK    5  A    between atoms: C9_12  and  C10_13 
REMARK    6  A    between atoms: C10_13  and  N2_14 
REMARK    7  A    between atoms: C14_18  and  C15_19 
ROOT
HETATM    1  C6  UNL     1      16.205   3.904  14.685  1.00  0.00    -0.011 C 
HETATM    2  C7  UNL     1      17.302   4.602  14.777  1.00  0.00     0.071 C 
ENDROOT
BRANCH   1   3
HETATM    3  C5  UNL     1      16.160   2.394  15.000  1.00  0.00    -0.008 A 
HETATM    4  C13 UNL     1      17.205   2.021  15.972  1.00  0.00     0.030 A 
HETATM    5  C14 UNL     1      15.727   2.195  16.373  1.00  0.00     0.100 A 
BRANCH   3   6
HETATM    6  C4  UNL     1      15.884   1.711  13.755  1.00  0.00     0.018 C 
BRANCH   6   7
HETATM    7  C2  UNL     1      16.752   1.543  12.611  1.00  0.00    -0.022 C 
HETATM    8  C1  UNL     1      16.986  -0.011  12.547  1.00  0.00     0.009 C 
HETATM    9  C3  UNL     1      16.113   1.814  11.263  1.00  0.00     0.009 C 
ENDBRANCH   6   7
ENDBRANCH   3   6
BRANCH   5  10
HETATM   10  C15 UNL     1      15.042   1.088  17.002  1.00  0.00     0.178 C 
HETATM   11  O2  UNL     1      13.992   0.567  16.580  1.00  0.00    -0.648 OA
HETATM   12  O3  UNL     1      15.547   0.509  18.188  1.00  0.00    -0.648 OA
ENDBRANCH   5  10
ENDBRANCH   1   3
BRANCH   2  13
HETATM   13  C8  UNL     1      17.286   6.017  14.470  1.00  0.00     0.244 C 
HETATM   14  O1  UNL     1      17.051   6.875  15.371  1.00  0.00    -0.268 OA
HETATM   15  N1  UNL     1      17.529   6.466  13.157  1.00  0.00    -0.336 N 
HETATM   16  C9  UNL     1      18.351   5.932  12.330  1.00  0.00     0.094 C 
ATOM     17  H1  UNL     1      17.008   7.283  12.838  1.00  0.00     0.168 HD
BRANCH  16  18
HETATM   18  C10 UNL     1      18.472   6.542  10.993  1.00  0.00     0.315 C 
BRANCH  18  19
HETATM   19  N2  UNL     1      18.859   5.624   9.956  1.00  0.00     0.084 N 
HETATM   20  C11 UNL     1      19.921   4.763  10.383  1.00  0.00     0.309 C 
HETATM   21  C12 UNL     1      17.703   4.808   9.612  1.00  0.00     0.309 C 
ENDBRANCH  18  19
ENDBRANCH  16  18
ENDBRANCH   2  13
TORSDOF 7
ENDMDL
