MODEL 1
REMARK VINA RESULT: -6.672997749      0.000      0.000
REMARK  8 active torsions:
REMARK  status: ('A' for Active; 'I' for Inactive)
REMARK    1  A    between atoms: N1_1  and  C1_5 
REMARK    2  A    between atoms: C1_5  and  C2_6 
REMARK    3  A    between atoms: N2_9  and  C5_10 
REMARK    4  A    between atoms: C5_10  and  C6_11 
REMARK    5  A    between atoms: C5_10  and  C8_16 
REMARK    6  A    between atoms: C6_11  and  N3_12 
REMARK    7  A    between atoms: N3_12  and  C7_14 
REMARK    8  A    between atoms: C8_16  and  C9_17 
ROOT
HETATM    1  C5  UNL     1      16.410   3.239  13.641  1.00  0.00     0.106 C 
ENDROOT
BRANCH   1   2
HETATM    2  N2  UNL     1      16.935   4.486  13.341  1.00  0.00    -0.368 N 
HETATM    3  C4  UNL     1      16.147   5.646  13.362  1.00  0.00     0.064 C 
HETATM    4  C3  UNL     1      16.897   6.719  12.576  1.00  0.00     0.051 C 
HETATM    5  C2  UNL     1      18.001   7.229  13.468  1.00  0.00     0.020 C 
HETATM    6  C16 UNL     1      18.668   6.048  14.114  1.00  0.00     0.051 C 
HETATM    7  C15 UNL     1      18.317   4.747  13.433  1.00  0.00     0.064 C 
BRANCH   5   8
HETATM    8  C1  UNL     1      18.997   8.077  12.707  1.00  0.00     0.234 C 
BRANCH   8   9
HETATM    9  N1  UNL     1      20.298   8.037  13.310  1.00  0.00    -0.079 N 
ATOM     10  H13 UNL     1      20.473   8.870  13.872  1.00  0.00     0.274 HD
ATOM     11  H12 UNL     1      20.345   7.334  14.048  1.00  0.00     0.274 HD
ATOM     12  H11 UNL     1      21.031   7.897  12.616  1.00  0.00     0.274 HD
ENDBRANCH   8   9
ENDBRANCH   5   8
ENDBRANCH   1   2
BRANCH   1  13
HETATM   13  C6  UNL     1      16.504   2.214  12.519  1.00  0.00     0.147 C 
BRANCH  13  14
HETATM   14  N3  UNL     1      17.252   1.048  12.844  1.00  0.00    -0.366 N 
ATOM     15  H3  UNL     1      18.052   1.110  13.472  1.00  0.00     0.161 HD
BRANCH  14  16
HETATM   16  C7  UNL     1      16.877  -0.194  12.289  1.00  0.00     0.348 C 
HETATM   17  O1  UNL     1      16.501  -0.244  11.098  1.00  0.00    -0.284 OA
ENDBRANCH  14  16
ENDBRANCH  13  14
ENDBRANCH   1  13
BRANCH   1  18
HETATM   18  C8  UNL     1      16.948   2.536  14.846  1.00  0.00     0.032 C 
BRANCH  18  19
HETATM   19  C9  UNL     1      16.072   2.398  16.013  1.00  0.00    -0.013 C 
HETATM   20  C10 UNL     1      15.864   0.899  16.244  1.00  0.00     0.005 C 
HETATM   21  C11 UNL     1      14.999   0.621  17.420  1.00  0.00     0.000 C 
HETATM   22  C12 UNL     1      13.633   1.254  17.123  1.00  0.00     0.000 C 
HETATM   23  C13 UNL     1      13.877   2.740  17.113  1.00  0.00     0.000 C 
HETATM   24  C14 UNL     1      14.796   3.162  15.983  1.00  0.00     0.005 C 
ENDBRANCH  18  19
ENDBRANCH   1  18
TORSDOF 8
ENDMDL
MODEL 2
REMARK VINA RESULT: -6.577258353      1.824      5.943
REMARK  8 active torsions:
REMARK  status: ('A' for Active; 'I' for Inactive)
REMARK    1  A    between atoms: N1_1  and  C1_5 
REMARK    2  A    between atoms: C1_5  and  C2_6 
REMARK    3  A    between atoms: N2_9  and  C5_10 
REMARK    4  A    between atoms: C5_10  and  C6_11 
REMARK    5  A    between atoms: C5_10  and  C8_16 
REMARK    6  A    between atoms: C6_11  and  N3_12 
REMARK    7  A    between atoms: N3_12  and  C7_14 
REMARK    8  A    between atoms: C8_16  and  C9_17 
ROOT
HETATM    1  C5  UNL     1      17.199   4.076  13.431  1.00  0.00     0.106 C 
ENDROOT
BRANCH   1   2
HETATM    2  N2  UNL     1      16.624   3.343  14.457  1.00  0.00    -0.368 N 
HETATM    3  C4  UNL     1      17.316   3.061  15.643  1.00  0.00     0.064 C 
HETATM    4  C3  UNL     1      16.590   1.906  16.329  1.00  0.00     0.051 C 
HETATM    5  C2  UNL     1      15.351   2.480  16.969  1.00  0.00     0.020 C 
HETATM    6  C16 UNL     1      14.699   3.408  15.983  1.00  0.00     0.051 C 
HETATM    7  C15 UNL     1      15.226   3.218  14.581  1.00  0.00     0.064 C 
BRANCH   5   8
HETATM    8  C1  UNL     1      14.395   1.399  17.423  1.00  0.00     0.234 C 
BRANCH   8   9
HETATM    9  N1  UNL     1      15.048   0.127  17.539  1.00  0.00    -0.079 N 
ATOM     10  H13 UNL     1      14.914  -0.438  16.700  1.00  0.00     0.274 HD
ATOM     11  H12 UNL     1      16.063   0.226  17.503  1.00  0.00     0.274 HD
ATOM     12  H11 UNL     1      14.753  -0.374  18.376  1.00  0.00     0.274 HD
ENDBRANCH   8   9
ENDBRANCH   5   8
ENDBRANCH   1   2
BRANCH   1  13
HETATM   13  C6  UNL     1      17.467   3.294  12.151  1.00  0.00     0.147 C 
BRANCH  13  14
HETATM   14  N3  UNL     1      17.271   1.890  12.266  1.00  0.00    -0.366 N 
ATOM     15  H3  UNL     1      17.881   1.333  12.863  1.00  0.00     0.161 HD
BRANCH  14  16
HETATM   16  C7  UNL     1      16.226   1.274  11.545  1.00  0.00     0.348 C 
HETATM   17  O1  UNL     1      15.254   1.964  11.166  1.00  0.00    -0.284 OA
ENDBRANCH  14  16
ENDBRANCH  13  14
ENDBRANCH   1  13
BRANCH   1  18
HETATM   18  C8  UNL     1      16.486   5.310  12.981  1.00  0.00     0.032 C 
BRANCH  18  19
HETATM   19  C9  UNL     1      17.057   6.610  13.346  1.00  0.00    -0.013 C 
HETATM   20  C10 UNL     1      18.037   6.997  12.235  1.00  0.00     0.005 C 
HETATM   21  C11 UNL     1      18.678   8.316  12.478  1.00  0.00     0.000 C 
HETATM   22  C12 UNL     1      19.466   8.188  13.789  1.00  0.00     0.000 C 
HETATM   23  C13 UNL     1      18.425   8.013  14.864  1.00  0.00     0.000 C 
HETATM   24  C14 UNL     1      17.650   6.720  14.705  1.00  0.00     0.005 C 
ENDBRANCH  18  19
ENDBRANCH   1  18
TORSDOF 8
ENDMDL
MODEL 3
REMARK VINA RESULT: -6.549862511      0.774      1.315
REMARK  8 active torsions:
REMARK  status: ('A' for Active; 'I' for Inactive)
REMARK    1  A    between atoms: N1_1  and  C1_5 
REMARK    2  A    between atoms: C1_5  and  C2_6 
REMARK    3  A    between atoms: N2_9  and  C5_10 
REMARK    4  A    between atoms: C5_10  and  C6_11 
REMARK    5  A    between atoms: C5_10  and  C8_16 
REMARK    6  A    between atoms: C6_11  and  N3_12 
REMARK    7  A    between atoms: N3_12  and  C7_14 
REMARK    8  A    between atoms: C8_16  and  C9_17 
ROOT
HETATM    1  C5  UNL     1      16.744   3.547  13.909  1.00  0.00     0.106 C 
ENDROOT
BRANCH   1   2
HETATM    2  N2  UNL     1      17.421   4.756  13.908  1.00  0.00    -0.368 N 
HETATM    3  C4  UNL     1      18.774   4.847  13.552  1.00  0.00     0.064 C 
HETATM    4  C3  UNL     1      19.293   6.184  14.076  1.00  0.00     0.051 C 
HETATM    5  C2  UNL     1      18.783   7.252  13.140  1.00  0.00     0.020 C 
HETATM    6  C16 UNL     1      17.335   6.973  12.851  1.00  0.00     0.051 C 
HETATM    7  C15 UNL     1      16.736   5.985  13.823  1.00  0.00     0.064 C 
BRANCH   5   8
HETATM    8  C1  UNL     1      18.975   8.641  13.709  1.00  0.00     0.234 C 
BRANCH   8   9
HETATM    9  N1  UNL     1      19.108   8.616  15.137  1.00  0.00    -0.079 N 
ATOM     10  H13 UNL     1      18.427   9.228  15.585  1.00  0.00     0.274 HD
ATOM     11  H12 UNL     1      18.800   7.724  15.524  1.00  0.00     0.274 HD
ATOM     12  H11 UNL     1      20.059   8.840  15.430  1.00  0.00     0.274 HD
ENDBRANCH   8   9
ENDBRANCH   5   8
ENDBRANCH   1   2
BRANCH   1  13
HETATM   13  C6  UNL     1      16.857   2.744  12.619  1.00  0.00     0.147 C 
BRANCH  13  14
HETATM   14  N3  UNL     1      17.122   1.359  12.807  1.00  0.00    -0.366 N 
ATOM     15  H3  UNL     1      17.710   1.048  13.579  1.00  0.00     0.161 HD
BRANCH  14  16
HETATM   16  C7  UNL     1      16.564   0.420  11.914  1.00  0.00     0.348 C 
HETATM   17  O1  UNL     1      17.073  -0.719  11.828  1.00  0.00    -0.284 OA
ENDBRANCH  14  16
ENDBRANCH  13  14
ENDBRANCH   1  13
BRANCH   1  18
HETATM   18  C8  UNL     1      17.072   2.573  14.995  1.00  0.00     0.032 C 
BRANCH  18  19
HETATM   19  C9  UNL     1      16.128   2.436  16.107  1.00  0.00    -0.013 C 
HETATM   20  C10 UNL     1      15.916   0.937  16.335  1.00  0.00     0.005 C 
HETATM   21  C11 UNL     1      14.984   0.660  17.459  1.00  0.00     0.000 C 
HETATM   22  C12 UNL     1      13.634   1.282  17.076  1.00  0.00     0.000 C 
HETATM   23  C13 UNL     1      13.868   2.769  17.071  1.00  0.00     0.000 C 
HETATM   24  C14 UNL     1      14.852   3.191  15.996  1.00  0.00     0.005 C 
ENDBRANCH  18  19
ENDBRANCH   1  18
TORSDOF 8
ENDMDL
MODEL 4
REMARK VINA RESULT: -6.534744213      1.104      1.182
REMARK  8 active torsions:
REMARK  status: ('A' for Active; 'I' for Inactive)
REMARK    1  A    between atoms: N1_1  and  C1_5 
REMARK    2  A    between atoms: C1_5  and  C2_6 
REMARK    3  A    between atoms: N2_9  and  C5_10 
REMARK    4  A    between atoms: C5_10  and  C6_11 
REMARK    5  A    between atoms: C5_10  and  C8_16 
REMARK    6  A    between atoms: C6_11  and  N3_12 
REMARK    7  A    between atoms: N3_12  and  C7_14 
REMARK    8  A    between atoms: C8_16  and  C9_17 
ROOT
HETATM    1  C5  UNL     1      16.848   3.308  13.903  1.00  0.00     0.106 C 
ENDROOT
BRANCH   1   2
HETATM    2  N2  UNL     1      17.780   4.192  13.382  1.00  0.00    -0.368 N 
HETATM    3  C4  UNL     1      17.469   5.056  12.322  1.00  0.00     0.064 C 
HETATM    4  C3  UNL     1      18.789   5.541  11.728  1.00  0.00     0.051 C 
HETATM    5  C2  UNL     1      19.337   6.587  12.666  1.00  0.00     0.020 C 
HETATM    6  C16 UNL     1      19.189   6.082  14.074  1.00  0.00     0.051 C 
HETATM    7  C15 UNL     1      18.905   4.601  14.125  1.00  0.00     0.064 C 
BRANCH   5   8
HETATM    8  C1  UNL     1      20.777   6.931  12.352  1.00  0.00     0.234 C 
BRANCH   8   9
HETATM    9  N1  UNL     1      21.569   5.755  12.137  1.00  0.00    -0.079 N 
ATOM     10  H13 UNL     1      22.186   5.573  12.928  1.00  0.00     0.274 HD
ATOM     11  H12 UNL     1      20.999   4.910  12.181  1.00  0.00     0.274 HD
ATOM     12  H11 UNL     1      22.091   5.806  11.263  1.00  0.00     0.274 HD
ENDBRANCH   8   9
ENDBRANCH   5   8
ENDBRANCH   1   2
BRANCH   1  13
HETATM   13  C6  UNL     1      16.368   2.234  12.935  1.00  0.00     0.147 C 
BRANCH  13  14
HETATM   14  N3  UNL     1      17.325   1.219  12.658  1.00  0.00    -0.366 N 
ATOM     15  H3  UNL     1      18.303   1.463  12.501  1.00  0.00     0.161 HD
BRANCH  14  16
HETATM   16  C7  UNL     1      16.911  -0.129  12.603  1.00  0.00     0.348 C 
HETATM   17  O1  UNL     1      16.898  -0.721  11.501  1.00  0.00    -0.284 OA
ENDBRANCH  14  16
ENDBRANCH  13  14
ENDBRANCH   1  13
BRANCH   1  18
HETATM   18  C8  UNL     1      17.221   2.564  15.145  1.00  0.00     0.032 C 
BRANCH  18  19
HETATM   19  C9  UNL     1      16.210   2.425  16.197  1.00  0.00    -0.013 C 
HETATM   20  C10 UNL     1      15.935   0.929  16.361  1.00  0.00     0.005 C 
HETATM   21  C11 UNL     1      14.931   0.650  17.420  1.00  0.00     0.000 C 
HETATM   22  C12 UNL     1      13.627   1.331  16.982  1.00  0.00     0.000 C 
HETATM   23  C13 UNL     1      13.911   2.809  17.041  1.00  0.00     0.000 C 
HETATM   24  C14 UNL     1      14.969   3.229  16.039  1.00  0.00     0.005 C 
ENDBRANCH  18  19
ENDBRANCH   1  18
TORSDOF 8
ENDMDL
MODEL 5
REMARK VINA RESULT: -6.525608149      1.935      2.368
REMARK  8 active torsions:
REMARK  status: ('A' for Active; 'I' for Inactive)
REMARK    1  A    between atoms: N1_1  and  C1_5 
REMARK    2  A    between atoms: C1_5  and  C2_6 
REMARK    3  A    between atoms: N2_9  and  C5_10 
REMARK    4  A    between atoms: C5_10  and  C6_11 
REMARK    5  A    between atoms: C5_10  and  C8_16 
REMARK    6  A    between atoms: C6_11  and  N3_12 
REMARK    7  A    between atoms: N3_12  and  C7_14 
REMARK    8  A    between atoms: C8_16  and  C9_17 
ROOT
HETATM    1  C5  UNL     1      16.921   3.731  13.383  1.00  0.00     0.106 C 
ENDROOT
BRANCH   1   2
HETATM    2  N2  UNL     1      18.093   4.145  12.770  1.00  0.00    -0.368 N 
HETATM    3  C4  UNL     1      18.105   4.656  11.464  1.00  0.00     0.064 C 
HETATM    4  C3  UNL     1      19.545   4.589  10.963  1.00  0.00     0.051 C 
HETATM    5  C2  UNL     1      20.293   5.726  11.615  1.00  0.00     0.020 C 
HETATM    6  C16 UNL     1      19.916   5.766  13.068  1.00  0.00     0.051 C 
HETATM    7  C15 UNL     1      19.233   4.497  13.519  1.00  0.00     0.064 C 
BRANCH   5   8
HETATM    8  C1  UNL     1      21.790   5.595  11.437  1.00  0.00     0.234 C 
BRANCH   8   9
HETATM    9  N1  UNL     1      22.198   4.222  11.369  1.00  0.00    -0.079 N 
ATOM     10  H13 UNL     1      23.053   4.114  10.824  1.00  0.00     0.274 HD
ATOM     11  H12 UNL     1      22.540   3.890  12.271  1.00  0.00     0.274 HD
ATOM     12  H11 UNL     1      21.453   3.624  11.012  1.00  0.00     0.274 HD
ENDBRANCH   8   9
ENDBRANCH   5   8
ENDBRANCH   1   2
BRANCH   1  13
HETATM   13  C6  UNL     1      16.346   2.423  12.856  1.00  0.00     0.147 C 
BRANCH  13  14
HETATM   14  N3  UNL     1      17.315   1.420  12.580  1.00  0.00    -0.366 N 
ATOM     15  H3  UNL     1      18.284   1.678  12.393  1.00  0.00     0.161 HD
BRANCH  14  16
HETATM   16  C7  UNL     1      16.926   0.064  12.566  1.00  0.00     0.348 C 
HETATM   17  O1  UNL     1      16.557  -0.478  13.631  1.00  0.00    -0.284 OA
ENDBRANCH  14  16
ENDBRANCH  13  14
ENDBRANCH   1  13
BRANCH   1  18
HETATM   18  C8  UNL     1      16.940   3.568  14.869  1.00  0.00     0.032 C 
BRANCH  18  19
HETATM   19  C9  UNL     1      15.978   2.642  15.474  1.00  0.00    -0.013 C 
HETATM   20  C10 UNL     1      14.875   3.491  16.110  1.00  0.00     0.005 C 
HETATM   21  C11 UNL     1      13.819   2.664  16.749  1.00  0.00     0.000 C 
HETATM   22  C12 UNL     1      14.504   1.857  17.861  1.00  0.00     0.000 C 
HETATM   23  C13 UNL     1      15.424   0.901  17.150  1.00  0.00     0.000 C 
HETATM   24  C14 UNL     1      16.531   1.620  16.403  1.00  0.00     0.005 C 
ENDBRANCH  18  19
ENDBRANCH   1  18
TORSDOF 8
ENDMDL
