MODEL 1
REMARK VINA RESULT: -5.448949063      0.000      0.000
REMARK  10 active torsions:
REMARK  status: ('A' for Active; 'I' for Inactive)
REMARK    1  A    between atoms: S1_2  and  C2_3 
REMARK    2  A    between atoms: C2_3  and  C3_4 
REMARK    3  A    between atoms: C2_3  and  C5_10 
REMARK    4  A    between atoms: C3_4  and  C4_5 
REMARK    5  A    between atoms: C4_5  and  N1_6 
REMARK    6  A    between atoms: C5_10  and  N2_12 
REMARK    7  A    between atoms: N2_12  and  C7_14 
REMARK    8  A    between atoms: C7_14  and  C8_15 
REMARK    9  A    between atoms: C9_16  and  C10_17 
REMARK   10  A    between atoms: C10_17  and  N3_18 
ROOT
HETATM    1  N2  UNL     1      16.611   5.174  11.736  1.00  0.00    -0.385 N 
ATOM      2  H2  UNL     1      16.238   5.251  10.789  1.00  0.00     0.160 HD
ENDROOT
BRANCH   1   3
HETATM    3  C5  UNL     1      17.474   4.097  12.122  1.00  0.00    -0.007 C 
HETATM    4  C6  UNL     1      16.880   2.740  11.892  1.00  0.00     0.064 C 
BRANCH   3   5
HETATM    5  C2  UNL     1      18.901   4.270  11.798  1.00  0.00     0.093 C 
BRANCH   5   6
HETATM    6  S1  UNL     1      19.035   5.118  10.184  1.00  0.00    -0.163 SA
HETATM    7  C1  UNL     1      20.753   5.027   9.568  1.00  0.00     0.090 C 
ENDBRANCH   5   6
BRANCH   5   8
HETATM    8  C3  UNL     1      19.766   4.951  12.791  1.00  0.00     0.048 C 
BRANCH   8   9
HETATM    9  C4  UNL     1      19.312   5.077  14.184  1.00  0.00     0.231 C 
BRANCH   9  10
HETATM   10  N1  UNL     1      19.776   3.927  14.947  1.00  0.00    -0.079 N 
ATOM     11  H13 UNL     1      19.835   3.083  14.377  1.00  0.00     0.274 HD
ATOM     12  H12 UNL     1      20.761   4.001  15.198  1.00  0.00     0.274 HD
ATOM     13  H11 UNL     1      19.178   3.801  15.764  1.00  0.00     0.274 HD
ENDBRANCH   9  10
ENDBRANCH   8   9
ENDBRANCH   5   8
ENDBRANCH   3   5
ENDBRANCH   1   3
BRANCH   1  14
HETATM   14  C7  UNL     1      16.296   6.144  12.755  1.00  0.00     0.214 C 
BRANCH  14  15
HETATM   15  C8  UNL     1      15.659   5.462  13.916  1.00  0.00    -0.081 C 
HETATM   16  C9  UNL     1      15.163   4.881  14.850  1.00  0.00    -0.060 C 
BRANCH  16  17
HETATM   17  C10 UNL     1      14.584   4.137  15.974  1.00  0.00     0.151 C 
BRANCH  17  18
HETATM   18  N3  UNL     1      15.048   2.860  16.181  1.00  0.00    -0.379 N 
HETATM   19  C11 UNL     1      16.001   2.224  15.400  1.00  0.00     0.123 C 
HETATM   20  C12 UNL     1      16.219   0.820  15.979  1.00  0.00     0.022 C 
HETATM   21  C13 UNL     1      15.147   0.661  17.008  1.00  0.00     0.026 C 
HETATM   22  C14 UNL     1      14.480   1.997  17.137  1.00  0.00     0.080 C 
HETATM   23  C15 UNL     1      14.599   2.433  18.570  1.00  0.00     0.032 C 
ENDBRANCH  17  18
ENDBRANCH  16  17
ENDBRANCH  14  15
ENDBRANCH   1  14
TORSDOF 10
ENDMDL
MODEL 2
REMARK VINA RESULT: -5.422961752      1.543      2.785
REMARK  10 active torsions:
REMARK  status: ('A' for Active; 'I' for Inactive)
REMARK    1  A    between atoms: S1_2  and  C2_3 
REMARK    2  A    between atoms: C2_3  and  C3_4 
REMARK    3  A    between atoms: C2_3  and  C5_10 
REMARK    4  A    between atoms: C3_4  and  C4_5 
REMARK    5  A    between atoms: C4_5  and  N1_6 
REMARK    6  A    between atoms: C5_10  and  N2_12 
REMARK    7  A    between atoms: N2_12  and  C7_14 
REMARK    8  A    between atoms: C7_14  and  C8_15 
REMARK    9  A    between atoms: C9_16  and  C10_17 
REMARK   10  A    between atoms: C10_17  and  N3_18 
ROOT
HETATM    1  N2  UNL     1      16.624   3.736  10.774  1.00  0.00    -0.385 N 
ATOM      2  H2  UNL     1      15.804   4.336  10.678  1.00  0.00     0.160 HD
ENDROOT
BRANCH   1   3
HETATM    3  C5  UNL     1      17.955   4.265  10.730  1.00  0.00    -0.007 C 
HETATM    4  C6  UNL     1      18.403   4.650   9.351  1.00  0.00     0.064 C 
BRANCH   3   5
HETATM    5  C2  UNL     1      18.323   5.169  11.834  1.00  0.00     0.093 C 
BRANCH   5   6
HETATM    6  S1  UNL     1      16.793   5.825  12.587  1.00  0.00    -0.163 SA
HETATM    7  C1  UNL     1      16.129   7.191  11.573  1.00  0.00     0.090 C 
ENDBRANCH   5   6
BRANCH   5   8
HETATM    8  C3  UNL     1      19.217   4.647  12.896  1.00  0.00     0.048 C 
BRANCH   8   9
HETATM    9  C4  UNL     1      18.751   4.623  14.290  1.00  0.00     0.231 C 
BRANCH   9  10
HETATM   10  N1  UNL     1      19.714   3.897  15.107  1.00  0.00    -0.079 N 
ATOM     11  H13 UNL     1      19.956   2.991  14.706  1.00  0.00     0.274 HD
ATOM     12  H12 UNL     1      20.642   4.320  15.078  1.00  0.00     0.274 HD
ATOM     13  H11 UNL     1      19.355   3.816  16.059  1.00  0.00     0.274 HD
ENDBRANCH   9  10
ENDBRANCH   8   9
ENDBRANCH   5   8
ENDBRANCH   3   5
ENDBRANCH   1   3
BRANCH   1  14
HETATM   14  C7  UNL     1      16.503   2.311  10.961  1.00  0.00     0.214 C 
BRANCH  14  15
HETATM   15  C8  UNL     1      16.456   1.999  12.416  1.00  0.00    -0.081 C 
HETATM   16  C9  UNL     1      16.451   1.732  13.593  1.00  0.00    -0.060 C 
BRANCH  16  17
HETATM   17  C10 UNL     1      16.487   1.390  15.019  1.00  0.00     0.151 C 
BRANCH  17  18
HETATM   18  N3  UNL     1      15.633   2.078  15.847  1.00  0.00    -0.379 N 
HETATM   19  C11 UNL     1      14.957   3.240  15.504  1.00  0.00     0.123 C 
HETATM   20  C12 UNL     1      14.121   3.669  16.716  1.00  0.00     0.022 C 
HETATM   21  C13 UNL     1      14.565   2.770  17.824  1.00  0.00     0.026 C 
HETATM   22  C14 UNL     1      15.472   1.749  17.206  1.00  0.00     0.080 C 
HETATM   23  C15 UNL     1      14.893   0.391  17.490  1.00  0.00     0.032 C 
ENDBRANCH  17  18
ENDBRANCH  16  17
ENDBRANCH  14  15
ENDBRANCH   1  14
TORSDOF 10
ENDMDL
MODEL 3
REMARK VINA RESULT: -5.390209901      1.516      2.471
REMARK  10 active torsions:
REMARK  status: ('A' for Active; 'I' for Inactive)
REMARK    1  A    between atoms: S1_2  and  C2_3 
REMARK    2  A    between atoms: C2_3  and  C3_4 
REMARK    3  A    between atoms: C2_3  and  C5_10 
REMARK    4  A    between atoms: C3_4  and  C4_5 
REMARK    5  A    between atoms: C4_5  and  N1_6 
REMARK    6  A    between atoms: C5_10  and  N2_12 
REMARK    7  A    between atoms: N2_12  and  C7_14 
REMARK    8  A    between atoms: C7_14  and  C8_15 
REMARK    9  A    between atoms: C9_16  and  C10_17 
REMARK   10  A    between atoms: C10_17  and  N3_18 
ROOT
HETATM    1  N2  UNL     1      18.233   6.222  13.265  1.00  0.00    -0.385 N 
ATOM      2  H2  UNL     1      19.248   6.115  13.247  1.00  0.00     0.160 HD
ENDROOT
BRANCH   1   3
HETATM    3  C5  UNL     1      17.423   5.920  12.122  1.00  0.00    -0.007 C 
HETATM    4  C6  UNL     1      16.912   7.137  11.409  1.00  0.00     0.064 C 
BRANCH   3   5
HETATM    5  C2  UNL     1      17.883   4.796  11.288  1.00  0.00     0.093 C 
BRANCH   5   6
HETATM    6  S1  UNL     1      19.271   3.966  12.139  1.00  0.00    -0.163 SA
HETATM    7  C1  UNL     1      20.845   4.344  11.291  1.00  0.00     0.090 C 
ENDBRANCH   5   6
BRANCH   5   8
HETATM    8  C3  UNL     1      16.884   3.785  10.864  1.00  0.00     0.048 C 
BRANCH   8   9
HETATM    9  C4  UNL     1      16.738   2.541  11.634  1.00  0.00     0.231 C 
BRANCH   9  10
HETATM   10  N1  UNL     1      15.783   1.669  10.963  1.00  0.00    -0.079 N 
ATOM     11  H13 UNL     1      14.857   1.711  11.387  1.00  0.00     0.274 HD
ATOM     12  H12 UNL     1      15.533   2.011  10.035  1.00  0.00     0.274 HD
ATOM     13  H11 UNL     1      16.155   0.719  10.937  1.00  0.00     0.274 HD
ENDBRANCH   9  10
ENDBRANCH   8   9
ENDBRANCH   5   8
ENDBRANCH   3   5
ENDBRANCH   1   3
BRANCH   1  14
HETATM   14  C7  UNL     1      17.539   6.685  14.441  1.00  0.00     0.214 C 
BRANCH  14  15
HETATM   15  C8  UNL     1      16.486   5.702  14.821  1.00  0.00    -0.081 C 
HETATM   16  C9  UNL     1      15.641   4.913  15.164  1.00  0.00    -0.060 C 
BRANCH  16  17
HETATM   17  C10 UNL     1      14.626   3.958  15.624  1.00  0.00     0.151 C 
BRANCH  17  18
HETATM   18  N3  UNL     1      15.063   2.703  15.970  1.00  0.00    -0.379 N 
HETATM   19  C11 UNL     1      16.007   1.967  15.267  1.00  0.00     0.123 C 
HETATM   20  C12 UNL     1      16.194   0.630  15.996  1.00  0.00     0.022 C 
HETATM   21  C13 UNL     1      15.116   0.604  17.031  1.00  0.00     0.026 C 
HETATM   22  C14 UNL     1      14.475   1.959  17.010  1.00  0.00     0.080 C 
HETATM   23  C15 UNL     1      14.598   2.545  18.389  1.00  0.00     0.032 C 
ENDBRANCH  17  18
ENDBRANCH  16  17
ENDBRANCH  14  15
ENDBRANCH   1  14
TORSDOF 10
ENDMDL
MODEL 4
REMARK VINA RESULT: -5.326048030      1.515      2.486
REMARK  10 active torsions:
REMARK  status: ('A' for Active; 'I' for Inactive)
REMARK    1  A    between atoms: S1_2  and  C2_3 
REMARK    2  A    between atoms: C2_3  and  C3_4 
REMARK    3  A    between atoms: C2_3  and  C5_10 
REMARK    4  A    between atoms: C3_4  and  C4_5 
REMARK    5  A    between atoms: C4_5  and  N1_6 
REMARK    6  A    between atoms: C5_10  and  N2_12 
REMARK    7  A    between atoms: N2_12  and  C7_14 
REMARK    8  A    between atoms: C7_14  and  C8_15 
REMARK    9  A    between atoms: C9_16  and  C10_17 
REMARK   10  A    between atoms: C10_17  and  N3_18 
ROOT
HETATM    1  N2  UNL     1      16.864   3.890  11.011  1.00  0.00    -0.385 N 
ATOM      2  H2  UNL     1      16.205   4.647  11.194  1.00  0.00     0.160 HD
ENDROOT
BRANCH   1   3
HETATM    3  C5  UNL     1      18.244   4.147  10.718  1.00  0.00    -0.007 C 
HETATM    4  C6  UNL     1      18.448   5.147   9.618  1.00  0.00     0.064 C 
BRANCH   3   5
HETATM    5  C2  UNL     1      19.142   4.237  11.882  1.00  0.00     0.093 C 
BRANCH   5   6
HETATM    6  S1  UNL     1      20.828   4.620  11.292  1.00  0.00    -0.163 SA
HETATM    7  C1  UNL     1      21.377   6.231  11.957  1.00  0.00     0.090 C 
ENDBRANCH   5   6
BRANCH   5   8
HETATM    8  C3  UNL     1      18.775   5.165  12.978  1.00  0.00     0.048 C 
BRANCH   8   9
HETATM    9  C4  UNL     1      18.535   4.636  14.329  1.00  0.00     0.231 C 
BRANCH   9  10
HETATM   10  N1  UNL     1      19.735   3.960  14.801  1.00  0.00    -0.079 N 
ATOM     11  H13 UNL     1      20.137   3.345  14.093  1.00  0.00     0.274 HD
ATOM     12  H12 UNL     1      20.524   4.598  14.902  1.00  0.00     0.274 HD
ATOM     13  H11 UNL     1      19.524   3.466  15.669  1.00  0.00     0.274 HD
ENDBRANCH   9  10
ENDBRANCH   8   9
ENDBRANCH   5   8
ENDBRANCH   3   5
ENDBRANCH   1   3
BRANCH   1  14
HETATM   14  C7  UNL     1      16.458   2.508  11.034  1.00  0.00     0.214 C 
BRANCH  14  15
HETATM   15  C8  UNL     1      16.447   2.011  12.438  1.00  0.00    -0.081 C 
HETATM   16  C9  UNL     1      16.434   1.644  13.587  1.00  0.00    -0.060 C 
BRANCH  16  17
HETATM   17  C10 UNL     1      16.416   1.240  14.997  1.00  0.00     0.151 C 
BRANCH  17  18
HETATM   18  N3  UNL     1      15.606   1.959  15.841  1.00  0.00    -0.379 N 
HETATM   19  C11 UNL     1      14.971   3.148  15.512  1.00  0.00     0.123 C 
HETATM   20  C12 UNL     1      14.175   3.608  16.740  1.00  0.00     0.022 C 
HETATM   21  C13 UNL     1      14.602   2.689  17.839  1.00  0.00     0.026 C 
HETATM   22  C14 UNL     1      15.456   1.634  17.202  1.00  0.00     0.080 C 
HETATM   23  C15 UNL     1      14.828   0.300  17.495  1.00  0.00     0.032 C 
ENDBRANCH  17  18
ENDBRANCH  16  17
ENDBRANCH  14  15
ENDBRANCH   1  14
TORSDOF 10
ENDMDL
MODEL 5
REMARK VINA RESULT: -5.316534875      1.289      1.961
REMARK  10 active torsions:
REMARK  status: ('A' for Active; 'I' for Inactive)
REMARK    1  A    between atoms: S1_2  and  C2_3 
REMARK    2  A    between atoms: C2_3  and  C3_4 
REMARK    3  A    between atoms: C2_3  and  C5_10 
REMARK    4  A    between atoms: C3_4  and  C4_5 
REMARK    5  A    between atoms: C4_5  and  N1_6 
REMARK    6  A    between atoms: C5_10  and  N2_12 
REMARK    7  A    between atoms: N2_12  and  C7_14 
REMARK    8  A    between atoms: C7_14  and  C8_15 
REMARK    9  A    between atoms: C9_16  and  C10_17 
REMARK   10  A    between atoms: C10_17  and  N3_18 
ROOT
HETATM    1  N2  UNL     1      17.610   6.454  13.637  1.00  0.00    -0.385 N 
ATOM      2  H2  UNL     1      17.860   7.283  14.177  1.00  0.00     0.160 HD
ENDROOT
BRANCH   1   3
HETATM    3  C5  UNL     1      18.596   5.501  13.220  1.00  0.00    -0.007 C 
HETATM    4  C6  UNL     1      19.240   4.765  14.358  1.00  0.00     0.064 C 
BRANCH   3   5
HETATM    5  C2  UNL     1      18.264   4.719  12.016  1.00  0.00     0.093 C 
BRANCH   5   6
HETATM    6  S1  UNL     1      19.375   5.234  10.659  1.00  0.00    -0.163 SA
HETATM    7  C1  UNL     1      21.035   4.511  10.898  1.00  0.00     0.090 C 
ENDBRANCH   5   6
BRANCH   5   8
HETATM    8  C3  UNL     1      18.260   3.240  12.122  1.00  0.00     0.048 C 
BRANCH   8   9
HETATM    9  C4  UNL     1      16.980   2.519  12.175  1.00  0.00     0.231 C 
BRANCH   9  10
HETATM   10  N1  UNL     1      17.227   1.124  12.513  1.00  0.00    -0.079 N 
ATOM     11  H13 UNL     1      18.031   0.742  12.016  1.00  0.00     0.274 HD
ATOM     12  H12 UNL     1      17.579   1.012  13.463  1.00  0.00     0.274 HD
ATOM     13  H11 UNL     1      16.378   0.582  12.349  1.00  0.00     0.274 HD
ENDBRANCH   9  10
ENDBRANCH   8   9
ENDBRANCH   5   8
ENDBRANCH   3   5
ENDBRANCH   1   3
BRANCH   1  14
HETATM   14  C7  UNL     1      16.247   6.180  13.256  1.00  0.00     0.214 C 
BRANCH  14  15
HETATM   15  C8  UNL     1      15.560   5.438  14.349  1.00  0.00    -0.081 C 
HETATM   16  C9  UNL     1      15.015   4.805  15.220  1.00  0.00    -0.060 C 
BRANCH  16  17
HETATM   17  C10 UNL     1      14.364   3.998  16.258  1.00  0.00     0.151 C 
BRANCH  17  18
HETATM   18  N3  UNL     1      14.846   2.726  16.452  1.00  0.00    -0.379 N 
HETATM   19  C11 UNL     1      15.696   2.057  15.583  1.00  0.00     0.123 C 
HETATM   20  C12 UNL     1      15.978   0.673  16.180  1.00  0.00     0.022 C 
HETATM   21  C13 UNL     1      15.038   0.556  17.336  1.00  0.00     0.026 C 
HETATM   22  C14 UNL     1      14.394   1.900  17.498  1.00  0.00     0.080 C 
HETATM   23  C15 UNL     1      14.686   2.383  18.891  1.00  0.00     0.032 C 
ENDBRANCH  17  18
ENDBRANCH  16  17
ENDBRANCH  14  15
ENDBRANCH   1  14
TORSDOF 10
ENDMDL
