MODEL 1
REMARK VINA RESULT: -6.589055920      0.000      0.000
REMARK  4 active torsions:
REMARK  status: ('A' for Active; 'I' for Inactive)
REMARK    1  A    between atoms: C2_2  and  C5_5 
REMARK    2  A    between atoms: C5_5  and  C6_6 
REMARK    3  A    between atoms: C6_6  and  C7_7 
REMARK    4  A    between atoms: C9_9  and  O1_10 
ROOT
HETATM    1  C7  UNL     1      -9.097  -7.422   9.366  1.00  0.00    -0.012 C 
HETATM    2  C8  UNL     1      -9.860  -6.372   8.599  1.00  0.00     0.036 C 
HETATM    3  C9  UNL     1      -9.230  -5.024   8.598  1.00  0.00     0.119 C 
HETATM    4  C10 UNL     1      -8.917  -4.543   9.993  1.00  0.00     0.040 C 
HETATM    5  C11 UNL     1      -8.133  -5.549  10.789  1.00  0.00    -0.045 C 
HETATM    6  C12 UNL     1      -8.674  -5.654  12.207  1.00  0.00     0.015 C 
HETATM    7  C13 UNL     1      -6.734  -4.926  10.959  1.00  0.00     0.015 C 
HETATM    8  C14 UNL     1      -7.922  -6.848  10.118  1.00  0.00     0.013 C 
ENDROOT
BRANCH   1   9
HETATM    9  C6  UNL     1      -9.940  -8.184  10.326  1.00  0.00     0.005 C 
BRANCH   9  10
HETATM   10  C5  UNL     1      -9.312  -9.127  11.257  1.00  0.00     0.008 C 
BRANCH  10  11
HETATM   11  C2  UNL     1      -9.922  -9.400  12.579  1.00  0.00    -0.051 C 
HETATM   12  C1  UNL     1     -10.761  -8.121  12.895  1.00  0.00     0.014 C 
HETATM   13  C3  UNL     1     -10.873 -10.528  12.717  1.00  0.00     0.014 C 
HETATM   14  C4  UNL     1      -8.851  -9.407  13.655  1.00  0.00     0.014 C 
ENDBRANCH  10  11
ENDBRANCH   9  10
ENDBRANCH   1   9
BRANCH   3  15
HETATM   15  O1  UNL     1      -8.096  -4.970   7.798  1.00  0.00    -0.396 OA
ATOM     16  H1  UNL     1      -7.379  -4.507   8.215  1.00  0.00     0.210 HD
ENDBRANCH   3  15
TORSDOF 4
ENDMDL
MODEL 2
REMARK VINA RESULT: -6.517712625      0.076      1.088
REMARK  4 active torsions:
REMARK  status: ('A' for Active; 'I' for Inactive)
REMARK    1  A    between atoms: C2_2  and  C5_5 
REMARK    2  A    between atoms: C5_5  and  C6_6 
REMARK    3  A    between atoms: C6_6  and  C7_7 
REMARK    4  A    between atoms: C9_9  and  O1_10 
ROOT
HETATM    1  C7  UNL     1      -9.122  -7.427   9.353  1.00  0.00    -0.012 C 
HETATM    2  C8  UNL     1      -9.871  -6.382   8.567  1.00  0.00     0.036 C 
HETATM    3  C9  UNL     1      -9.240  -5.035   8.566  1.00  0.00     0.119 C 
HETATM    4  C10 UNL     1      -8.949  -4.544   9.963  1.00  0.00     0.040 C 
HETATM    5  C11 UNL     1      -8.179  -5.546  10.779  1.00  0.00    -0.045 C 
HETATM    6  C12 UNL     1      -8.743  -5.640  12.188  1.00  0.00     0.015 C 
HETATM    7  C13 UNL     1      -6.782  -4.924  10.967  1.00  0.00     0.015 C 
HETATM    8  C14 UNL     1      -7.958  -6.850  10.120  1.00  0.00     0.013 C 
ENDROOT
BRANCH   1   9
HETATM    9  C6  UNL     1      -9.981  -8.183  10.304  1.00  0.00     0.005 C 
BRANCH   9  10
HETATM   10  C5  UNL     1      -9.373  -9.152  11.222  1.00  0.00     0.008 C 
BRANCH  10  11
HETATM   11  C2  UNL     1      -9.840  -9.257  12.624  1.00  0.00    -0.051 C 
HETATM   12  C1  UNL     1     -10.782 -10.503  12.631  1.00  0.00     0.014 C 
HETATM   13  C3  UNL     1      -8.851  -9.516  13.697  1.00  0.00     0.014 C 
HETATM   14  C4  UNL     1     -10.766  -8.100  12.952  1.00  0.00     0.014 C 
ENDBRANCH  10  11
ENDBRANCH   9  10
ENDBRANCH   1   9
BRANCH   3  15
HETATM   15  O1  UNL     1      -8.093  -4.987   7.784  1.00  0.00    -0.396 OA
ATOM     16  H1  UNL     1      -7.505  -4.289   8.045  1.00  0.00     0.210 HD
ENDBRANCH   3  15
TORSDOF 4
ENDMDL
MODEL 3
REMARK VINA RESULT: -5.376474600      2.323      5.034
REMARK  4 active torsions:
REMARK  status: ('A' for Active; 'I' for Inactive)
REMARK    1  A    between atoms: C2_2  and  C5_5 
REMARK    2  A    between atoms: C5_5  and  C6_6 
REMARK    3  A    between atoms: C6_6  and  C7_7 
REMARK    4  A    between atoms: C9_9  and  O1_10 
ROOT
HETATM    1  C7  UNL     1      -7.943  -8.758  11.864  1.00  0.00    -0.012 C 
HETATM    2  C8  UNL     1      -8.816  -8.142  12.927  1.00  0.00     0.036 C 
HETATM    3  C9  UNL     1     -10.229  -8.610  12.918  1.00  0.00     0.119 C 
HETATM    4  C10 UNL     1     -10.865  -8.466  11.558  1.00  0.00     0.040 C 
HETATM    5  C11 UNL     1     -10.040  -9.088  10.465  1.00  0.00    -0.045 C 
HETATM    6  C12 UNL     1      -9.990  -8.182   9.245  1.00  0.00     0.015 C 
HETATM    7  C13 UNL     1     -10.850 -10.314   9.998  1.00  0.00     0.015 C 
HETATM    8  C14 UNL     1      -8.726  -9.609  10.895  1.00  0.00     0.013 C 
ENDROOT
BRANCH   1   9
HETATM    9  C6  UNL     1      -7.165  -7.758  11.084  1.00  0.00     0.005 C 
BRANCH   9  10
HETATM   10  C5  UNL     1      -7.865  -6.812  10.208  1.00  0.00     0.008 C 
BRANCH  10  11
HETATM   11  C2  UNL     1      -7.922  -5.371  10.547  1.00  0.00    -0.051 C 
HETATM   12  C1  UNL     1      -8.129  -4.654   9.175  1.00  0.00     0.014 C 
HETATM   13  C3  UNL     1      -9.019  -4.875  11.411  1.00  0.00     0.014 C 
HETATM   14  C4  UNL     1      -6.556  -4.890  11.006  1.00  0.00     0.014 C 
ENDBRANCH  10  11
ENDBRANCH   9  10
ENDBRANCH   1   9
BRANCH   3  15
HETATM   15  O1  UNL     1     -10.359  -9.913  13.381  1.00  0.00    -0.396 OA
ATOM     16  H1  UNL     1      -9.965 -10.548  12.795  1.00  0.00     0.210 HD
ENDBRANCH   3  15
TORSDOF 4
ENDMDL
MODEL 4
REMARK VINA RESULT: -5.300015612      2.333      5.137
REMARK  4 active torsions:
REMARK  status: ('A' for Active; 'I' for Inactive)
REMARK    1  A    between atoms: C2_2  and  C5_5 
REMARK    2  A    between atoms: C5_5  and  C6_6 
REMARK    3  A    between atoms: C6_6  and  C7_7 
REMARK    4  A    between atoms: C9_9  and  O1_10 
ROOT
HETATM    1  C7  UNL     1      -7.945  -8.765  11.813  1.00  0.00    -0.012 C 
HETATM    2  C8  UNL     1      -8.793  -8.154  12.899  1.00  0.00     0.036 C 
HETATM    3  C9  UNL     1     -10.199  -8.639  12.936  1.00  0.00     0.119 C 
HETATM    4  C10 UNL     1     -10.878  -8.512  11.595  1.00  0.00     0.040 C 
HETATM    5  C11 UNL     1     -10.079  -9.132  10.482  1.00  0.00    -0.045 C 
HETATM    6  C12 UNL     1     -10.078  -8.233   9.255  1.00  0.00     0.015 C 
HETATM    7  C13 UNL     1     -10.887 -10.370  10.047  1.00  0.00     0.015 C 
HETATM    8  C14 UNL     1      -8.746  -9.633  10.874  1.00  0.00     0.013 C 
ENDROOT
BRANCH   1   9
HETATM    9  C6  UNL     1      -7.203  -7.761  11.004  1.00  0.00     0.005 C 
BRANCH   9  10
HETATM   10  C5  UNL     1      -7.944  -6.805  10.173  1.00  0.00     0.008 C 
BRANCH  10  11
HETATM   11  C2  UNL     1      -7.768  -5.347  10.363  1.00  0.00    -0.051 C 
HETATM   12  C1  UNL     1      -8.926  -4.935  11.327  1.00  0.00     0.014 C 
HETATM   13  C3  UNL     1      -6.532  -4.847  11.011  1.00  0.00     0.014 C 
HETATM   14  C4  UNL     1      -8.089  -4.612   9.074  1.00  0.00     0.014 C 
ENDBRANCH  10  11
ENDBRANCH   9  10
ENDBRANCH   1   9
BRANCH   3  15
HETATM   15  O1  UNL     1     -10.298  -9.940  13.412  1.00  0.00    -0.396 OA
ATOM     16  H1  UNL     1     -10.835 -10.490  12.854  1.00  0.00     0.210 HD
ENDBRANCH   3  15
TORSDOF 4
ENDMDL
MODEL 5
REMARK VINA RESULT: -5.261777855      2.343      5.135
REMARK  4 active torsions:
REMARK  status: ('A' for Active; 'I' for Inactive)
REMARK    1  A    between atoms: C2_2  and  C5_5 
REMARK    2  A    between atoms: C5_5  and  C6_6 
REMARK    3  A    between atoms: C6_6  and  C7_7 
REMARK    4  A    between atoms: C9_9  and  O1_10 
ROOT
HETATM    1  C7  UNL     1      -7.944  -8.703  11.868  1.00  0.00    -0.012 C 
HETATM    2  C8  UNL     1      -8.830  -8.153  12.956  1.00  0.00     0.036 C 
HETATM    3  C9  UNL     1     -10.211  -8.707  12.971  1.00  0.00     0.119 C 
HETATM    4  C10 UNL     1     -10.884  -8.590  11.626  1.00  0.00     0.040 C 
HETATM    5  C11 UNL     1     -10.045  -9.150  10.510  1.00  0.00    -0.045 C 
HETATM    6  C12 UNL     1     -10.078  -8.230   9.299  1.00  0.00     0.015 C 
HETATM    7  C13 UNL     1     -10.788 -10.418  10.046  1.00  0.00     0.015 C 
HETATM    8  C14 UNL     1      -8.693  -9.592  10.906  1.00  0.00     0.013 C 
ENDROOT
BRANCH   1   9
HETATM    9  C6  UNL     1      -7.245  -7.649  11.084  1.00  0.00     0.005 C 
BRANCH   9  10
HETATM   10  C5  UNL     1      -8.000  -6.834  10.126  1.00  0.00     0.008 C 
BRANCH  10  11
HETATM   11  C2  UNL     1      -8.036  -5.358  10.256  1.00  0.00    -0.051 C 
HETATM   12  C1  UNL     1      -6.675  -4.991  10.928  1.00  0.00     0.014 C 
HETATM   13  C3  UNL     1      -8.097  -4.527   9.031  1.00  0.00     0.014 C 
HETATM   14  C4  UNL     1      -9.073  -4.952  11.288  1.00  0.00     0.014 C 
ENDBRANCH  10  11
ENDBRANCH   9  10
ENDBRANCH   1   9
BRANCH   3  15
HETATM   15  O1  UNL     1     -10.250 -10.021  13.423  1.00  0.00    -0.396 OA
ATOM     16  H1  UNL     1     -11.116 -10.278  13.716  1.00  0.00     0.210 HD
ENDBRANCH   3  15
TORSDOF 4
ENDMDL
