MODEL 1
REMARK VINA RESULT: -6.393904982      0.000      0.000
REMARK  2 active torsions:
REMARK  status: ('A' for Active; 'I' for Inactive)
REMARK    1  A    between atoms: C4_4  and  C5_5 
REMARK    2  A    between atoms: C5_5  and  C6_6 
ROOT
HETATM    1  C6  UNL     1      -8.949  -6.785  11.468  1.00  0.00    -0.017 C 
HETATM    2  C7  UNL     1      -7.630  -7.568  11.337  1.00  0.00     0.018 C 
HETATM    3  C8  UNL     1      -9.718  -7.253  10.219  1.00  0.00     0.014 C 
HETATM    4  C9  UNL     1      -9.146  -6.643   8.974  1.00  0.00     0.031 C 
HETATM    5  C10 UNL     1      -9.195  -5.157   9.099  1.00  0.00     0.019 C 
HETATM    6  C11 UNL     1     -10.484  -4.636   8.440  1.00  0.00     0.037 C 
HETATM    7  C12 UNL     1      -8.049  -4.617   8.225  1.00  0.00     0.037 C 
HETATM    8  N1  UNL     1      -9.085  -4.586  10.351  1.00  0.00    -0.405 N 
ATOM      9  H1  UNL     1      -9.251  -3.584  10.446  1.00  0.00     0.154 HD
HETATM   10  C13 UNL     1      -8.751  -5.331  11.509  1.00  0.00     0.026 C 
HETATM   11  C14 UNL     1      -7.227  -5.088  11.658  1.00  0.00     0.038 C 
HETATM   12  C15 UNL     1      -9.353  -4.590  12.675  1.00  0.00     0.038 C 
ENDROOT
BRANCH   1  13
HETATM   13  C5  UNL     1      -9.715  -7.406  12.614  1.00  0.00     0.039 C 
BRANCH  13  14
HETATM   14  C4  UNL     1     -10.588  -8.522  12.264  1.00  0.00    -0.024 C 
HETATM   15  C2  UNL     1     -10.346  -9.741  12.732  1.00  0.00    -0.091 C 
HETATM   16  C1  UNL     1     -11.221 -10.909  12.393  1.00  0.00     0.042 C 
HETATM   17  C3  UNL     1      -9.185  -9.955  13.606  1.00  0.00     0.042 C 
ENDBRANCH  13  14
ENDBRANCH   1  13
TORSDOF 2
ENDMDL
MODEL 2
REMARK VINA RESULT: -5.185704185      2.007      4.970
REMARK  2 active torsions:
REMARK  status: ('A' for Active; 'I' for Inactive)
REMARK    1  A    between atoms: C4_4  and  C5_5 
REMARK    2  A    between atoms: C5_5  and  C6_6 
ROOT
HETATM    1  C6  UNL     1      -7.935  -6.851  10.747  1.00  0.00    -0.017 C 
HETATM    2  C7  UNL     1      -7.956  -7.178   9.243  1.00  0.00     0.018 C 
HETATM    3  C8  UNL     1      -7.469  -8.188  11.352  1.00  0.00     0.014 C 
HETATM    4  C9  UNL     1      -8.561  -9.214  11.298  1.00  0.00     0.031 C 
HETATM    5  C10 UNL     1      -9.752  -8.690  12.028  1.00  0.00     0.019 C 
HETATM    6  C11 UNL     1      -9.718  -9.194  13.481  1.00  0.00     0.037 C 
HETATM    7  C12 UNL     1     -10.977  -9.373  11.393  1.00  0.00     0.037 C 
HETATM    8  N1  UNL     1      -9.982  -7.329  12.045  1.00  0.00    -0.405 N 
ATOM      9  H1  UNL     1     -10.717  -6.966  12.651  1.00  0.00     0.154 HD
HETATM   10  C13 UNL     1      -9.240  -6.414  11.256  1.00  0.00     0.026 C 
HETATM   11  C14 UNL     1     -10.153  -6.190  10.023  1.00  0.00     0.038 C 
HETATM   12  C15 UNL     1      -9.285  -5.096  11.986  1.00  0.00     0.038 C 
ENDROOT
BRANCH   1  13
HETATM   13  C5  UNL     1      -6.762  -5.925  10.978  1.00  0.00     0.039 C 
BRANCH  13  14
HETATM   14  C4  UNL     1      -5.496  -6.572  11.305  1.00  0.00    -0.024 C 
HETATM   15  C2  UNL     1      -4.466  -5.858  11.742  1.00  0.00    -0.091 C 
HETATM   16  C1  UNL     1      -3.152  -6.489  12.087  1.00  0.00     0.042 C 
HETATM   17  C3  UNL     1      -4.614  -4.403  11.891  1.00  0.00     0.042 C 
ENDBRANCH  13  14
ENDBRANCH   1  13
TORSDOF 2
ENDMDL
MODEL 3
REMARK VINA RESULT: -5.173572512      1.985      2.745
REMARK  2 active torsions:
REMARK  status: ('A' for Active; 'I' for Inactive)
REMARK    1  A    between atoms: C4_4  and  C5_5 
REMARK    2  A    between atoms: C5_5  and  C6_6 
ROOT
HETATM    1  C6  UNL     1      -9.298  -8.268  11.098  1.00  0.00    -0.017 C 
HETATM    2  C7  UNL     1      -8.008  -9.103  11.187  1.00  0.00     0.018 C 
HETATM    3  C8  UNL     1      -9.183  -7.660   9.688  1.00  0.00     0.014 C 
HETATM    4  C9  UNL     1      -8.141  -6.582   9.649  1.00  0.00     0.031 C 
HETATM    5  C10 UNL     1      -8.494  -5.533  10.649  1.00  0.00     0.019 C 
HETATM    6  C11 UNL     1      -9.291  -4.416   9.952  1.00  0.00     0.037 C 
HETATM    7  C12 UNL     1      -7.166  -4.878  11.070  1.00  0.00     0.037 C 
HETATM    8  N1  UNL     1      -9.171  -5.900  11.795  1.00  0.00    -0.405 N 
ATOM      9  H1  UNL     1      -9.526  -5.167  12.409  1.00  0.00     0.154 HD
HETATM   10  C13 UNL     1      -9.396  -7.253  12.154  1.00  0.00     0.026 C 
HETATM   11  C14 UNL     1      -8.257  -7.543  13.166  1.00  0.00     0.038 C 
HETATM   12  C15 UNL     1     -10.645  -7.262  13.000  1.00  0.00     0.038 C 
ENDROOT
BRANCH   1  13
HETATM   13  C5  UNL     1     -10.445  -9.244  10.976  1.00  0.00     0.039 C 
BRANCH  13  14
HETATM   14  C4  UNL     1     -11.109  -9.284   9.676  1.00  0.00    -0.024 C 
HETATM   15  C2  UNL     1     -11.716 -10.391   9.262  1.00  0.00    -0.091 C 
HETATM   16  C1  UNL     1     -12.406 -10.467   7.935  1.00  0.00     0.042 C 
HETATM   17  C3  UNL     1     -11.709 -11.578  10.128  1.00  0.00     0.042 C 
ENDBRANCH  13  14
ENDBRANCH   1  13
TORSDOF 2
ENDMDL
MODEL 4
REMARK VINA RESULT: -5.038374026      2.079      5.306
REMARK  2 active torsions:
REMARK  status: ('A' for Active; 'I' for Inactive)
REMARK    1  A    between atoms: C4_4  and  C5_5 
REMARK    2  A    between atoms: C5_5  and  C6_6 
ROOT
HETATM    1  C6  UNL     1      -7.933  -8.062  11.453  1.00  0.00    -0.017 C 
HETATM    2  C7  UNL     1      -7.057  -9.309  11.235  1.00  0.00     0.018 C 
HETATM    3  C8  UNL     1      -8.140  -8.086  12.979  1.00  0.00     0.014 C 
HETATM    4  C9  UNL     1      -9.091  -9.176  13.377  1.00  0.00     0.031 C 
HETATM    5  C10 UNL     1     -10.388  -8.966  12.671  1.00  0.00     0.019 C 
HETATM    6  C11 UNL     1     -11.339  -8.172  13.582  1.00  0.00     0.037 C 
HETATM    7  C12 UNL     1     -11.030 -10.359  12.533  1.00  0.00     0.037 C 
HETATM    8  N1  UNL     1     -10.384  -8.373  11.424  1.00  0.00    -0.405 N 
ATOM      9  H1  UNL     1     -11.276  -8.112  11.005  1.00  0.00     0.154 HD
HETATM   10  C13 UNL     1      -9.193  -8.109  10.702  1.00  0.00     0.026 C 
HETATM   11  C14 UNL     1      -9.095  -9.314   9.732  1.00  0.00     0.038 C 
HETATM   12  C15 UNL     1      -9.497  -6.940   9.800  1.00  0.00     0.038 C 
ENDROOT
BRANCH   1  13
HETATM   13  C5  UNL     1      -7.045  -6.858  11.231  1.00  0.00     0.039 C 
BRANCH  13  14
HETATM   14  C4  UNL     1      -5.624  -7.059  11.496  1.00  0.00    -0.024 C 
HETATM   15  C2  UNL     1      -4.806  -6.020  11.613  1.00  0.00    -0.091 C 
HETATM   16  C1  UNL     1      -3.343  -6.189  11.884  1.00  0.00     0.042 C 
HETATM   17  C3  UNL     1      -5.348  -4.662  11.468  1.00  0.00     0.042 C 
ENDBRANCH  13  14
ENDBRANCH   1  13
TORSDOF 2
ENDMDL
MODEL 5
REMARK VINA RESULT: -4.781606468      2.275      4.921
REMARK  2 active torsions:
REMARK  status: ('A' for Active; 'I' for Inactive)
REMARK    1  A    between atoms: C4_4  and  C5_5 
REMARK    2  A    between atoms: C5_5  and  C6_6 
ROOT
HETATM    1  C6  UNL     1      -8.783  -7.778  11.032  1.00  0.00    -0.017 C 
HETATM    2  C7  UNL     1      -9.409  -6.377  10.915  1.00  0.00     0.018 C 
HETATM    3  C8  UNL     1      -8.883  -8.289   9.583  1.00  0.00     0.014 C 
HETATM    4  C9  UNL     1     -10.298  -8.637   9.230  1.00  0.00     0.031 C 
HETATM    5  C10 UNL     1     -10.796  -9.666  10.188  1.00  0.00     0.019 C 
HETATM    6  C11 UNL     1     -10.585 -11.065   9.584  1.00  0.00     0.037 C 
HETATM    7  C12 UNL     1     -12.323  -9.483  10.258  1.00  0.00     0.037 C 
HETATM    8  N1  UNL     1     -10.306  -9.671  11.479  1.00  0.00    -0.405 N 
ATOM      9  H1  UNL     1     -10.548 -10.452  12.089  1.00  0.00     0.154 HD
HETATM   10  C13 UNL     1      -9.483  -8.639  11.994  1.00  0.00     0.026 C 
HETATM   11  C14 UNL     1     -10.485  -7.737  12.760  1.00  0.00     0.038 C 
HETATM   12  C15 UNL     1      -8.651  -9.267  13.083  1.00  0.00     0.038 C 
ENDROOT
BRANCH   1  13
HETATM   13  C5  UNL     1      -7.299  -7.580  11.241  1.00  0.00     0.039 C 
BRANCH  13  14
HETATM   14  C4  UNL     1      -6.826  -6.201  11.169  1.00  0.00    -0.024 C 
HETATM   15  C2  UNL     1      -5.578  -5.897  11.509  1.00  0.00    -0.091 C 
HETATM   16  C1  UNL     1      -5.060  -4.493  11.448  1.00  0.00     0.042 C 
HETATM   17  C3  UNL     1      -4.678  -6.967  11.962  1.00  0.00     0.042 C 
ENDBRANCH  13  14
ENDBRANCH   1  13
TORSDOF 2
ENDMDL
