MODEL 1
REMARK VINA RESULT: -6.873441956      0.000      0.000
REMARK  2 active torsions:
REMARK  status: ('A' for Active; 'I' for Inactive)
REMARK    1  A    between atoms: C4_5  and  C6_7 
REMARK    2  A    between atoms: C6_7  and  C7_8 
ROOT
HETATM    1  C7  UNL     1      -9.530  -8.746  10.464  1.00  0.00    -0.013 C 
HETATM    2  C8  UNL     1      -9.453  -9.264  11.820  1.00  0.00     0.005 C 
HETATM    3  C9  UNL     1     -10.762  -9.654  12.484  1.00  0.00     0.000 C 
HETATM    4  C10 UNL     1     -11.424 -10.853  11.934  1.00  0.00     0.000 C 
HETATM    5  C11 UNL     1     -11.116 -11.168  10.499  1.00  0.00     0.000 C 
HETATM    6  C12 UNL     1     -11.472 -10.041   9.567  1.00  0.00     0.000 C 
HETATM    7  C13 UNL     1     -11.017  -8.705  10.025  1.00  0.00     0.005 C 
ENDROOT
BRANCH   1   8
HETATM    8  C6  UNL     1      -8.849  -7.540  10.009  1.00  0.00     0.026 C 
BRANCH   8   9
HETATM    9  C4  UNL     1      -8.026  -6.698  10.897  1.00  0.00     0.022 A 
HETATM   10  C2  UNL     1      -7.654  -5.293  10.439  1.00  0.00     0.018 A 
HETATM   11  C1  UNL     1      -8.116  -4.797   9.104  1.00  0.00     0.028 C 
HETATM   12  C3  UNL     1      -6.326  -4.702  10.857  1.00  0.00     0.028 C 
HETATM   13  S1  UNL     1      -8.860  -5.381  11.757  1.00  0.00    -0.147 SA
HETATM   14  C5  UNL     1      -6.819  -7.370  11.519  1.00  0.00     0.028 C 
ENDBRANCH   8   9
ENDBRANCH   1   8
TORSDOF 2
ENDMDL
MODEL 2
REMARK VINA RESULT: -6.838889320      1.284      1.864
REMARK  2 active torsions:
REMARK  status: ('A' for Active; 'I' for Inactive)
REMARK    1  A    between atoms: C4_5  and  C6_7 
REMARK    2  A    between atoms: C6_7  and  C7_8 
ROOT
HETATM    1  C7  UNL     1      -9.550  -8.648  11.983  1.00  0.00    -0.013 C 
HETATM    2  C8  UNL     1      -9.704  -9.826  12.821  1.00  0.00     0.005 C 
HETATM    3  C9  UNL     1     -11.069 -10.489  12.834  1.00  0.00     0.000 C 
HETATM    4  C10 UNL     1     -11.457 -11.177  11.587  1.00  0.00     0.000 C 
HETATM    5  C11 UNL     1     -10.818 -10.660  10.331  1.00  0.00     0.000 C 
HETATM    6  C12 UNL     1     -11.095  -9.199  10.096  1.00  0.00     0.000 C 
HETATM    7  C13 UNL     1     -10.905  -8.342  11.292  1.00  0.00     0.005 C 
ENDROOT
BRANCH   1   8
HETATM    8  C6  UNL     1      -8.932  -7.404  12.426  1.00  0.00     0.026 C 
BRANCH   8   9
HETATM    9  C4  UNL     1      -8.613  -6.294  11.507  1.00  0.00     0.022 A 
HETATM   10  C2  UNL     1      -7.177  -6.134  11.023  1.00  0.00     0.018 A 
HETATM   11  C1  UNL     1      -6.121  -7.088  11.489  1.00  0.00     0.028 C 
HETATM   12  C3  UNL     1      -6.636  -4.748  10.747  1.00  0.00     0.028 C 
HETATM   13  S1  UNL     1      -8.344  -6.717   9.799  1.00  0.00    -0.147 SA
HETATM   14  C5  UNL     1      -9.183  -4.940  11.877  1.00  0.00     0.028 C 
ENDBRANCH   8   9
ENDBRANCH   1   8
TORSDOF 2
ENDMDL
MODEL 3
REMARK VINA RESULT: -6.672982065      1.340      1.900
REMARK  2 active torsions:
REMARK  status: ('A' for Active; 'I' for Inactive)
REMARK    1  A    between atoms: C4_5  and  C6_7 
REMARK    2  A    between atoms: C6_7  and  C7_8 
ROOT
HETATM    1  C7  UNL     1      -8.917  -8.594  11.659  1.00  0.00    -0.013 C 
HETATM    2  C8  UNL     1      -8.889  -9.561  12.743  1.00  0.00     0.005 C 
HETATM    3  C9  UNL     1     -10.224  -9.960  13.347  1.00  0.00     0.000 C 
HETATM    4  C10 UNL     1     -11.097 -10.776  12.480  1.00  0.00     0.000 C 
HETATM    5  C11 UNL     1     -10.891 -10.608  11.003  1.00  0.00     0.000 C 
HETATM    6  C12 UNL     1     -11.077  -9.185  10.548  1.00  0.00     0.000 C 
HETATM    7  C13 UNL     1     -10.388  -8.179  11.393  1.00  0.00     0.005 C 
ENDROOT
BRANCH   1   8
HETATM    8  C6  UNL     1      -8.056  -7.419  11.586  1.00  0.00     0.026 C 
BRANCH   8   9
HETATM    9  C4  UNL     1      -8.119  -6.444  10.481  1.00  0.00     0.022 A 
HETATM   10  C2  UNL     1      -8.814  -5.109  10.721  1.00  0.00     0.018 A 
HETATM   11  C1  UNL     1      -9.424  -4.814  12.056  1.00  0.00     0.028 C 
HETATM   12  C3  UNL     1      -9.545  -4.437   9.580  1.00  0.00     0.028 C 
HETATM   13  S1  UNL     1      -7.031  -5.039  10.586  1.00  0.00    -0.147 SA
HETATM   14  C5  UNL     1      -8.523  -6.997   9.129  1.00  0.00     0.028 C 
ENDBRANCH   8   9
ENDBRANCH   1   8
TORSDOF 2
ENDMDL
MODEL 4
REMARK VINA RESULT: -6.660711524      1.291      2.454
REMARK  2 active torsions:
REMARK  status: ('A' for Active; 'I' for Inactive)
REMARK    1  A    between atoms: C4_5  and  C6_7 
REMARK    2  A    between atoms: C6_7  and  C7_8 
ROOT
HETATM    1  C7  UNL     1     -10.191  -8.244  12.138  1.00  0.00    -0.013 C 
HETATM    2  C8  UNL     1     -10.860  -8.446  10.864  1.00  0.00     0.005 C 
HETATM    3  C9  UNL     1     -10.633  -9.776  10.168  1.00  0.00     0.000 C 
HETATM    4  C10 UNL     1     -11.253 -10.948  10.816  1.00  0.00     0.000 C 
HETATM    5  C11 UNL     1     -11.477 -10.834  12.296  1.00  0.00     0.000 C 
HETATM    6  C12 UNL     1     -10.206 -10.569  13.058  1.00  0.00     0.000 C 
HETATM    7  C13 UNL     1      -9.353  -9.507  12.471  1.00  0.00     0.005 C 
ENDROOT
BRANCH   1   8
HETATM    8  C6  UNL     1      -9.435  -7.047  12.486  1.00  0.00     0.026 C 
BRANCH   8   9
HETATM    9  C4  UNL     1      -8.939  -6.089  11.480  1.00  0.00     0.022 A 
HETATM   10  C2  UNL     1      -7.481  -6.171  11.045  1.00  0.00     0.018 A 
HETATM   11  C1  UNL     1      -6.580  -7.205  11.646  1.00  0.00     0.028 C 
HETATM   12  C3  UNL     1      -6.748  -4.905  10.661  1.00  0.00     0.028 C 
HETATM   13  S1  UNL     1      -8.679  -6.715   9.834  1.00  0.00    -0.147 SA
HETATM   14  C5  UNL     1      -9.329  -4.641  11.693  1.00  0.00     0.028 C 
ENDBRANCH   8   9
ENDBRANCH   1   8
TORSDOF 2
ENDMDL
MODEL 5
REMARK VINA RESULT: -6.582366547      0.474      1.679
REMARK  2 active torsions:
REMARK  status: ('A' for Active; 'I' for Inactive)
REMARK    1  A    between atoms: C4_5  and  C6_7 
REMARK    2  A    between atoms: C6_7  and  C7_8 
ROOT
HETATM    1  C7  UNL     1      -9.763  -8.427  10.787  1.00  0.00    -0.013 C 
HETATM    2  C8  UNL     1     -10.807  -9.136  10.067  1.00  0.00     0.005 C 
HETATM    3  C9  UNL     1     -10.923 -10.629  10.315  1.00  0.00     0.000 C 
HETATM    4  C10 UNL     1     -11.413 -11.018  11.652  1.00  0.00     0.000 C 
HETATM    5  C11 UNL     1     -11.160 -10.028  12.753  1.00  0.00     0.000 C 
HETATM    6  C12 UNL     1      -9.698  -9.715  12.928  1.00  0.00     0.000 C 
HETATM    7  C13 UNL     1      -8.977  -9.439  11.661  1.00  0.00     0.005 C 
ENDROOT
BRANCH   1   8
HETATM    8  C6  UNL     1      -8.834  -7.488  10.168  1.00  0.00     0.026 C 
BRANCH   8   9
HETATM    9  C4  UNL     1      -7.966  -6.585  10.947  1.00  0.00     0.022 A 
HETATM   10  C2  UNL     1      -7.647  -5.206  10.383  1.00  0.00     0.018 A 
HETATM   11  C1  UNL     1      -8.207  -4.795   9.056  1.00  0.00     0.028 C 
HETATM   12  C3  UNL     1      -6.304  -4.576  10.674  1.00  0.00     0.028 C 
HETATM   13  S1  UNL     1      -8.760  -5.230  11.784  1.00  0.00    -0.147 SA
HETATM   14  C5  UNL     1      -6.709  -7.206  11.523  1.00  0.00     0.028 C 
ENDBRANCH   8   9
ENDBRANCH   1   8
TORSDOF 2
ENDMDL
