MODEL 1
REMARK VINA RESULT: -7.981683207      0.000      0.000
REMARK  3 active torsions:
REMARK  status: ('A' for Active; 'I' for Inactive)
REMARK    1  A    between atoms: O1_1  and  C1_3 
REMARK    2  A    between atoms: C1_3  and  C2_4 
REMARK    3  A    between atoms: C2_4  and  C3_5 
ROOT
HETATM    1  C3  UNL     1      -9.506  -6.477  10.717  1.00  0.00    -0.013 C 
HETATM    2  C4  UNL     1      -9.078  -6.581  12.138  1.00  0.00     0.005 C 
HETATM    3  C5  UNL     1      -8.098  -7.653  12.444  1.00  0.00     0.000 C 
HETATM    4  C6  UNL     1      -8.676  -8.947  12.888  1.00  0.00     0.000 C 
HETATM    5  C7  UNL     1     -10.149  -9.039  12.921  1.00  0.00     0.000 C 
HETATM    6  C8  UNL     1     -10.549 -10.506  12.711  1.00  0.00     0.000 C 
HETATM    7  C9  UNL     1     -11.587 -10.643  11.627  1.00  0.00     0.000 C 
HETATM    8  C10 UNL     1     -10.990 -10.746  10.249  1.00  0.00     0.000 C 
HETATM    9  C11 UNL     1     -11.347  -9.571   9.366  1.00  0.00     0.000 C 
HETATM   10  C12 UNL     1     -10.196  -9.160   8.472  1.00  0.00     0.000 C 
HETATM   11  C13 UNL     1      -9.861  -7.691   8.627  1.00  0.00     0.000 C 
HETATM   12  C14 UNL     1      -8.892  -7.463   9.788  1.00  0.00     0.005 C 
ENDROOT
BRANCH   1  13
HETATM   13  C2  UNL     1      -9.276  -5.085  10.128  1.00  0.00     0.030 C 
BRANCH  13  14
HETATM   14  C1  UNL     1      -7.881  -4.943   9.624  1.00  0.00     0.164 C 
BRANCH  14  15
HETATM   15  O1  UNL     1      -7.892  -4.315   8.395  1.00  0.00    -0.401 OA
ATOM     16  H1  UNL     1      -7.458  -3.473   8.463  1.00  0.00     0.209 HD
ENDBRANCH  14  15
ENDBRANCH  13  14
ENDBRANCH   1  13
TORSDOF 3
ENDMDL
MODEL 2
REMARK VINA RESULT: -7.326511957      1.327      1.649
REMARK  3 active torsions:
REMARK  status: ('A' for Active; 'I' for Inactive)
REMARK    1  A    between atoms: O1_1  and  C1_3 
REMARK    2  A    between atoms: C1_3  and  C2_4 
REMARK    3  A    between atoms: C2_4  and  C3_5 
ROOT
HETATM    1  C3  UNL     1      -9.096  -6.487   9.761  1.00  0.00    -0.013 C 
HETATM    2  C4  UNL     1      -8.137  -6.152  10.847  1.00  0.00     0.005 C 
HETATM    3  C5  UNL     1      -7.101  -7.176  11.137  1.00  0.00     0.000 C 
HETATM    4  C6  UNL     1      -7.438  -8.146  12.210  1.00  0.00     0.000 C 
HETATM    5  C7  UNL     1      -8.774  -8.020  12.823  1.00  0.00     0.000 C 
HETATM    6  C8  UNL     1      -9.205  -9.402  13.337  1.00  0.00     0.000 C 
HETATM    7  C9  UNL     1     -10.587  -9.761  12.854  1.00  0.00     0.000 C 
HETATM    8  C10 UNL     1     -10.587 -10.412  11.497  1.00  0.00     0.000 C 
HETATM    9  C11 UNL     1     -11.281  -9.576  10.446  1.00  0.00     0.000 C 
HETATM   10  C12 UNL     1     -10.587  -9.658   9.102  1.00  0.00     0.000 C 
HETATM   11  C13 UNL     1     -10.238  -8.285   8.565  1.00  0.00     0.000 C 
HETATM   12  C14 UNL     1      -8.889  -7.805   9.106  1.00  0.00     0.005 C 
ENDROOT
BRANCH   1  13
HETATM   13  C2  UNL     1      -9.138  -5.427   8.659  1.00  0.00     0.030 C 
BRANCH  13  14
HETATM   14  C1  UNL     1     -10.083  -4.330   9.009  1.00  0.00     0.164 C 
BRANCH  14  15
HETATM   15  O1  UNL     1     -10.832  -3.991   7.900  1.00  0.00    -0.401 OA
ATOM     16  H1  UNL     1     -11.316  -3.192   8.075  1.00  0.00     0.209 HD
ENDBRANCH  14  15
ENDBRANCH  13  14
ENDBRANCH   1  13
TORSDOF 3
ENDMDL
MODEL 3
REMARK VINA RESULT: -6.788017662      1.478      3.387
REMARK  3 active torsions:
REMARK  status: ('A' for Active; 'I' for Inactive)
REMARK    1  A    between atoms: O1_1  and  C1_3 
REMARK    2  A    between atoms: C1_3  and  C2_4 
REMARK    3  A    between atoms: C2_4  and  C3_5 
ROOT
HETATM    1  C3  UNL     1      -7.723  -7.470  11.049  1.00  0.00    -0.013 C 
HETATM    2  C4  UNL     1      -7.973  -7.441   9.583  1.00  0.00     0.005 C 
HETATM    3  C5  UNL     1      -9.321  -6.980   9.164  1.00  0.00     0.000 C 
HETATM    4  C6  UNL     1     -10.333  -8.048   8.962  1.00  0.00     0.000 C 
HETATM    5  C7  UNL     1      -9.905  -9.431   9.253  1.00  0.00     0.000 C 
HETATM    6  C8  UNL     1     -11.141 -10.245   9.664  1.00  0.00     0.000 C 
HETATM    7  C9  UNL     1     -10.903 -10.990  10.953  1.00  0.00     0.000 C 
HETATM    8  C10 UNL     1     -11.204 -10.164  12.175  1.00  0.00     0.000 C 
HETATM    9  C11 UNL     1      -9.976  -9.889  13.014  1.00  0.00     0.000 C 
HETATM   10  C12 UNL     1      -9.989  -8.494  13.604  1.00  0.00     0.000 C 
HETATM   11  C13 UNL     1      -8.730  -7.726  13.260  1.00  0.00     0.000 C 
HETATM   12  C14 UNL     1      -8.857  -7.031  11.903  1.00  0.00     0.005 C 
ENDROOT
BRANCH   1  13
HETATM   13  C2  UNL     1      -6.497  -6.653  11.458  1.00  0.00     0.030 C 
BRANCH  13  14
HETATM   14  C1  UNL     1      -6.603  -5.249  10.969  1.00  0.00     0.164 C 
BRANCH  14  15
HETATM   15  O1  UNL     1      -5.423  -4.580  11.219  1.00  0.00    -0.401 OA
ATOM     16  H1  UNL     1      -5.465  -4.165  12.073  1.00  0.00     0.209 HD
ENDBRANCH  14  15
ENDBRANCH  13  14
ENDBRANCH   1  13
TORSDOF 3
ENDMDL
MODEL 4
REMARK VINA RESULT: -6.523982950      1.842      2.201
REMARK  3 active torsions:
REMARK  status: ('A' for Active; 'I' for Inactive)
REMARK    1  A    between atoms: O1_1  and  C1_3 
REMARK    2  A    between atoms: C1_3  and  C2_4 
REMARK    3  A    between atoms: C2_4  and  C3_5 
ROOT
HETATM    1  C3  UNL     1      -9.630  -6.435  11.974  1.00  0.00    -0.013 C 
HETATM    2  C4  UNL     1      -9.720  -7.096  13.303  1.00  0.00     0.005 C 
HETATM    3  C5  UNL     1      -8.820  -8.259  13.511  1.00  0.00     0.000 C 
HETATM    4  C6  UNL     1      -9.404  -9.589  13.200  1.00  0.00     0.000 C 
HETATM    5  C7  UNL     1     -10.781  -9.601  12.669  1.00  0.00     0.000 C 
HETATM    6  C8  UNL     1     -10.953 -10.852  11.796  1.00  0.00     0.000 C 
HETATM    7  C9  UNL     1     -11.530 -10.506  10.447  1.00  0.00     0.000 C 
HETATM    8  C10 UNL     1     -10.482 -10.110   9.442  1.00  0.00     0.000 C 
HETATM    9  C11 UNL     1     -10.607  -8.669   9.001  1.00  0.00     0.000 C 
HETATM   10  C12 UNL     1      -9.256  -8.015   8.800  1.00  0.00     0.000 C 
HETATM   11  C13 UNL     1      -9.125  -6.738   9.603  1.00  0.00     0.000 C 
HETATM   12  C14 UNL     1      -8.647  -7.025  11.028  1.00  0.00     0.005 C 
ENDROOT
BRANCH   1  13
HETATM   13  C2  UNL     1      -9.330  -4.939  12.075  1.00  0.00     0.030 C 
BRANCH  13  14
HETATM   14  C1  UNL     1      -9.652  -4.420  13.434  1.00  0.00     0.164 C 
BRANCH  14  15
HETATM   15  O1  UNL     1     -10.378  -3.251  13.325  1.00  0.00    -0.401 OA
ATOM     16  H1  UNL     1     -11.259  -3.449  13.031  1.00  0.00     0.209 HD
ENDBRANCH  14  15
ENDBRANCH  13  14
ENDBRANCH   1  13
TORSDOF 3
ENDMDL
MODEL 5
REMARK VINA RESULT: -5.522828529      2.332      5.052
REMARK  3 active torsions:
REMARK  status: ('A' for Active; 'I' for Inactive)
REMARK    1  A    between atoms: O1_1  and  C1_3 
REMARK    2  A    between atoms: C1_3  and  C2_4 
REMARK    3  A    between atoms: C2_4  and  C3_5 
ROOT
HETATM    1  C3  UNL     1     -10.878  -9.169   9.880  1.00  0.00    -0.013 C 
HETATM    2  C4  UNL     1     -10.390  -8.318   8.762  1.00  0.00     0.005 C 
HETATM    3  C5  UNL     1      -8.924  -8.085   8.716  1.00  0.00     0.000 C 
HETATM    4  C6  UNL     1      -8.446  -6.855   9.397  1.00  0.00     0.000 C 
HETATM    5  C7  UNL     1      -9.465  -6.039  10.086  1.00  0.00     0.000 C 
HETATM    6  C8  UNL     1      -8.786  -5.286  11.239  1.00  0.00     0.000 C 
HETATM    7  C9  UNL     1      -9.536  -5.471  12.533  1.00  0.00     0.000 C 
HETATM    8  C10 UNL     1      -9.129  -6.713  13.279  1.00  0.00     0.000 C 
HETATM    9  C11 UNL     1     -10.247  -7.725  13.388  1.00  0.00     0.000 C 
HETATM   10  C12 UNL     1      -9.743  -9.148  13.260  1.00  0.00     0.000 C 
HETATM   11  C13 UNL     1     -10.475  -9.908  12.173  1.00  0.00     0.000 C 
HETATM   12  C14 UNL     1      -9.831  -9.676  10.804  1.00  0.00     0.005 C 
ENDROOT
BRANCH   1  13
HETATM   13  C2  UNL     1     -11.690 -10.372   9.399  1.00  0.00     0.030 C 
BRANCH  13  14
HETATM   14  C1  UNL     1     -11.783 -10.394   7.912  1.00  0.00     0.164 C 
BRANCH  14  15
HETATM   15  O1  UNL     1     -13.107 -10.318   7.529  1.00  0.00    -0.401 OA
ATOM     16  H1  UNL     1     -13.233 -10.797   6.718  1.00  0.00     0.209 HD
ENDBRANCH  14  15
ENDBRANCH  13  14
ENDBRANCH   1  13
TORSDOF 3
ENDMDL
