MODEL 1
REMARK VINA RESULT: -5.556436646      0.000      0.000
REMARK  3 active torsions:
REMARK  status: ('A' for Active; 'I' for Inactive)
REMARK    1  A    between atoms: C2_2  and  N1_4 
REMARK    2  A    between atoms: C2_2  and  C4_8 
REMARK    3  A    between atoms: C5_9  and  C6_10 
ROOT
HETATM    1  C6  UNL     1      -9.453  -7.550  11.217  1.00  0.00     0.023 C 
HETATM    2  C7  UNL     1      -8.727  -6.435  10.484  1.00  0.00    -0.040 C 
HETATM    3  C8  UNL     1      -8.485  -6.793   9.026  1.00  0.00     0.015 C 
HETATM    4  C9  UNL     1      -9.575  -5.180  10.438  1.00  0.00     0.015 C 
HETATM    5  C10 UNL     1      -7.403  -6.059  11.065  1.00  0.00     0.009 C 
HETATM    6  C11 UNL     1      -6.536  -7.182  11.506  1.00  0.00     0.002 C 
HETATM    7  C12 UNL     1      -7.229  -8.415  11.972  1.00  0.00     0.009 C 
HETATM    8  C13 UNL     1      -8.686  -8.111  12.352  1.00  0.00    -0.040 C 
HETATM    9  C14 UNL     1      -8.567  -7.030  13.447  1.00  0.00     0.015 C 
HETATM   10  C15 UNL     1      -9.222  -9.318  13.013  1.00  0.00     0.015 C 
ENDROOT
BRANCH   1  11
HETATM   11  C5  UNL     1     -10.032  -8.453  10.226  1.00  0.00    -0.022 C 
HETATM   12  C4  UNL     1     -11.126  -9.158  10.209  1.00  0.00     0.007 C 
BRANCH  12  13
HETATM   13  C2  UNL     1     -11.441 -10.014   8.995  1.00  0.00     0.134 C 
HETATM   14  C1  UNL     1     -11.323 -11.480   9.339  1.00  0.00     0.050 C 
HETATM   15  C3  UNL     1     -10.435  -9.736   7.884  1.00  0.00     0.050 C 
BRANCH  13  16
HETATM   16  N1  UNL     1     -12.744  -9.730   8.472  1.00  0.00    -0.068 N 
ATOM     17  H13 UNL     1     -12.935 -10.258   7.620  1.00  0.00     0.275 HD
ATOM     18  H12 UNL     1     -13.484 -10.118   9.058  1.00  0.00     0.275 HD
ATOM     19  H11 UNL     1     -12.857  -8.726   8.332  1.00  0.00     0.275 HD
ENDBRANCH  13  16
ENDBRANCH  12  13
ENDBRANCH   1  11
TORSDOF 3
ENDMDL
MODEL 2
REMARK VINA RESULT: -5.141563056      1.405      1.783
REMARK  3 active torsions:
REMARK  status: ('A' for Active; 'I' for Inactive)
REMARK    1  A    between atoms: C2_2  and  N1_4 
REMARK    2  A    between atoms: C2_2  and  C4_8 
REMARK    3  A    between atoms: C5_9  and  C6_10 
ROOT
HETATM    1  C6  UNL     1      -9.634  -6.568  10.644  1.00  0.00     0.023 C 
HETATM    2  C7  UNL     1      -8.952  -5.788   9.535  1.00  0.00    -0.040 C 
HETATM    3  C8  UNL     1      -8.482  -6.704   8.417  1.00  0.00     0.015 C 
HETATM    4  C9  UNL     1      -9.926  -4.836   8.869  1.00  0.00     0.015 C 
HETATM    5  C10 UNL     1      -7.768  -4.986   9.967  1.00  0.00     0.009 C 
HETATM    6  C11 UNL     1      -6.842  -5.643  10.924  1.00  0.00     0.002 C 
HETATM    7  C12 UNL     1      -7.443  -6.641  11.853  1.00  0.00     0.009 C 
HETATM    8  C13 UNL     1      -8.963  -6.441  11.958  1.00  0.00    -0.040 C 
HETATM    9  C14 UNL     1      -9.114  -4.986  12.449  1.00  0.00     0.015 C 
HETATM   10  C15 UNL     1      -9.438  -7.304  13.058  1.00  0.00     0.015 C 
ENDROOT
BRANCH   1  11
HETATM   11  C5  UNL     1      -9.970  -7.895  10.136  1.00  0.00    -0.022 C 
HETATM   12  C4  UNL     1     -11.014  -8.658  10.285  1.00  0.00     0.007 C 
BRANCH  12  13
HETATM   13  C2  UNL     1     -11.048 -10.015   9.605  1.00  0.00     0.134 C 
HETATM   14  C1  UNL     1     -12.158 -10.063   8.581  1.00  0.00     0.050 C 
HETATM   15  C3  UNL     1     -11.340 -11.106  10.629  1.00  0.00     0.050 C 
BRANCH  13  16
HETATM   16  N1  UNL     1      -9.792 -10.330   8.991  1.00  0.00    -0.068 N 
ATOM     17  H13 UNL     1      -9.047 -10.431   9.680  1.00  0.00     0.275 HD
ATOM     18  H12 UNL     1      -9.779 -11.278   8.615  1.00  0.00     0.275 HD
ATOM     19  H11 UNL     1      -9.563  -9.635   8.280  1.00  0.00     0.275 HD
ENDBRANCH  13  16
ENDBRANCH  12  13
ENDBRANCH   1  11
TORSDOF 3
ENDMDL
MODEL 3
REMARK VINA RESULT: -4.705468435      1.014      2.972
REMARK  3 active torsions:
REMARK  status: ('A' for Active; 'I' for Inactive)
REMARK    1  A    between atoms: C2_2  and  N1_4 
REMARK    2  A    between atoms: C2_2  and  C4_8 
REMARK    3  A    between atoms: C5_9  and  C6_10 
ROOT
HETATM    1  C6  UNL     1      -8.964  -7.823  10.975  1.00  0.00     0.023 C 
HETATM    2  C7  UNL     1      -9.252  -7.745  12.463  1.00  0.00    -0.040 C 
HETATM    3  C8  UNL     1     -10.698  -8.101  12.770  1.00  0.00     0.015 C 
HETATM    4  C9  UNL     1      -8.433  -8.768  13.226  1.00  0.00     0.015 C 
HETATM    5  C10 UNL     1      -8.992  -6.411  13.085  1.00  0.00     0.009 C 
HETATM    6  C11 UNL     1      -9.428  -5.226  12.303  1.00  0.00     0.002 C 
HETATM    7  C12 UNL     1      -9.426  -5.368  10.820  1.00  0.00     0.009 C 
HETATM    8  C13 UNL     1      -8.528  -6.536  10.386  1.00  0.00    -0.040 C 
HETATM    9  C14 UNL     1      -7.143  -6.176  10.964  1.00  0.00     0.015 C 
HETATM   10  C15 UNL     1      -8.400  -6.462   8.917  1.00  0.00     0.015 C 
ENDROOT
BRANCH   1  11
HETATM   11  C5  UNL     1     -10.039  -8.577  10.336  1.00  0.00    -0.022 C 
HETATM   12  C4  UNL     1     -10.040  -9.583   9.510  1.00  0.00     0.007 C 
BRANCH  12  13
HETATM   13  C2  UNL     1     -11.363 -10.145   9.023  1.00  0.00     0.134 C 
HETATM   14  C1  UNL     1     -12.514  -9.474   9.735  1.00  0.00     0.050 C 
HETATM   15  C3  UNL     1     -11.450 -11.633   9.343  1.00  0.00     0.050 C 
BRANCH  13  16
HETATM   16  N1  UNL     1     -11.508 -10.004   7.604  1.00  0.00    -0.068 N 
ATOM     17  H13 UNL     1     -10.744 -10.453   7.098  1.00  0.00     0.275 HD
ATOM     18  H12 UNL     1     -12.279 -10.566   7.242  1.00  0.00     0.275 HD
ATOM     19  H11 UNL     1     -11.604  -9.020   7.355  1.00  0.00     0.275 HD
ENDBRANCH  13  16
ENDBRANCH  12  13
ENDBRANCH   1  11
TORSDOF 3
ENDMDL
MODEL 4
REMARK VINA RESULT: -4.685611735      1.158      3.112
REMARK  3 active torsions:
REMARK  status: ('A' for Active; 'I' for Inactive)
REMARK    1  A    between atoms: C2_2  and  N1_4 
REMARK    2  A    between atoms: C2_2  and  C4_8 
REMARK    3  A    between atoms: C5_9  and  C6_10 
ROOT
HETATM    1  C6  UNL     1      -8.658  -6.979   9.987  1.00  0.00     0.023 C 
HETATM    2  C7  UNL     1      -8.031  -7.086  11.365  1.00  0.00    -0.040 C 
HETATM    3  C8  UNL     1      -8.895  -7.907  12.308  1.00  0.00     0.015 C 
HETATM    4  C9  UNL     1      -6.713  -7.833  11.301  1.00  0.00     0.015 C 
HETATM    5  C10 UNL     1      -7.771  -5.779  12.041  1.00  0.00     0.009 C 
HETATM    6  C11 UNL     1      -8.839  -4.754  11.921  1.00  0.00     0.002 C 
HETATM    7  C12 UNL     1      -9.672  -4.801  10.687  1.00  0.00     0.009 C 
HETATM    8  C13 UNL     1      -8.959  -5.588   9.578  1.00  0.00    -0.040 C 
HETATM    9  C14 UNL     1      -7.626  -4.834   9.384  1.00  0.00     0.015 C 
HETATM   10  C15 UNL     1      -9.735  -5.390   8.338  1.00  0.00     0.015 C 
ENDROOT
BRANCH   1  11
HETATM   11  C5  UNL     1      -9.696  -8.000   9.872  1.00  0.00    -0.022 C 
HETATM   12  C4  UNL     1      -9.950  -8.901   8.966  1.00  0.00     0.007 C 
BRANCH  12  13
HETATM   13  C2  UNL     1     -11.135  -9.831   9.154  1.00  0.00     0.134 C 
HETATM   14  C1  UNL     1     -12.011  -9.347  10.285  1.00  0.00     0.050 C 
HETATM   15  C3  UNL     1     -10.651 -11.226   9.532  1.00  0.00     0.050 C 
BRANCH  13  16
HETATM   16  N1  UNL     1     -11.903  -9.958   7.951  1.00  0.00    -0.068 N 
ATOM     17  H13 UNL     1     -12.896 -10.085   8.146  1.00  0.00     0.275 HD
ATOM     18  H12 UNL     1     -11.962  -9.076   7.441  1.00  0.00     0.275 HD
ATOM     19  H11 UNL     1     -11.529 -10.709   7.370  1.00  0.00     0.275 HD
ENDBRANCH  13  16
ENDBRANCH  12  13
ENDBRANCH   1  11
TORSDOF 3
ENDMDL
MODEL 5
REMARK VINA RESULT: -4.466125033      2.388      4.045
REMARK  3 active torsions:
REMARK  status: ('A' for Active; 'I' for Inactive)
REMARK    1  A    between atoms: C2_2  and  N1_4 
REMARK    2  A    between atoms: C2_2  and  C4_8 
REMARK    3  A    between atoms: C5_9  and  C6_10 
ROOT
HETATM    1  C6  UNL     1      -8.356  -6.989  10.194  1.00  0.00     0.023 C 
HETATM    2  C7  UNL     1      -7.866  -5.646  10.704  1.00  0.00    -0.040 C 
HETATM    3  C8  UNL     1      -8.505  -5.290  12.037  1.00  0.00     0.015 C 
HETATM    4  C9  UNL     1      -6.378  -5.688  10.990  1.00  0.00     0.015 C 
HETATM    5  C10 UNL     1      -8.112  -4.495   9.784  1.00  0.00     0.009 C 
HETATM    6  C11 UNL     1      -9.438  -4.461   9.115  1.00  0.00     0.002 C 
HETATM    7  C12 UNL     1     -10.085  -5.776   8.851  1.00  0.00     0.009 C 
HETATM    8  C13 UNL     1      -9.050  -6.910   8.888  1.00  0.00    -0.040 C 
HETATM    9  C14 UNL     1      -8.022  -6.511   7.809  1.00  0.00     0.015 C 
HETATM   10  C15 UNL     1      -9.723  -8.128   8.394  1.00  0.00     0.015 C 
ENDROOT
BRANCH   1  11
HETATM   11  C5  UNL     1      -8.990  -7.700  11.301  1.00  0.00    -0.022 C 
HETATM   12  C4  UNL     1      -9.065  -8.963  11.609  1.00  0.00     0.007 C 
BRANCH  12  13
HETATM   13  C2  UNL     1      -9.818  -9.380  12.860  1.00  0.00     0.134 C 
HETATM   14  C1  UNL     1     -10.901 -10.374  12.516  1.00  0.00     0.050 C 
HETATM   15  C3  UNL     1     -10.507  -8.171  13.483  1.00  0.00     0.050 C 
BRANCH  13  16
HETATM   16  N1  UNL     1      -8.938  -9.926  13.850  1.00  0.00    -0.068 N 
ATOM     17  H13 UNL     1      -9.046  -9.463  14.752  1.00  0.00     0.275 HD
ATOM     18  H12 UNL     1      -9.216 -10.868  14.129  1.00  0.00     0.275 HD
ATOM     19  H11 UNL     1      -7.973  -9.897  13.519  1.00  0.00     0.275 HD
ENDBRANCH  13  16
ENDBRANCH  12  13
ENDBRANCH   1  11
TORSDOF 3
ENDMDL
