MODEL 1
REMARK VINA RESULT: -6.765344065      0.000      0.000
REMARK  5 active torsions:
REMARK  status: ('A' for Active; 'I' for Inactive)
REMARK    1  A    between atoms: C3_3  and  C4_4 
REMARK    2  A    between atoms: C9_9  and  C10_10 
REMARK    3  A    between atoms: C10_10  and  C11_11 
REMARK    4  A    between atoms: C11_11  and  N1_12 
REMARK    5  A    between atoms: C12_15  and  C14_17 
ROOT
HETATM    1  C4  UNL     1     -10.268  -8.710  10.417  1.00  0.00     0.016 C 
HETATM    2  C5  UNL     1      -9.745  -8.628   8.980  1.00  0.00     0.009 C 
HETATM    3  C6  UNL     1      -9.552  -7.210   8.589  1.00  0.00     0.005 C 
HETATM    4  C7  UNL     1      -8.634  -6.511   9.578  1.00  0.00    -0.013 C 
HETATM    5  C8  UNL     1      -8.446  -5.065   9.178  1.00  0.00     0.010 C 
HETATM    6  C9  UNL     1      -9.330  -6.540  10.900  1.00  0.00     0.010 C 
HETATM    7  C12 UNL     1      -9.385  -8.018  11.381  1.00  0.00    -0.033 C 
HETATM    8  C13 UNL     1      -7.942  -8.511  11.306  1.00  0.00     0.016 C 
ENDROOT
BRANCH   6   9
HETATM    9  C10 UNL     1      -8.766  -5.665  11.916  1.00  0.00     0.109 C 
BRANCH   9  10
HETATM   10  C11 UNL     1      -9.500  -4.805  12.557  1.00  0.00    -0.077 C 
BRANCH  10  11
HETATM   11  N1  UNL     1     -10.064  -3.921  13.308  1.00  0.00    -0.370 N 
ATOM     12  H12 UNL     1     -10.483  -4.695  13.824  1.00  0.00     0.165 HD
ATOM     13  H11 UNL     1     -10.435  -3.115  13.810  1.00  0.00     0.165 HD
ENDBRANCH  10  11
ENDBRANCH   9  10
ENDBRANCH   6   9
BRANCH   7  14
HETATM   14  C14 UNL     1      -9.898  -8.011  12.767  1.00  0.00     0.005 C 
HETATM   15  C15 UNL     1      -9.216  -8.783  13.818  1.00  0.00     0.006 C 
ENDBRANCH   7  14
BRANCH   1  16
HETATM   16  C3  UNL     1     -10.701 -10.079  10.712  1.00  0.00    -0.026 C 
HETATM   17  C2  UNL     1     -11.558 -10.731   9.947  1.00  0.00    -0.035 C 
HETATM   18  C1  UNL     1     -12.126 -10.091   8.740  1.00  0.00     0.036 C 
ENDBRANCH   1  16
TORSDOF 5
ENDMDL
MODEL 2
REMARK VINA RESULT: -6.300797201      1.342      1.439
REMARK  5 active torsions:
REMARK  status: ('A' for Active; 'I' for Inactive)
REMARK    1  A    between atoms: C3_3  and  C4_4 
REMARK    2  A    between atoms: C9_9  and  C10_10 
REMARK    3  A    between atoms: C10_10  and  C11_11 
REMARK    4  A    between atoms: C11_11  and  N1_12 
REMARK    5  A    between atoms: C12_15  and  C14_17 
ROOT
HETATM    1  C4  UNL     1     -10.265  -8.673  10.823  1.00  0.00     0.016 C 
HETATM    2  C5  UNL     1      -9.900  -8.950   9.361  1.00  0.00     0.009 C 
HETATM    3  C6  UNL     1      -9.764  -7.671   8.620  1.00  0.00     0.005 C 
HETATM    4  C7  UNL     1      -8.754  -6.768   9.308  1.00  0.00    -0.013 C 
HETATM    5  C8  UNL     1      -8.626  -5.464   8.552  1.00  0.00     0.010 C 
HETATM    6  C9  UNL     1      -9.305  -6.465  10.663  1.00  0.00     0.010 C 
HETATM    7  C12 UNL     1      -9.292  -7.782  11.491  1.00  0.00    -0.033 C 
HETATM    8  C13 UNL     1      -7.860  -8.300  11.385  1.00  0.00     0.016 C 
ENDROOT
BRANCH   6   9
HETATM    9  C10 UNL     1      -8.646  -5.379  11.372  1.00  0.00     0.109 C 
BRANCH   9  10
HETATM   10  C11 UNL     1      -7.395  -5.091  11.165  1.00  0.00    -0.077 C 
BRANCH  10  11
HETATM   11  N1  UNL     1      -6.119  -4.908  11.131  1.00  0.00    -0.370 N 
ATOM     12  H12 UNL     1      -6.235  -4.278  11.924  1.00  0.00     0.165 HD
ATOM     13  H11 UNL     1      -5.111  -4.864  10.980  1.00  0.00     0.165 HD
ENDBRANCH  10  11
ENDBRANCH   9  10
ENDBRANCH   6   9
BRANCH   7  14
HETATM   14  C14 UNL     1      -9.655  -7.432  12.881  1.00  0.00     0.005 C 
HETATM   15  C15 UNL     1      -9.030  -8.134  14.013  1.00  0.00     0.006 C 
ENDBRANCH   7  14
BRANCH   1  16
HETATM   16  C3  UNL     1     -10.649  -9.924  11.485  1.00  0.00    -0.026 C 
HETATM   17  C2  UNL     1     -11.394 -10.839  10.891  1.00  0.00    -0.035 C 
HETATM   18  C1  UNL     1     -11.879 -10.634   9.509  1.00  0.00     0.036 C 
ENDBRANCH   1  16
TORSDOF 5
ENDMDL
MODEL 3
REMARK VINA RESULT: -6.158609634      2.798      4.849
REMARK  5 active torsions:
REMARK  status: ('A' for Active; 'I' for Inactive)
REMARK    1  A    between atoms: C3_3  and  C4_4 
REMARK    2  A    between atoms: C9_9  and  C10_10 
REMARK    3  A    between atoms: C10_10  and  C11_11 
REMARK    4  A    between atoms: C11_11  and  N1_12 
REMARK    5  A    between atoms: C12_15  and  C14_17 
ROOT
HETATM    1  C4  UNL     1      -6.848  -6.548  11.084  1.00  0.00     0.016 C 
HETATM    2  C5  UNL     1      -6.876  -5.034  10.850  1.00  0.00     0.009 C 
HETATM    3  C6  UNL     1      -7.622  -4.726   9.605  1.00  0.00     0.005 C 
HETATM    4  C7  UNL     1      -9.016  -5.327   9.664  1.00  0.00    -0.013 C 
HETATM    5  C8  UNL     1      -9.770  -5.016   8.389  1.00  0.00     0.010 C 
HETATM    6  C9  UNL     1      -8.840  -6.808   9.747  1.00  0.00     0.010 C 
HETATM    7  C12 UNL     1      -8.204  -7.139  11.128  1.00  0.00    -0.033 C 
HETATM    8  C13 UNL     1      -9.106  -6.453  12.151  1.00  0.00     0.016 C 
ENDROOT
BRANCH   6   9
HETATM    9  C10 UNL     1     -10.044  -7.590   9.510  1.00  0.00     0.109 C 
BRANCH   9  10
HETATM   10  C11 UNL     1     -10.128  -8.427   8.519  1.00  0.00    -0.077 C 
BRANCH  10  11
HETATM   11  N1  UNL     1     -10.112  -9.115   7.428  1.00  0.00    -0.370 N 
ATOM     12  H12 UNL     1     -11.131  -9.076   7.444  1.00  0.00     0.165 HD
ATOM     13  H11 UNL     1      -9.940  -9.655   6.580  1.00  0.00     0.165 HD
ENDBRANCH  10  11
ENDBRANCH   9  10
ENDBRANCH   6   9
BRANCH   7  14
HETATM   14  C14 UNL     1      -8.213  -8.609  11.276  1.00  0.00     0.005 C 
HETATM   15  C15 UNL     1      -8.732  -9.231  12.505  1.00  0.00     0.006 C 
ENDBRANCH   7  14
BRANCH   1  16
HETATM   16  C3  UNL     1      -5.903  -6.868  12.158  1.00  0.00    -0.026 C 
HETATM   17  C2  UNL     1      -4.794  -6.178  12.353  1.00  0.00    -0.035 C 
HETATM   18  C1  UNL     1      -4.455  -5.035  11.478  1.00  0.00     0.036 C 
ENDBRANCH   1  16
TORSDOF 5
ENDMDL
MODEL 4
REMARK VINA RESULT: -6.055580995      2.255      5.223
REMARK  5 active torsions:
REMARK  status: ('A' for Active; 'I' for Inactive)
REMARK    1  A    between atoms: C3_3  and  C4_4 
REMARK    2  A    between atoms: C9_9  and  C10_10 
REMARK    3  A    between atoms: C10_10  and  C11_11 
REMARK    4  A    between atoms: C11_11  and  N1_12 
REMARK    5  A    between atoms: C12_15  and  C14_17 
ROOT
HETATM    1  C4  UNL     1      -9.401  -6.793  11.757  1.00  0.00     0.016 C 
HETATM    2  C5  UNL     1      -9.227  -7.288  13.196  1.00  0.00     0.009 C 
HETATM    3  C6  UNL     1     -10.167  -8.403  13.467  1.00  0.00     0.005 C 
HETATM    4  C7  UNL     1      -9.978  -9.513  12.448  1.00  0.00    -0.013 C 
HETATM    5  C8  UNL     1     -10.944 -10.643  12.725  1.00  0.00     0.010 C 
HETATM    6  C9  UNL     1     -10.317  -8.931  11.114  1.00  0.00     0.010 C 
HETATM    7  C12 UNL     1      -9.231  -7.874  10.762  1.00  0.00    -0.033 C 
HETATM    8  C13 UNL     1      -7.902  -8.608  10.920  1.00  0.00     0.016 C 
ENDROOT
BRANCH   6   9
HETATM    9  C10 UNL     1     -10.493  -9.898  10.042  1.00  0.00     0.109 C 
BRANCH   9  10
HETATM   10  C11 UNL     1     -11.536  -9.873   9.267  1.00  0.00    -0.077 C 
BRANCH  10  11
HETATM   11  N1  UNL     1     -12.463  -9.968   8.375  1.00  0.00    -0.370 N 
ATOM     12  H12 UNL     1     -11.724 -10.127   7.691  1.00  0.00     0.165 HD
ATOM     13  H11 UNL     1     -13.298 -10.017   7.791  1.00  0.00     0.165 HD
ENDBRANCH  10  11
ENDBRANCH   9  10
ENDBRANCH   6   9
BRANCH   7  14
HETATM   14  C14 UNL     1      -9.468  -7.448   9.367  1.00  0.00     0.005 C 
HETATM   15  C15 UNL     1      -8.665  -6.368   8.771  1.00  0.00     0.006 C 
ENDBRANCH   7  14
BRANCH   1  16
HETATM   16  C3  UNL     1      -8.666  -5.538  11.570  1.00  0.00    -0.026 C 
HETATM   17  C2  UNL     1      -8.977  -4.432  12.221  1.00  0.00    -0.035 C 
HETATM   18  C1  UNL     1     -10.101  -4.416  13.183  1.00  0.00     0.036 C 
ENDBRANCH   1  16
TORSDOF 5
ENDMDL
MODEL 5
REMARK VINA RESULT: -5.561256141      1.714      3.750
REMARK  5 active torsions:
REMARK  status: ('A' for Active; 'I' for Inactive)
REMARK    1  A    between atoms: C3_3  and  C4_4 
REMARK    2  A    between atoms: C9_9  and  C10_10 
REMARK    3  A    between atoms: C10_10  and  C11_11 
REMARK    4  A    between atoms: C11_11  and  N1_12 
REMARK    5  A    between atoms: C12_15  and  C14_17 
ROOT
HETATM    1  C4  UNL     1      -9.926  -7.655  12.050  1.00  0.00     0.016 C 
HETATM    2  C5  UNL     1     -10.220  -9.140  11.813  1.00  0.00     0.009 C 
HETATM    3  C6  UNL     1     -10.750  -9.341  10.442  1.00  0.00     0.005 C 
HETATM    4  C7  UNL     1      -9.786  -8.772   9.415  1.00  0.00    -0.013 C 
HETATM    5  C8  UNL     1     -10.336  -8.974   8.020  1.00  0.00     0.010 C 
HETATM    6  C9  UNL     1      -9.706  -7.303   9.672  1.00  0.00     0.010 C 
HETATM    7  C12 UNL     1      -8.999  -7.094  11.043  1.00  0.00    -0.033 C 
HETATM    8  C13 UNL     1      -7.699  -7.888  10.940  1.00  0.00     0.016 C 
ENDROOT
BRANCH   6   9
HETATM    9  C10 UNL     1      -9.076  -6.522   8.619  1.00  0.00     0.109 C 
BRANCH   9  10
HETATM   10  C11 UNL     1      -9.542  -5.363   8.259  1.00  0.00    -0.077 C 
BRANCH  10  11
HETATM   11  N1  UNL     1     -10.071  -4.199   8.093  1.00  0.00    -0.370 N 
ATOM     12  H12 UNL     1     -10.961  -4.615   8.366  1.00  0.00     0.165 HD
ATOM     13  H11 UNL     1     -10.341  -3.231   7.922  1.00  0.00     0.165 HD
ENDBRANCH  10  11
ENDBRANCH   9  10
ENDBRANCH   6   9
BRANCH   7  14
HETATM   14  C14 UNL     1      -8.754  -5.644  11.195  1.00  0.00     0.005 C 
HETATM   15  C15 UNL     1      -7.379  -5.118  11.205  1.00  0.00     0.006 C 
ENDBRANCH   7  14
BRANCH   1  16
HETATM   16  C3  UNL     1      -9.651  -7.423  13.471  1.00  0.00    -0.026 C 
HETATM   17  C2  UNL     1      -9.128  -8.351  14.252  1.00  0.00    -0.035 C 
HETATM   18  C1  UNL     1      -8.795  -9.688  13.712  1.00  0.00     0.036 C 
ENDBRANCH   1  16
TORSDOF 5
ENDMDL
