MODEL 1
REMARK VINA RESULT: -5.941856415      0.000      0.000
REMARK  6 active torsions:
REMARK  status: ('A' for Active; 'I' for Inactive)
REMARK    1  A    between atoms: C1_2  and  N1_3 
REMARK    2  A    between atoms: N1_3  and  C2_5 
REMARK    3  A    between atoms: C2_5  and  C3_6 
REMARK    4  A    between atoms: C3_6  and  C4_7 
REMARK    5  A    between atoms: C5_8  and  C6_9 
REMARK    6  A    between atoms: C6_9  and  C7_10 
ROOT
HETATM    1  C4  UNL     1       7.606  13.914  32.150  1.00  0.00    -0.029 C 
HETATM    2  C5  UNL     1       8.236  13.730  30.997  1.00  0.00    -0.030 C 
ENDROOT
BRANCH   1   3
HETATM    3  C3  UNL     1       8.153  14.747  33.257  1.00  0.00     0.046 C 
BRANCH   3   4
HETATM    4  C2  UNL     1       9.532  14.297  33.631  1.00  0.00     0.126 C 
BRANCH   4   5
HETATM    5  N1  UNL     1       9.468  13.276  34.655  1.00  0.00    -0.368 N 
ATOM      6  H1  UNL     1       9.253  13.560  35.611  1.00  0.00     0.161 HD
BRANCH   5   7
HETATM    7  C1  UNL     1       9.689  11.905  34.394  1.00  0.00     0.348 C 
HETATM    8  O1  UNL     1      10.727  11.338  34.835  1.00  0.00    -0.284 OA
ENDBRANCH   5   7
ENDBRANCH   4   5
ENDBRANCH   3   4
ENDBRANCH   1   3
BRANCH   2   9
HETATM    9  C6  UNL     1       7.611  12.893  29.976  1.00  0.00     0.031 C 
BRANCH   9  10
HETATM   10  C7  UNL     1       8.512  11.945  29.271  1.00  0.00    -0.011 C 
HETATM   11  C8  UNL     1       8.338  10.497  29.468  1.00  0.00     0.005 C 
HETATM   12  C9  UNL     1       9.466  10.482  30.490  1.00  0.00     0.001 C 
HETATM   13  C10 UNL     1       9.863  11.868  29.993  1.00  0.00     0.005 C 
ENDBRANCH   9  10
ENDBRANCH   2   9
TORSDOF 6
ENDMDL
MODEL 2
REMARK VINA RESULT: -5.881785122      1.393      1.756
REMARK  6 active torsions:
REMARK  status: ('A' for Active; 'I' for Inactive)
REMARK    1  A    between atoms: C1_2  and  N1_3 
REMARK    2  A    between atoms: N1_3  and  C2_5 
REMARK    3  A    between atoms: C2_5  and  C3_6 
REMARK    4  A    between atoms: C3_6  and  C4_7 
REMARK    5  A    between atoms: C5_8  and  C6_9 
REMARK    6  A    between atoms: C6_9  and  C7_10 
ROOT
HETATM    1  C4  UNL     1       9.204  13.907  30.774  1.00  0.00    -0.029 C 
HETATM    2  C5  UNL     1       8.148  13.334  30.210  1.00  0.00    -0.030 C 
ENDROOT
BRANCH   1   3
HETATM    3  C3  UNL     1       9.101  14.961  31.820  1.00  0.00     0.046 C 
BRANCH   3   4
HETATM    4  C2  UNL     1       7.968  14.674  32.757  1.00  0.00     0.126 C 
BRANCH   4   5
HETATM    5  N1  UNL     1       8.420  14.747  34.130  1.00  0.00    -0.368 N 
ATOM      6  H1  UNL     1       8.082  15.515  34.712  1.00  0.00     0.161 HD
BRANCH   5   7
HETATM    7  C1  UNL     1       9.306  13.808  34.704  1.00  0.00     0.348 C 
HETATM    8  O1  UNL     1      10.352  14.204  35.288  1.00  0.00    -0.284 OA
ENDBRANCH   5   7
ENDBRANCH   4   5
ENDBRANCH   3   4
ENDBRANCH   1   3
BRANCH   2   9
HETATM    9  C6  UNL     1       8.361  12.308  29.192  1.00  0.00     0.031 C 
BRANCH   9  10
HETATM   10  C7  UNL     1       8.172  10.902  29.636  1.00  0.00    -0.011 C 
HETATM   11  C8  UNL     1       7.648  10.633  30.985  1.00  0.00     0.005 C 
HETATM   12  C9  UNL     1       9.058  10.387  31.504  1.00  0.00     0.001 C 
HETATM   13  C10 UNL     1       9.519  10.297  30.053  1.00  0.00     0.005 C 
ENDBRANCH   9  10
ENDBRANCH   2   9
TORSDOF 6
ENDMDL
MODEL 3
REMARK VINA RESULT: -5.862140816      1.534      3.186
REMARK  6 active torsions:
REMARK  status: ('A' for Active; 'I' for Inactive)
REMARK    1  A    between atoms: C1_2  and  N1_3 
REMARK    2  A    between atoms: N1_3  and  C2_5 
REMARK    3  A    between atoms: C2_5  and  C3_6 
REMARK    4  A    between atoms: C3_6  and  C4_7 
REMARK    5  A    between atoms: C5_8  and  C6_9 
REMARK    6  A    between atoms: C6_9  and  C7_10 
ROOT
HETATM    1  C4  UNL     1      10.504  10.367  32.407  1.00  0.00    -0.029 C 
HETATM    2  C5  UNL     1       9.567  10.042  31.524  1.00  0.00    -0.030 C 
ENDROOT
BRANCH   1   3
HETATM    3  C3  UNL     1      10.514   9.866  33.809  1.00  0.00     0.046 C 
BRANCH   3   4
HETATM    4  C2  UNL     1      10.636  11.001  34.780  1.00  0.00     0.126 C 
BRANCH   4   5
HETATM    5  N1  UNL     1       9.454  11.835  34.730  1.00  0.00    -0.368 N 
ATOM      6  H1  UNL     1       8.546  11.400  34.896  1.00  0.00     0.161 HD
BRANCH   5   7
HETATM    7  C1  UNL     1       9.497  13.221  34.464  1.00  0.00     0.348 C 
HETATM    8  O1  UNL     1      10.181  13.984  35.201  1.00  0.00    -0.284 OA
ENDBRANCH   5   7
ENDBRANCH   4   5
ENDBRANCH   3   4
ENDBRANCH   1   3
BRANCH   2   9
HETATM    9  C6  UNL     1       9.651  10.589  30.173  1.00  0.00     0.031 C 
BRANCH   9  10
HETATM   10  C7  UNL     1       8.360  10.981  29.548  1.00  0.00    -0.011 C 
HETATM   11  C8  UNL     1       8.185  12.355  29.048  1.00  0.00     0.005 C 
HETATM   12  C9  UNL     1       7.447  12.744  30.321  1.00  0.00     0.001 C 
HETATM   13  C10 UNL     1       7.313  11.258  30.634  1.00  0.00     0.005 C 
ENDBRANCH   9  10
ENDBRANCH   2   9
TORSDOF 6
ENDMDL
MODEL 4
REMARK VINA RESULT: -5.815097629      1.453      1.873
REMARK  6 active torsions:
REMARK  status: ('A' for Active; 'I' for Inactive)
REMARK    1  A    between atoms: C1_2  and  N1_3 
REMARK    2  A    between atoms: N1_3  and  C2_5 
REMARK    3  A    between atoms: C2_5  and  C3_6 
REMARK    4  A    between atoms: C3_6  and  C4_7 
REMARK    5  A    between atoms: C5_8  and  C6_9 
REMARK    6  A    between atoms: C6_9  and  C7_10 
ROOT
HETATM    1  C4  UNL     1       6.674  13.258  31.435  1.00  0.00    -0.029 C 
HETATM    2  C5  UNL     1       7.370  12.162  31.710  1.00  0.00    -0.030 C 
ENDROOT
BRANCH   1   3
HETATM    3  C3  UNL     1       6.886  14.557  32.133  1.00  0.00     0.046 C 
BRANCH   3   4
HETATM    4  C2  UNL     1       8.316  14.711  32.551  1.00  0.00     0.126 C 
BRANCH   4   5
HETATM    5  N1  UNL     1       8.414  14.789  33.993  1.00  0.00    -0.368 N 
ATOM      6  H1  UNL     1       7.934  15.552  34.471  1.00  0.00     0.161 HD
BRANCH   5   7
HETATM    7  C1  UNL     1       9.142  13.860  34.769  1.00  0.00     0.348 C 
HETATM    8  O1  UNL     1      10.290  14.159  35.197  1.00  0.00    -0.284 OA
ENDBRANCH   5   7
ENDBRANCH   4   5
ENDBRANCH   3   4
ENDBRANCH   1   3
BRANCH   2   9
HETATM    9  C6  UNL     1       7.082  10.939  30.966  1.00  0.00     0.031 C 
BRANCH   9  10
HETATM   10  C7  UNL     1       8.052  10.584  29.897  1.00  0.00    -0.011 C 
HETATM   11  C8  UNL     1       9.466  10.362  30.246  1.00  0.00     0.005 C 
HETATM   12  C9  UNL     1       9.816  11.776  29.804  1.00  0.00     0.001 C 
HETATM   13  C10 UNL     1       8.456  11.840  29.115  1.00  0.00     0.005 C 
ENDBRANCH   9  10
ENDBRANCH   2   9
TORSDOF 6
ENDMDL
MODEL 5
REMARK VINA RESULT: -5.719081603      1.494      3.160
REMARK  6 active torsions:
REMARK  status: ('A' for Active; 'I' for Inactive)
REMARK    1  A    between atoms: C1_2  and  N1_3 
REMARK    2  A    between atoms: N1_3  and  C2_5 
REMARK    3  A    between atoms: C2_5  and  C3_6 
REMARK    4  A    between atoms: C3_6  and  C4_7 
REMARK    5  A    between atoms: C5_8  and  C6_9 
REMARK    6  A    between atoms: C6_9  and  C7_10 
ROOT
HETATM    1  C4  UNL     1       9.464  10.194  32.607  1.00  0.00    -0.029 C 
HETATM    2  C5  UNL     1      10.054  10.155  31.419  1.00  0.00    -0.030 C 
ENDROOT
BRANCH   1   3
HETATM    3  C3  UNL     1      10.155   9.834  33.875  1.00  0.00     0.046 C 
BRANCH   3   4
HETATM    4  C2  UNL     1      10.585  11.063  34.617  1.00  0.00     0.126 C 
BRANCH   4   5
HETATM    5  N1  UNL     1       9.470  11.973  34.770  1.00  0.00    -0.368 N 
ATOM      6  H1  UNL     1       8.576  11.598  35.089  1.00  0.00     0.161 HD
BRANCH   5   7
HETATM    7  C1  UNL     1       9.560  13.357  34.499  1.00  0.00     0.348 C 
HETATM    8  O1  UNL     1      10.228  14.107  35.262  1.00  0.00    -0.284 OA
ENDBRANCH   5   7
ENDBRANCH   4   5
ENDBRANCH   3   4
ENDBRANCH   1   3
BRANCH   2   9
HETATM    9  C6  UNL     1       9.285  10.529  30.236  1.00  0.00     0.031 C 
BRANCH   9  10
HETATM   10  C7  UNL     1       9.462  11.925  29.758  1.00  0.00    -0.011 C 
HETATM   11  C8  UNL     1       9.415  13.034  30.727  1.00  0.00     0.005 C 
HETATM   12  C9  UNL     1       7.965  13.315  30.362  1.00  0.00     0.001 C 
HETATM   13  C10 UNL     1       8.159  12.437  29.131  1.00  0.00     0.005 C 
ENDBRANCH   9  10
ENDBRANCH   2   9
TORSDOF 6
ENDMDL
