MODEL 1
REMARK VINA RESULT: -5.794027631      0.000      0.000
REMARK  6 active torsions:
REMARK  status: ('A' for Active; 'I' for Inactive)
REMARK    1  A    between atoms: C1_2  and  N1_3 
REMARK    2  A    between atoms: N1_3  and  C2_4 
REMARK    3  A    between atoms: C2_4  and  C3_5 
REMARK    4  A    between atoms: C3_5  and  C4_6 
REMARK    5  A    between atoms: C4_6  and  C5_7 
REMARK    6  A    between atoms: C5_7  and  C6_8 
ROOT
HETATM    1  C4  UNL     1       7.005  13.834  31.746  1.00  0.00     0.010 C 
ENDROOT
BRANCH   1   2
HETATM    2  C3  UNL     1       8.031  14.652  31.091  1.00  0.00     0.060 C 
BRANCH   2   3
HETATM    3  C2  UNL     1       9.422  14.613  31.782  1.00  0.00     0.158 C 
BRANCH   3   4
HETATM    4  N1  UNL     1       9.428  14.192  33.038  1.00  0.00    -0.395 NA
BRANCH   4   5
HETATM    5  C1  UNL     1       9.434  13.743  34.377  1.00  0.00     0.440 C 
HETATM    6  O1  UNL     1      10.191  14.063  35.272  1.00  0.00    -0.268 OA
ENDBRANCH   4   5
ENDBRANCH   3   4
ENDBRANCH   2   3
ENDBRANCH   1   2
BRANCH   1   7
HETATM    7  C5  UNL     1       6.570  12.557  31.138  1.00  0.00     0.034 C 
BRANCH   7   8
HETATM    8  C6  UNL     1       7.636  11.554  30.900  1.00  0.00    -0.084 C 
HETATM    9  C7  UNL     1       8.081  11.250  29.690  1.00  0.00    -0.024 C 
HETATM   10  C8  UNL     1       9.134  10.210  29.808  1.00  0.00     0.027 C 
HETATM   11  C9  UNL     1       9.739  10.464  31.162  1.00  0.00     0.008 C 
HETATM   12  C10 UNL     1       8.453  10.849  31.926  1.00  0.00     0.034 C 
ENDBRANCH   7   8
ENDBRANCH   1   7
TORSDOF 6
ENDMDL
MODEL 2
REMARK VINA RESULT: -5.668824378      1.853      3.468
REMARK  6 active torsions:
REMARK  status: ('A' for Active; 'I' for Inactive)
REMARK    1  A    between atoms: C1_2  and  N1_3 
REMARK    2  A    between atoms: N1_3  and  C2_4 
REMARK    3  A    between atoms: C2_4  and  C3_5 
REMARK    4  A    between atoms: C3_5  and  C4_6 
REMARK    5  A    between atoms: C4_6  and  C5_7 
REMARK    6  A    between atoms: C5_7  and  C6_8 
ROOT
HETATM    1  C4  UNL     1       9.954   9.792  32.535  1.00  0.00     0.010 C 
ENDROOT
BRANCH   1   2
HETATM    2  C3  UNL     1      11.091   9.979  33.441  1.00  0.00     0.060 C 
BRANCH   2   3
HETATM    3  C2  UNL     1      10.731  10.649  34.796  1.00  0.00     0.158 C 
BRANCH   3   4
HETATM    4  N1  UNL     1      10.278  11.891  34.720  1.00  0.00    -0.395 NA
BRANCH   4   5
HETATM    5  C1  UNL     1       9.795  13.216  34.637  1.00  0.00     0.440 C 
HETATM    6  O1  UNL     1      10.222  14.207  35.195  1.00  0.00    -0.268 OA
ENDBRANCH   4   5
ENDBRANCH   3   4
ENDBRANCH   2   3
ENDBRANCH   1   2
BRANCH   1   7
HETATM    7  C5  UNL     1      10.147   9.873  31.071  1.00  0.00     0.034 C 
BRANCH   7   8
HETATM    8  C6  UNL     1       9.515  11.032  30.395  1.00  0.00    -0.084 C 
HETATM    9  C7  UNL     1       8.502  10.908  29.549  1.00  0.00    -0.024 C 
HETATM   10  C8  UNL     1       8.119  12.253  29.051  1.00  0.00     0.027 C 
HETATM   11  C9  UNL     1       8.492  13.173  30.181  1.00  0.00     0.008 C 
HETATM   12  C10 UNL     1       9.793  12.475  30.635  1.00  0.00     0.034 C 
ENDBRANCH   7   8
ENDBRANCH   1   7
TORSDOF 6
ENDMDL
MODEL 3
REMARK VINA RESULT: -5.626541744      1.187      1.647
REMARK  6 active torsions:
REMARK  status: ('A' for Active; 'I' for Inactive)
REMARK    1  A    between atoms: C1_2  and  N1_3 
REMARK    2  A    between atoms: N1_3  and  C2_4 
REMARK    3  A    between atoms: C2_4  and  C3_5 
REMARK    4  A    between atoms: C3_5  and  C4_6 
REMARK    5  A    between atoms: C4_6  and  C5_7 
REMARK    6  A    between atoms: C5_7  and  C6_8 
ROOT
HETATM    1  C4  UNL     1       5.516  12.111  31.428  1.00  0.00     0.010 C 
ENDROOT
BRANCH   1   2
HETATM    2  C3  UNL     1       6.316  13.195  30.850  1.00  0.00     0.060 C 
BRANCH   2   3
HETATM    3  C2  UNL     1       6.544  14.403  31.800  1.00  0.00     0.158 C 
BRANCH   3   4
HETATM    4  N1  UNL     1       7.634  14.347  32.550  1.00  0.00    -0.395 NA
BRANCH   4   5
HETATM    5  C1  UNL     1       8.797  14.286  33.350  1.00  0.00     0.440 C 
HETATM    6  O1  UNL     1       8.913  14.563  34.527  1.00  0.00    -0.268 OA
ENDBRANCH   4   5
ENDBRANCH   3   4
ENDBRANCH   2   3
ENDBRANCH   1   2
BRANCH   1   7
HETATM    7  C5  UNL     1       6.036  10.726  31.442  1.00  0.00     0.034 C 
BRANCH   7   8
HETATM    8  C6  UNL     1       7.486  10.573  31.167  1.00  0.00    -0.084 C 
HETATM    9  C7  UNL     1       7.977  10.449  29.943  1.00  0.00    -0.024 C 
HETATM   10  C8  UNL     1       9.453  10.308  30.026  1.00  0.00     0.027 C 
HETATM   11  C9  UNL     1       9.816  11.059  31.277  1.00  0.00     0.008 C 
HETATM   12  C10 UNL     1       8.602  10.667  32.148  1.00  0.00     0.034 C 
ENDBRANCH   7   8
ENDBRANCH   1   7
TORSDOF 6
ENDMDL
MODEL 4
REMARK VINA RESULT: -5.619946396      1.700      2.363
REMARK  6 active torsions:
REMARK  status: ('A' for Active; 'I' for Inactive)
REMARK    1  A    between atoms: C1_2  and  N1_3 
REMARK    2  A    between atoms: N1_3  and  C2_4 
REMARK    3  A    between atoms: C2_4  and  C3_5 
REMARK    4  A    between atoms: C3_5  and  C4_6 
REMARK    5  A    between atoms: C4_6  and  C5_7 
REMARK    6  A    between atoms: C5_7  and  C6_8 
ROOT
HETATM    1  C4  UNL     1       9.206  14.503  31.949  1.00  0.00     0.010 C 
ENDROOT
BRANCH   1   2
HETATM    2  C3  UNL     1       8.421  14.485  33.187  1.00  0.00     0.060 C 
BRANCH   2   3
HETATM    3  C2  UNL     1       9.206  14.002  34.439  1.00  0.00     0.158 C 
BRANCH   3   4
HETATM    4  N1  UNL     1       9.587  12.734  34.424  1.00  0.00    -0.395 NA
BRANCH   4   5
HETATM    5  C1  UNL     1       9.994  11.381  34.408  1.00  0.00     0.440 C 
HETATM    6  O1  UNL     1      11.041  10.908  34.801  1.00  0.00    -0.268 OA
ENDBRANCH   4   5
ENDBRANCH   3   4
ENDBRANCH   2   3
ENDBRANCH   1   2
BRANCH   1   7
HETATM    7  C5  UNL     1       8.577  14.127  30.664  1.00  0.00     0.034 C 
BRANCH   7   8
HETATM    8  C6  UNL     1       8.803  12.733  30.212  1.00  0.00    -0.084 C 
HETATM    9  C7  UNL     1       9.635  11.904  30.824  1.00  0.00    -0.024 C 
HETATM   10  C8  UNL     1       9.629  10.600  30.114  1.00  0.00     0.027 C 
HETATM   11  C9  UNL     1       8.249  10.521  29.520  1.00  0.00     0.008 C 
HETATM   12  C10 UNL     1       8.072  12.007  29.137  1.00  0.00     0.034 C 
ENDBRANCH   7   8
ENDBRANCH   1   7
TORSDOF 6
ENDMDL
MODEL 5
REMARK VINA RESULT: -5.583281595      1.839      2.676
REMARK  6 active torsions:
REMARK  status: ('A' for Active; 'I' for Inactive)
REMARK    1  A    between atoms: C1_2  and  N1_3 
REMARK    2  A    between atoms: N1_3  and  C2_4 
REMARK    3  A    between atoms: C2_4  and  C3_5 
REMARK    4  A    between atoms: C3_5  and  C4_6 
REMARK    5  A    between atoms: C4_6  and  C5_7 
REMARK    6  A    between atoms: C5_7  and  C6_8 
ROOT
HETATM    1  C4  UNL     1       7.940  14.680  32.579  1.00  0.00     0.010 C 
ENDROOT
BRANCH   1   2
HETATM    2  C3  UNL     1       9.258  14.484  33.190  1.00  0.00     0.060 C 
BRANCH   2   3
HETATM    3  C2  UNL     1       9.239  13.664  34.511  1.00  0.00     0.158 C 
BRANCH   3   4
HETATM    4  N1  UNL     1       9.748  12.444  34.437  1.00  0.00    -0.395 NA
BRANCH   4   5
HETATM    5  C1  UNL     1      10.290  11.142  34.358  1.00  0.00     0.440 C 
HETATM    6  O1  UNL     1      10.725  10.454  35.260  1.00  0.00    -0.268 OA
ENDBRANCH   4   5
ENDBRANCH   3   4
ENDBRANCH   2   3
ENDBRANCH   1   2
BRANCH   1   7
HETATM    7  C5  UNL     1       7.585  13.970  31.331  1.00  0.00     0.034 C 
BRANCH   7   8
HETATM    8  C6  UNL     1       6.959  12.636  31.497  1.00  0.00    -0.084 C 
HETATM    9  C7  UNL     1       5.662  12.423  31.334  1.00  0.00    -0.024 C 
HETATM   10  C8  UNL     1       5.371  10.988  31.581  1.00  0.00     0.027 C 
HETATM   11  C9  UNL     1       6.648  10.292  31.198  1.00  0.00     0.008 C 
HETATM   12  C10 UNL     1       7.655  11.339  31.724  1.00  0.00     0.034 C 
ENDBRANCH   7   8
ENDBRANCH   1   7
TORSDOF 6
ENDMDL
