MODEL 1
REMARK VINA RESULT: -6.213303324      0.000      0.000
REMARK  5 active torsions:
REMARK  status: ('A' for Active; 'I' for Inactive)
REMARK    1  A    between atoms: C1_2  and  N1_3 
REMARK    2  A    between atoms: N1_3  and  C2_5 
REMARK    3  A    between atoms: C2_5  and  C3_6 
REMARK    4  A    between atoms: C3_6  and  C4_7 
REMARK    5  A    between atoms: C4_7  and  C5_8 
ROOT
HETATM    1  C4  UNL     1       8.588  14.343  30.538  1.00  0.00     0.040 C 
ENDROOT
BRANCH   1   2
HETATM    2  C3  UNL     1       9.055  14.704  31.917  1.00  0.00     0.024 C 
BRANCH   2   3
HETATM    3  C2  UNL     1       7.940  14.811  32.911  1.00  0.00     0.122 C 
BRANCH   3   4
HETATM    4  N1  UNL     1       8.384  14.772  34.271  1.00  0.00    -0.368 N 
ATOM      5  H1  UNL     1       8.008  15.445  34.939  1.00  0.00     0.161 HD
BRANCH   4   6
HETATM    6  C1  UNL     1       9.333  13.823  34.707  1.00  0.00     0.348 C 
HETATM    7  O1  UNL     1      10.420  14.152  35.240  1.00  0.00    -0.284 OA
ENDBRANCH   4   6
ENDBRANCH   3   4
ENDBRANCH   2   3
ENDBRANCH   1   2
BRANCH   1   8
HETATM    8  C5  UNL     1       8.786  12.878  30.348  1.00  0.00    -0.058 A 
HETATM    9  C6  UNL     1       7.998  12.143  29.482  1.00  0.00     0.007 A 
HETATM   10  C7  UNL     1       8.194  10.787  29.316  1.00  0.00     0.001 A 
HETATM   11  C8  UNL     1       9.183  10.109  30.010  1.00  0.00     0.000 A 
HETATM   12  C9  UNL     1       9.973  10.833  30.878  1.00  0.00     0.001 A 
HETATM   13  C10 UNL     1       9.776  12.190  31.041  1.00  0.00     0.007 A 
ENDBRANCH   1   8
TORSDOF 5
ENDMDL
MODEL 2
REMARK VINA RESULT: -6.162899030      0.074      1.368
REMARK  5 active torsions:
REMARK  status: ('A' for Active; 'I' for Inactive)
REMARK    1  A    between atoms: C1_2  and  N1_3 
REMARK    2  A    between atoms: N1_3  and  C2_5 
REMARK    3  A    between atoms: C2_5  and  C3_6 
REMARK    4  A    between atoms: C3_6  and  C4_7 
REMARK    5  A    between atoms: C4_7  and  C5_8 
ROOT
HETATM    1  C4  UNL     1       8.541  14.313  30.536  1.00  0.00     0.040 C 
ENDROOT
BRANCH   1   2
HETATM    2  C3  UNL     1       9.020  14.693  31.905  1.00  0.00     0.024 C 
BRANCH   2   3
HETATM    3  C2  UNL     1       7.912  14.828  32.905  1.00  0.00     0.122 C 
BRANCH   3   4
HETATM    4  N1  UNL     1       8.357  14.742  34.263  1.00  0.00    -0.368 N 
ATOM      5  H1  UNL     1       8.008  15.415  34.946  1.00  0.00     0.161 HD
BRANCH   4   6
HETATM    6  C1  UNL     1       9.267  13.745  34.676  1.00  0.00     0.348 C 
HETATM    7  O1  UNL     1      10.338  14.016  35.269  1.00  0.00    -0.284 OA
ENDBRANCH   4   6
ENDBRANCH   3   4
ENDBRANCH   2   3
ENDBRANCH   1   2
BRANCH   1   8
HETATM    8  C5  UNL     1       8.751  12.848  30.360  1.00  0.00    -0.058 A 
HETATM    9  C6  UNL     1       9.745  12.167  31.038  1.00  0.00     0.007 A 
HETATM   10  C7  UNL     1       9.928  10.810  30.864  1.00  0.00     0.001 A 
HETATM   11  C8  UNL     1       9.125  10.078  30.005  1.00  0.00     0.000 A 
HETATM   12  C9  UNL     1       8.131  10.747  29.322  1.00  0.00     0.001 A 
HETATM   13  C10 UNL     1       7.950  12.104  29.499  1.00  0.00     0.007 A 
ENDBRANCH   1   8
TORSDOF 5
ENDMDL
MODEL 3
REMARK VINA RESULT: -6.022858562      2.368      3.349
REMARK  5 active torsions:
REMARK  status: ('A' for Active; 'I' for Inactive)
REMARK    1  A    between atoms: C1_2  and  N1_3 
REMARK    2  A    between atoms: N1_3  and  C2_5 
REMARK    3  A    between atoms: C2_5  and  C3_6 
REMARK    4  A    between atoms: C3_6  and  C4_7 
REMARK    5  A    between atoms: C4_7  and  C5_8 
ROOT
HETATM    1  C4  UNL     1       9.441  10.867  31.788  1.00  0.00     0.040 C 
ENDROOT
BRANCH   1   2
HETATM    2  C3  UNL     1       9.602  10.246  33.143  1.00  0.00     0.024 C 
BRANCH   2   3
HETATM    3  C2  UNL     1      10.351  11.113  34.107  1.00  0.00     0.122 C 
BRANCH   3   4
HETATM    4  N1  UNL     1       9.509  12.007  34.843  1.00  0.00    -0.368 N 
ATOM      5  H1  UNL     1       8.876  11.630  35.548  1.00  0.00     0.161 HD
BRANCH   4   6
HETATM    6  C1  UNL     1       9.535  13.398  34.611  1.00  0.00     0.348 C 
HETATM    7  O1  UNL     1      10.291  14.173  35.245  1.00  0.00    -0.284 OA
ENDBRANCH   4   6
ENDBRANCH   3   4
ENDBRANCH   2   3
ENDBRANCH   1   2
BRANCH   1   8
HETATM    8  C5  UNL     1       8.021  11.294  31.637  1.00  0.00    -0.058 A 
HETATM    9  C6  UNL     1       6.981  10.383  31.645  1.00  0.00     0.007 A 
HETATM   10  C7  UNL     1       5.671  10.794  31.504  1.00  0.00     0.001 A 
HETATM   11  C8  UNL     1       5.346  12.131  31.349  1.00  0.00     0.000 A 
HETATM   12  C9  UNL     1       6.375  13.048  31.338  1.00  0.00     0.001 A 
HETATM   13  C10 UNL     1       7.685  12.635  31.481  1.00  0.00     0.007 A 
ENDBRANCH   1   8
TORSDOF 5
ENDMDL
MODEL 4
REMARK VINA RESULT: -6.007393837      2.351      3.370
REMARK  5 active torsions:
REMARK  status: ('A' for Active; 'I' for Inactive)
REMARK    1  A    between atoms: C1_2  and  N1_3 
REMARK    2  A    between atoms: N1_3  and  C2_5 
REMARK    3  A    between atoms: C2_5  and  C3_6 
REMARK    4  A    between atoms: C3_6  and  C4_7 
REMARK    5  A    between atoms: C4_7  and  C5_8 
ROOT
HETATM    1  C4  UNL     1       9.492  10.981  31.791  1.00  0.00     0.040 C 
ENDROOT
BRANCH   1   2
HETATM    2  C3  UNL     1       9.655  10.303  33.118  1.00  0.00     0.024 C 
BRANCH   2   3
HETATM    3  C2  UNL     1      10.376  11.142  34.128  1.00  0.00     0.122 C 
BRANCH   3   4
HETATM    4  N1  UNL     1       9.516  12.031  34.848  1.00  0.00    -0.368 N 
ATOM      5  H1  UNL     1       8.870  11.650  35.540  1.00  0.00     0.161 HD
BRANCH   4   6
HETATM    6  C1  UNL     1       9.542  13.423  34.620  1.00  0.00     0.348 C 
HETATM    7  O1  UNL     1      10.307  14.194  35.247  1.00  0.00    -0.284 OA
ENDBRANCH   4   6
ENDBRANCH   3   4
ENDBRANCH   2   3
ENDBRANCH   1   2
BRANCH   1   8
HETATM    8  C5  UNL     1       8.061  11.369  31.638  1.00  0.00    -0.058 A 
HETATM    9  C6  UNL     1       7.677  12.687  31.471  1.00  0.00     0.007 A 
HETATM   10  C7  UNL     1       6.347  13.031  31.331  1.00  0.00     0.001 A 
HETATM   11  C8  UNL     1       5.347  12.073  31.354  1.00  0.00     0.000 A 
HETATM   12  C9  UNL     1       5.719  10.755  31.522  1.00  0.00     0.001 A 
HETATM   13  C10 UNL     1       7.050  10.414  31.660  1.00  0.00     0.007 A 
ENDBRANCH   1   8
TORSDOF 5
ENDMDL
MODEL 5
REMARK VINA RESULT: -5.980574102      1.505      1.785
REMARK  5 active torsions:
REMARK  status: ('A' for Active; 'I' for Inactive)
REMARK    1  A    between atoms: C1_2  and  N1_3 
REMARK    2  A    between atoms: N1_3  and  C2_5 
REMARK    3  A    between atoms: C2_5  and  C3_6 
REMARK    4  A    between atoms: C3_6  and  C4_7 
REMARK    5  A    between atoms: C4_7  and  C5_8 
ROOT
HETATM    1  C4  UNL     1       7.338  14.168  31.863  1.00  0.00     0.040 C 
ENDROOT
BRANCH   1   2
HETATM    2  C3  UNL     1       8.616  14.534  32.557  1.00  0.00     0.024 C 
BRANCH   2   3
HETATM    3  C2  UNL     1       8.476  14.630  34.045  1.00  0.00     0.122 C 
BRANCH   3   4
HETATM    4  N1  UNL     1       9.346  13.746  34.758  1.00  0.00    -0.368 N 
ATOM      5  H1  UNL     1       9.811  14.077  35.604  1.00  0.00     0.161 HD
BRANCH   4   6
HETATM    6  C1  UNL     1       9.575  12.426  34.315  1.00  0.00     0.348 C 
HETATM    7  O1  UNL     1      10.518  11.723  34.751  1.00  0.00    -0.284 OA
ENDBRANCH   4   6
ENDBRANCH   3   4
ENDBRANCH   2   3
ENDBRANCH   1   2
BRANCH   1   8
HETATM    8  C5  UNL     1       7.553  12.885  31.136  1.00  0.00    -0.058 A 
HETATM    9  C6  UNL     1       7.029  11.690  31.594  1.00  0.00     0.007 A 
HETATM   10  C7  UNL     1       7.237  10.510  30.910  1.00  0.00     0.001 A 
HETATM   11  C8  UNL     1       7.978  10.475  29.740  1.00  0.00     0.000 A 
HETATM   12  C9  UNL     1       8.507  11.660  29.275  1.00  0.00     0.001 A 
HETATM   13  C10 UNL     1       8.296  12.840  29.961  1.00  0.00     0.007 A 
ENDBRANCH   1   8
TORSDOF 5
ENDMDL
