MODEL 1
REMARK VINA RESULT: -5.796501723      0.000      0.000
REMARK  5 active torsions:
REMARK  status: ('A' for Active; 'I' for Inactive)
REMARK    1  A    between atoms: C2_2  and  C3_3 
REMARK    2  A    between atoms: C3_3  and  C4_4 
REMARK    3  A    between atoms: C4_4  and  N1_5 
REMARK    4  A    between atoms: N1_5  and  C5_8 
REMARK    5  A    between atoms: C5_8  and  C6_9 
ROOT
HETATM    1  N1  UNL     1       9.963  12.273  34.026  1.00  0.00    -0.071 N 
ATOM      2  H11 UNL     1      10.684  12.039  34.710  1.00  0.00     0.277 HD
ATOM      3  H12 UNL     1      10.567  12.416  33.217  1.00  0.00     0.277 HD
ENDROOT
BRANCH   1   4
HETATM    4  C4  UNL     1       9.246  13.470  34.385  1.00  0.00     0.236 C 
BRANCH   4   5
HETATM    5  C3  UNL     1       9.260  14.523  33.304  1.00  0.00     0.054 C 
BRANCH   5   6
HETATM    6  C2  UNL     1       7.911  14.607  32.674  1.00  0.00    -0.035 C 
HETATM    7  C1  UNL     1       7.779  14.349  31.398  1.00  0.00     0.007 C 
ENDBRANCH   5   6
ENDBRANCH   4   5
ENDBRANCH   1   4
BRANCH   1   8
HETATM    8  C5  UNL     1       9.040  11.190  33.824  1.00  0.00     0.270 C 
BRANCH   8   9
HETATM    9  C6  UNL     1       8.803  10.954  32.366  1.00  0.00    -0.033 A 
HETATM   10  C7  UNL     1       7.499  10.749  31.934  1.00  0.00     0.009 A 
HETATM   11  C8  UNL     1       7.226  10.532  30.607  1.00  0.00     0.001 A 
HETATM   12  C9  UNL     1       8.262  10.517  29.695  1.00  0.00     0.000 A 
HETATM   13  C10 UNL     1       9.566  10.716  30.080  1.00  0.00     0.001 A 
HETATM   14  C11 UNL     1       9.802  10.931  31.429  1.00  0.00     0.009 A 
ENDBRANCH   8   9
ENDBRANCH   1   8
TORSDOF 5
ENDMDL
MODEL 2
REMARK VINA RESULT: -5.722929622      0.653      1.498
REMARK  5 active torsions:
REMARK  status: ('A' for Active; 'I' for Inactive)
REMARK    1  A    between atoms: C2_2  and  C3_3 
REMARK    2  A    between atoms: C3_3  and  C4_4 
REMARK    3  A    between atoms: C4_4  and  N1_5 
REMARK    4  A    between atoms: N1_5  and  C5_8 
REMARK    5  A    between atoms: C5_8  and  C6_9 
ROOT
HETATM    1  N1  UNL     1       9.116  12.315  34.463  1.00  0.00    -0.071 N 
ATOM      2  H11 UNL     1       8.106  12.207  34.371  1.00  0.00     0.277 HD
ATOM      3  H12 UNL     1       9.193  12.147  35.466  1.00  0.00     0.277 HD
ENDROOT
BRANCH   1   4
HETATM    4  C4  UNL     1       9.553  13.639  34.101  1.00  0.00     0.236 C 
BRANCH   4   5
HETATM    5  C3  UNL     1       8.417  14.575  33.769  1.00  0.00     0.054 C 
BRANCH   5   6
HETATM    6  C2  UNL     1       8.210  14.603  32.293  1.00  0.00    -0.035 C 
HETATM    7  C1  UNL     1       7.025  14.345  31.803  1.00  0.00     0.007 C 
ENDBRANCH   5   6
ENDBRANCH   4   5
ENDBRANCH   1   4
BRANCH   1   8
HETATM    8  C5  UNL     1       9.836  11.335  33.696  1.00  0.00     0.270 C 
BRANCH   8   9
HETATM    9  C6  UNL     1       9.230  11.168  32.339  1.00  0.00    -0.033 A 
HETATM   10  C7  UNL     1      10.014  11.452  31.228  1.00  0.00     0.009 A 
HETATM   11  C8  UNL     1       9.509  11.312  29.959  1.00  0.00     0.001 A 
HETATM   12  C9  UNL     1       8.207  10.886  29.792  1.00  0.00     0.000 A 
HETATM   13  C10 UNL     1       7.398  10.595  30.863  1.00  0.00     0.001 A 
HETATM   14  C11 UNL     1       7.943  10.748  32.128  1.00  0.00     0.009 A 
ENDBRANCH   8   9
ENDBRANCH   1   8
TORSDOF 5
ENDMDL
MODEL 3
REMARK VINA RESULT: -5.682401128      1.399      3.209
REMARK  5 active torsions:
REMARK  status: ('A' for Active; 'I' for Inactive)
REMARK    1  A    between atoms: C2_2  and  C3_3 
REMARK    2  A    between atoms: C3_3  and  C4_4 
REMARK    3  A    between atoms: C4_4  and  N1_5 
REMARK    4  A    between atoms: N1_5  and  C5_8 
REMARK    5  A    between atoms: C5_8  and  C6_9 
ROOT
HETATM    1  N1  UNL     1       9.638  12.721  33.914  1.00  0.00    -0.071 N 
ATOM      2  H11 UNL     1      10.560  12.710  33.477  1.00  0.00     0.277 HD
ATOM      3  H12 UNL     1       9.814  13.441  34.614  1.00  0.00     0.277 HD
ENDROOT
BRANCH   1   4
HETATM    4  C4  UNL     1       9.308  11.453  34.512  1.00  0.00     0.236 C 
BRANCH   4   5
HETATM    5  C3  UNL     1      10.518  10.619  34.854  1.00  0.00     0.054 C 
BRANCH   5   6
HETATM    6  C2  UNL     1      11.199  10.190  33.599  1.00  0.00    -0.035 C 
HETATM    7  C1  UNL     1      10.718   9.183  32.916  1.00  0.00     0.007 C 
ENDBRANCH   5   6
ENDBRANCH   4   5
ENDBRANCH   1   4
BRANCH   1   8
HETATM    8  C5  UNL     1       8.608  13.110  32.989  1.00  0.00     0.270 C 
BRANCH   8   9
HETATM    9  C6  UNL     1       8.559  12.178  31.821  1.00  0.00    -0.033 A 
HETATM   10  C7  UNL     1       9.640  12.156  30.948  1.00  0.00     0.009 A 
HETATM   11  C8  UNL     1       9.647  11.317  29.863  1.00  0.00     0.001 A 
HETATM   12  C9  UNL     1       8.567  10.488  29.639  1.00  0.00     0.000 A 
HETATM   13  C10 UNL     1       7.478  10.479  30.477  1.00  0.00     0.001 A 
HETATM   14  C11 UNL     1       7.506  11.340  31.562  1.00  0.00     0.009 A 
ENDBRANCH   8   9
ENDBRANCH   1   8
TORSDOF 5
ENDMDL
MODEL 4
REMARK VINA RESULT: -5.534438229      1.994      3.298
REMARK  5 active torsions:
REMARK  status: ('A' for Active; 'I' for Inactive)
REMARK    1  A    between atoms: C2_2  and  C3_3 
REMARK    2  A    between atoms: C3_3  and  C4_4 
REMARK    3  A    between atoms: C4_4  and  N1_5 
REMARK    4  A    between atoms: N1_5  and  C5_8 
REMARK    5  A    between atoms: C5_8  and  C6_9 
ROOT
HETATM    1  N1  UNL     1       7.758  14.076  30.850  1.00  0.00    -0.071 N 
ATOM      2  H11 UNL     1       7.618  15.069  30.664  1.00  0.00     0.277 HD
ATOM      3  H12 UNL     1       7.674  13.732  29.894  1.00  0.00     0.277 HD
ENDROOT
BRANCH   1   4
HETATM    4  C4  UNL     1       6.736  13.538  31.711  1.00  0.00     0.236 C 
BRANCH   4   5
HETATM    5  C3  UNL     1       5.740  12.666  30.986  1.00  0.00     0.054 C 
BRANCH   5   6
HETATM    6  C2  UNL     1       5.509  11.418  31.768  1.00  0.00    -0.035 C 
HETATM    7  C1  UNL     1       6.055  10.297  31.370  1.00  0.00     0.007 C 
ENDBRANCH   5   6
ENDBRANCH   4   5
ENDBRANCH   1   4
BRANCH   1   8
HETATM    8  C5  UNL     1       9.057  13.810  31.406  1.00  0.00     0.270 C 
BRANCH   8   9
HETATM    9  C6  UNL     1       9.394  12.356  31.307  1.00  0.00    -0.033 A 
HETATM   10  C7  UNL     1       9.247  11.728  30.077  1.00  0.00     0.009 A 
HETATM   11  C8  UNL     1       9.545  10.396  29.930  1.00  0.00     0.001 A 
HETATM   12  C9  UNL     1       9.994   9.678  31.019  1.00  0.00     0.000 A 
HETATM   13  C10 UNL     1      10.153  10.261  32.253  1.00  0.00     0.001 A 
HETATM   14  C11 UNL     1       9.842  11.607  32.362  1.00  0.00     0.009 A 
ENDBRANCH   8   9
ENDBRANCH   1   8
TORSDOF 5
ENDMDL
MODEL 5
REMARK VINA RESULT: -5.432933942      1.679      2.641
REMARK  5 active torsions:
REMARK  status: ('A' for Active; 'I' for Inactive)
REMARK    1  A    between atoms: C2_2  and  C3_3 
REMARK    2  A    between atoms: C3_3  and  C4_4 
REMARK    3  A    between atoms: C4_4  and  N1_5 
REMARK    4  A    between atoms: N1_5  and  C5_8 
REMARK    5  A    between atoms: C5_8  and  C6_9 
ROOT
HETATM    1  N1  UNL     1       6.117  12.997  31.116  1.00  0.00    -0.071 N 
ATOM      2  H11 UNL     1       6.346  12.945  30.122  1.00  0.00     0.277 HD
ATOM      3  H12 UNL     1       5.133  13.250  31.029  1.00  0.00     0.277 HD
ENDROOT
BRANCH   1   4
HETATM    4  C4  UNL     1       6.880  14.014  31.792  1.00  0.00     0.236 C 
BRANCH   4   5
HETATM    5  C3  UNL     1       8.061  14.509  30.994  1.00  0.00     0.054 C 
BRANCH   5   6
HETATM    6  C2  UNL     1       9.275  14.526  31.860  1.00  0.00    -0.035 C 
HETATM    7  C1  UNL     1       9.143  14.428  33.158  1.00  0.00     0.007 C 
ENDBRANCH   5   6
ENDBRANCH   4   5
ENDBRANCH   1   4
BRANCH   1   8
HETATM    8  C5  UNL     1       6.292  11.732  31.776  1.00  0.00     0.270 C 
BRANCH   8   9
HETATM    9  C6  UNL     1       7.617  11.128  31.432  1.00  0.00    -0.033 A 
HETATM   10  C7  UNL     1       7.894  10.863  30.097  1.00  0.00     0.009 A 
HETATM   11  C8  UNL     1       9.096  10.313  29.727  1.00  0.00     0.001 A 
HETATM   12  C9  UNL     1      10.035  10.021  30.695  1.00  0.00     0.000 A 
HETATM   13  C10 UNL     1       9.800  10.267  32.026  1.00  0.00     0.001 A 
HETATM   14  C11 UNL     1       8.576  10.823  32.361  1.00  0.00     0.009 A 
ENDBRANCH   8   9
ENDBRANCH   1   8
TORSDOF 5
ENDMDL
