MODEL 1
REMARK VINA RESULT: -5.861562216      0.000      0.000
REMARK  4 active torsions:
REMARK  status: ('A' for Active; 'I' for Inactive)
REMARK    1  A    between atoms: C2_2  and  N1_4 
REMARK    2  A    between atoms: N1_4  and  N2_5 
REMARK    3  A    between atoms: N2_5  and  C4_6 
REMARK    4  A    between atoms: N2_5  and  C7_9 
ROOT
HETATM    1  N2  UNL     1       2.277 -10.598 -10.808  1.00  0.00    -0.226 NA
ENDROOT
BRANCH   1   2
HETATM    2  N1  UNL     1       3.314 -11.505 -10.563  1.00  0.00    -0.160 NA
BRANCH   2   3
HETATM    3  C2  UNL     1       2.955 -12.887 -10.767  1.00  0.00     0.085 C 
HETATM    4  C1  UNL     1       2.896 -13.705  -9.499  1.00  0.00     0.029 C 
HETATM    5  C3  UNL     1       4.045 -13.467 -11.695  1.00  0.00     0.029 C 
ENDBRANCH   2   3
ENDBRANCH   1   2
BRANCH   1   6
HETATM    6  C4  UNL     1       1.945  -9.881  -9.584  1.00  0.00     0.068 C 
HETATM    7  C5  UNL     1       1.675  -8.430  -9.770  1.00  0.00     0.027 C 
HETATM    8  C6  UNL     1       3.049 -10.055  -8.575  1.00  0.00     0.027 C 
ENDBRANCH   1   6
BRANCH   1   9
HETATM    9  C7  UNL     1       2.724  -9.704 -11.840  1.00  0.00     0.076 C 
HETATM   10  C8  UNL     1       2.358 -10.129 -13.260  1.00  0.00     0.021 C 
HETATM   11  C9  UNL     1       3.586  -9.337 -13.670  1.00  0.00     0.003 C 
HETATM   12  C10 UNL     1       4.147  -9.832 -12.324  1.00  0.00     0.021 C 
ENDBRANCH   1   9
TORSDOF 4
ENDMDL
MODEL 2
REMARK VINA RESULT: -5.713184945      0.519      1.111
REMARK  4 active torsions:
REMARK  status: ('A' for Active; 'I' for Inactive)
REMARK    1  A    between atoms: C2_2  and  N1_4 
REMARK    2  A    between atoms: N1_4  and  N2_5 
REMARK    3  A    between atoms: N2_5  and  C4_6 
REMARK    4  A    between atoms: N2_5  and  C7_9 
ROOT
HETATM    1  N2  UNL     1       2.494 -10.280 -10.627  1.00  0.00    -0.226 NA
ENDROOT
BRANCH   1   2
HETATM    2  N1  UNL     1       3.430 -11.303 -10.435  1.00  0.00    -0.160 NA
BRANCH   2   3
HETATM    3  C2  UNL     1       2.866 -12.630 -10.427  1.00  0.00     0.085 C 
HETATM    4  C1  UNL     1       2.803 -13.268  -9.060  1.00  0.00     0.029 C 
HETATM    5  C3  UNL     1       3.780 -13.475 -11.340  1.00  0.00     0.029 C 
ENDBRANCH   2   3
ENDBRANCH   1   2
BRANCH   1   6
HETATM    6  C4  UNL     1       2.641  -9.271  -9.585  1.00  0.00     0.068 C 
HETATM    7  C5  UNL     1       2.545  -9.796  -8.196  1.00  0.00     0.027 C 
HETATM    8  C6  UNL     1       1.617  -8.185  -9.777  1.00  0.00     0.027 C 
ENDBRANCH   1   6
BRANCH   1   9
HETATM    9  C7  UNL     1       2.724  -9.728 -11.933  1.00  0.00     0.076 C 
HETATM   10  C8  UNL     1       2.187 -10.570 -13.089  1.00  0.00     0.021 C 
HETATM   11  C9  UNL     1       3.285  -9.910 -13.903  1.00  0.00     0.003 C 
HETATM   12  C10 UNL     1       4.068  -9.962 -12.577  1.00  0.00     0.021 C 
ENDBRANCH   1   9
TORSDOF 4
ENDMDL
MODEL 3
REMARK VINA RESULT: -5.661157505      0.622      3.396
REMARK  4 active torsions:
REMARK  status: ('A' for Active; 'I' for Inactive)
REMARK    1  A    between atoms: C2_2  and  N1_4 
REMARK    2  A    between atoms: N1_4  and  N2_5 
REMARK    3  A    between atoms: N2_5  and  C4_6 
REMARK    4  A    between atoms: N2_5  and  C7_9 
ROOT
HETATM    1  N2  UNL     1       3.240 -11.335 -10.796  1.00  0.00    -0.226 NA
ENDROOT
BRANCH   1   2
HETATM    2  N1  UNL     1       2.212 -10.510 -10.325  1.00  0.00    -0.160 NA
BRANCH   2   3
HETATM    3  C2  UNL     1       2.660  -9.407  -9.511  1.00  0.00     0.085 C 
HETATM    4  C1  UNL     1       2.656  -9.691  -8.028  1.00  0.00     0.029 C 
HETATM    5  C3  UNL     1       1.684  -8.248  -9.809  1.00  0.00     0.029 C 
ENDBRANCH   2   3
ENDBRANCH   1   2
BRANCH   1   6
HETATM    6  C4  UNL     1       2.886 -12.734 -10.593  1.00  0.00     0.068 C 
HETATM    7  C5  UNL     1       2.873 -13.170  -9.171  1.00  0.00     0.027 C 
HETATM    8  C6  UNL     1       3.823 -13.616 -11.374  1.00  0.00     0.027 C 
ENDBRANCH   1   6
BRANCH   1   9
HETATM    9  C7  UNL     1       3.427 -11.033 -12.188  1.00  0.00     0.076 C 
HETATM   10  C8  UNL     1       4.283  -9.799 -12.467  1.00  0.00     0.021 C 
HETATM   11  C9  UNL     1       3.495  -9.711 -13.761  1.00  0.00     0.003 C 
HETATM   12  C10 UNL     1       2.343 -10.264 -12.901  1.00  0.00     0.021 C 
ENDBRANCH   1   9
TORSDOF 4
ENDMDL
MODEL 4
REMARK VINA RESULT: -5.567149160      1.095      3.942
REMARK  4 active torsions:
REMARK  status: ('A' for Active; 'I' for Inactive)
REMARK    1  A    between atoms: C2_2  and  N1_4 
REMARK    2  A    between atoms: N1_4  and  N2_5 
REMARK    3  A    between atoms: N2_5  and  C4_6 
REMARK    4  A    between atoms: N2_5  and  C7_9 
ROOT
HETATM    1  N2  UNL     1       2.357 -11.082 -12.275  1.00  0.00    -0.226 NA
ENDROOT
BRANCH   1   2
HETATM    2  N1  UNL     1       2.959 -10.316 -11.271  1.00  0.00    -0.160 NA
BRANCH   2   3
HETATM    3  C2  UNL     1       2.107 -10.042 -10.141  1.00  0.00     0.085 C 
HETATM    4  C1  UNL     1       1.746  -8.585  -9.977  1.00  0.00     0.029 C 
HETATM    5  C3  UNL     1       2.897 -10.512  -8.900  1.00  0.00     0.029 C 
ENDBRANCH   2   3
ENDBRANCH   1   2
BRANCH   1   6
HETATM    6  C4  UNL     1       2.406 -10.366 -13.543  1.00  0.00     0.068 C 
HETATM    7  C5  UNL     1       3.168 -11.058 -14.617  1.00  0.00     0.027 C 
HETATM    8  C6  UNL     1       2.985  -8.992 -13.331  1.00  0.00     0.027 C 
ENDBRANCH   1   6
BRANCH   1   9
HETATM    9  C7  UNL     1       3.065 -12.330 -12.346  1.00  0.00     0.076 C 
HETATM   10  C8  UNL     1       2.661 -13.358 -11.291  1.00  0.00     0.021 C 
HETATM   11  C9  UNL     1       4.070 -13.894 -11.467  1.00  0.00     0.003 C 
HETATM   12  C10 UNL     1       4.425 -12.413 -11.698  1.00  0.00     0.021 C 
ENDBRANCH   1   9
TORSDOF 4
ENDMDL
MODEL 5
REMARK VINA RESULT: -5.479315382      0.860      4.221
REMARK  4 active torsions:
REMARK  status: ('A' for Active; 'I' for Inactive)
REMARK    1  A    between atoms: C2_2  and  N1_4 
REMARK    2  A    between atoms: N1_4  and  N2_5 
REMARK    3  A    between atoms: N2_5  and  C4_6 
REMARK    4  A    between atoms: N2_5  and  C7_9 
ROOT
HETATM    1  N2  UNL     1       2.794 -11.041 -11.140  1.00  0.00    -0.226 NA
ENDROOT
BRANCH   1   2
HETATM    2  N1  UNL     1       3.133  -9.985 -10.286  1.00  0.00    -0.160 NA
BRANCH   2   3
HETATM    3  C2  UNL     1       2.033  -9.475  -9.506  1.00  0.00     0.085 C 
HETATM    4  C1  UNL     1       1.613  -8.072  -9.873  1.00  0.00     0.029 C 
HETATM    5  C3  UNL     1       2.519  -9.494  -8.040  1.00  0.00     0.029 C 
ENDBRANCH   2   3
ENDBRANCH   1   2
BRANCH   1   6
HETATM    6  C4  UNL     1       3.256 -10.754 -12.492  1.00  0.00     0.068 C 
HETATM    7  C5  UNL     1       4.402  -9.809 -12.568  1.00  0.00     0.027 C 
HETATM    8  C6  UNL     1       2.116 -10.219 -13.318  1.00  0.00     0.027 C 
ENDBRANCH   1   6
BRANCH   1   9
HETATM    9  C7  UNL     1       3.406 -12.231 -10.615  1.00  0.00     0.076 C 
HETATM   10  C8  UNL     1       3.126 -13.502 -11.415  1.00  0.00     0.021 C 
HETATM   11  C9  UNL     1       3.346 -14.219 -10.097  1.00  0.00     0.003 C 
HETATM   12  C10 UNL     1       2.703 -12.956  -9.494  1.00  0.00     0.021 C 
ENDBRANCH   1   9
TORSDOF 4
ENDMDL
