MODEL 1
REMARK VINA RESULT: -5.831934648      0.000      0.000
REMARK  3 active torsions:
REMARK  status: ('A' for Active; 'I' for Inactive)
REMARK    1  A    between atoms: N1_1  and  N2_4 
REMARK    2  A    between atoms: N3_6  and  C1_8 
REMARK    3  A    between atoms: C4_11  and  C5_12 
ROOT
HETATM    1  C1  UNL     1       2.984 -10.888  -9.292  1.00  0.00     0.101 C 
HETATM    2  C2  UNL     1       2.034  -9.757  -9.089  1.00  0.00     0.028 C 
HETATM    3  C3  UNL     1       1.979  -9.023 -10.413  1.00  0.00     0.017 C 
HETATM    4  C4  UNL     1       2.955  -9.736 -11.332  1.00  0.00     0.089 C 
HETATM    5  C6  UNL     1       2.984 -11.141 -10.768  1.00  0.00     0.042 C 
ENDROOT
BRANCH   1   6
HETATM    6  N3  UNL     1       2.664 -12.063  -8.517  1.00  0.00    -0.318 N 
HETATM    7  N2  UNL     1       3.202 -13.118  -8.857  1.00  0.00    -0.253 N 
ATOM      8  H2  UNL     1       4.193 -12.888  -8.786  1.00  0.00     0.207 HD
ATOM      9  H3  UNL     1       2.023 -12.021  -7.725  1.00  0.00     0.182 HD
BRANCH   7  10
HETATM   10  N1  UNL     1       3.233 -14.303  -9.237  1.00  0.00    -0.331 N 
ATOM     11  H12 UNL     1       2.686 -14.735  -8.492  1.00  0.00     0.178 HD
ATOM     12  H11 UNL     1       3.488 -15.074  -9.854  1.00  0.00     0.178 HD
ENDBRANCH   7  10
ENDBRANCH   1   6
BRANCH   4  13
HETATM   13  C5  UNL     1       2.549  -9.688 -12.733  1.00  0.00     0.177 C 
HETATM   14  O1  UNL     1       2.875  -8.720 -13.453  1.00  0.00    -0.648 OA
HETATM   15  O2  UNL     1       1.801 -10.711 -13.277  1.00  0.00    -0.648 OA
ENDBRANCH   4  13
TORSDOF 3
ENDMDL
MODEL 2
REMARK VINA RESULT: -5.728866725      2.084      2.951
REMARK  3 active torsions:
REMARK  status: ('A' for Active; 'I' for Inactive)
REMARK    1  A    between atoms: N1_1  and  N2_4 
REMARK    2  A    between atoms: N3_6  and  C1_8 
REMARK    3  A    between atoms: C4_11  and  C5_12 
ROOT
HETATM    1  C1  UNL     1       2.705 -13.349 -10.598  1.00  0.00     0.101 C 
HETATM    2  C2  UNL     1       3.937 -13.837 -11.281  1.00  0.00     0.028 C 
HETATM    3  C3  UNL     1       4.417 -12.684 -12.138  1.00  0.00     0.017 C 
HETATM    4  C4  UNL     1       3.399 -11.571 -11.958  1.00  0.00     0.089 C 
HETATM    5  C6  UNL     1       2.829 -11.857 -10.584  1.00  0.00     0.042 C 
ENDROOT
BRANCH   1   6
HETATM    6  N3  UNL     1       2.507 -13.913  -9.284  1.00  0.00    -0.318 N 
HETATM    7  N2  UNL     1       1.490 -14.588  -9.115  1.00  0.00    -0.253 N 
ATOM      8  H2  UNL     1       1.597 -15.319  -9.818  1.00  0.00     0.207 HD
ATOM      9  H3  UNL     1       3.177 -13.760  -8.531  1.00  0.00     0.182 HD
BRANCH   7  10
HETATM   10  N1  UNL     1       0.407 -14.892  -8.582  1.00  0.00    -0.331 N 
ATOM     11  H12 UNL     1      -0.236 -14.543  -9.292  1.00  0.00     0.178 HD
ATOM     12  H11 UNL     1      -0.193 -15.283  -7.855  1.00  0.00     0.178 HD
ENDBRANCH   7  10
ENDBRANCH   1   6
BRANCH   4  13
HETATM   13  C5  UNL     1       3.991 -10.242 -12.069  1.00  0.00     0.177 C 
HETATM   14  O1  UNL     1       4.684  -9.779 -11.138  1.00  0.00    -0.648 OA
HETATM   15  O2  UNL     1       3.792  -9.483 -13.203  1.00  0.00    -0.648 OA
ENDBRANCH   4  13
TORSDOF 3
ENDMDL
MODEL 3
REMARK VINA RESULT: -5.603238073      1.318      1.556
REMARK  3 active torsions:
REMARK  status: ('A' for Active; 'I' for Inactive)
REMARK    1  A    between atoms: N1_1  and  N2_4 
REMARK    2  A    between atoms: N3_6  and  C1_8 
REMARK    3  A    between atoms: C4_11  and  C5_12 
ROOT
HETATM    1  C1  UNL     1       3.158 -10.535  -9.833  1.00  0.00     0.101 C 
HETATM    2  C2  UNL     1       2.210  -9.538 -10.407  1.00  0.00     0.028 C 
HETATM    3  C3  UNL     1       2.356  -9.651 -11.911  1.00  0.00     0.017 C 
HETATM    4  C4  UNL     1       3.438 -10.688 -12.154  1.00  0.00     0.089 C 
HETATM    5  C6  UNL     1       3.360 -11.552 -10.912  1.00  0.00     0.042 C 
ENDROOT
BRANCH   1   6
HETATM    6  N3  UNL     1       2.710 -11.113  -8.588  1.00  0.00    -0.318 N 
HETATM    7  N2  UNL     1       2.820 -12.335  -8.470  1.00  0.00    -0.253 N 
ATOM      8  H2  UNL     1       3.822 -12.475  -8.602  1.00  0.00     0.207 HD
ATOM      9  H3  UNL     1       2.320 -10.537  -7.842  1.00  0.00     0.182 HD
BRANCH   7  10
HETATM   10  N1  UNL     1       2.415 -13.497  -8.282  1.00  0.00    -0.331 N 
ATOM     11  H12 UNL     1       3.041 -13.774  -7.525  1.00  0.00     0.178 HD
ATOM     12  H11 UNL     1       1.828 -14.314  -8.448  1.00  0.00     0.178 HD
ENDBRANCH   7  10
ENDBRANCH   1   6
BRANCH   4  13
HETATM   13  C5  UNL     1       3.233 -11.438 -13.389  1.00  0.00     0.177 C 
HETATM   14  O1  UNL     1       3.362 -10.876 -14.498  1.00  0.00    -0.648 OA
HETATM   15  O2  UNL     1       2.897 -12.775 -13.345  1.00  0.00    -0.648 OA
ENDBRANCH   4  13
TORSDOF 3
ENDMDL
MODEL 4
REMARK VINA RESULT: -5.593080881      1.713      2.710
REMARK  3 active torsions:
REMARK  status: ('A' for Active; 'I' for Inactive)
REMARK    1  A    between atoms: N1_1  and  N2_4 
REMARK    2  A    between atoms: N3_6  and  C1_8 
REMARK    3  A    between atoms: C4_11  and  C5_12 
ROOT
HETATM    1  C1  UNL     1       3.505 -13.350 -11.540  1.00  0.00     0.101 C 
HETATM    2  C2  UNL     1       4.814 -12.819 -12.016  1.00  0.00     0.028 C 
HETATM    3  C3  UNL     1       4.512 -11.462 -12.618  1.00  0.00     0.017 C 
HETATM    4  C4  UNL     1       3.009 -11.278 -12.514  1.00  0.00     0.089 C 
HETATM    5  C6  UNL     1       2.645 -12.144 -11.325  1.00  0.00     0.042 C 
ENDROOT
BRANCH   1   6
HETATM    6  N3  UNL     1       3.609 -14.187 -10.368  1.00  0.00    -0.318 N 
HETATM    7  N2  UNL     1       2.944 -13.853  -9.386  1.00  0.00    -0.253 N 
ATOM      8  H2  UNL     1       1.994 -13.855  -9.757  1.00  0.00     0.207 HD
ATOM      9  H3  UNL     1       4.204 -15.014 -10.354  1.00  0.00     0.182 HD
BRANCH   7  10
HETATM   10  N1  UNL     1       2.763 -13.516  -8.201  1.00  0.00    -0.331 N 
ATOM     11  H12 UNL     1       3.700 -13.183  -7.974  1.00  0.00     0.178 HD
ATOM     12  H11 UNL     1       2.224 -13.385  -7.344  1.00  0.00     0.178 HD
ENDBRANCH   7  10
ENDBRANCH   1   6
BRANCH   4  13
HETATM   13  C5  UNL     1       2.621  -9.881 -12.347  1.00  0.00     0.177 C 
HETATM   14  O1  UNL     1       2.255  -9.456 -11.230  1.00  0.00    -0.648 OA
HETATM   15  O2  UNL     1       2.656  -9.015 -13.420  1.00  0.00    -0.648 OA
ENDBRANCH   4  13
TORSDOF 3
ENDMDL
MODEL 5
REMARK VINA RESULT: -5.529009778      1.634      2.786
REMARK  3 active torsions:
REMARK  status: ('A' for Active; 'I' for Inactive)
REMARK    1  A    between atoms: N1_1  and  N2_4 
REMARK    2  A    between atoms: N3_6  and  C1_8 
REMARK    3  A    between atoms: C4_11  and  C5_12 
ROOT
HETATM    1  C1  UNL     1       2.630 -11.759 -10.190  1.00  0.00     0.101 C 
HETATM    2  C2  UNL     1       3.314 -12.896 -10.869  1.00  0.00     0.028 C 
HETATM    3  C3  UNL     1       3.286 -12.569 -12.348  1.00  0.00     0.017 C 
HETATM    4  C4  UNL     1       2.528 -11.260 -12.477  1.00  0.00     0.089 C 
HETATM    5  C6  UNL     1       2.760 -10.603 -11.132  1.00  0.00     0.042 C 
ENDROOT
BRANCH   1   6
HETATM    6  N3  UNL     1       3.144 -11.475  -8.872  1.00  0.00    -0.318 N 
HETATM    7  N2  UNL     1       2.589 -10.574  -8.240  1.00  0.00    -0.253 N 
ATOM      8  H2  UNL     1       1.624 -10.903  -8.196  1.00  0.00     0.207 HD
ATOM      9  H3  UNL     1       3.930 -11.995  -8.482  1.00  0.00     0.182 HD
BRANCH   7  10
HETATM   10  N1  UNL     1       2.526  -9.494  -7.623  1.00  0.00    -0.331 N 
ATOM     11  H12 UNL     1       1.599  -9.590  -7.207  1.00  0.00     0.178 HD
ATOM     12  H11 UNL     1       2.864  -8.586  -7.303  1.00  0.00     0.178 HD
ENDBRANCH   7  10
ENDBRANCH   1   6
BRANCH   4  13
HETATM   13  C5  UNL     1       2.989 -10.449 -13.600  1.00  0.00     0.177 C 
HETATM   14  O1  UNL     1       3.393 -10.994 -14.649  1.00  0.00    -0.648 OA
HETATM   15  O2  UNL     1       2.981  -9.073 -13.514  1.00  0.00    -0.648 OA
ENDBRANCH   4  13
TORSDOF 3
ENDMDL
