MODEL 1
REMARK VINA RESULT: -6.747955534      0.000      0.000
REMARK  9 active torsions:
REMARK  status: ('A' for Active; 'I' for Inactive)
REMARK    1  A    between atoms: O1_2  and  C2_3 
REMARK    2  A    between atoms: C3_4  and  O2_5 
REMARK    3  A    between atoms: O2_5  and  C4_6 
REMARK    4  A    between atoms: C7_10  and  O4_11 
REMARK    5  A    between atoms: C9_13  and  O5_14 
REMARK    6  A    between atoms: C10_16  and  O6_17 
REMARK    7  A    between atoms: C12_20  and  O7_21 
REMARK    8  A    between atoms: C13_23  and  O8_24 
REMARK    9  A    between atoms: O8_24  and  C14_25 
ROOT
HETATM    1  C2  UNL     1      46.028  58.970   7.035  1.00  0.00     0.156 C 
HETATM    2  C3  UNL     1      45.051  58.034   6.391  1.00  0.00     0.156 C 
HETATM    3  C11 UNL     1      43.815  57.783   7.226  1.00  0.00     0.069 C 
HETATM    4  C12 UNL     1      44.139  57.456   8.662  1.00  0.00     0.150 C 
HETATM    5  C13 UNL     1      45.067  58.433   9.299  1.00  0.00     0.157 C 
HETATM    6  C18 UNL     1      45.591  59.479   8.380  1.00  0.00     0.045 C 
HETATM    7  C19 UNL     1      44.544  60.561   8.223  1.00  0.00     0.015 C 
ENDROOT
BRANCH   2   8
HETATM    8  O2  UNL     1      44.563  58.559   5.172  1.00  0.00    -0.351 OA
BRANCH   8   9
HETATM    9  C4  UNL     1      44.508  57.593   4.170  1.00  0.00     0.292 C 
HETATM   10  O3  UNL     1      45.857  57.322   3.852  1.00  0.00    -0.351 OA
HETATM   11  C5  UNL     1      45.884  56.431   2.781  1.00  0.00     0.152 C 
HETATM   12  C6  UNL     1      47.194  55.719   2.651  1.00  0.00     0.042 C 
HETATM   13  C7  UNL     1      45.568  57.281   1.542  1.00  0.00     0.180 C 
HETATM   14  C9  UNL     1      44.144  57.709   1.673  1.00  0.00     0.183 C 
HETATM   15  C10 UNL     1      43.735  58.151   3.029  1.00  0.00     0.204 C 
BRANCH  13  16
HETATM   16  O4  UNL     1      46.377  58.396   1.613  1.00  0.00    -0.385 OA
HETATM   17  C8  UNL     1      46.406  59.113   0.418  1.00  0.00     0.202 C 
ENDBRANCH  13  16
BRANCH  14  18
HETATM   18  O5  UNL     1      43.344  56.687   1.160  1.00  0.00    -0.390 OA
ATOM     19  H5  UNL     1      42.527  56.689   1.644  1.00  0.00     0.210 HD
ENDBRANCH  14  18
BRANCH  15  20
HETATM   20  O6  UNL     1      42.380  57.773   3.187  1.00  0.00    -0.388 OA
ATOM     21  H6  UNL     1      41.840  58.402   2.723  1.00  0.00     0.210 HD
ENDBRANCH  15  20
ENDBRANCH   8   9
ENDBRANCH   2   8
BRANCH   1  22
HETATM   22  O1  UNL     1      47.304  58.444   7.133  1.00  0.00    -0.388 OA
HETATM   23  C1  UNL     1      48.167  58.945   6.164  1.00  0.00     0.202 C 
ENDBRANCH   1  22
BRANCH   4  24
HETATM   24  O7  UNL     1      44.689  56.155   8.690  1.00  0.00    -0.393 OA
ATOM     25  H7  UNL     1      44.005  55.548   8.428  1.00  0.00     0.210 HD
ENDBRANCH   4  24
BRANCH   5  26
HETATM   26  O8  UNL     1      44.338  59.097  10.312  1.00  0.00    -0.378 OA
BRANCH  26  27
HETATM   27  C14 UNL     1      44.316  58.396  11.492  1.00  0.00     0.122 C 
HETATM   28  C15 UNL     1      44.312  59.316  12.690  1.00  0.00     0.032 C 
HETATM   29  C16 UNL     1      45.458  58.490  13.255  1.00  0.00     0.005 C 
HETATM   30  C17 UNL     1      45.710  57.940  11.862  1.00  0.00     0.032 C 
ENDBRANCH  26  27
ENDBRANCH   5  26
TORSDOF 9
ENDMDL
MODEL 2
REMARK VINA RESULT: -6.682043769      2.233      8.485
REMARK  9 active torsions:
REMARK  status: ('A' for Active; 'I' for Inactive)
REMARK    1  A    between atoms: O1_2  and  C2_3 
REMARK    2  A    between atoms: C3_4  and  O2_5 
REMARK    3  A    between atoms: O2_5  and  C4_6 
REMARK    4  A    between atoms: C7_10  and  O4_11 
REMARK    5  A    between atoms: C9_13  and  O5_14 
REMARK    6  A    between atoms: C10_16  and  O6_17 
REMARK    7  A    between atoms: C12_20  and  O7_21 
REMARK    8  A    between atoms: C13_23  and  O8_24 
REMARK    9  A    between atoms: O8_24  and  C14_25 
ROOT
HETATM    1  C2  UNL     1      44.139  58.128   8.498  1.00  0.00     0.156 C 
HETATM    2  C3  UNL     1      44.952  59.384   8.585  1.00  0.00     0.156 C 
HETATM    3  C11 UNL     1      44.845  60.259   7.356  1.00  0.00     0.069 C 
HETATM    4  C12 UNL     1      45.025  59.487   6.074  1.00  0.00     0.150 C 
HETATM    5  C13 UNL     1      44.163  58.274   5.985  1.00  0.00     0.157 C 
HETATM    6  C18 UNL     1      43.375  57.984   7.212  1.00  0.00     0.045 C 
HETATM    7  C19 UNL     1      42.146  58.868   7.223  1.00  0.00     0.015 C 
ENDROOT
BRANCH   2   8
HETATM    8  O2  UNL     1      44.517  60.205   9.652  1.00  0.00    -0.351 OA
BRANCH   8   9
HETATM    9  C4  UNL     1      45.423  60.210  10.711  1.00  0.00     0.292 C 
HETATM   10  O3  UNL     1      44.731  59.605  11.784  1.00  0.00    -0.351 OA
HETATM   11  C5  UNL     1      45.542  59.663  12.916  1.00  0.00     0.152 C 
HETATM   12  C6  UNL     1      45.143  58.677  13.968  1.00  0.00     0.042 C 
HETATM   13  C7  UNL     1      45.432  61.110  13.416  1.00  0.00     0.180 C 
HETATM   14  C9  UNL     1      46.106  61.965  12.394  1.00  0.00     0.183 C 
HETATM   15  C10 UNL     1      45.813  61.619  10.981  1.00  0.00     0.204 C 
BRANCH  13  16
HETATM   16  O4  UNL     1      44.088  61.418  13.437  1.00  0.00    -0.385 OA
HETATM   17  C8  UNL     1      43.710  62.085  14.602  1.00  0.00     0.202 C 
ENDBRANCH  13  16
BRANCH  14  18
HETATM   18  O5  UNL     1      47.471  61.981  12.686  1.00  0.00    -0.390 OA
ATOM     19  H5  UNL     1      47.931  62.261  11.905  1.00  0.00     0.210 HD
ENDBRANCH  14  18
BRANCH  15  20
HETATM   20  O6  UNL     1      46.987  61.902  10.242  1.00  0.00    -0.388 OA
ATOM     21  H6  UNL     1      47.167  62.832  10.315  1.00  0.00     0.210 HD
ENDBRANCH  15  20
ENDBRANCH   8   9
ENDBRANCH   2   8
BRANCH   1  22
HETATM   22  O1  UNL     1      44.879  56.982   8.727  1.00  0.00    -0.388 OA
HETATM   23  C1  UNL     1      44.721  56.489  10.018  1.00  0.00     0.202 C 
ENDBRANCH   1  22
BRANCH   4  24
HETATM   24  O7  UNL     1      46.391  59.137   5.975  1.00  0.00    -0.393 OA
ATOM     25  H7  UNL     1      46.561  58.897   5.071  1.00  0.00     0.210 HD
ENDBRANCH   4  24
BRANCH   5  26
HETATM   26  O8  UNL     1      43.239  58.498   4.939  1.00  0.00    -0.378 OA
BRANCH  26  27
HETATM   27  C14 UNL     1      43.301  57.533   3.965  1.00  0.00     0.122 C 
HETATM   28  C15 UNL     1      43.580  58.127   2.605  1.00  0.00     0.032 C 
HETATM   29  C16 UNL     1      42.403  57.321   2.075  1.00  0.00     0.005 C 
HETATM   30  C17 UNL     1      41.910  57.159   3.503  1.00  0.00     0.032 C 
ENDBRANCH  26  27
ENDBRANCH   5  26
TORSDOF 9
ENDMDL
MODEL 3
REMARK VINA RESULT: -6.673666696      1.868      7.770
REMARK  9 active torsions:
REMARK  status: ('A' for Active; 'I' for Inactive)
REMARK    1  A    between atoms: O1_2  and  C2_3 
REMARK    2  A    between atoms: C3_4  and  O2_5 
REMARK    3  A    between atoms: O2_5  and  C4_6 
REMARK    4  A    between atoms: C7_10  and  O4_11 
REMARK    5  A    between atoms: C9_13  and  O5_14 
REMARK    6  A    between atoms: C10_16  and  O6_17 
REMARK    7  A    between atoms: C12_20  and  O7_21 
REMARK    8  A    between atoms: C13_23  and  O8_24 
REMARK    9  A    between atoms: O8_24  and  C14_25 
ROOT
HETATM    1  C2  UNL     1      44.083  58.630   3.419  1.00  0.00     0.156 C 
HETATM    2  C3  UNL     1      44.890  57.461   3.895  1.00  0.00     0.156 C 
HETATM    3  C11 UNL     1      46.324  57.479   3.414  1.00  0.00     0.069 C 
HETATM    4  C12 UNL     1      46.438  57.757   1.937  1.00  0.00     0.150 C 
HETATM    5  C13 UNL     1      45.676  58.959   1.497  1.00  0.00     0.157 C 
HETATM    6  C18 UNL     1      44.855  59.595   2.562  1.00  0.00     0.045 C 
HETATM    7  C19 UNL     1      45.752  60.464   3.417  1.00  0.00     0.015 C 
ENDROOT
BRANCH   2   8
HETATM    8  O2  UNL     1      44.982  57.440   5.306  1.00  0.00    -0.351 OA
BRANCH   8   9
HETATM    9  C4  UNL     1      44.118  58.356   5.902  1.00  0.00     0.292 C 
HETATM   10  O3  UNL     1      44.960  59.250   6.601  1.00  0.00    -0.351 OA
HETATM   11  C5  UNL     1      44.160  60.143   7.308  1.00  0.00     0.152 C 
HETATM   12  C6  UNL     1      44.888  61.390   7.701  1.00  0.00     0.042 C 
HETATM   13  C7  UNL     1      43.665  59.359   8.532  1.00  0.00     0.180 C 
HETATM   14  C9  UNL     1      42.737  58.309   8.016  1.00  0.00     0.183 C 
HETATM   15  C10 UNL     1      43.188  57.608   6.789  1.00  0.00     0.204 C 
BRANCH  13  16
HETATM   16  O4  UNL     1      44.772  58.745   9.079  1.00  0.00    -0.385 OA
HETATM   17  C8  UNL     1      44.484  58.093  10.278  1.00  0.00     0.202 C 
ENDBRANCH  13  16
BRANCH  14  18
HETATM   18  O5  UNL     1      41.472  58.885   7.890  1.00  0.00    -0.390 OA
ATOM     19  H5  UNL     1      41.027  58.452   7.171  1.00  0.00     0.210 HD
ENDBRANCH  14  18
BRANCH  15  20
HETATM   20  O6  UNL     1      42.023  57.299   6.047  1.00  0.00    -0.388 OA
ATOM     21  H6  UNL     1      41.296  57.785   6.419  1.00  0.00     0.210 HD
ENDBRANCH  15  20
ENDBRANCH   8   9
ENDBRANCH   2   8
BRANCH   1  22
HETATM   22  O1  UNL     1      42.919  58.263   2.769  1.00  0.00    -0.388 OA
HETATM   23  C1  UNL     1      42.763  56.885   2.684  1.00  0.00     0.202 C 
ENDBRANCH   1  22
BRANCH   4  24
HETATM   24  O7  UNL     1      45.993  56.605   1.250  1.00  0.00    -0.393 OA
ATOM     25  H7  UNL     1      46.648  55.927   1.371  1.00  0.00     0.210 HD
ENDBRANCH   4  24
BRANCH   5  26
HETATM   26  O8  UNL     1      46.623  59.919   1.073  1.00  0.00    -0.378 OA
BRANCH  26  27
HETATM   27  C14 UNL     1      46.415  60.330  -0.220  1.00  0.00     0.122 C 
HETATM   28  C15 UNL     1      47.666  60.920  -0.828  1.00  0.00     0.032 C 
HETATM   29  C16 UNL     1      46.825  62.112  -1.258  1.00  0.00     0.005 C 
HETATM   30  C17 UNL     1      45.773  61.699  -0.243  1.00  0.00     0.032 C 
ENDBRANCH  26  27
ENDBRANCH   5  26
TORSDOF 9
ENDMDL
MODEL 4
REMARK VINA RESULT: -6.631167183      2.494      8.442
REMARK  9 active torsions:
REMARK  status: ('A' for Active; 'I' for Inactive)
REMARK    1  A    between atoms: O1_2  and  C2_3 
REMARK    2  A    between atoms: C3_4  and  O2_5 
REMARK    3  A    between atoms: O2_5  and  C4_6 
REMARK    4  A    between atoms: C7_10  and  O4_11 
REMARK    5  A    between atoms: C9_13  and  O5_14 
REMARK    6  A    between atoms: C10_16  and  O6_17 
REMARK    7  A    between atoms: C12_20  and  O7_21 
REMARK    8  A    between atoms: C13_23  and  O8_24 
REMARK    9  A    between atoms: O8_24  and  C14_25 
ROOT
HETATM    1  C2  UNL     1      45.003  60.148   7.867  1.00  0.00     0.156 C 
HETATM    2  C3  UNL     1      44.459  59.580   9.142  1.00  0.00     0.156 C 
HETATM    3  C11 UNL     1      43.677  58.300   8.949  1.00  0.00     0.069 C 
HETATM    4  C12 UNL     1      42.671  58.396   7.830  1.00  0.00     0.150 C 
HETATM    5  C13 UNL     1      43.249  58.907   6.554  1.00  0.00     0.157 C 
HETATM    6  C18 UNL     1      44.670  59.335   6.647  1.00  0.00     0.045 C 
HETATM    7  C19 UNL     1      45.556  58.110   6.567  1.00  0.00     0.015 C 
ENDROOT
BRANCH   2   8
HETATM    8  O2  UNL     1      45.499  59.236  10.037  1.00  0.00    -0.351 OA
BRANCH   8   9
HETATM    9  C4  UNL     1      45.040  59.102  11.346  1.00  0.00     0.292 C 
HETATM   10  O3  UNL     1      45.064  60.411  11.877  1.00  0.00    -0.351 OA
HETATM   11  C5  UNL     1      44.711  60.344  13.222  1.00  0.00     0.152 C 
HETATM   12  C6  UNL     1      44.254  61.660  13.769  1.00  0.00     0.042 C 
HETATM   13  C7  UNL     1      45.965  59.829  13.943  1.00  0.00     0.180 C 
HETATM   14  C9  UNL     1      46.153  58.413  13.507  1.00  0.00     0.183 C 
HETATM   15  C10 UNL     1      45.943  58.160  12.059  1.00  0.00     0.204 C 
BRANCH  13  16
HETATM   16  O4  UNL     1      47.023  60.583  13.479  1.00  0.00    -0.385 OA
HETATM   17  C8  UNL     1      48.130  60.528  14.326  1.00  0.00     0.202 C 
ENDBRANCH  13  16
BRANCH  14  18
HETATM   18  O5  UNL     1      45.365  57.606  14.328  1.00  0.00    -0.390 OA
ATOM     19  H5  UNL     1      45.914  56.906  14.659  1.00  0.00     0.210 HD
ENDBRANCH  14  18
BRANCH  15  20
HETATM   20  O6  UNL     1      45.400  56.858  11.950  1.00  0.00    -0.388 OA
ATOM     21  H6  UNL     1      44.468  56.939  11.778  1.00  0.00     0.210 HD
ENDBRANCH  15  20
ENDBRANCH   8   9
ENDBRANCH   2   8
BRANCH   1  22
HETATM   22  O1  UNL     1      44.640  61.466   7.657  1.00  0.00    -0.388 OA
HETATM   23  C1  UNL     1      45.279  62.344   8.526  1.00  0.00     0.202 C 
ENDBRANCH   1  22
BRANCH   4  24
HETATM   24  O7  UNL     1      41.619  59.230   8.271  1.00  0.00    -0.393 OA
ATOM     25  H7  UNL     1      41.764  60.094   7.903  1.00  0.00     0.210 HD
ENDBRANCH   4  24
BRANCH   5  26
HETATM   26  O8  UNL     1      43.192  57.848   5.620  1.00  0.00    -0.378 OA
BRANCH  26  27
HETATM   27  C14 UNL     1      42.640  58.230   4.423  1.00  0.00     0.122 C 
HETATM   28  C15 UNL     1      41.955  57.076   3.729  1.00  0.00     0.032 C 
HETATM   29  C16 UNL     1      42.727  57.450   2.472  1.00  0.00     0.005 C 
HETATM   30  C17 UNL     1      43.692  58.244   3.335  1.00  0.00     0.032 C 
ENDBRANCH  26  27
ENDBRANCH   5  26
TORSDOF 9
ENDMDL
MODEL 5
REMARK VINA RESULT: -6.627546773      1.201      1.443
REMARK  9 active torsions:
REMARK  status: ('A' for Active; 'I' for Inactive)
REMARK    1  A    between atoms: O1_2  and  C2_3 
REMARK    2  A    between atoms: C3_4  and  O2_5 
REMARK    3  A    between atoms: O2_5  and  C4_6 
REMARK    4  A    between atoms: C7_10  and  O4_11 
REMARK    5  A    between atoms: C9_13  and  O5_14 
REMARK    6  A    between atoms: C10_16  and  O6_17 
REMARK    7  A    between atoms: C12_20  and  O7_21 
REMARK    8  A    between atoms: C13_23  and  O8_24 
REMARK    9  A    between atoms: O8_24  and  C14_25 
ROOT
HETATM    1  C2  UNL     1      46.256  59.455   7.526  1.00  0.00     0.156 C 
HETATM    2  C3  UNL     1      45.155  58.516   7.138  1.00  0.00     0.156 C 
HETATM    3  C11 UNL     1      43.963  58.563   8.068  1.00  0.00     0.069 C 
HETATM    4  C12 UNL     1      44.357  58.496   9.522  1.00  0.00     0.150 C 
HETATM    5  C13 UNL     1      45.412  59.480   9.898  1.00  0.00     0.157 C 
HETATM    6  C18 UNL     1      45.961  60.263   8.760  1.00  0.00     0.045 C 
HETATM    7  C19 UNL     1      45.008  61.394   8.439  1.00  0.00     0.015 C 
ENDROOT
BRANCH   2   8
HETATM    8  O2  UNL     1      44.631  58.836   5.864  1.00  0.00    -0.351 OA
BRANCH   8   9
HETATM    9  C4  UNL     1      44.478  57.708   5.061  1.00  0.00     0.292 C 
HETATM   10  O3  UNL     1      45.683  57.615   4.330  1.00  0.00    -0.351 OA
HETATM   11  C5  UNL     1      45.567  56.561   3.427  1.00  0.00     0.152 C 
HETATM   12  C6  UNL     1      46.893  56.068   2.936  1.00  0.00     0.042 C 
HETATM   13  C7  UNL     1      44.698  57.103   2.284  1.00  0.00     0.180 C 
HETATM   14  C9  UNL     1      43.330  57.301   2.848  1.00  0.00     0.183 C 
HETATM   15  C10 UNL     1      43.282  57.908   4.201  1.00  0.00     0.204 C 
BRANCH  13  16
HETATM   16  O4  UNL     1      45.221  58.333   1.942  1.00  0.00    -0.385 OA
HETATM   17  C8  UNL     1      45.763  58.345   0.657  1.00  0.00     0.202 C 
ENDBRANCH  13  16
BRANCH  14  18
HETATM   18  O5  UNL     1      42.656  56.082   2.765  1.00  0.00    -0.390 OA
ATOM     19  H5  UNL     1      41.753  56.266   2.536  1.00  0.00     0.210 HD
ENDBRANCH  14  18
BRANCH  15  20
HETATM   20  O6  UNL     1      42.164  57.342   4.860  1.00  0.00    -0.388 OA
ATOM     21  H6  UNL     1      41.899  57.933   5.556  1.00  0.00     0.210 HD
ENDBRANCH  15  20
ENDBRANCH   8   9
ENDBRANCH   2   8
BRANCH   1  22
HETATM   22  O1  UNL     1      47.483  58.832   7.664  1.00  0.00    -0.388 OA
HETATM   23  C1  UNL     1      48.229  58.850   6.491  1.00  0.00     0.202 C 
ENDBRANCH   1  22
BRANCH   4  24
HETATM   24  O7  UNL     1      44.788  57.176   9.787  1.00  0.00    -0.393 OA
ATOM     25  H7  UNL     1      44.139  56.769  10.348  1.00  0.00     0.210 HD
ENDBRANCH   4  24
BRANCH   5  26
HETATM   26  O8  UNL     1      44.819  60.402  10.790  1.00  0.00    -0.378 OA
BRANCH  26  27
HETATM   27  C14 UNL     1      45.340  60.319  12.058  1.00  0.00     0.122 C 
HETATM   28  C15 UNL     1      44.393  59.626  13.008  1.00  0.00     0.032 C 
HETATM   29  C16 UNL     1      44.593  60.791  13.965  1.00  0.00     0.005 C 
HETATM   30  C17 UNL     1      45.121  61.616  12.805  1.00  0.00     0.032 C 
ENDBRANCH  26  27
ENDBRANCH   5  26
TORSDOF 9
ENDMDL
