MODEL 1
REMARK VINA RESULT: -7.320664801      0.000      0.000
REMARK  7 active torsions:
REMARK  status: ('A' for Active; 'I' for Inactive)
REMARK    1  A    between atoms: O1_2  and  C2_3 
REMARK    2  A    between atoms: C2_3  and  C3_4 
REMARK    3  A    between atoms: C2_3  and  C8_11 
REMARK    4  A    between atoms: C8_11  and  N1_12 
REMARK    5  A    between atoms: C8_11  and  N5_26 
REMARK       I    between atoms: N1_12  and  C9_14 
REMARK    6  A    between atoms: C9_14  and  C10_16 
REMARK    7  A    between atoms: C11_22  and  C12_23 
ROOT
HETATM    1  C8  UNL     1      47.564  58.149   3.834  1.00  0.00     0.093 C 
ENDROOT
BRANCH   1   2
HETATM    2  C2  UNL     1      47.071  59.298   4.610  1.00  0.00     0.213 C 
BRANCH   2   3
HETATM    3  O1  UNL     1      47.339  60.530   4.112  1.00  0.00    -0.381 OA
HETATM    4  C1  UNL     1      48.426  60.746   3.336  1.00  0.00     0.202 C 
ENDBRANCH   2   3
BRANCH   2   5
HETATM    5  C3  UNL     1      45.527  59.283   4.762  1.00  0.00     0.184 C 
HETATM    6  C4  UNL     1      45.079  60.376   5.738  1.00  0.00     0.206 C 
HETATM    7  O2  UNL     1      44.034  59.779   6.364  1.00  0.00    -0.353 OA
HETATM    8  C5  UNL     1      44.004  58.436   6.113  1.00  0.00     0.157 C 
HETATM    9  C6  UNL     1      43.809  57.731   7.437  1.00  0.00     0.078 C 
HETATM   10  C7  UNL     1      42.861  58.018   5.176  1.00  0.00     0.078 C 
HETATM   11  O3  UNL     1      45.195  58.141   5.488  1.00  0.00    -0.345 OA
ENDBRANCH   2   5
ENDBRANCH   1   2
BRANCH   1  12
HETATM   12  N1  UNL     1      46.559  57.609   2.934  1.00  0.00    -0.313 N 
HETATM   13  C9  UNL     1      46.877  57.442   1.523  1.00  0.00     0.276 C 
HETATM   14  O4  UNL     1      48.085  57.803   1.216  1.00  0.00    -0.266 OA
ATOM     15  H1  UNL     1      45.638  57.350   3.288  1.00  0.00     0.170 HD
BRANCH  13  16
HETATM   16  C10 UNL     1      45.974  56.958   0.535  1.00  0.00     0.138 C 
HETATM   17  N2  UNL     1      46.362  57.033  -0.839  1.00  0.00    -0.277 N 
HETATM   18  N3  UNL     1      45.242  56.610  -1.498  1.00  0.00    -0.022 NA
ATOM     19  H2  UNL     1      47.256  57.329  -1.231  1.00  0.00     0.184 HD
HETATM   20  N4  UNL     1      44.131  56.831  -0.632  1.00  0.00    -0.285 N 
HETATM   21  C11 UNL     1      44.542  57.035   0.595  1.00  0.00     0.061 C 
ATOM     22  H4  UNL     1      43.154  56.830  -0.927  1.00  0.00     0.184 HD
BRANCH  21  23
HETATM   23  C12 UNL     1      43.666  57.157   1.795  1.00  0.00     0.039 A 
HETATM   24  C13 UNL     1      42.171  56.933   1.561  1.00  0.00     0.011 A 
HETATM   25  C14 UNL     1      42.914  55.896   2.257  1.00  0.00     0.011 A 
ENDBRANCH  21  23
ENDBRANCH  13  16
ENDBRANCH   1  12
BRANCH   1  26
HETATM   26  N5  UNL     1      48.380  57.173   4.410  1.00  0.00    -0.267 NA
HETATM   27  C15 UNL     1      49.253  57.702   5.459  1.00  0.00     0.123 C 
HETATM   28  C16 UNL     1      50.352  56.640   5.629  1.00  0.00     0.182 C 
HETATM   29  O5  UNL     1      49.758  55.583   6.254  1.00  0.00    -0.389 OA
HETATM   30  C17 UNL     1      48.781  55.002   5.499  1.00  0.00     0.182 C 
HETATM   31  C18 UNL     1      47.836  55.916   4.790  1.00  0.00     0.123 C 
ENDBRANCH   1  26
TORSDOF 7
ENDMDL
MODEL 2
REMARK VINA RESULT: -7.060712034      2.426      5.469
REMARK  7 active torsions:
REMARK  status: ('A' for Active; 'I' for Inactive)
REMARK    1  A    between atoms: O1_2  and  C2_3 
REMARK    2  A    between atoms: C2_3  and  C3_4 
REMARK    3  A    between atoms: C2_3  and  C8_11 
REMARK    4  A    between atoms: C8_11  and  N1_12 
REMARK    5  A    between atoms: C8_11  and  N5_26 
REMARK       I    between atoms: N1_12  and  C9_14 
REMARK    6  A    between atoms: C9_14  and  C10_16 
REMARK    7  A    between atoms: C11_22  and  C12_23 
ROOT
HETATM    1  C8  UNL     1      46.953  58.437   1.367  1.00  0.00     0.093 C 
ENDROOT
BRANCH   1   2
HETATM    2  C2  UNL     1      48.236  58.289   2.073  1.00  0.00     0.213 C 
BRANCH   2   3
HETATM    3  O1  UNL     1      48.827  59.429   2.507  1.00  0.00    -0.381 OA
HETATM    4  C1  UNL     1      49.819  60.013   1.795  1.00  0.00     0.202 C 
ENDBRANCH   2   3
BRANCH   2   5
HETATM    5  C3  UNL     1      48.104  57.425   3.355  1.00  0.00     0.184 C 
HETATM    6  C4  UNL     1      48.185  58.309   4.603  1.00  0.00     0.206 C 
HETATM    7  O2  UNL     1      48.851  57.506   5.470  1.00  0.00    -0.353 OA
HETATM    8  C5  UNL     1      49.413  56.438   4.829  1.00  0.00     0.157 C 
HETATM    9  C6  UNL     1      50.846  56.327   5.302  1.00  0.00     0.078 C 
HETATM   10  C7  UNL     1      48.706  55.108   5.129  1.00  0.00     0.078 C 
HETATM   11  O3  UNL     1      49.283  56.693   3.482  1.00  0.00    -0.345 OA
ENDBRANCH   2   5
ENDBRANCH   1   2
BRANCH   1  12
HETATM   12  N1  UNL     1      45.896  57.631   1.954  1.00  0.00    -0.313 N 
HETATM   13  C9  UNL     1      44.729  58.289   2.527  1.00  0.00     0.276 C 
HETATM   14  O4  UNL     1      44.765  59.582   2.435  1.00  0.00    -0.266 OA
ATOM     15  H1  UNL     1      45.970  56.614   1.965  1.00  0.00     0.170 HD
BRANCH  13  16
HETATM   16  C10 UNL     1      43.646  57.619   3.160  1.00  0.00     0.138 C 
HETATM   17  N2  UNL     1      42.670  56.973   2.339  1.00  0.00    -0.277 N 
HETATM   18  N3  UNL     1      41.736  56.551   3.243  1.00  0.00    -0.022 NA
ATOM     19  H2  UNL     1      42.670  56.855   1.325  1.00  0.00     0.184 HD
HETATM   20  N4  UNL     1      41.860  57.379   4.399  1.00  0.00    -0.285 N 
HETATM   21  C11 UNL     1      43.000  58.024   4.377  1.00  0.00     0.061 C 
ATOM     22  H4  UNL     1      41.161  57.456   5.137  1.00  0.00     0.184 HD
BRANCH  21  23
HETATM   23  C12 UNL     1      43.542  58.866   5.480  1.00  0.00     0.039 A 
HETATM   24  C13 UNL     1      42.763  58.832   6.796  1.00  0.00     0.011 A 
HETATM   25  C14 UNL     1      44.042  58.146   6.746  1.00  0.00     0.011 A 
ENDBRANCH  21  23
ENDBRANCH  13  16
ENDBRANCH   1  12
BRANCH   1  26
HETATM   26  N5  UNL     1      46.890  58.512  -0.026  1.00  0.00    -0.267 NA
HETATM   27  C15 UNL     1      46.046  57.474  -0.620  1.00  0.00     0.123 C 
HETATM   28  C16 UNL     1      46.462  57.426  -2.099  1.00  0.00     0.182 C 
HETATM   29  O5  UNL     1      45.962  58.562  -2.665  1.00  0.00    -0.389 OA
HETATM   30  C17 UNL     1      46.516  59.698  -2.151  1.00  0.00     0.182 C 
HETATM   31  C18 UNL     1      46.680  59.764  -0.668  1.00  0.00     0.123 C 
ENDBRANCH   1  26
TORSDOF 7
ENDMDL
MODEL 3
REMARK VINA RESULT: -7.022426096      3.397      7.333
REMARK  7 active torsions:
REMARK  status: ('A' for Active; 'I' for Inactive)
REMARK    1  A    between atoms: O1_2  and  C2_3 
REMARK    2  A    between atoms: C2_3  and  C3_4 
REMARK    3  A    between atoms: C2_3  and  C8_11 
REMARK    4  A    between atoms: C8_11  and  N1_12 
REMARK    5  A    between atoms: C8_11  and  N5_26 
REMARK       I    between atoms: N1_12  and  C9_14 
REMARK    6  A    between atoms: C9_14  and  C10_16 
REMARK    7  A    between atoms: C11_22  and  C12_23 
ROOT
HETATM    1  C8  UNL     1      45.187  58.350   5.594  1.00  0.00     0.093 C 
ENDROOT
BRANCH   1   2
HETATM    2  C2  UNL     1      46.432  59.073   5.286  1.00  0.00     0.213 C 
BRANCH   2   3
HETATM    3  O1  UNL     1      46.643  60.234   5.952  1.00  0.00    -0.381 OA
HETATM    4  C1  UNL     1      45.714  61.218   5.949  1.00  0.00     0.202 C 
ENDBRANCH   2   3
BRANCH   2   5
HETATM    5  C3  UNL     1      47.694  58.226   5.600  1.00  0.00     0.184 C 
HETATM    6  C4  UNL     1      48.955  59.086   5.471  1.00  0.00     0.206 C 
HETATM    7  O2  UNL     1      49.847  58.199   4.965  1.00  0.00    -0.353 OA
HETATM    8  C5  UNL     1      49.224  57.070   4.512  1.00  0.00     0.157 C 
HETATM    9  C6  UNL     1      49.771  56.769   3.135  1.00  0.00     0.078 C 
HETATM   10  C7  UNL     1      49.470  55.841   5.402  1.00  0.00     0.078 C 
HETATM   11  O3  UNL     1      47.876  57.346   4.534  1.00  0.00    -0.345 OA
ENDBRANCH   2   5
ENDBRANCH   1   2
BRANCH   1  12
HETATM   12  N1  UNL     1      45.349  57.395   6.677  1.00  0.00    -0.313 N 
HETATM   13  C9  UNL     1      44.791  57.698   7.988  1.00  0.00     0.276 C 
HETATM   14  O4  UNL     1      44.175  58.839   8.040  1.00  0.00    -0.266 OA
ATOM     15  H1  UNL     1      45.849  56.520   6.520  1.00  0.00     0.170 HD
BRANCH  13  16
HETATM   16  C10 UNL     1      44.910  56.865   9.136  1.00  0.00     0.138 C 
HETATM   17  N2  UNL     1      44.637  55.469   8.996  1.00  0.00    -0.277 N 
HETATM   18  N3  UNL     1      44.724  55.008  10.280  1.00  0.00    -0.022 NA
ATOM     19  H2  UNL     1      44.429  54.944   8.146  1.00  0.00     0.184 HD
HETATM   20  N4  UNL     1      44.487  56.117  11.146  1.00  0.00    -0.285 N 
HETATM   21  C11 UNL     1      44.600  57.243  10.486  1.00  0.00     0.061 C 
ATOM     22  H4  UNL     1      44.262  56.043  12.138  1.00  0.00     0.184 HD
BRANCH  21  23
HETATM   23  C12 UNL     1      44.565  58.607  11.085  1.00  0.00     0.039 A 
HETATM   24  C13 UNL     1      44.977  58.706  12.555  1.00  0.00     0.011 A 
HETATM   25  C14 UNL     1      45.900  59.213  11.554  1.00  0.00     0.011 A 
ENDBRANCH  21  23
ENDBRANCH  13  16
ENDBRANCH   1  12
BRANCH   1  26
HETATM   26  N5  UNL     1      44.327  57.911   4.585  1.00  0.00    -0.267 NA
HETATM   27  C15 UNL     1      42.929  58.271   4.826  1.00  0.00     0.123 C 
HETATM   28  C16 UNL     1      42.120  57.340   3.909  1.00  0.00     0.182 C 
HETATM   29  O5  UNL     1      42.320  57.798   2.640  1.00  0.00    -0.389 OA
HETATM   30  C17 UNL     1      43.620  57.692   2.238  1.00  0.00     0.182 C 
HETATM   31  C18 UNL     1      44.671  58.099   3.219  1.00  0.00     0.123 C 
ENDBRANCH   1  26
TORSDOF 7
ENDMDL
MODEL 4
REMARK VINA RESULT: -6.967200492      2.682      3.964
REMARK  7 active torsions:
REMARK  status: ('A' for Active; 'I' for Inactive)
REMARK    1  A    between atoms: O1_2  and  C2_3 
REMARK    2  A    between atoms: C2_3  and  C3_4 
REMARK    3  A    between atoms: C2_3  and  C8_11 
REMARK    4  A    between atoms: C8_11  and  N1_12 
REMARK    5  A    between atoms: C8_11  and  N5_26 
REMARK       I    between atoms: N1_12  and  C9_14 
REMARK    6  A    between atoms: C9_14  and  C10_16 
REMARK    7  A    between atoms: C11_22  and  C12_23 
ROOT
HETATM    1  C8  UNL     1      47.682  58.212   5.387  1.00  0.00     0.093 C 
ENDROOT
BRANCH   1   2
HETATM    2  C2  UNL     1      47.934  59.528   5.996  1.00  0.00     0.213 C 
BRANCH   2   3
HETATM    3  O1  UNL     1      47.724  60.613   5.210  1.00  0.00    -0.381 OA
HETATM    4  C1  UNL     1      48.389  60.765   4.041  1.00  0.00     0.202 C 
ENDBRANCH   2   3
BRANCH   2   5
HETATM    5  C3  UNL     1      47.035  59.784   7.234  1.00  0.00     0.184 C 
HETATM    6  C4  UNL     1      47.096  61.259   7.640  1.00  0.00     0.206 C 
HETATM    7  O2  UNL     1      47.026  61.180   8.992  1.00  0.00    -0.353 OA
HETATM    8  C5  UNL     1      47.231  59.901   9.427  1.00  0.00     0.157 C 
HETATM    9  C6  UNL     1      48.235  59.960  10.558  1.00  0.00     0.078 C 
HETATM   10  C7  UNL     1      45.956  59.226   9.956  1.00  0.00     0.078 C 
HETATM   11  O3  UNL     1      47.663  59.192   8.329  1.00  0.00    -0.345 OA
ENDBRANCH   2   5
ENDBRANCH   1   2
BRANCH   1  12
HETATM   12  N1  UNL     1      46.303  57.780   5.539  1.00  0.00    -0.313 N 
HETATM   13  C9  UNL     1      45.397  57.865   4.402  1.00  0.00     0.276 C 
HETATM   14  O4  UNL     1      45.955  58.330   3.327  1.00  0.00    -0.266 OA
ATOM     15  H1  UNL     1      45.973  57.422   6.435  1.00  0.00     0.170 HD
BRANCH  13  16
HETATM   16  C10 UNL     1      44.020  57.508   4.429  1.00  0.00     0.138 C 
HETATM   17  N2  UNL     1      43.433  56.968   3.243  1.00  0.00    -0.277 N 
HETATM   18  N3  UNL     1      42.111  56.858   3.576  1.00  0.00    -0.022 NA
ATOM     19  H2  UNL     1      43.887  56.724   2.363  1.00  0.00     0.184 HD
HETATM   20  N4  UNL     1      41.861  57.784   4.632  1.00  0.00    -0.285 N 
HETATM   21  C11 UNL     1      42.989  58.184   5.165  1.00  0.00     0.061 C 
ATOM     22  H4  UNL     1      40.935  58.092   4.929  1.00  0.00     0.184 HD
BRANCH  21  23
HETATM   23  C12 UNL     1      43.121  59.036   6.380  1.00  0.00     0.039 A 
HETATM   24  C13 UNL     1      42.052  58.841   7.457  1.00  0.00     0.011 A 
HETATM   25  C14 UNL     1      43.385  58.327   7.721  1.00  0.00     0.011 A 
ENDBRANCH  21  23
ENDBRANCH  13  16
ENDBRANCH   1  12
BRANCH   1  26
HETATM   26  N5  UNL     1      48.608  57.171   5.488  1.00  0.00    -0.267 NA
HETATM   27  C15 UNL     1      48.229  55.990   4.711  1.00  0.00     0.123 C 
HETATM   28  C16 UNL     1      49.074  54.846   5.296  1.00  0.00     0.182 C 
HETATM   29  O5  UNL     1      50.351  55.071   4.874  1.00  0.00    -0.389 OA
HETATM   30  C17 UNL     1      50.878  56.227   5.373  1.00  0.00     0.182 C 
HETATM   31  C18 UNL     1      49.999  57.435   5.363  1.00  0.00     0.123 C 
ENDBRANCH   1  26
TORSDOF 7
ENDMDL
MODEL 5
REMARK VINA RESULT: -6.958201779      2.481      5.263
REMARK  7 active torsions:
REMARK  status: ('A' for Active; 'I' for Inactive)
REMARK    1  A    between atoms: O1_2  and  C2_3 
REMARK    2  A    between atoms: C2_3  and  C3_4 
REMARK    3  A    between atoms: C2_3  and  C8_11 
REMARK    4  A    between atoms: C8_11  and  N1_12 
REMARK    5  A    between atoms: C8_11  and  N5_26 
REMARK       I    between atoms: N1_12  and  C9_14 
REMARK    6  A    between atoms: C9_14  and  C10_16 
REMARK    7  A    between atoms: C11_22  and  C12_23 
ROOT
HETATM    1  C8  UNL     1      47.431  60.014   2.842  1.00  0.00     0.093 C 
ENDROOT
BRANCH   1   2
HETATM    2  C2  UNL     1      48.510  59.717   3.797  1.00  0.00     0.213 C 
BRANCH   2   3
HETATM    3  O1  UNL     1      48.636  60.555   4.854  1.00  0.00    -0.381 OA
HETATM    4  C1  UNL     1      48.450  61.888   4.712  1.00  0.00     0.202 C 
ENDBRANCH   2   3
BRANCH   2   5
HETATM    5  C3  UNL     1      48.350  58.317   4.446  1.00  0.00     0.184 C 
HETATM    6  C4  UNL     1      48.456  58.422   5.970  1.00  0.00     0.206 C 
HETATM    7  O2  UNL     1      49.096  57.269   6.286  1.00  0.00    -0.353 OA
HETATM    8  C5  UNL     1      49.626  56.674   5.176  1.00  0.00     0.157 C 
HETATM    9  C6  UNL     1      51.054  56.295   5.502  1.00  0.00     0.078 C 
HETATM   10  C7  UNL     1      48.879  55.400   4.753  1.00  0.00     0.078 C 
HETATM   11  O3  UNL     1      49.506  57.594   4.159  1.00  0.00    -0.345 OA
ENDBRANCH   2   5
ENDBRANCH   1   2
BRANCH   1  12
HETATM   12  N1  UNL     1      46.367  59.025   2.875  1.00  0.00    -0.313 N 
HETATM   13  C9  UNL     1      45.114  59.343   3.546  1.00  0.00     0.276 C 
HETATM   14  O4  UNL     1      45.086  60.536   4.055  1.00  0.00    -0.266 OA
ATOM     15  H1  UNL     1      46.497  58.115   2.432  1.00  0.00     0.170 HD
BRANCH  13  16
HETATM   16  C10 UNL     1      44.011  58.453   3.678  1.00  0.00     0.138 C 
HETATM   17  N2  UNL     1      43.079  58.359   2.598  1.00  0.00    -0.277 N 
HETATM   18  N3  UNL     1      42.112  57.532   3.099  1.00  0.00    -0.022 NA
ATOM     19  H2  UNL     1      43.124  58.800   1.680  1.00  0.00     0.184 HD
HETATM   20  N4  UNL     1      42.178  57.614   4.521  1.00  0.00    -0.285 N 
HETATM   21  C11 UNL     1      43.311  58.155   4.895  1.00  0.00     0.061 C 
ATOM     22  H4  UNL     1      41.447  57.295   5.157  1.00  0.00     0.184 HD
BRANCH  21  23
HETATM   23  C12 UNL     1      43.796  58.272   6.299  1.00  0.00     0.039 A 
HETATM   24  C13 UNL     1      43.596  59.633   6.968  1.00  0.00     0.011 A 
HETATM   25  C14 UNL     1      42.747  58.534   7.395  1.00  0.00     0.011 A 
ENDBRANCH  21  23
ENDBRANCH  13  16
ENDBRANCH   1  12
BRANCH   1  26
HETATM   26  N5  UNL     1      47.701  60.502   1.561  1.00  0.00    -0.267 NA
HETATM   27  C15 UNL     1      49.115  60.405   1.197  1.00  0.00     0.123 C 
HETATM   28  C16 UNL     1      49.285  61.375   0.016  1.00  0.00     0.182 C 
HETATM   29  O5  UNL     1      48.672  60.780  -1.048  1.00  0.00    -0.389 OA
HETATM   30  C17 UNL     1      47.327  60.630  -0.869  1.00  0.00     0.182 C 
HETATM   31  C18 UNL     1      46.870  60.140   0.466  1.00  0.00     0.123 C 
ENDBRANCH   1  26
TORSDOF 7
ENDMDL
