MODEL 1
REMARK VINA RESULT: -6.464287888      0.000      0.000
REMARK  9 active torsions:
REMARK  status: ('A' for Active; 'I' for Inactive)
REMARK    1  A    between atoms: C2_2  and  O1_3 
REMARK    2  A    between atoms: O1_3  and  C3_4 
REMARK    3  A    between atoms: C3_4  and  C4_5 
REMARK    4  A    between atoms: C6_7  and  O2_8 
REMARK    5  A    between atoms: C9_13  and  O4_14 
REMARK    6  A    between atoms: O4_14  and  C10_15 
REMARK    7  A    between atoms: C16_22  and  O5_23 
REMARK    8  A    between atoms: C18_25  and  O6_26 
REMARK    9  A    between atoms: C19_28  and  O7_29 
ROOT
HETATM    1  C4  UNL     1      47.987  56.745   4.339  1.00  0.00     0.005 A 
HETATM    2  C5  UNL     1      47.237  56.028   3.210  1.00  0.00     0.060 A 
HETATM    3  C6  UNL     1      47.499  56.549   1.879  1.00  0.00     0.262 C 
HETATM    4  O3  UNL     1      48.204  57.703   1.727  1.00  0.00    -0.361 OA
HETATM    5  C7  UNL     1      49.247  57.906   2.577  1.00  0.00     0.179 C 
HETATM    6  C8  UNL     1      48.646  57.996   3.989  1.00  0.00     0.060 C 
HETATM    7  C9  UNL     1      48.018  59.315   4.227  1.00  0.00     0.122 C 
HETATM    8  C12 UNL     1      46.840  59.663   3.324  1.00  0.00     0.314 C 
HETATM    9  N1  UNL     1      45.853  58.713   3.317  1.00  0.00     0.104 N 
HETATM   10  C13 UNL     1      44.486  58.928   3.224  1.00  0.00     0.276 C 
HETATM   11  C14 UNL     1      44.307  57.513   3.801  1.00  0.00     0.075 C 
HETATM   12  C15 UNL     1      45.702  57.828   4.375  1.00  0.00     0.194 C 
HETATM   13  C16 UNL     1      45.519  58.362   5.742  1.00  0.00     0.191 C 
HETATM   14  C18 UNL     1      46.327  59.547   6.120  1.00  0.00     0.181 C 
HETATM   15  C19 UNL     1      47.737  59.584   5.670  1.00  0.00     0.186 C 
HETATM   16  C20 UNL     1      46.558  56.603   4.341  1.00  0.00     0.048 A 
ENDROOT
BRANCH   1  17
HETATM   17  C3  UNL     1      48.837  55.711   5.110  1.00  0.00     0.178 C 
BRANCH  17  18
HETATM   18  O1  UNL     1      49.661  56.348   6.018  1.00  0.00    -0.391 OA
BRANCH  18  19
HETATM   19  C2  UNL     1      51.001  56.287   5.644  1.00  0.00     0.163 C 
HETATM   20  C1  UNL     1      51.136  55.300   4.508  1.00  0.00     0.033 C 
ENDBRANCH  18  19
ENDBRANCH  17  18
ENDBRANCH   1  17
BRANCH   3  21
HETATM   21  O2  UNL     1      46.352  56.680   1.055  1.00  0.00    -0.371 OA
ATOM     22  H2  UNL     1      45.739  55.955   1.107  1.00  0.00     0.212 HD
ENDBRANCH   3  21
BRANCH   7  23
HETATM   23  O4  UNL     1      48.938  60.286   3.834  1.00  0.00    -0.376 OA
BRANCH  23  24
HETATM   24  C10 UNL     1      48.914  61.495   4.397  1.00  0.00     0.164 C 
HETATM   25  C11 UNL     1      50.388  61.964   4.444  1.00  0.00     0.033 C 
ENDBRANCH  23  24
ENDBRANCH   7  23
BRANCH  15  26
HETATM   26  O7  UNL     1      48.440  58.708   6.518  1.00  0.00    -0.390 OA
ATOM     27  H7  UNL     1      48.071  58.687   7.393  1.00  0.00     0.210 HD
ENDBRANCH  15  26
BRANCH  13  28
HETATM   28  O5  UNL     1      45.804  57.336   6.649  1.00  0.00    -0.385 OA
HETATM   29  C17 UNL     1      44.909  57.268   7.691  1.00  0.00     0.202 C 
ENDBRANCH  13  28
BRANCH  14  30
HETATM   30  O6  UNL     1      45.638  60.769   5.915  1.00  0.00    -0.390 OA
ATOM     31  H6  UNL     1      46.199  61.454   5.572  1.00  0.00     0.210 HD
ENDBRANCH  14  30
TORSDOF 9
ENDMDL
MODEL 2
REMARK VINA RESULT: -6.353557711      1.839      4.488
REMARK  9 active torsions:
REMARK  status: ('A' for Active; 'I' for Inactive)
REMARK    1  A    between atoms: C2_2  and  O1_3 
REMARK    2  A    between atoms: O1_3  and  C3_4 
REMARK    3  A    between atoms: C3_4  and  C4_5 
REMARK    4  A    between atoms: C6_7  and  O2_8 
REMARK    5  A    between atoms: C9_13  and  O4_14 
REMARK    6  A    between atoms: O4_14  and  C10_15 
REMARK    7  A    between atoms: C16_22  and  O5_23 
REMARK    8  A    between atoms: C18_25  and  O6_26 
REMARK    9  A    between atoms: C19_28  and  O7_29 
ROOT
HETATM    1  C4  UNL     1      45.362  58.479   2.642  1.00  0.00     0.005 A 
HETATM    2  C5  UNL     1      45.739  59.649   1.726  1.00  0.00     0.060 A 
HETATM    3  C6  UNL     1      46.933  59.435   0.924  1.00  0.00     0.262 C 
HETATM    4  O3  UNL     1      47.720  58.349   1.156  1.00  0.00    -0.361 OA
HETATM    5  C7  UNL     1      47.090  57.185   1.468  1.00  0.00     0.179 C 
HETATM    6  C8  UNL     1      46.360  57.429   2.799  1.00  0.00     0.060 C 
HETATM    7  C9  UNL     1      47.295  57.391   3.945  1.00  0.00     0.122 C 
HETATM    8  C12 UNL     1      48.387  58.453   3.947  1.00  0.00     0.314 C 
HETATM    9  N1  UNL     1      47.912  59.732   3.825  1.00  0.00     0.104 N 
HETATM   10  C13 UNL     1      48.418  60.874   4.427  1.00  0.00     0.276 C 
HETATM   11  C14 UNL     1      47.052  61.525   4.154  1.00  0.00     0.075 C 
HETATM   12  C15 UNL     1      46.609  60.050   4.182  1.00  0.00     0.194 C 
HETATM   13  C16 UNL     1      46.142  59.744   5.551  1.00  0.00     0.191 C 
HETATM   14  C18 UNL     1      46.583  58.459   6.147  1.00  0.00     0.181 C 
HETATM   15  C19 UNL     1      46.605  57.269   5.266  1.00  0.00     0.186 C 
HETATM   16  C20 UNL     1      45.560  59.810   3.145  1.00  0.00     0.048 A 
ENDROOT
BRANCH   1  17
HETATM   17  C3  UNL     1      43.926  58.020   2.302  1.00  0.00     0.178 C 
BRANCH  17  18
HETATM   18  O1  UNL     1      43.084  58.246   3.374  1.00  0.00    -0.391 OA
BRANCH  18  19
HETATM   19  C2  UNL     1      42.082  57.283   3.466  1.00  0.00     0.163 C 
HETATM   20  C1  UNL     1      41.930  56.620   2.117  1.00  0.00     0.033 C 
ENDBRANCH  18  19
ENDBRANCH  17  18
ENDBRANCH   1  17
BRANCH   3  21
HETATM   21  O2  UNL     1      47.809  60.547   0.854  1.00  0.00    -0.371 OA
ATOM     22  H2  UNL     1      47.406  61.385   1.048  1.00  0.00     0.212 HD
ENDBRANCH   3  21
BRANCH   7  23
HETATM   23  O4  UNL     1      48.061  56.234   3.812  1.00  0.00    -0.376 OA
BRANCH  23  24
HETATM   24  C10 UNL     1      48.427  55.548   4.896  1.00  0.00     0.164 C 
HETATM   25  C11 UNL     1      49.975  55.527   4.874  1.00  0.00     0.033 C 
ENDBRANCH  23  24
ENDBRANCH   7  23
BRANCH  15  26
HETATM   26  O7  UNL     1      45.266  56.862   5.128  1.00  0.00    -0.390 OA
ATOM     27  H7  UNL     1      45.194  55.995   4.746  1.00  0.00     0.210 HD
ENDBRANCH  15  26
BRANCH  13  28
HETATM   28  O5  UNL     1      44.743  59.760   5.544  1.00  0.00    -0.385 OA
HETATM   29  C17 UNL     1      44.194  59.826   6.804  1.00  0.00     0.202 C 
ENDBRANCH  13  28
BRANCH  14  30
HETATM   30  O6  UNL     1      47.750  58.595   6.940  1.00  0.00    -0.390 OA
ATOM     31  H6  UNL     1      48.286  57.809   6.944  1.00  0.00     0.210 HD
ENDBRANCH  14  30
TORSDOF 9
ENDMDL
MODEL 3
REMARK VINA RESULT: -6.345470299      1.903      5.007
REMARK  9 active torsions:
REMARK  status: ('A' for Active; 'I' for Inactive)
REMARK    1  A    between atoms: C2_2  and  O1_3 
REMARK    2  A    between atoms: O1_3  and  C3_4 
REMARK    3  A    between atoms: C3_4  and  C4_5 
REMARK    4  A    between atoms: C6_7  and  O2_8 
REMARK    5  A    between atoms: C9_13  and  O4_14 
REMARK    6  A    between atoms: O4_14  and  C10_15 
REMARK    7  A    between atoms: C16_22  and  O5_23 
REMARK    8  A    between atoms: C18_25  and  O6_26 
REMARK    9  A    between atoms: C19_28  and  O7_29 
ROOT
HETATM    1  C4  UNL     1      45.838  57.125   3.256  1.00  0.00     0.005 A 
HETATM    2  C5  UNL     1      46.977  56.193   3.685  1.00  0.00     0.060 A 
HETATM    3  C6  UNL     1      47.287  56.226   5.105  1.00  0.00     0.262 C 
HETATM    4  O3  UNL     1      46.716  57.168   5.904  1.00  0.00    -0.361 OA
HETATM    5  C7  UNL     1      45.418  57.490   5.650  1.00  0.00     0.179 C 
HETATM    6  C8  UNL     1      45.391  58.102   4.239  1.00  0.00     0.060 C 
HETATM    7  C9  UNL     1      45.878  59.499   4.246  1.00  0.00     0.122 C 
HETATM    8  C12 UNL     1      47.325  59.696   4.682  1.00  0.00     0.314 C 
HETATM    9  N1  UNL     1      48.220  58.932   3.980  1.00  0.00     0.104 N 
HETATM   10  C13 UNL     1      49.508  59.286   3.605  1.00  0.00     0.276 C 
HETATM   11  C14 UNL     1      49.423  58.164   2.556  1.00  0.00     0.075 C 
HETATM   12  C15 UNL     1      47.918  58.456   2.713  1.00  0.00     0.194 C 
HETATM   13  C16 UNL     1      47.531  59.415   1.655  1.00  0.00     0.191 C 
HETATM   14  C18 UNL     1      46.649  60.540   2.051  1.00  0.00     0.181 C 
HETATM   15  C19 UNL     1      45.547  60.246   2.994  1.00  0.00     0.186 C 
HETATM   16  C20 UNL     1      47.140  57.182   2.652  1.00  0.00     0.048 A 
ENDROOT
BRANCH   1  17
HETATM   17  C3  UNL     1      44.737  56.285   2.569  1.00  0.00     0.178 C 
BRANCH  17  18
HETATM   18  O1  UNL     1      44.281  56.928   1.434  1.00  0.00    -0.391 OA
BRANCH  18  19
HETATM   19  C2  UNL     1      42.932  56.677   1.195  1.00  0.00     0.163 C 
HETATM   20  C1  UNL     1      42.155  56.996   2.451  1.00  0.00     0.033 C 
ENDBRANCH  18  19
ENDBRANCH  17  18
ENDBRANCH   1  17
BRANCH   3  21
HETATM   21  O2  UNL     1      48.671  56.240   5.412  1.00  0.00    -0.371 OA
ATOM     22  H2  UNL     1      48.908  55.775   6.206  1.00  0.00     0.212 HD
ENDBRANCH   3  21
BRANCH   7  23
HETATM   23  O4  UNL     1      45.208  60.164   5.271  1.00  0.00    -0.376 OA
BRANCH  23  24
HETATM   24  C10 UNL     1      45.799  61.177   5.908  1.00  0.00     0.164 C 
HETATM   25  C11 UNL     1      45.087  61.281   7.278  1.00  0.00     0.033 C 
ENDBRANCH  23  24
ENDBRANCH   7  23
BRANCH  15  26
HETATM   26  O7  UNL     1      44.552  59.599   2.239  1.00  0.00    -0.390 OA
ATOM     27  H7  UNL     1      43.700  60.005   2.349  1.00  0.00     0.210 HD
ENDBRANCH  15  26
BRANCH  13  28
HETATM   28  O5  UNL     1      46.891  58.700   0.637  1.00  0.00    -0.385 OA
HETATM   29  C17 UNL     1      46.629  59.462  -0.478  1.00  0.00     0.202 C 
ENDBRANCH  13  28
BRANCH  14  30
HETATM   30  O6  UNL     1      47.373  61.715   2.379  1.00  0.00    -0.390 OA
ATOM     31  H6  UNL     1      47.389  61.887   3.313  1.00  0.00     0.210 HD
ENDBRANCH  14  30
TORSDOF 9
ENDMDL
MODEL 4
REMARK VINA RESULT: -6.183302404      1.802      4.285
REMARK  9 active torsions:
REMARK  status: ('A' for Active; 'I' for Inactive)
REMARK    1  A    between atoms: C2_2  and  O1_3 
REMARK    2  A    between atoms: O1_3  and  C3_4 
REMARK    3  A    between atoms: C3_4  and  C4_5 
REMARK    4  A    between atoms: C6_7  and  O2_8 
REMARK    5  A    between atoms: C9_13  and  O4_14 
REMARK    6  A    between atoms: O4_14  and  C10_15 
REMARK    7  A    between atoms: C16_22  and  O5_23 
REMARK    8  A    between atoms: C18_25  and  O6_26 
REMARK    9  A    between atoms: C19_28  and  O7_29 
ROOT
HETATM    1  C4  UNL     1      45.230  58.516   5.532  1.00  0.00     0.005 A 
HETATM    2  C5  UNL     1      44.388  58.965   4.333  1.00  0.00     0.060 A 
HETATM    3  C6  UNL     1      44.738  58.331   3.072  1.00  0.00     0.262 C 
HETATM    4  O3  UNL     1      45.856  57.561   2.987  1.00  0.00    -0.361 OA
HETATM    5  C7  UNL     1      46.151  56.778   4.059  1.00  0.00     0.179 C 
HETATM    6  C8  UNL     1      46.421  57.733   5.234  1.00  0.00     0.060 C 
HETATM    7  C9  UNL     1      47.766  58.343   5.137  1.00  0.00     0.122 C 
HETATM    8  C12 UNL     1      48.013  59.217   3.914  1.00  0.00     0.314 C 
HETATM    9  N1  UNL     1      47.080  60.207   3.747  1.00  0.00     0.104 N 
HETATM   10  C13 UNL     1      47.297  61.488   3.261  1.00  0.00     0.276 C 
HETATM   11  C14 UNL     1      45.966  61.877   3.926  1.00  0.00     0.075 C 
HETATM   12  C15 UNL     1      46.334  60.676   4.819  1.00  0.00     0.194 C 
HETATM   13  C16 UNL     1      47.034  61.197   6.012  1.00  0.00     0.191 C 
HETATM   14  C18 UNL     1      48.248  60.469   6.458  1.00  0.00     0.181 C 
HETATM   15  C19 UNL     1      48.214  58.990   6.408  1.00  0.00     0.186 C 
HETATM   16  C20 UNL     1      45.105  59.898   5.161  1.00  0.00     0.048 A 
ENDROOT
BRANCH   1  17
HETATM   17  C3  UNL     1      44.289  57.951   6.621  1.00  0.00     0.178 C 
BRANCH  17  18
HETATM   18  O1  UNL     1      44.580  58.517   7.848  1.00  0.00    -0.391 OA
BRANCH  18  19
HETATM   19  C2  UNL     1      43.455  58.613   8.662  1.00  0.00     0.163 C 
HETATM   20  C1  UNL     1      42.276  59.011   7.805  1.00  0.00     0.033 C 
ENDBRANCH  18  19
ENDBRANCH  17  18
ENDBRANCH   1  17
BRANCH   3  21
HETATM   21  O2  UNL     1      44.778  59.207   1.958  1.00  0.00    -0.371 OA
ATOM     22  H2  UNL     1      44.208  59.964   2.024  1.00  0.00     0.212 HD
ENDBRANCH   3  21
BRANCH   7  23
HETATM   23  O4  UNL     1      48.671  57.309   4.901  1.00  0.00    -0.376 OA
BRANCH  23  24
HETATM   24  C10 UNL     1      49.977  57.570   4.826  1.00  0.00     0.164 C 
HETATM   25  C11 UNL     1      50.685  56.331   5.424  1.00  0.00     0.033 C 
ENDBRANCH  23  24
ENDBRANCH   7  23
BRANCH  15  26
HETATM   26  O7  UNL     1      47.441  58.581   7.511  1.00  0.00    -0.390 OA
ATOM     27  H7  UNL     1      47.596  59.123   8.275  1.00  0.00     0.210 HD
ENDBRANCH  15  26
BRANCH  13  28
HETATM   28  O5  UNL     1      46.124  61.212   7.075  1.00  0.00    -0.385 OA
HETATM   29  C17 UNL     1      46.546  61.975   8.140  1.00  0.00     0.202 C 
ENDBRANCH  13  28
BRANCH  14  30
HETATM   30  O6  UNL     1      49.443  61.023   5.933  1.00  0.00    -0.390 OA
ATOM     31  H6  UNL     1      50.180  60.937   6.526  1.00  0.00     0.210 HD
ENDBRANCH  14  30
TORSDOF 9
ENDMDL
MODEL 5
REMARK VINA RESULT: -6.057094967      1.547      4.236
REMARK  9 active torsions:
REMARK  status: ('A' for Active; 'I' for Inactive)
REMARK    1  A    between atoms: C2_2  and  O1_3 
REMARK    2  A    between atoms: O1_3  and  C3_4 
REMARK    3  A    between atoms: C3_4  and  C4_5 
REMARK    4  A    between atoms: C6_7  and  O2_8 
REMARK    5  A    between atoms: C9_13  and  O4_14 
REMARK    6  A    between atoms: O4_14  and  C10_15 
REMARK    7  A    between atoms: C16_22  and  O5_23 
REMARK    8  A    between atoms: C18_25  and  O6_26 
REMARK    9  A    between atoms: C19_28  and  O7_29 
ROOT
HETATM    1  C4  UNL     1      46.395  57.860   3.932  1.00  0.00     0.005 A 
HETATM    2  C5  UNL     1      45.909  58.161   2.510  1.00  0.00     0.060 A 
HETATM    3  C6  UNL     1      46.410  57.253   1.491  1.00  0.00     0.262 C 
HETATM    4  O3  UNL     1      47.382  56.353   1.802  1.00  0.00    -0.361 OA
HETATM    5  C7  UNL     1      47.313  55.767   3.028  1.00  0.00     0.179 C 
HETATM    6  C8  UNL     1      47.481  56.896   4.058  1.00  0.00     0.060 C 
HETATM    7  C9  UNL     1      48.896  57.309   4.184  1.00  0.00     0.122 C 
HETATM    8  C12 UNL     1      49.533  57.888   2.927  1.00  0.00     0.314 C 
HETATM    9  N1  UNL     1      48.830  58.930   2.383  1.00  0.00     0.104 N 
HETATM   10  C13 UNL     1      49.348  60.054   1.756  1.00  0.00     0.276 C 
HETATM   11  C14 UNL     1      47.988  60.724   2.014  1.00  0.00     0.075 C 
HETATM   12  C15 UNL     1      47.959  59.688   3.154  1.00  0.00     0.194 C 
HETATM   13  C16 UNL     1      48.468  60.347   4.376  1.00  0.00     0.191 C 
HETATM   14  C18 UNL     1      49.426  59.581   5.211  1.00  0.00     0.181 C 
HETATM   15  C19 UNL     1      49.164  58.136   5.400  1.00  0.00     0.186 C 
HETATM   16  C20 UNL     1      46.577  59.146   3.319  1.00  0.00     0.048 A 
ENDROOT
BRANCH   1  17
HETATM   17  C3  UNL     1      45.168  57.639   4.845  1.00  0.00     0.178 C 
BRANCH  17  18
HETATM   18  O1  UNL     1      45.238  58.463   5.952  1.00  0.00    -0.391 OA
BRANCH  18  19
HETATM   19  C2  UNL     1      44.067  59.191   6.140  1.00  0.00     0.163 C 
HETATM   20  C1  UNL     1      42.936  58.467   5.446  1.00  0.00     0.033 C 
ENDBRANCH  18  19
ENDBRANCH  17  18
ENDBRANCH   1  17
BRANCH   3  21
HETATM   21  O2  UNL     1      46.826  57.879   0.289  1.00  0.00    -0.371 OA
ATOM     22  H2  UNL     1      46.787  57.326  -0.483  1.00  0.00     0.212 HD
ENDBRANCH   3  21
BRANCH   7  23
HETATM   23  O4  UNL     1      49.651  56.148   4.343  1.00  0.00    -0.376 OA
BRANCH  23  24
HETATM   24  C10 UNL     1      50.770  56.174   5.070  1.00  0.00     0.164 C 
HETATM   25  C11 UNL     1      51.707  55.123   4.429  1.00  0.00     0.033 C 
ENDBRANCH  23  24
ENDBRANCH   7  23
BRANCH  15  26
HETATM   26  O7  UNL     1      48.121  58.049   6.340  1.00  0.00    -0.390 OA
ATOM     27  H7  UNL     1      47.454  57.426   6.076  1.00  0.00     0.210 HD
ENDBRANCH  15  26
BRANCH  13  28
HETATM   28  O5  UNL     1      47.369  60.681   5.175  1.00  0.00    -0.385 OA
HETATM   29  C17 UNL     1      47.672  61.590   6.162  1.00  0.00     0.202 C 
ENDBRANCH  13  28
BRANCH  14  30
HETATM   30  O6  UNL     1      50.778  59.873   4.900  1.00  0.00    -0.390 OA
ATOM     31  H6  UNL     1      51.220  59.151   4.467  1.00  0.00     0.210 HD
ENDBRANCH  14  30
TORSDOF 9
ENDMDL
