MODEL 1
REMARK VINA RESULT: -7.425704489      0.000      0.000
REMARK  8 active torsions:
REMARK  status: ('A' for Active; 'I' for Inactive)
REMARK    1  A    between atoms: N1_2  and  C2_4 
REMARK    2  A    between atoms: C3_7  and  O1_8 
REMARK    3  A    between atoms: O1_8  and  C4_9 
REMARK    4  A    between atoms: C4_9  and  C5_10 
REMARK    5  A    between atoms: C11_18  and  C12_19 
REMARK    6  A    between atoms: C12_19  and  N3_20 
REMARK    7  A    between atoms: C14_26  and  N5_27 
REMARK    8  A    between atoms: N5_27  and  C15_29 
ROOT
HETATM    1  C2  UNL     1      43.037  56.065   2.399  1.00  0.00     0.695 A 
HETATM    2  N2  UNL     1      44.369  56.086   2.419  1.00  0.00    -0.154 N 
ATOM      3  H2  UNL     1      44.877  55.585   1.690  1.00  0.00     0.188 HD
HETATM    4  C3  UNL     1      45.086  56.756   3.386  1.00  0.00     0.255 A 
HETATM    5  N4  UNL     1      44.325  57.379   4.296  1.00  0.00    -0.154 N 
ATOM      6  H4  UNL     1      44.808  57.891   5.035  1.00  0.00     0.188 HD
HETATM    7  C14 UNL     1      42.980  57.390   4.323  1.00  0.00     0.696 A 
HETATM    8  N6  UNL     1      42.351  56.717   3.352  1.00  0.00    -0.022 N 
ATOM      9  H6  UNL     1      41.331  56.700   3.335  1.00  0.00     0.203 HD
ENDROOT
BRANCH   4  10
HETATM   10  O1  UNL     1      46.424  56.700   3.294  1.00  0.00    -0.280 OA
BRANCH  10  11
HETATM   11  C4  UNL     1      47.472  57.552   3.600  1.00  0.00     0.207 C 
HETATM   12  O2  UNL     1      47.014  58.581   4.477  1.00  0.00    -0.316 OA
HETATM   13  C8  UNL     1      47.427  59.780   3.976  1.00  0.00     0.161 C 
HETATM   14  C9  UNL     1      46.209  60.590   3.509  1.00  0.00     0.078 C 
HETATM   15  C10 UNL     1      48.118  60.666   5.014  1.00  0.00     0.078 C 
HETATM   16  O3  UNL     1      48.258  59.552   2.910  1.00  0.00    -0.343 OA
HETATM   17  C11 UNL     1      47.986  58.271   2.419  1.00  0.00     0.214 C 
BRANCH  11  18
HETATM   18  C5  UNL     1      48.508  56.818   4.406  1.00  0.00     0.043 C 
HETATM   19  C6  UNL     1      49.703  56.596   3.452  1.00  0.00     0.015 C 
HETATM   20  C7  UNL     1      48.123  55.479   4.914  1.00  0.00     0.015 C 
ENDBRANCH  11  18
BRANCH  17  21
HETATM   21  C12 UNL     1      47.016  58.472   1.283  1.00  0.00     0.269 C 
BRANCH  21  22
HETATM   22  N3  UNL     1      47.113  57.266   0.433  1.00  0.00    -0.076 N 
HETATM   23  C13 UNL     1      46.028  57.331  -0.523  1.00  0.00     0.267 C 
ATOM     24  H32 UNL     1      48.028  57.159  -0.005  1.00  0.00     0.276 HD
ATOM     25  H31 UNL     1      47.123  56.399   0.970  1.00  0.00     0.276 HD
ENDBRANCH  21  22
ENDBRANCH  17  21
ENDBRANCH  10  11
ENDBRANCH   4  10
BRANCH   1  26
HETATM   26  N1  UNL     1      42.359  55.433   1.488  1.00  0.00    -0.230 N 
HETATM   27  C1  UNL     1      42.341  55.878   0.118  1.00  0.00     0.165 C 
ATOM     28  H1  UNL     1      41.827  54.602   1.749  1.00  0.00     0.177 HD
ENDBRANCH   1  26
BRANCH   7  29
HETATM   29  N5  UNL     1      42.379  58.031   5.259  1.00  0.00    -0.219 N 
ATOM     30  H5  UNL     1      41.426  58.358   5.102  1.00  0.00     0.178 HD
BRANCH  29  31
HETATM   31  C15 UNL     1      43.008  58.299   6.515  1.00  0.00     0.125 C 
HETATM   32  C16 UNL     1      43.844  59.560   6.420  1.00  0.00     0.054 C 
HETATM   33  C17 UNL     1      43.791  60.032   7.868  1.00  0.00     0.169 C 
HETATM   34  O4  UNL     1      42.594  59.632   8.390  1.00  0.00    -0.389 OA
HETATM   35  C18 UNL     1      42.018  58.691   7.589  1.00  0.00     0.193 C 
ENDBRANCH  29  31
ENDBRANCH   7  29
TORSDOF 8
ENDMDL
MODEL 2
REMARK VINA RESULT: -7.104899542      2.070      2.741
REMARK  8 active torsions:
REMARK  status: ('A' for Active; 'I' for Inactive)
REMARK    1  A    between atoms: N1_2  and  C2_4 
REMARK    2  A    between atoms: C3_7  and  O1_8 
REMARK    3  A    between atoms: O1_8  and  C4_9 
REMARK    4  A    between atoms: C4_9  and  C5_10 
REMARK    5  A    between atoms: C11_18  and  C12_19 
REMARK    6  A    between atoms: C12_19  and  N3_20 
REMARK    7  A    between atoms: C14_26  and  N5_27 
REMARK    8  A    between atoms: N5_27  and  C15_29 
ROOT
HETATM    1  C2  UNL     1      43.678  57.718   5.169  1.00  0.00     0.695 A 
HETATM    2  N2  UNL     1      44.763  57.502   4.428  1.00  0.00    -0.154 N 
ATOM      3  H2  UNL     1      44.692  57.602   3.414  1.00  0.00     0.188 HD
HETATM    4  C3  UNL     1      45.977  57.149   4.974  1.00  0.00     0.255 A 
HETATM    5  N4  UNL     1      45.964  57.043   6.310  1.00  0.00    -0.154 N 
ATOM      6  H4  UNL     1      46.840  56.783   6.765  1.00  0.00     0.188 HD
HETATM    7  C14 UNL     1      44.899  57.249   7.105  1.00  0.00     0.696 A 
HETATM    8  N6  UNL     1      43.753  57.590   6.504  1.00  0.00    -0.022 N 
ATOM      9  H6  UNL     1      42.921  57.755   7.070  1.00  0.00     0.203 HD
ENDROOT
BRANCH   4  10
HETATM   10  O1  UNL     1      46.994  56.960   4.118  1.00  0.00    -0.280 OA
BRANCH  10  11
HETATM   11  C4  UNL     1      47.871  57.780   3.429  1.00  0.00     0.207 C 
HETATM   12  O2  UNL     1      47.415  59.132   3.492  1.00  0.00    -0.316 OA
HETATM   13  C8  UNL     1      47.427  59.643   2.229  1.00  0.00     0.161 C 
HETATM   14  C9  UNL     1      45.986  59.905   1.766  1.00  0.00     0.078 C 
HETATM   15  C10 UNL     1      48.129  60.999   2.129  1.00  0.00     0.078 C 
HETATM   16  O3  UNL     1      48.017  58.734   1.389  1.00  0.00    -0.343 OA
HETATM   17  C11 UNL     1      47.926  57.473   1.987  1.00  0.00     0.214 C 
BRANCH  11  18
HETATM   18  C5  UNL     1      49.201  57.809   4.131  1.00  0.00     0.043 C 
HETATM   19  C6  UNL     1      49.494  56.348   4.537  1.00  0.00     0.015 C 
HETATM   20  C7  UNL     1      49.274  58.613   5.375  1.00  0.00     0.015 C 
ENDBRANCH  11  18
BRANCH  17  21
HETATM   21  C12 UNL     1      46.698  56.832   1.393  1.00  0.00     0.269 C 
BRANCH  21  22
HETATM   22  N3  UNL     1      47.015  56.562  -0.026  1.00  0.00    -0.076 N 
HETATM   23  C13 UNL     1      45.954  57.148  -0.817  1.00  0.00     0.267 C 
ATOM     24  H32 UNL     1      47.943  56.888  -0.297  1.00  0.00     0.276 HD
ATOM     25  H31 UNL     1      47.161  55.572  -0.222  1.00  0.00     0.276 HD
ENDBRANCH  21  22
ENDBRANCH  17  21
ENDBRANCH  10  11
ENDBRANCH   4  10
BRANCH   1  26
HETATM   26  N1  UNL     1      42.531  58.051   4.655  1.00  0.00    -0.230 N 
HETATM   27  C1  UNL     1      41.947  57.303   3.570  1.00  0.00     0.165 C 
ATOM     28  H1  UNL     1      42.034  58.859   5.027  1.00  0.00     0.177 HD
ENDBRANCH   1  26
BRANCH   7  29
HETATM   29  N5  UNL     1      45.031  57.112   8.375  1.00  0.00    -0.219 N 
ATOM     30  H5  UNL     1      45.652  56.385   8.732  1.00  0.00     0.178 HD
BRANCH  29  31
HETATM   31  C15 UNL     1      44.334  57.948   9.302  1.00  0.00     0.125 C 
HETATM   32  C16 UNL     1      44.542  57.444  10.716  1.00  0.00     0.054 C 
HETATM   33  C17 UNL     1      44.397  58.746  11.494  1.00  0.00     0.169 C 
HETATM   34  O4  UNL     1      44.838  59.759  10.692  1.00  0.00    -0.389 OA
HETATM   35  C18 UNL     1      44.934  59.333   9.400  1.00  0.00     0.193 C 
ENDBRANCH  29  31
ENDBRANCH   7  29
TORSDOF 8
ENDMDL
MODEL 3
REMARK VINA RESULT: -7.088588727      2.856      4.332
REMARK  8 active torsions:
REMARK  status: ('A' for Active; 'I' for Inactive)
REMARK    1  A    between atoms: N1_2  and  C2_4 
REMARK    2  A    between atoms: C3_7  and  O1_8 
REMARK    3  A    between atoms: O1_8  and  C4_9 
REMARK    4  A    between atoms: C4_9  and  C5_10 
REMARK    5  A    between atoms: C11_18  and  C12_19 
REMARK    6  A    between atoms: C12_19  and  N3_20 
REMARK    7  A    between atoms: C14_26  and  N5_27 
REMARK    8  A    between atoms: N5_27  and  C15_29 
ROOT
HETATM    1  C2  UNL     1      43.211  57.611   6.115  1.00  0.00     0.695 A 
HETATM    2  N2  UNL     1      44.476  57.555   5.701  1.00  0.00    -0.154 N 
ATOM      3  H2  UNL     1      44.662  57.479   4.701  1.00  0.00     0.188 HD
HETATM    4  C3  UNL     1      45.544  57.594   6.571  1.00  0.00     0.255 A 
HETATM    5  N4  UNL     1      45.193  57.693   7.861  1.00  0.00    -0.154 N 
ATOM      6  H4  UNL     1      45.948  57.726   8.547  1.00  0.00     0.188 HD
HETATM    7  C14 UNL     1      43.934  57.753   8.332  1.00  0.00     0.696 A 
HETATM    8  N6  UNL     1      42.948  57.710   7.428  1.00  0.00    -0.022 N 
ATOM      9  H6  UNL     1      41.979  57.752   7.742  1.00  0.00     0.203 HD
ENDROOT
BRANCH   4  10
HETATM   10  O1  UNL     1      46.770  57.530   6.028  1.00  0.00    -0.280 OA
BRANCH  10  11
HETATM   11  C4  UNL     1      47.355  57.973   4.855  1.00  0.00     0.207 C 
HETATM   12  O2  UNL     1      46.376  58.022   3.817  1.00  0.00    -0.316 OA
HETATM   13  C8  UNL     1      46.884  57.387   2.723  1.00  0.00     0.161 C 
HETATM   14  C9  UNL     1      46.093  56.097   2.464  1.00  0.00     0.078 C 
HETATM   15  C10 UNL     1      46.753  58.200   1.434  1.00  0.00     0.078 C 
HETATM   16  O3  UNL     1      48.198  57.076   2.963  1.00  0.00    -0.343 OA
HETATM   17  C11 UNL     1      48.388  57.050   4.348  1.00  0.00     0.214 C 
BRANCH  11  18
HETATM   18  C5  UNL     1      47.794  59.404   5.011  1.00  0.00     0.043 C 
HETATM   19  C6  UNL     1      48.445  59.492   6.410  1.00  0.00     0.015 C 
HETATM   20  C7  UNL     1      46.724  60.430   4.982  1.00  0.00     0.015 C 
ENDBRANCH  11  18
BRANCH  17  21
HETATM   21  C12 UNL     1      48.245  55.603   4.747  1.00  0.00     0.269 C 
BRANCH  21  22
HETATM   22  N3  UNL     1      49.194  55.382   5.859  1.00  0.00    -0.076 N 
HETATM   23  C13 UNL     1      50.400  56.117   5.541  1.00  0.00     0.267 C 
ATOM     24  H32 UNL     1      48.806  55.626   6.771  1.00  0.00     0.276 HD
ATOM     25  H31 UNL     1      49.366  54.395   6.049  1.00  0.00     0.276 HD
ENDBRANCH  21  22
ENDBRANCH  17  21
ENDBRANCH  10  11
ENDBRANCH   4  10
BRANCH   1  26
HETATM   26  N1  UNL     1      42.203  57.574   5.295  1.00  0.00    -0.230 N 
HETATM   27  C1  UNL     1      42.393  57.597   3.867  1.00  0.00     0.165 C 
ATOM     28  H1  UNL     1      41.256  57.527   5.671  1.00  0.00     0.177 HD
ENDBRANCH   1  26
BRANCH   7  29
HETATM   29  N5  UNL     1      43.745  57.847   9.598  1.00  0.00    -0.219 N 
ATOM     30  H5  UNL     1      42.796  57.978   9.949  1.00  0.00     0.178 HD
BRANCH  29  31
HETATM   31  C15 UNL     1      44.827  57.772  10.531  1.00  0.00     0.125 C 
HETATM   32  C16 UNL     1      44.630  58.788  11.638  1.00  0.00     0.054 C 
HETATM   33  C17 UNL     1      45.367  58.095  12.778  1.00  0.00     0.169 C 
HETATM   34  O4  UNL     1      45.247  56.748  12.590  1.00  0.00    -0.389 OA
HETATM   35  C18 UNL     1      44.824  56.482  11.321  1.00  0.00     0.193 C 
ENDBRANCH  29  31
ENDBRANCH   7  29
TORSDOF 8
ENDMDL
MODEL 4
REMARK VINA RESULT: -7.050701386      2.500      6.201
REMARK  8 active torsions:
REMARK  status: ('A' for Active; 'I' for Inactive)
REMARK    1  A    between atoms: N1_2  and  C2_4 
REMARK    2  A    between atoms: C3_7  and  O1_8 
REMARK    3  A    between atoms: O1_8  and  C4_9 
REMARK    4  A    between atoms: C4_9  and  C5_10 
REMARK    5  A    between atoms: C11_18  and  C12_19 
REMARK    6  A    between atoms: C12_19  and  N3_20 
REMARK    7  A    between atoms: C14_26  and  N5_27 
REMARK    8  A    between atoms: N5_27  and  C15_29 
ROOT
HETATM    1  C2  UNL     1      44.646  58.017   1.853  1.00  0.00     0.695 A 
HETATM    2  N2  UNL     1      45.580  58.523   2.658  1.00  0.00    -0.154 N 
ATOM      3  H2  UNL     1      45.285  59.002   3.510  1.00  0.00     0.188 HD
HETATM    4  C3  UNL     1      46.926  58.426   2.385  1.00  0.00     0.255 A 
HETATM    5  N4  UNL     1      47.207  57.781   1.243  1.00  0.00    -0.154 N 
ATOM      6  H4  UNL     1      48.191  57.682   0.995  1.00  0.00     0.188 HD
HETATM    7  C14 UNL     1      46.305  57.253   0.397  1.00  0.00     0.696 A 
HETATM    8  N6  UNL     1      45.015  57.385   0.728  1.00  0.00    -0.022 N 
ATOM      9  H6  UNL     1      44.298  56.999   0.113  1.00  0.00     0.203 HD
ENDROOT
BRANCH   4  10
HETATM   10  O1  UNL     1      47.766  58.977   3.276  1.00  0.00    -0.280 OA
BRANCH  10  11
HETATM   11  C4  UNL     1      48.864  58.543   3.998  1.00  0.00     0.207 C 
HETATM   12  O2  UNL     1      49.164  57.191   3.651  1.00  0.00    -0.316 OA
HETATM   13  C8  UNL     1      49.307  56.478   4.804  1.00  0.00     0.161 C 
HETATM   14  C9  UNL     1      48.160  55.465   4.928  1.00  0.00     0.078 C 
HETATM   15  C10 UNL     1      50.585  55.637   4.843  1.00  0.00     0.078 C 
HETATM   16  O3  UNL     1      49.268  57.343   5.867  1.00  0.00    -0.343 OA
HETATM   17  C11 UNL     1      48.612  58.506   5.452  1.00  0.00     0.214 C 
BRANCH  11  18
HETATM   18  C5  UNL     1      50.088  59.309   3.578  1.00  0.00     0.043 C 
HETATM   19  C6  UNL     1      50.104  60.585   4.449  1.00  0.00     0.015 C 
HETATM   20  C7  UNL     1      50.130  59.765   2.167  1.00  0.00     0.015 C 
ENDBRANCH  11  18
BRANCH  17  21
HETATM   21  C12 UNL     1      47.176  58.333   5.878  1.00  0.00     0.269 C 
BRANCH  21  22
HETATM   22  N3  UNL     1      46.592  59.689   5.935  1.00  0.00    -0.076 N 
HETATM   23  C13 UNL     1      45.164  59.531   6.107  1.00  0.00     0.267 C 
ATOM     24  H32 UNL     1      47.019  60.279   6.650  1.00  0.00     0.276 HD
ATOM     25  H31 UNL     1      46.836  60.264   5.128  1.00  0.00     0.276 HD
ENDBRANCH  21  22
ENDBRANCH  17  21
ENDBRANCH  10  11
ENDBRANCH   4  10
BRANCH   1  26
HETATM   26  N1  UNL     1      43.375  58.109   2.110  1.00  0.00    -0.230 N 
HETATM   27  C1  UNL     1      42.478  57.006   1.872  1.00  0.00     0.165 C 
ATOM     28  H1  UNL     1      43.004  58.980   2.488  1.00  0.00     0.177 HD
ENDBRANCH   1  26
BRANCH   7  29
HETATM   29  N5  UNL     1      46.718  56.660  -0.664  1.00  0.00    -0.219 N 
ATOM     30  H5  UNL     1      47.532  56.049  -0.606  1.00  0.00     0.178 HD
BRANCH  29  31
HETATM   31  C15 UNL     1      46.068  56.831  -1.927  1.00  0.00     0.125 C 
HETATM   32  C16 UNL     1      46.312  58.232  -2.452  1.00  0.00     0.054 C 
HETATM   33  C17 UNL     1      46.218  57.981  -3.952  1.00  0.00     0.169 C 
HETATM   34  O4  UNL     1      46.652  56.707  -4.187  1.00  0.00    -0.389 OA
HETATM   35  C18 UNL     1      46.698  55.999  -3.022  1.00  0.00     0.193 C 
ENDBRANCH  29  31
ENDBRANCH   7  29
TORSDOF 8
ENDMDL
MODEL 5
REMARK VINA RESULT: -7.032807979      2.374      4.995
REMARK  8 active torsions:
REMARK  status: ('A' for Active; 'I' for Inactive)
REMARK    1  A    between atoms: N1_2  and  C2_4 
REMARK    2  A    between atoms: C3_7  and  O1_8 
REMARK    3  A    between atoms: O1_8  and  C4_9 
REMARK    4  A    between atoms: C4_9  and  C5_10 
REMARK    5  A    between atoms: C11_18  and  C12_19 
REMARK    6  A    between atoms: C12_19  and  N3_20 
REMARK    7  A    between atoms: C14_26  and  N5_27 
REMARK    8  A    between atoms: N5_27  and  C15_29 
ROOT
HETATM    1  C2  UNL     1      44.659  57.444   7.167  1.00  0.00     0.695 A 
HETATM    2  N2  UNL     1      45.964  57.645   6.996  1.00  0.00    -0.154 N 
ATOM      3  H2  UNL     1      46.583  57.558   7.803  1.00  0.00     0.188 HD
HETATM    4  C3  UNL     1      46.512  57.966   5.774  1.00  0.00     0.255 A 
HETATM    5  N4  UNL     1      45.615  58.057   4.781  1.00  0.00    -0.154 N 
ATOM      6  H4  UNL     1      45.970  58.294   3.854  1.00  0.00     0.188 HD
HETATM    7  C14 UNL     1      44.289  57.865   4.899  1.00  0.00     0.696 A 
HETATM    8  N6  UNL     1      43.829  57.555   6.118  1.00  0.00    -0.022 N 
ATOM      9  H6  UNL     1      42.830  57.401   6.251  1.00  0.00     0.203 HD
ENDROOT
BRANCH   4  10
HETATM   10  O1  UNL     1      47.842  58.143   5.734  1.00  0.00    -0.280 OA
BRANCH  10  11
HETATM   11  C4  UNL     1      48.732  58.754   4.868  1.00  0.00     0.207 C 
HETATM   12  O2  UNL     1      48.040  59.196   3.700  1.00  0.00    -0.316 OA
HETATM   13  C8  UNL     1      48.732  58.766   2.607  1.00  0.00     0.161 C 
HETATM   14  C9  UNL     1      47.906  57.711   1.857  1.00  0.00     0.078 C 
HETATM   15  C10 UNL     1      48.993  59.870   1.581  1.00  0.00     0.078 C 
HETATM   16  O3  UNL     1      49.913  58.208   3.023  1.00  0.00    -0.343 OA
HETATM   17  C11 UNL     1      49.762  57.827   4.360  1.00  0.00     0.214 C 
BRANCH  11  18
HETATM   18  C5  UNL     1      49.257  60.021   5.484  1.00  0.00     0.043 C 
HETATM   19  C6  UNL     1      48.233  61.120   5.120  1.00  0.00     0.015 C 
HETATM   20  C7  UNL     1      50.574  60.497   4.997  1.00  0.00     0.015 C 
ENDBRANCH  11  18
BRANCH  17  21
HETATM   21  C12 UNL     1      49.389  56.367   4.324  1.00  0.00     0.269 C 
BRANCH  21  22
HETATM   22  N3  UNL     1      50.020  55.746   5.507  1.00  0.00    -0.076 N 
HETATM   23  C13 UNL     1      51.368  56.267   5.593  1.00  0.00     0.267 C 
ATOM     24  H32 UNL     1      49.484  55.881   6.364  1.00  0.00     0.276 HD
ATOM     25  H31 UNL     1      49.986  54.726   5.491  1.00  0.00     0.276 HD
ENDBRANCH  21  22
ENDBRANCH  17  21
ENDBRANCH  10  11
ENDBRANCH   4  10
BRANCH   1  26
HETATM   26  N1  UNL     1      44.141  57.141   8.321  1.00  0.00    -0.230 N 
HETATM   27  C1  UNL     1      44.114  58.088   9.406  1.00  0.00     0.165 C 
ATOM     28  H1  UNL     1      43.744  56.212   8.461  1.00  0.00     0.177 HD
ENDBRANCH   1  26
BRANCH   7  29
HETATM   29  N5  UNL     1      43.546  57.986   3.860  1.00  0.00    -0.219 N 
ATOM     30  H5  UNL     1      43.038  58.857   3.712  1.00  0.00     0.178 HD
BRANCH  29  31
HETATM   31  C15 UNL     1      43.411  56.932   2.901  1.00  0.00     0.125 C 
HETATM   32  C16 UNL     1      42.011  56.934   2.319  1.00  0.00     0.054 C 
HETATM   33  C17 UNL     1      42.286  56.333   0.946  1.00  0.00     0.169 C 
HETATM   34  O4  UNL     1      43.549  56.699   0.579  1.00  0.00    -0.389 OA
HETATM   35  C18 UNL     1      44.240  57.169   1.658  1.00  0.00     0.193 C 
ENDBRANCH  29  31
ENDBRANCH   7  29
TORSDOF 8
ENDMDL
