MODEL 1
REMARK VINA RESULT: -5.544149936      0.000      0.000
REMARK  13 active torsions:
REMARK  status: ('A' for Active; 'I' for Inactive)
REMARK    1  A    between atoms: C2_2  and  C3_3 
REMARK    2  A    between atoms: C3_3  and  C4_4 
REMARK    3  A    between atoms: C4_4  and  C5_5 
REMARK    4  A    between atoms: C5_5  and  C6_6 
REMARK    5  A    between atoms: C6_6  and  O1_7 
REMARK    6  A    between atoms: C9_13  and  C10_14 
REMARK    7  A    between atoms: C13_17  and  O3_18 
REMARK    8  A    between atoms: C15_24  and  O5_25 
REMARK    9  A    between atoms: C17_27  and  O6_28 
REMARK   10  A    between atoms: C18_32  and  C20_34 
REMARK   11  A    between atoms: C20_34  and  C21_35 
REMARK   12  A    between atoms: C23_37  and  O7_38 
REMARK   13  A    between atoms: O7_38  and  C24_39 
ROOT
HETATM    1  C5  UNL     1      21.287  26.637  16.834  1.00  0.00     0.090 C 
HETATM    2  C8  UNL     1      22.382  26.442  15.804  1.00  0.00     0.232 C 
HETATM    3  O2  UNL     1      21.937  25.613  14.908  1.00  0.00    -0.273 OA
HETATM    4  N1  UNL     1      23.647  26.909  15.608  1.00  0.00    -0.348 N 
ATOM      5  H1  UNL     1      23.592  27.552  14.818  1.00  0.00     0.163 HD
HETATM    6  C9  UNL     1      24.987  26.901  16.007  1.00  0.00     0.162 C 
HETATM    7  C13 UNL     1      25.711  25.946  16.769  1.00  0.00     0.141 C 
HETATM    8  N2  UNL     1      25.920  25.682  18.136  1.00  0.00    -0.307 N 
ATOM      9  H2  UNL     1      26.890  25.733  18.445  1.00  0.00     0.170 HD
HETATM   10  C14 UNL     1      24.980  25.357  19.145  1.00  0.00     0.260 C 
HETATM   11  O4  UNL     1      24.863  26.132  20.132  1.00  0.00    -0.270 OA
HETATM   12  C15 UNL     1      24.096  24.145  19.143  1.00  0.00     0.286 C 
HETATM   13  C17 UNL     1      22.709  24.461  19.588  1.00  0.00     0.151 C 
HETATM   14  N3  UNL     1      21.471  24.214  19.046  1.00  0.00    -0.360 N 
ATOM     15  H3  UNL     1      21.060  23.486  19.631  1.00  0.00     0.162 HD
HETATM   16  C18 UNL     1      20.517  24.490  18.079  1.00  0.00     0.055 C 
HETATM   17  C19 UNL     1      19.210  24.668  18.947  1.00  0.00     0.041 C 
HETATM   18  C23 UNL     1      20.397  25.495  17.031  1.00  0.00     0.169 C 
ENDROOT
BRANCH   1  19
HETATM   19  C4  UNL     1      21.695  27.543  17.920  1.00  0.00     0.024 C 
BRANCH  19  20
HETATM   20  C3  UNL     1      20.808  27.904  19.001  1.00  0.00     0.001 C 
BRANCH  20  21
HETATM   21  C2  UNL     1      21.569  27.621  20.323  1.00  0.00    -0.005 C 
HETATM   22  C1  UNL     1      20.609  27.752  21.470  1.00  0.00     0.005 C 
ENDBRANCH  20  21
ENDBRANCH  19  20
ENDBRANCH   1  19
BRANCH   1  23
HETATM   23  C6  UNL     1      20.389  27.674  16.052  1.00  0.00     0.189 C 
BRANCH  23  24
HETATM   24  O1  UNL     1      21.241  28.778  15.710  1.00  0.00    -0.395 OA
HETATM   25  C7  UNL     1      21.113  28.895  14.330  1.00  0.00     0.201 C 
ENDBRANCH  23  24
ENDBRANCH   1  23
BRANCH  18  26
HETATM   26  O7  UNL     1      19.050  25.853  16.844  1.00  0.00    -0.378 OA
BRANCH  26  27
HETATM   27  C24 UNL     1      18.321  25.628  15.780  1.00  0.00     0.114 C 
HETATM   28  C25 UNL     1      19.043  24.588  14.891  1.00  0.00     0.039 C 
HETATM   29  C26 UNL     1      16.956  24.936  15.891  1.00  0.00     0.039 C 
ENDBRANCH  26  27
ENDBRANCH  18  26
BRANCH  16  30
HETATM   30  C20 UNL     1      20.281  23.107  17.426  1.00  0.00     0.033 C 
BRANCH  30  31
HETATM   31  C21 UNL     1      19.108  22.349  18.018  1.00  0.00    -0.002 C 
HETATM   32  C22 UNL     1      18.413  21.591  16.872  1.00  0.00     0.005 C 
ENDBRANCH  30  31
ENDBRANCH  16  30
BRANCH   6  33
HETATM   33  C10 UNL     1      25.275  28.284  16.663  1.00  0.00     0.008 C 
HETATM   34  C11 UNL     1      26.763  28.585  16.540  1.00  0.00     0.012 C 
HETATM   35  C12 UNL     1      24.507  29.381  16.033  1.00  0.00     0.012 C 
ENDBRANCH   6  33
BRANCH   7  36
HETATM   36  O3  UNL     1      26.352  25.092  16.010  1.00  0.00    -0.348 OA
ATOM     37  H3  UNL     1      26.275  24.201  16.329  1.00  0.00     0.219 HD
ENDBRANCH   7  36
BRANCH  13  38
HETATM   38  O6  UNL     1      22.846  25.093  20.723  1.00  0.00    -0.347 OA
ATOM     39  H6  UNL     1      22.446  24.529  21.375  1.00  0.00     0.219 HD
ENDBRANCH  13  38
BRANCH  12  40
HETATM   40  O5  UNL     1      24.664  23.137  19.921  1.00  0.00    -0.373 OA
HETATM   41  C16 UNL     1      25.479  22.267  19.270  1.00  0.00     0.203 C 
ENDBRANCH  12  40
TORSDOF 13
ENDMDL
MODEL 2
REMARK VINA RESULT: -5.123706615      1.796      6.816
REMARK  13 active torsions:
REMARK  status: ('A' for Active; 'I' for Inactive)
REMARK    1  A    between atoms: C2_2  and  C3_3 
REMARK    2  A    between atoms: C3_3  and  C4_4 
REMARK    3  A    between atoms: C4_4  and  C5_5 
REMARK    4  A    between atoms: C5_5  and  C6_6 
REMARK    5  A    between atoms: C6_6  and  O1_7 
REMARK    6  A    between atoms: C9_13  and  C10_14 
REMARK    7  A    between atoms: C13_17  and  O3_18 
REMARK    8  A    between atoms: C15_24  and  O5_25 
REMARK    9  A    between atoms: C17_27  and  O6_28 
REMARK   10  A    between atoms: C18_32  and  C20_34 
REMARK   11  A    between atoms: C20_34  and  C21_35 
REMARK   12  A    between atoms: C23_37  and  O7_38 
REMARK   13  A    between atoms: O7_38  and  C24_39 
ROOT
HETATM    1  C5  UNL     1      22.775  25.683  19.493  1.00  0.00     0.090 C 
HETATM    2  C8  UNL     1      22.411  24.212  19.450  1.00  0.00     0.232 C 
HETATM    3  O2  UNL     1      23.485  23.549  19.144  1.00  0.00    -0.273 OA
HETATM    4  N1  UNL     1      21.287  23.467  19.651  1.00  0.00    -0.348 N 
ATOM      5  H1  UNL     1      21.425  22.981  20.537  1.00  0.00     0.163 HD
HETATM    6  C9  UNL     1      20.030  23.073  19.185  1.00  0.00     0.162 C 
HETATM    7  C13 UNL     1      19.482  23.114  17.875  1.00  0.00     0.141 C 
HETATM    8  N2  UNL     1      18.821  24.067  17.079  1.00  0.00    -0.307 N 
ATOM      9  H2  UNL     1      17.879  23.810  16.784  1.00  0.00     0.170 HD
HETATM   10  C14 UNL     1      19.271  25.332  16.625  1.00  0.00     0.260 C 
HETATM   11  O4  UNL     1      18.634  26.361  16.979  1.00  0.00    -0.270 OA
HETATM   12  C15 UNL     1      20.462  25.559  15.742  1.00  0.00     0.286 C 
HETATM   13  C17 UNL     1      21.270  26.732  16.179  1.00  0.00     0.151 C 
HETATM   14  N3  UNL     1      22.607  26.904  16.446  1.00  0.00    -0.360 N 
ATOM     15  H3  UNL     1      22.970  27.455  15.668  1.00  0.00     0.162 HD
HETATM   16  C18 UNL     1      23.694  26.680  17.276  1.00  0.00     0.055 C 
HETATM   17  C19 UNL     1      24.307  28.129  17.413  1.00  0.00     0.041 C 
HETATM   18  C23 UNL     1      23.857  26.090  18.598  1.00  0.00     0.169 C 
ENDROOT
BRANCH   1  19
HETATM   19  C4  UNL     1      21.618  26.537  19.806  1.00  0.00     0.024 C 
BRANCH  19  20
HETATM   20  C3  UNL     1      21.690  27.620  20.759  1.00  0.00     0.001 C 
BRANCH  20  21
HETATM   21  C2  UNL     1      20.502  27.437  21.741  1.00  0.00    -0.005 C 
HETATM   22  C1  UNL     1      21.047  27.215  23.122  1.00  0.00     0.005 C 
ENDBRANCH  20  21
ENDBRANCH  19  20
ENDBRANCH   1  19
BRANCH   1  23
HETATM   23  C6  UNL     1      23.440  25.736  20.923  1.00  0.00     0.189 C 
BRANCH  23  24
HETATM   24  O1  UNL     1      22.842  24.681  21.692  1.00  0.00    -0.395 OA
HETATM   25  C7  UNL     1      23.571  24.664  22.877  1.00  0.00     0.201 C 
ENDBRANCH  23  24
ENDBRANCH   1  23
BRANCH  18  26
HETATM   26  O7  UNL     1      24.891  26.733  19.301  1.00  0.00    -0.378 OA
BRANCH  26  27
HETATM   27  C24 UNL     1      26.164  26.426  19.276  1.00  0.00     0.114 C 
HETATM   28  C25 UNL     1      26.814  26.882  20.604  1.00  0.00     0.039 C 
HETATM   29  C26 UNL     1      26.621  24.962  19.280  1.00  0.00     0.039 C 
ENDBRANCH  26  27
ENDBRANCH  18  26
BRANCH  16  30
HETATM   30  C20 UNL     1      24.710  25.991  16.333  1.00  0.00     0.033 C 
BRANCH  30  31
HETATM   31  C21 UNL     1      25.674  26.957  15.671  1.00  0.00    -0.002 C 
HETATM   32  C22 UNL     1      27.061  26.288  15.641  1.00  0.00     0.005 C 
ENDBRANCH  30  31
ENDBRANCH  16  30
BRANCH   6  33
HETATM   33  C10 UNL     1      18.971  23.736  20.115  1.00  0.00     0.008 C 
HETATM   34  C11 UNL     1      17.712  22.880  20.114  1.00  0.00     0.012 C 
HETATM   35  C12 UNL     1      19.453  23.884  21.507  1.00  0.00     0.012 C 
ENDBRANCH   6  33
BRANCH   7  36
HETATM   36  O3  UNL     1      19.626  21.975  17.244  1.00  0.00    -0.348 OA
ATOM     37  H3  UNL     1      18.961  21.848  16.578  1.00  0.00     0.219 HD
ENDBRANCH   7  36
BRANCH  13  38
HETATM   38  O6  UNL     1      20.418  27.717  16.291  1.00  0.00    -0.347 OA
ATOM     39  H6  UNL     1      20.875  28.390  16.781  1.00  0.00     0.219 HD
ENDBRANCH  13  38
BRANCH  12  40
HETATM   40  O5  UNL     1      20.055  25.686  14.414  1.00  0.00    -0.373 OA
HETATM   41  C16 UNL     1      20.897  25.175  13.479  1.00  0.00     0.203 C 
ENDBRANCH  12  40
TORSDOF 13
ENDMDL
MODEL 3
REMARK VINA RESULT: -5.006677434      2.040      5.399
REMARK  13 active torsions:
REMARK  status: ('A' for Active; 'I' for Inactive)
REMARK    1  A    between atoms: C2_2  and  C3_3 
REMARK    2  A    between atoms: C3_3  and  C4_4 
REMARK    3  A    between atoms: C4_4  and  C5_5 
REMARK    4  A    between atoms: C5_5  and  C6_6 
REMARK    5  A    between atoms: C6_6  and  O1_7 
REMARK    6  A    between atoms: C9_13  and  C10_14 
REMARK    7  A    between atoms: C13_17  and  O3_18 
REMARK    8  A    between atoms: C15_24  and  O5_25 
REMARK    9  A    between atoms: C17_27  and  O6_28 
REMARK   10  A    between atoms: C18_32  and  C20_34 
REMARK   11  A    between atoms: C20_34  and  C21_35 
REMARK   12  A    between atoms: C23_37  and  O7_38 
REMARK   13  A    between atoms: O7_38  and  C24_39 
ROOT
HETATM    1  C5  UNL     1      22.693  26.163  18.480  1.00  0.00     0.090 C 
HETATM    2  C8  UNL     1      22.194  27.552  18.133  1.00  0.00     0.232 C 
HETATM    3  O2  UNL     1      21.497  27.984  19.141  1.00  0.00    -0.273 OA
HETATM    4  N1  UNL     1      22.304  28.404  17.075  1.00  0.00    -0.348 N 
ATOM      5  H1  UNL     1      22.924  29.155  17.380  1.00  0.00     0.163 HD
HETATM    6  C9  UNL     1      21.947  28.708  15.759  1.00  0.00     0.162 C 
HETATM    7  C13 UNL     1      20.849  28.260  14.978  1.00  0.00     0.141 C 
HETATM    8  N2  UNL     1      20.565  27.143  14.170  1.00  0.00    -0.307 N 
ATOM      9  H2  UNL     1      20.361  27.354  13.193  1.00  0.00     0.170 HD
HETATM   10  C14 UNL     1      20.520  25.769  14.512  1.00  0.00     0.260 C 
HETATM   11  O4  UNL     1      21.317  24.979  13.939  1.00  0.00    -0.270 OA
HETATM   12  C15 UNL     1      19.587  25.160  15.516  1.00  0.00     0.286 C 
HETATM   13  C17 UNL     1      20.269  24.152  16.377  1.00  0.00     0.151 C 
HETATM   14  N3  UNL     1      20.350  23.981  17.738  1.00  0.00    -0.360 N 
ATOM     15  H3  UNL     1      19.768  23.169  17.944  1.00  0.00     0.162 HD
HETATM   16  C18 UNL     1      20.852  24.394  18.962  1.00  0.00     0.055 C 
HETATM   17  C19 UNL     1      21.388  23.039  19.572  1.00  0.00     0.041 C 
HETATM   18  C23 UNL     1      21.832  25.390  19.373  1.00  0.00     0.169 C 
ENDROOT
BRANCH   1  19
HETATM   19  C4  UNL     1      23.478  25.561  17.390  1.00  0.00     0.024 C 
BRANCH  19  20
HETATM   20  C3  UNL     1      24.836  25.106  17.574  1.00  0.00     0.001 C 
BRANCH  20  21
HETATM   21  C2  UNL     1      25.651  25.610  16.354  1.00  0.00    -0.005 C 
HETATM   22  C1  UNL     1      27.105  25.642  16.724  1.00  0.00     0.005 C 
ENDBRANCH  20  21
ENDBRANCH  19  20
ENDBRANCH   1  19
BRANCH   1  23
HETATM   23  C6  UNL     1      23.916  26.557  19.397  1.00  0.00     0.189 C 
BRANCH  23  24
HETATM   24  O1  UNL     1      24.495  27.739  18.822  1.00  0.00    -0.395 OA
HETATM   25  C7  UNL     1      25.794  27.761  19.319  1.00  0.00     0.201 C 
ENDBRANCH  23  24
ENDBRANCH   1  23
BRANCH  18  26
HETATM   26  O7  UNL     1      22.533  24.952  20.512  1.00  0.00    -0.378 OA
BRANCH  26  27
HETATM   27  C24 UNL     1      22.167  25.099  21.760  1.00  0.00     0.114 C 
HETATM   28  C25 UNL     1      23.430  25.101  22.654  1.00  0.00     0.039 C 
HETATM   29  C26 UNL     1      21.531  26.407  22.247  1.00  0.00     0.039 C 
ENDBRANCH  26  27
ENDBRANCH  18  26
BRANCH  16  30
HETATM   30  C20 UNL     1      19.569  24.634  19.795  1.00  0.00     0.033 C 
BRANCH  30  31
HETATM   31  C21 UNL     1      19.061  23.390  20.498  1.00  0.00    -0.002 C 
HETATM   32  C22 UNL     1      17.765  22.949  19.792  1.00  0.00     0.005 C 
ENDBRANCH  30  31
ENDBRANCH  16  30
BRANCH   6  33
HETATM   33  C10 UNL     1      23.217  28.491  14.881  1.00  0.00     0.008 C 
HETATM   34  C11 UNL     1      23.158  29.439  13.691  1.00  0.00     0.012 C 
HETATM   35  C12 UNL     1      24.470  28.733  15.630  1.00  0.00     0.012 C 
ENDBRANCH   6  33
BRANCH   7  36
HETATM   36  O3  UNL     1      19.841  29.096  15.018  1.00  0.00    -0.348 OA
ATOM     37  H3  UNL     1      19.450  29.145  15.882  1.00  0.00     0.219 HD
ENDBRANCH   7  36
BRANCH  13  38
HETATM   38  O6  UNL     1      20.863  23.336  15.548  1.00  0.00    -0.347 OA
ATOM     39  H6  UNL     1      20.203  23.106  14.905  1.00  0.00     0.219 HD
ENDBRANCH  13  38
BRANCH  12  40
HETATM   40  O5  UNL     1      18.479  24.613  14.870  1.00  0.00    -0.373 OA
HETATM   41  C16 UNL     1      17.389  24.380  15.647  1.00  0.00     0.203 C 
ENDBRANCH  12  40
TORSDOF 13
ENDMDL
MODEL 4
REMARK VINA RESULT: -4.686128154      1.959      6.940
REMARK  13 active torsions:
REMARK  status: ('A' for Active; 'I' for Inactive)
REMARK    1  A    between atoms: C2_2  and  C3_3 
REMARK    2  A    between atoms: C3_3  and  C4_4 
REMARK    3  A    between atoms: C4_4  and  C5_5 
REMARK    4  A    between atoms: C5_5  and  C6_6 
REMARK    5  A    between atoms: C6_6  and  O1_7 
REMARK    6  A    between atoms: C9_13  and  C10_14 
REMARK    7  A    between atoms: C13_17  and  O3_18 
REMARK    8  A    between atoms: C15_24  and  O5_25 
REMARK    9  A    between atoms: C17_27  and  O6_28 
REMARK   10  A    between atoms: C18_32  and  C20_34 
REMARK   11  A    between atoms: C20_34  and  C21_35 
REMARK   12  A    between atoms: C23_37  and  O7_38 
REMARK   13  A    between atoms: O7_38  and  C24_39 
ROOT
HETATM    1  C5  UNL     1      23.564  25.022  20.123  1.00  0.00     0.090 C 
HETATM    2  C8  UNL     1      22.816  23.786  19.664  1.00  0.00     0.232 C 
HETATM    3  O2  UNL     1      23.698  22.898  19.315  1.00  0.00    -0.273 OA
HETATM    4  N1  UNL     1      21.511  23.410  19.544  1.00  0.00    -0.348 N 
ATOM      5  H1  UNL     1      21.344  22.729  20.284  1.00  0.00     0.163 HD
HETATM    6  C9  UNL     1      20.300  23.542  18.859  1.00  0.00     0.162 C 
HETATM    7  C13 UNL     1      20.032  24.031  17.553  1.00  0.00     0.141 C 
HETATM    8  N2  UNL     1      19.821  25.291  16.962  1.00  0.00    -0.307 N 
ATOM      9  H2  UNL     1      18.915  25.414  16.512  1.00  0.00     0.170 HD
HETATM   10  C14 UNL     1      20.682  26.415  16.901  1.00  0.00     0.260 C 
HETATM   11  O4  UNL     1      20.307  27.492  17.437  1.00  0.00    -0.270 OA
HETATM   12  C15 UNL     1      22.028  26.435  16.239  1.00  0.00     0.286 C 
HETATM   13  C17 UNL     1      23.041  27.171  17.049  1.00  0.00     0.151 C 
HETATM   14  N3  UNL     1      24.301  26.851  17.493  1.00  0.00    -0.360 N 
ATOM     15  H3  UNL     1      24.938  27.411  16.927  1.00  0.00     0.162 HD
HETATM   16  C18 UNL     1      25.112  26.124  18.349  1.00  0.00     0.055 C 
HETATM   17  C19 UNL     1      26.072  27.240  18.920  1.00  0.00     0.041 C 
HETATM   18  C23 UNL     1      24.860  25.246  19.485  1.00  0.00     0.169 C 
ENDROOT
BRANCH   1  19
HETATM   19  C4  UNL     1      22.657  26.112  20.518  1.00  0.00     0.024 C 
BRANCH  19  20
HETATM   20  C3  UNL     1      21.824  26.036  21.696  1.00  0.00     0.001 C 
BRANCH  20  21
HETATM   21  C2  UNL     1      20.822  27.218  21.616  1.00  0.00    -0.005 C 
HETATM   22  C1  UNL     1      21.001  27.915  20.300  1.00  0.00     0.005 C 
ENDBRANCH  20  21
ENDBRANCH  19  20
ENDBRANCH   1  19
BRANCH   1  23
HETATM   23  C6  UNL     1      23.947  24.557  21.582  1.00  0.00     0.189 C 
BRANCH  23  24
HETATM   24  O1  UNL     1      24.220  25.751  22.333  1.00  0.00    -0.395 OA
HETATM   25  C7  UNL     1      24.531  25.289  23.608  1.00  0.00     0.201 C 
ENDBRANCH  23  24
ENDBRANCH   1  23
BRANCH  18  26
HETATM   26  O7  UNL     1      25.889  25.364  20.437  1.00  0.00    -0.378 OA
BRANCH  26  27
HETATM   27  C24 UNL     1      27.028  24.719  20.443  1.00  0.00     0.114 C 
HETATM   28  C25 UNL     1      27.689  24.884  21.832  1.00  0.00     0.039 C 
HETATM   29  C26 UNL     1      27.068  23.189  20.343  1.00  0.00     0.039 C 
ENDBRANCH  26  27
ENDBRANCH  18  26
BRANCH  16  30
HETATM   30  C20 UNL     1      26.047  25.366  17.376  1.00  0.00     0.033 C 
BRANCH  30  31
HETATM   31  C21 UNL     1      26.435  26.176  16.154  1.00  0.00    -0.002 C 
HETATM   32  C22 UNL     1      27.958  26.046  15.970  1.00  0.00     0.005 C 
ENDBRANCH  30  31
ENDBRANCH  16  30
BRANCH   6  33
HETATM   33  C10 UNL     1      19.319  24.293  19.810  1.00  0.00     0.008 C 
HETATM   34  C11 UNL     1      17.906  24.158  19.262  1.00  0.00     0.012 C 
HETATM   35  C12 UNL     1      19.355  23.764  21.192  1.00  0.00     0.012 C 
ENDBRANCH   6  33
BRANCH   7  36
HETATM   36  O3  UNL     1      19.962  23.067  16.670  1.00  0.00    -0.348 OA
ATOM     37  H3  UNL     1      19.359  23.270  15.965  1.00  0.00     0.219 HD
ENDBRANCH   7  36
BRANCH  13  38
HETATM   38  O6  UNL     1      22.494  28.327  17.317  1.00  0.00    -0.347 OA
ATOM     39  H6  UNL     1      21.836  28.147  17.978  1.00  0.00     0.219 HD
ENDBRANCH  13  38
BRANCH  12  40
HETATM   40  O5  UNL     1      21.921  26.963  14.953  1.00  0.00    -0.373 OA
HETATM   41  C16 UNL     1      21.127  26.279  14.090  1.00  0.00     0.203 C 
ENDBRANCH  12  40
TORSDOF 13
ENDMDL
MODEL 5
REMARK VINA RESULT: -4.398563607      2.753      6.845
REMARK  13 active torsions:
REMARK  status: ('A' for Active; 'I' for Inactive)
REMARK    1  A    between atoms: C2_2  and  C3_3 
REMARK    2  A    between atoms: C3_3  and  C4_4 
REMARK    3  A    between atoms: C4_4  and  C5_5 
REMARK    4  A    between atoms: C5_5  and  C6_6 
REMARK    5  A    between atoms: C6_6  and  O1_7 
REMARK    6  A    between atoms: C9_13  and  C10_14 
REMARK    7  A    between atoms: C13_17  and  O3_18 
REMARK    8  A    between atoms: C15_24  and  O5_25 
REMARK    9  A    between atoms: C17_27  and  O6_28 
REMARK   10  A    between atoms: C18_32  and  C20_34 
REMARK   11  A    between atoms: C20_34  and  C21_35 
REMARK   12  A    between atoms: C23_37  and  O7_38 
REMARK   13  A    between atoms: O7_38  and  C24_39 
ROOT
HETATM    1  C5  UNL     1      24.777  26.377  18.236  1.00  0.00     0.090 C 
HETATM    2  C8  UNL     1      23.493  26.930  18.822  1.00  0.00     0.232 C 
HETATM    3  O2  UNL     1      23.477  28.210  18.599  1.00  0.00    -0.273 OA
HETATM    4  N1  UNL     1      22.415  26.426  19.486  1.00  0.00    -0.348 N 
ATOM      5  H1  UNL     1      21.638  26.457  18.826  1.00  0.00     0.163 HD
HETATM    6  C9  UNL     1      21.898  25.886  20.666  1.00  0.00     0.162 C 
HETATM    7  C13 UNL     1      22.385  25.957  21.998  1.00  0.00     0.141 C 
HETATM    8  N2  UNL     1      23.316  25.247  22.780  1.00  0.00    -0.307 N 
ATOM      9  H2  UNL     1      22.932  24.801  23.614  1.00  0.00     0.170 HD
HETATM   10  C14 UNL     1      24.706  25.061  22.581  1.00  0.00     0.260 C 
HETATM   11  O4  UNL     1      25.142  23.888  22.430  1.00  0.00    -0.270 OA
HETATM   12  C15 UNL     1      25.726  26.160  22.536  1.00  0.00     0.286 C 
HETATM   13  C17 UNL     1      26.729  25.951  21.453  1.00  0.00     0.151 C 
HETATM   14  N3  UNL     1      27.191  26.749  20.435  1.00  0.00    -0.360 N 
ATOM     15  H3  UNL     1      28.138  27.014  20.707  1.00  0.00     0.162 HD
HETATM   16  C18 UNL     1      26.976  27.362  19.211  1.00  0.00     0.055 C 
HETATM   17  C19 UNL     1      28.280  26.971  18.412  1.00  0.00     0.041 C 
HETATM   18  C23 UNL     1      25.910  27.301  18.219  1.00  0.00     0.169 C 
ENDROOT
BRANCH   1  19
HETATM   19  C4  UNL     1      24.916  24.929  18.457  1.00  0.00     0.024 C 
BRANCH  19  20
HETATM   20  C3  UNL     1      26.006  24.162  17.900  1.00  0.00     0.001 C 
BRANCH  20  21
HETATM   21  C2  UNL     1      26.413  23.114  18.970  1.00  0.00    -0.005 C 
HETATM   22  C1  UNL     1      25.295  22.126  19.129  1.00  0.00     0.005 C 
ENDBRANCH  20  21
ENDBRANCH  19  20
ENDBRANCH   1  19
BRANCH   1  23
HETATM   23  C6  UNL     1      24.346  26.296  16.719  1.00  0.00     0.189 C 
BRANCH  23  24
HETATM   24  O1  UNL     1      22.912  26.371  16.697  1.00  0.00    -0.395 OA
HETATM   25  C7  UNL     1      22.609  26.738  15.390  1.00  0.00     0.201 C 
ENDBRANCH  23  24
ENDBRANCH   1  23
BRANCH  18  26
HETATM   26  O7  UNL     1      26.435  27.448  16.922  1.00  0.00    -0.378 OA
BRANCH  26  27
HETATM   27  C24 UNL     1      26.582  28.569  16.260  1.00  0.00     0.114 C 
HETATM   28  C25 UNL     1      26.737  28.243  14.756  1.00  0.00     0.039 C 
HETATM   29  C26 UNL     1      25.436  29.584  16.165  1.00  0.00     0.039 C 
ENDBRANCH  26  27
ENDBRANCH  18  26
BRANCH  16  30
HETATM   30  C20 UNL     1      27.230  28.856  19.527  1.00  0.00     0.033 C 
BRANCH  30  31
HETATM   31  C21 UNL     1      28.257  29.078  20.620  1.00  0.00    -0.002 C 
HETATM   32  C22 UNL     1      27.828  30.322  21.421  1.00  0.00     0.005 C 
ENDBRANCH  30  31
ENDBRANCH  16  30
BRANCH   6  33
HETATM   33  C10 UNL     1      21.614  24.379  20.392  1.00  0.00     0.008 C 
HETATM   34  C11 UNL     1      20.453  23.931  21.268  1.00  0.00     0.012 C 
HETATM   35  C12 UNL     1      21.280  24.115  18.974  1.00  0.00     0.012 C 
ENDBRANCH   6  33
BRANCH   7  36
HETATM   36  O3  UNL     1      21.829  26.930  22.677  1.00  0.00    -0.348 OA
ATOM     37  H3  UNL     1      20.956  27.133  22.361  1.00  0.00     0.219 HD
ENDBRANCH   7  36
BRANCH  13  38
HETATM   38  O6  UNL     1      27.175  24.735  21.626  1.00  0.00    -0.347 OA
ATOM     39  H6  UNL     1      27.984  24.830  22.114  1.00  0.00     0.219 HD
ENDBRANCH  13  38
BRANCH  12  40
HETATM   40  O5  UNL     1      26.339  26.296  23.780  1.00  0.00    -0.373 OA
HETATM   41  C16 UNL     1      27.298  27.254  23.873  1.00  0.00     0.203 C 
ENDBRANCH  12  40
TORSDOF 13
ENDMDL
