MODEL 1
REMARK VINA RESULT: -9.995441473      0.000      0.000
REMARK  11 active torsions:
REMARK  status: ('A' for Active; 'I' for Inactive)
REMARK    1  A    between atoms: C3_3  and  N1_4 
REMARK    2  A    between atoms: N1_4  and  C4_6 
REMARK    3  A    between atoms: C4_6  and  C5_7 
REMARK    4  A    between atoms: C13_19  and  C14_20 
REMARK    5  A    between atoms: C14_20  and  C15_21 
REMARK    6  A    between atoms: C15_21  and  C16_22 
REMARK    7  A    between atoms: C16_22  and  C17_23 
REMARK    8  A    between atoms: C17_23  and  C18_24 
REMARK       I    between atoms: C18_24  and  N3_26 
REMARK    9  A    between atoms: N3_26  and  C19_28 
REMARK   10  A    between atoms: C19_28  and  C20_29 
REMARK   11  A    between atoms: C20_29  and  N4_30 
ROOT
HETATM    1  C1  UNL     1      16.426  22.873  14.420  1.00  0.00     0.015 C 
HETATM    2  C2  UNL     1      16.759  23.365  15.820  1.00  0.00     0.039 C 
HETATM    3  C3  UNL     1      17.780  24.404  15.752  1.00  0.00     0.227 C 
HETATM    4  O1  UNL     1      18.740  24.517  16.734  1.00  0.00    -0.335 OA
HETATM    5  C9  UNL     1      18.289  24.580  18.062  1.00  0.00     0.286 C 
HETATM    6  O2  UNL     1      17.095  25.332  17.841  1.00  0.00    -0.306 OA
HETATM    7  C10 UNL     1      16.539  24.247  18.569  1.00  0.00     0.134 C 
HETATM    8  N2  UNL     1      15.191  23.987  18.455  1.00  0.00    -0.349 N 
ATOM      9  H2  UNL     1      14.517  24.682  18.775  1.00  0.00     0.167 HD
HETATM   10  C11 UNL     1      14.732  22.781  17.903  1.00  0.00     0.093 C 
HETATM   11  C12 UNL     1      15.884  21.859  17.749  1.00  0.00    -0.056 C 
HETATM   12  C13 UNL     1      16.506  21.451  19.109  1.00  0.00     0.017 C 
HETATM   13  C25 UNL     1      17.466  22.533  19.655  1.00  0.00     0.032 C 
HETATM   14  C26 UNL     1      17.666  23.388  18.467  1.00  0.00     0.076 C 
HETATM   15  C27 UNL     1      18.104  22.375  17.503  1.00  0.00     0.032 C 
HETATM   16  C28 UNL     1      16.865  22.165  16.675  1.00  0.00     0.025 C 
ENDROOT
BRANCH  12  17
HETATM   17  C14 UNL     1      15.404  21.261  20.071  1.00  0.00     0.009 C 
BRANCH  17  18
HETATM   18  C15 UNL     1      15.323  19.814  20.529  1.00  0.00     0.001 C 
BRANCH  18  19
HETATM   19  C16 UNL     1      14.636  18.942  19.524  1.00  0.00     0.009 C 
BRANCH  19  20
HETATM   20  C17 UNL     1      13.145  18.968  19.739  1.00  0.00     0.103 C 
BRANCH  20  21
HETATM   21  C18 UNL     1      12.354  19.230  18.539  1.00  0.00     0.217 C 
HETATM   22  O3  UNL     1      11.125  19.006  18.458  1.00  0.00    -0.274 OA
HETATM   23  N3  UNL     1      12.995  19.773  17.370  1.00  0.00    -0.359 N 
ATOM     24  H3  UNL     1      13.994  19.978  17.369  1.00  0.00     0.162 HD
BRANCH  23  25
HETATM   25  C19 UNL     1      12.195  20.016  16.210  1.00  0.00     0.142 C 
BRANCH  25  26
HETATM   26  C20 UNL     1      12.951  20.934  15.269  1.00  0.00     0.146 C 
BRANCH  26  27
HETATM   27  N4  UNL     1      12.848  20.542  13.917  1.00  0.00    -0.368 N 
HETATM   28  C21 UNL     1      11.609  20.141  13.407  1.00  0.00     0.089 C 
HETATM   29  C22 UNL     1      11.441  18.641  13.241  1.00  0.00     0.212 C 
HETATM   30  O4  UNL     1      12.466  18.231  12.396  1.00  0.00    -0.381 OA
HETATM   31  C23 UNL     1      13.712  18.448  12.951  1.00  0.00     0.212 C 
HETATM   32  C24 UNL     1      13.959  19.831  13.444  1.00  0.00     0.089 C 
ENDBRANCH  26  27
ENDBRANCH  25  26
ENDBRANCH  23  25
ENDBRANCH  20  21
ENDBRANCH  19  20
ENDBRANCH  18  19
ENDBRANCH  17  18
ENDBRANCH  12  17
BRANCH   3  33
HETATM   33  N1  UNL     1      18.522  24.545  14.532  1.00  0.00    -0.376 N 
ATOM     34  H1  UNL     1      18.859  23.709  14.055  1.00  0.00     0.161 HD
BRANCH  33  35
HETATM   35  C4  UNL     1      18.791  25.796  13.985  1.00  0.00     0.066 C 
BRANCH  35  36
HETATM   36  C5  UNL     1      20.270  26.134  13.882  1.00  0.00    -0.020 C 
HETATM   37  C6  UNL     1      21.152  24.926  14.098  1.00  0.00     0.020 C 
HETATM   38  C7  UNL     1      20.543  27.103  15.013  1.00  0.00     0.020 C 
HETATM   39  C8  UNL     1      20.613  26.847  12.595  1.00  0.00     0.020 C 
ENDBRANCH  35  36
ENDBRANCH  33  35
ENDBRANCH   3  33
TORSDOF 11
ENDMDL
MODEL 2
REMARK VINA RESULT: -9.920341485      1.370      1.761
REMARK  11 active torsions:
REMARK  status: ('A' for Active; 'I' for Inactive)
REMARK    1  A    between atoms: C3_3  and  N1_4 
REMARK    2  A    between atoms: N1_4  and  C4_6 
REMARK    3  A    between atoms: C4_6  and  C5_7 
REMARK    4  A    between atoms: C13_19  and  C14_20 
REMARK    5  A    between atoms: C14_20  and  C15_21 
REMARK    6  A    between atoms: C15_21  and  C16_22 
REMARK    7  A    between atoms: C16_22  and  C17_23 
REMARK    8  A    between atoms: C17_23  and  C18_24 
REMARK       I    between atoms: C18_24  and  N3_26 
REMARK    9  A    between atoms: N3_26  and  C19_28 
REMARK   10  A    between atoms: C19_28  and  C20_29 
REMARK   11  A    between atoms: C20_29  and  N4_30 
ROOT
HETATM    1  C1  UNL     1      17.783  23.985  14.814  1.00  0.00     0.015 C 
HETATM    2  C2  UNL     1      18.120  23.872  16.292  1.00  0.00     0.039 C 
HETATM    3  C3  UNL     1      19.459  24.395  16.538  1.00  0.00     0.227 C 
HETATM    4  O1  UNL     1      20.276  23.828  17.492  1.00  0.00    -0.335 OA
HETATM    5  C9  UNL     1      19.739  23.669  18.779  1.00  0.00     0.286 C 
HETATM    6  O2  UNL     1      18.949  24.859  18.823  1.00  0.00    -0.306 OA
HETATM    7  C10 UNL     1      17.948  23.918  19.183  1.00  0.00     0.134 C 
HETATM    8  N2  UNL     1      16.624  24.255  19.013  1.00  0.00    -0.349 N 
ATOM      9  H2  UNL     1      16.231  25.030  19.545  1.00  0.00     0.167 HD
HETATM   10  C11 UNL     1      15.808  23.547  18.118  1.00  0.00     0.093 C 
HETATM   11  C12 UNL     1      16.535  22.336  17.665  1.00  0.00    -0.056 C 
HETATM   12  C13 UNL     1      16.804  21.337  18.819  1.00  0.00     0.017 C 
HETATM   13  C25 UNL     1      18.035  21.741  19.661  1.00  0.00     0.032 C 
HETATM   14  C26 UNL     1      18.672  22.757  18.799  1.00  0.00     0.076 C 
HETATM   15  C27 UNL     1      18.799  21.986  17.559  1.00  0.00     0.032 C 
HETATM   16  C28 UNL     1      17.671  22.533  16.727  1.00  0.00     0.025 C 
ENDROOT
BRANCH  12  17
HETATM   17  C14 UNL     1      15.613  21.320  19.689  1.00  0.00     0.009 C 
BRANCH  17  18
HETATM   18  C15 UNL     1      15.480  19.988  20.409  1.00  0.00     0.001 C 
BRANCH  18  19
HETATM   19  C16 UNL     1      14.774  18.965  19.575  1.00  0.00     0.009 C 
BRANCH  19  20
HETATM   20  C17 UNL     1      13.338  18.832  20.014  1.00  0.00     0.103 C 
BRANCH  20  21
HETATM   21  C18 UNL     1      12.354  18.924  18.938  1.00  0.00     0.217 C 
HETATM   22  O3  UNL     1      11.215  18.410  18.996  1.00  0.00    -0.274 OA
HETATM   23  N3  UNL     1      12.686  19.637  17.731  1.00  0.00    -0.359 N 
ATOM     24  H3  UNL     1      13.598  20.080  17.619  1.00  0.00     0.162 HD
BRANCH  23  25
HETATM   25  C19 UNL     1      11.703  19.709  16.695  1.00  0.00     0.142 C 
BRANCH  25  26
HETATM   26  C20 UNL     1      12.214  20.610  15.587  1.00  0.00     0.146 C 
BRANCH  26  27
HETATM   27  N4  UNL     1      13.476  20.214  15.093  1.00  0.00    -0.368 N 
HETATM   28  C21 UNL     1      14.560  21.091  15.189  1.00  0.00     0.089 C 
HETATM   29  C22 UNL     1      14.931  21.792  13.894  1.00  0.00     0.212 C 
HETATM   30  O4  UNL     1      15.205  20.784  12.977  1.00  0.00    -0.381 OA
HETATM   31  C23 UNL     1      14.095  20.004  12.719  1.00  0.00     0.212 C 
HETATM   32  C24 UNL     1      13.413  19.448  13.921  1.00  0.00     0.089 C 
ENDBRANCH  26  27
ENDBRANCH  25  26
ENDBRANCH  23  25
ENDBRANCH  20  21
ENDBRANCH  19  20
ENDBRANCH  18  19
ENDBRANCH  17  18
ENDBRANCH  12  17
BRANCH   3  33
HETATM   33  N1  UNL     1      20.328  24.586  15.413  1.00  0.00    -0.376 N 
ATOM     34  H1  UNL     1      20.455  23.824  14.747  1.00  0.00     0.161 HD
BRANCH  33  35
HETATM   35  C4  UNL     1      21.003  25.786  15.209  1.00  0.00     0.066 C 
BRANCH  35  36
HETATM   36  C5  UNL     1      20.477  26.616  14.049  1.00  0.00    -0.020 C 
HETATM   37  C6  UNL     1      20.395  25.822  12.766  1.00  0.00     0.020 C 
HETATM   38  C7  UNL     1      21.500  27.713  13.840  1.00  0.00     0.020 C 
HETATM   39  C8  UNL     1      19.163  27.291  14.368  1.00  0.00     0.020 C 
ENDBRANCH  35  36
ENDBRANCH  33  35
ENDBRANCH   3  33
TORSDOF 11
ENDMDL
MODEL 3
REMARK VINA RESULT: -9.820075713      3.356      9.599
REMARK  11 active torsions:
REMARK  status: ('A' for Active; 'I' for Inactive)
REMARK    1  A    between atoms: C3_3  and  N1_4 
REMARK    2  A    between atoms: N1_4  and  C4_6 
REMARK    3  A    between atoms: C4_6  and  C5_7 
REMARK    4  A    between atoms: C13_19  and  C14_20 
REMARK    5  A    between atoms: C14_20  and  C15_21 
REMARK    6  A    between atoms: C15_21  and  C16_22 
REMARK    7  A    between atoms: C16_22  and  C17_23 
REMARK    8  A    between atoms: C17_23  and  C18_24 
REMARK       I    between atoms: C18_24  and  N3_26 
REMARK    9  A    between atoms: N3_26  and  C19_28 
REMARK   10  A    between atoms: C19_28  and  C20_29 
REMARK   11  A    between atoms: C20_29  and  N4_30 
ROOT
HETATM    1  C1  UNL     1      18.735  21.699  19.664  1.00  0.00     0.015 C 
HETATM    2  C2  UNL     1      18.119  22.770  18.777  1.00  0.00     0.039 C 
HETATM    3  C3  UNL     1      16.699  22.911  19.081  1.00  0.00     0.227 C 
HETATM    4  O1  UNL     1      15.788  23.199  18.088  1.00  0.00    -0.335 OA
HETATM    5  C9  UNL     1      16.065  24.306  17.270  1.00  0.00     0.286 C 
HETATM    6  O2  UNL     1      16.659  25.150  18.258  1.00  0.00    -0.306 OA
HETATM    7  C10 UNL     1      17.683  25.208  17.276  1.00  0.00     0.134 C 
HETATM    8  N2  UNL     1      18.955  25.570  17.659  1.00  0.00    -0.349 N 
ATOM      9  H2  UNL     1      19.120  26.504  18.034  1.00  0.00     0.167 HD
HETATM   10  C11 UNL     1      20.027  24.672  17.542  1.00  0.00     0.093 C 
HETATM   11  C12 UNL     1      19.581  23.497  16.755  1.00  0.00    -0.056 C 
HETATM   12  C13 UNL     1      19.220  23.862  15.293  1.00  0.00     0.017 C 
HETATM   13  C25 UNL     1      17.798  24.457  15.179  1.00  0.00     0.032 C 
HETATM   14  C26 UNL     1      17.220  24.116  16.494  1.00  0.00     0.076 C 
HETATM   15  C27 UNL     1      17.458  22.670  16.502  1.00  0.00     0.032 C 
HETATM   16  C28 UNL     1      18.648  22.548  17.416  1.00  0.00     0.025 C 
ENDROOT
BRANCH  12  17
HETATM   17  C14 UNL     1      20.196  24.862  14.822  1.00  0.00     0.009 C 
BRANCH  17  18
HETATM   18  C15 UNL     1      19.529  25.902  13.936  1.00  0.00     0.001 C 
BRANCH  18  19
HETATM   19  C16 UNL     1      20.449  26.406  12.869  1.00  0.00     0.009 C 
BRANCH  19  20
HETATM   20  C17 UNL     1      20.744  27.869  13.079  1.00  0.00     0.103 C 
BRANCH  20  21
HETATM   21  C18 UNL     1      21.278  28.206  14.397  1.00  0.00     0.217 C 
HETATM   22  O3  UNL     1      20.703  28.975  15.200  1.00  0.00    -0.274 OA
HETATM   23  N3  UNL     1      22.532  27.640  14.822  1.00  0.00    -0.359 N 
ATOM     24  H3  UNL     1      23.052  27.006  14.215  1.00  0.00     0.162 HD
BRANCH  23  25
HETATM   25  C19 UNL     1      23.029  27.990  16.116  1.00  0.00     0.142 C 
BRANCH  25  26
HETATM   26  C20 UNL     1      23.057  26.751  16.989  1.00  0.00     0.146 C 
BRANCH  26  27
HETATM   27  N4  UNL     1      23.210  27.047  18.361  1.00  0.00    -0.368 N 
HETATM   28  C21 UNL     1      24.089  26.285  19.137  1.00  0.00     0.089 C 
HETATM   29  C22 UNL     1      23.423  25.261  20.037  1.00  0.00     0.212 C 
HETATM   30  O4  UNL     1      22.554  25.974  20.854  1.00  0.00    -0.381 OA
HETATM   31  C23 UNL     1      21.556  26.595  20.128  1.00  0.00     0.212 C 
HETATM   32  C24 UNL     1      22.023  27.440  18.994  1.00  0.00     0.089 C 
ENDBRANCH  26  27
ENDBRANCH  25  26
ENDBRANCH  23  25
ENDBRANCH  20  21
ENDBRANCH  19  20
ENDBRANCH  18  19
ENDBRANCH  17  18
ENDBRANCH  12  17
BRANCH   3  33
HETATM   33  N1  UNL     1      16.063  21.871  19.837  1.00  0.00    -0.376 N 
ATOM     34  H1  UNL     1      16.530  21.500  20.665  1.00  0.00     0.161 HD
BRANCH  33  35
HETATM   35  C4  UNL     1      14.823  21.357  19.468  1.00  0.00     0.066 C 
BRANCH  35  36
HETATM   36  C5  UNL     1      14.700  19.849  19.606  1.00  0.00    -0.020 C 
HETATM   37  C6  UNL     1      15.172  19.353  20.954  1.00  0.00     0.020 C 
HETATM   38  C7  UNL     1      15.629  19.270  18.559  1.00  0.00     0.020 C 
HETATM   39  C8  UNL     1      13.309  19.349  19.289  1.00  0.00     0.020 C 
ENDBRANCH  35  36
ENDBRANCH  33  35
ENDBRANCH   3  33
TORSDOF 11
ENDMDL
MODEL 4
REMARK VINA RESULT: -9.763161421      0.896      1.481
REMARK  11 active torsions:
REMARK  status: ('A' for Active; 'I' for Inactive)
REMARK    1  A    between atoms: C3_3  and  N1_4 
REMARK    2  A    between atoms: N1_4  and  C4_6 
REMARK    3  A    between atoms: C4_6  and  C5_7 
REMARK    4  A    between atoms: C13_19  and  C14_20 
REMARK    5  A    between atoms: C14_20  and  C15_21 
REMARK    6  A    between atoms: C15_21  and  C16_22 
REMARK    7  A    between atoms: C16_22  and  C17_23 
REMARK    8  A    between atoms: C17_23  and  C18_24 
REMARK       I    between atoms: C18_24  and  N3_26 
REMARK    9  A    between atoms: N3_26  and  C19_28 
REMARK   10  A    between atoms: C19_28  and  C20_29 
REMARK   11  A    between atoms: C20_29  and  N4_30 
ROOT
HETATM    1  C1  UNL     1      16.537  22.854  14.409  1.00  0.00     0.015 C 
HETATM    2  C2  UNL     1      16.806  23.382  15.810  1.00  0.00     0.039 C 
HETATM    3  C3  UNL     1      17.762  24.483  15.751  1.00  0.00     0.227 C 
HETATM    4  O1  UNL     1      18.690  24.668  16.752  1.00  0.00    -0.335 OA
HETATM    5  C9  UNL     1      18.206  24.717  18.069  1.00  0.00     0.286 C 
HETATM    6  O2  UNL     1      16.972  25.390  17.812  1.00  0.00    -0.306 OA
HETATM    7  C10 UNL     1      16.469  24.280  18.542  1.00  0.00     0.134 C 
HETATM    8  N2  UNL     1      15.143  23.934  18.401  1.00  0.00    -0.349 N 
ATOM      9  H2  UNL     1      14.420  24.589  18.698  1.00  0.00     0.167 HD
HETATM   10  C11 UNL     1      14.774  22.696  17.855  1.00  0.00     0.093 C 
HETATM   11  C12 UNL     1      15.984  21.847  17.739  1.00  0.00    -0.056 C 
HETATM   12  C13 UNL     1      16.599  21.495  19.117  1.00  0.00     0.017 C 
HETATM   13  C25 UNL     1      17.477  22.641  19.669  1.00  0.00     0.032 C 
HETATM   14  C26 UNL     1      17.650  23.493  18.475  1.00  0.00     0.076 C 
HETATM   15  C27 UNL     1      18.173  22.499  17.534  1.00  0.00     0.032 C 
HETATM   16  C28 UNL     1      16.968  22.202  16.682  1.00  0.00     0.025 C 
ENDROOT
BRANCH  12  17
HETATM   17  C14 UNL     1      15.491  21.246  20.057  1.00  0.00     0.009 C 
BRANCH  17  18
HETATM   18  C15 UNL     1      15.545  19.828  20.603  1.00  0.00     0.001 C 
BRANCH  18  19
HETATM   19  C16 UNL     1      14.817  18.858  19.727  1.00  0.00     0.009 C 
BRANCH  19  20
HETATM   20  C17 UNL     1      13.465  18.536  20.310  1.00  0.00     0.103 C 
BRANCH  20  21
HETATM   21  C18 UNL     1      12.343  18.696  19.388  1.00  0.00     0.217 C 
HETATM   22  O3  UNL     1      11.228  18.154  19.555  1.00  0.00    -0.274 OA
HETATM   23  N3  UNL     1      12.500  19.515  18.213  1.00  0.00    -0.359 N 
ATOM     24  H3  UNL     1      13.383  19.985  18.017  1.00  0.00     0.162 HD
BRANCH  23  25
HETATM   25  C19 UNL     1      11.384  19.650  17.329  1.00  0.00     0.142 C 
BRANCH  25  26
HETATM   26  C20 UNL     1      11.622  18.800  16.096  1.00  0.00     0.146 C 
BRANCH  26  27
HETATM   27  N4  UNL     1      11.759  19.565  14.918  1.00  0.00    -0.368 N 
HETATM   28  C21 UNL     1      12.571  19.095  13.880  1.00  0.00     0.089 C 
HETATM   29  C22 UNL     1      13.926  19.770  13.773  1.00  0.00     0.212 C 
HETATM   30  O4  UNL     1      13.668  21.125  13.606  1.00  0.00    -0.381 OA
HETATM   31  C23 UNL     1      13.024  21.667  14.702  1.00  0.00     0.212 C 
HETATM   32  C24 UNL     1      11.795  20.948  15.138  1.00  0.00     0.089 C 
ENDBRANCH  26  27
ENDBRANCH  25  26
ENDBRANCH  23  25
ENDBRANCH  20  21
ENDBRANCH  19  20
ENDBRANCH  18  19
ENDBRANCH  17  18
ENDBRANCH  12  17
BRANCH   3  33
HETATM   33  N1  UNL     1      18.521  24.657  14.546  1.00  0.00    -0.376 N 
ATOM     34  H1  UNL     1      18.826  23.833  14.027  1.00  0.00     0.161 HD
BRANCH  33  35
HETATM   35  C4  UNL     1      18.849  25.922  14.069  1.00  0.00     0.066 C 
BRANCH  35  36
HETATM   36  C5  UNL     1      20.341  26.207  14.011  1.00  0.00    -0.020 C 
HETATM   37  C6  UNL     1      20.781  27.184  15.076  1.00  0.00     0.020 C 
HETATM   38  C7  UNL     1      20.575  26.864  12.666  1.00  0.00     0.020 C 
HETATM   39  C8  UNL     1      21.173  24.946  14.038  1.00  0.00     0.020 C 
ENDBRANCH  35  36
ENDBRANCH  33  35
ENDBRANCH   3  33
TORSDOF 11
ENDMDL
MODEL 5
REMARK VINA RESULT: -9.634683886      3.375     10.044
REMARK  11 active torsions:
REMARK  status: ('A' for Active; 'I' for Inactive)
REMARK    1  A    between atoms: C3_3  and  N1_4 
REMARK    2  A    between atoms: N1_4  and  C4_6 
REMARK    3  A    between atoms: C4_6  and  C5_7 
REMARK    4  A    between atoms: C13_19  and  C14_20 
REMARK    5  A    between atoms: C14_20  and  C15_21 
REMARK    6  A    between atoms: C15_21  and  C16_22 
REMARK    7  A    between atoms: C16_22  and  C17_23 
REMARK    8  A    between atoms: C17_23  and  C18_24 
REMARK       I    between atoms: C18_24  and  N3_26 
REMARK    9  A    between atoms: N3_26  and  C19_28 
REMARK   10  A    between atoms: C19_28  and  C20_29 
REMARK   11  A    between atoms: C20_29  and  N4_30 
ROOT
HETATM    1  C1  UNL     1      19.040  21.883  19.704  1.00  0.00     0.015 C 
HETATM    2  C2  UNL     1      18.373  22.894  18.784  1.00  0.00     0.039 C 
HETATM    3  C3  UNL     1      16.929  22.871  18.985  1.00  0.00     0.227 C 
HETATM    4  O1  UNL     1      16.065  23.072  17.931  1.00  0.00    -0.335 OA
HETATM    5  C9  UNL     1      16.274  24.217  17.145  1.00  0.00     0.286 C 
HETATM    6  O2  UNL     1      16.696  25.105  18.181  1.00  0.00    -0.306 OA
HETATM    7  C10 UNL     1      17.775  25.294  17.278  1.00  0.00     0.134 C 
HETATM    8  N2  UNL     1      18.968  25.788  17.756  1.00  0.00    -0.349 N 
ATOM      9  H2  UNL     1      19.000  26.728  18.150  1.00  0.00     0.167 HD
HETATM   10  C11 UNL     1      20.140  25.017  17.710  1.00  0.00     0.093 C 
HETATM   11  C12 UNL     1      19.886  23.813  16.881  1.00  0.00    -0.056 C 
HETATM   12  C13 UNL     1      19.592  24.161  15.400  1.00  0.00     0.017 C 
HETATM   13  C25 UNL     1      18.124  24.597  15.188  1.00  0.00     0.032 C 
HETATM   14  C26 UNL     1      17.495  24.170  16.454  1.00  0.00     0.076 C 
HETATM   15  C27 UNL     1      17.893  22.760  16.467  1.00  0.00     0.032 C 
HETATM   16  C28 UNL     1      19.020  22.755  17.464  1.00  0.00     0.025 C 
ENDROOT
BRANCH  12  17
HETATM   17  C14 UNL     1      20.481  25.271  15.011  1.00  0.00     0.009 C 
BRANCH  17  18
HETATM   18  C15 UNL     1      20.346  25.586  13.530  1.00  0.00     0.001 C 
BRANCH  18  19
HETATM   19  C16 UNL     1      19.890  26.992  13.292  1.00  0.00     0.009 C 
BRANCH  19  20
HETATM   20  C17 UNL     1      21.073  27.891  13.038  1.00  0.00     0.103 C 
BRANCH  20  21
HETATM   21  C18 UNL     1      21.565  28.607  14.213  1.00  0.00     0.217 C 
HETATM   22  O3  UNL     1      20.838  28.936  15.177  1.00  0.00    -0.274 OA
HETATM   23  N3  UNL     1      22.957  28.970  14.293  1.00  0.00    -0.359 N 
ATOM     24  H3  UNL     1      23.603  28.732  13.541  1.00  0.00     0.162 HD
BRANCH  23  25
HETATM   25  C19 UNL     1      23.407  29.672  15.454  1.00  0.00     0.142 C 
BRANCH  25  26
HETATM   26  C20 UNL     1      24.678  29.020  15.966  1.00  0.00     0.146 C 
BRANCH  26  27
HETATM   27  N4  UNL     1      24.741  27.639  15.682  1.00  0.00    -0.368 N 
HETATM   28  C21 UNL     1      24.005  26.740  16.460  1.00  0.00     0.089 C 
HETATM   29  C22 UNL     1      24.816  25.967  17.483  1.00  0.00     0.212 C 
HETATM   30  O4  UNL     1      25.797  25.292  16.765  1.00  0.00    -0.381 OA
HETATM   31  C23 UNL     1      26.660  26.161  16.127  1.00  0.00     0.212 C 
HETATM   32  C24 UNL     1      26.009  27.198  15.280  1.00  0.00     0.089 C 
ENDBRANCH  26  27
ENDBRANCH  25  26
ENDBRANCH  23  25
ENDBRANCH  20  21
ENDBRANCH  19  20
ENDBRANCH  18  19
ENDBRANCH  17  18
ENDBRANCH  12  17
BRANCH   3  33
HETATM   33  N1  UNL     1      16.360  21.753  19.683  1.00  0.00    -0.376 N 
ATOM     34  H1  UNL     1      16.962  21.174  20.268  1.00  0.00     0.161 HD
BRANCH  33  35
HETATM   35  C4  UNL     1      15.008  21.443  19.581  1.00  0.00     0.066 C 
BRANCH  35  36
HETATM   36  C5  UNL     1      14.699  19.955  19.600  1.00  0.00    -0.020 C 
HETATM   37  C6  UNL     1      14.954  19.332  20.954  1.00  0.00     0.020 C 
HETATM   38  C7  UNL     1      15.670  19.327  18.622  1.00  0.00     0.020 C 
HETATM   39  C8  UNL     1      13.307  19.645  19.102  1.00  0.00     0.020 C 
ENDBRANCH  35  36
ENDBRANCH  33  35
ENDBRANCH   3  33
TORSDOF 11
ENDMDL
