MODEL 1
REMARK VINA RESULT: -9.645869849      0.000      0.000
REMARK  15 active torsions:
REMARK  status: ('A' for Active; 'I' for Inactive)
REMARK    1  A    between atoms: C2_2  and  C3_3 
REMARK    2  A    between atoms: C2_2  and  C17_21 
REMARK    3  A    between atoms: C4_4  and  C5_5 
REMARK    4  A    between atoms: C5_5  and  C6_6 
REMARK    5  A    between atoms: C6_6  and  C12_14 
REMARK    6  A    between atoms: C7_7  and  C8_8 
REMARK    7  A    between atoms: C8_8  and  C10_10 
REMARK    8  A    between atoms: C10_10  and  O2_12 
REMARK    9  A    between atoms: C12_14  and  C14_16 
REMARK   10  A    between atoms: C14_16  and  O3_17 
REMARK   11  A    between atoms: O3_17  and  C15_18 
REMARK   12  A    between atoms: C20_24  and  O5_25 
REMARK   13  A    between atoms: C22_28  and  C23_29 
REMARK       I    between atoms: C23_29  and  N1_31 
REMARK   14  A    between atoms: N1_31  and  C24_33 
REMARK   15  A    between atoms: C28_37  and  O7_38 
ROOT
HETATM    1  C1  UNL     1      17.203  25.149  15.830  1.00  0.00     0.019 C 
HETATM    2  C2  UNL     1      18.212  24.333  15.437  1.00  0.00    -0.061 C 
ENDROOT
BRANCH   2   3
HETATM    3  C3  UNL     1      18.134  23.005  15.953  1.00  0.00     0.003 C 
HETATM    4  C4  UNL     1      17.376  22.256  16.649  1.00  0.00    -0.022 C 
BRANCH   4   5
HETATM    5  C5  UNL     1      16.095  22.439  17.324  1.00  0.00     0.061 C 
BRANCH   5   6
HETATM    6  C6  UNL     1      15.160  21.282  17.284  1.00  0.00    -0.074 C 
HETATM    7  C7  UNL     1      14.335  21.092  16.297  1.00  0.00    -0.009 C 
BRANCH   7   8
HETATM    8  C8  UNL     1      13.975  21.724  15.049  1.00  0.00     0.104 C 
HETATM    9  C9  UNL     1      13.860  23.179  14.901  1.00  0.00     0.025 C 
BRANCH   8  10
HETATM   10  C10 UNL     1      14.881  21.254  13.921  1.00  0.00     0.265 C 
HETATM   11  O1  UNL     1      15.922  21.871  13.640  1.00  0.00    -0.265 OA
BRANCH  10  12
HETATM   12  O2  UNL     1      14.526  20.138  13.225  1.00  0.00    -0.326 OA
HETATM   13  C11 UNL     1      13.189  19.698  13.053  1.00  0.00     0.213 C 
ENDBRANCH  10  12
ENDBRANCH   8  10
ENDBRANCH   7   8
BRANCH   6  14
HETATM   14  C12 UNL     1      15.108  20.373  18.461  1.00  0.00     0.035 C 
HETATM   15  C13 UNL     1      15.844  20.884  19.679  1.00  0.00     0.017 C 
BRANCH  14  16
HETATM   16  C14 UNL     1      13.754  19.939  18.911  1.00  0.00     0.187 C 
BRANCH  16  17
HETATM   17  O3  UNL     1      13.758  18.666  19.509  1.00  0.00    -0.321 OA
BRANCH  17  18
HETATM   18  C15 UNL     1      12.956  18.450  20.620  1.00  0.00     0.254 C 
HETATM   19  C16 UNL     1      13.631  18.067  21.886  1.00  0.00     0.126 C 
HETATM   20  O4  UNL     1      11.716  18.584  20.520  1.00  0.00    -0.266 OA
ENDBRANCH  17  18
ENDBRANCH  16  17
ENDBRANCH  14  16
ENDBRANCH   6  14
ENDBRANCH   5   6
ENDBRANCH   4   5
ENDBRANCH   2   3
BRANCH   2  21
HETATM   21  C17 UNL     1      19.228  24.890  14.590  1.00  0.00     0.048 C 
HETATM   22  C18 UNL     1      19.114  26.349  14.215  1.00  0.00     0.020 C 
HETATM   23  C19 UNL     1      20.537  26.747  14.119  1.00  0.00     0.026 C 
HETATM   24  C20 UNL     1      20.964  28.115  14.259  1.00  0.00     0.124 C 
HETATM   25  C26 UNL     1      21.059  26.113  15.427  1.00  0.00     0.001 C 
HETATM   26  C21 UNL     1      22.300  27.999  15.012  1.00  0.00     0.047 C 
HETATM   27  C22 UNL     1      22.487  26.487  15.246  1.00  0.00     0.091 C 
HETATM   28  C27 UNL     1      20.457  26.647  16.654  1.00  0.00     0.019 C 
HETATM   29  C28 UNL     1      20.672  24.716  15.110  1.00  0.00     0.136 C 
BRANCH  24  30
HETATM   30  O5  UNL     1      20.114  29.015  14.845  1.00  0.00    -0.395 OA
ATOM     31  H5  UNL     1      20.360  29.401  15.678  1.00  0.00     0.210 HD
ENDBRANCH  24  30
BRANCH  27  32
HETATM   32  C23 UNL     1      23.377  26.251  16.368  1.00  0.00     0.222 C 
HETATM   33  O6  UNL     1      24.602  26.081  16.192  1.00  0.00    -0.273 OA
HETATM   34  N1  UNL     1      22.867  26.210  17.689  1.00  0.00    -0.361 N 
ATOM     35  H1  UNL     1      21.868  26.349  17.835  1.00  0.00     0.162 HD
BRANCH  34  36
HETATM   36  C24 UNL     1      23.717  25.978  18.845  1.00  0.00     0.118 C 
HETATM   37  C25 UNL     1      23.206  24.822  19.668  1.00  0.00     0.026 C 
ENDBRANCH  34  36
ENDBRANCH  27  32
BRANCH  29  38
HETATM   38  O7  UNL     1      21.513  24.279  14.076  1.00  0.00    -0.394 OA
ATOM     39  H7  UNL     1      21.681  23.348  14.158  1.00  0.00     0.210 HD
ENDBRANCH  29  38
ENDBRANCH   2  21
TORSDOF 15
ENDMDL
MODEL 2
REMARK VINA RESULT: -9.608960468      1.635      1.957
REMARK  15 active torsions:
REMARK  status: ('A' for Active; 'I' for Inactive)
REMARK    1  A    between atoms: C2_2  and  C3_3 
REMARK    2  A    between atoms: C2_2  and  C17_21 
REMARK    3  A    between atoms: C4_4  and  C5_5 
REMARK    4  A    between atoms: C5_5  and  C6_6 
REMARK    5  A    between atoms: C6_6  and  C12_14 
REMARK    6  A    between atoms: C7_7  and  C8_8 
REMARK    7  A    between atoms: C8_8  and  C10_10 
REMARK    8  A    between atoms: C10_10  and  O2_12 
REMARK    9  A    between atoms: C12_14  and  C14_16 
REMARK   10  A    between atoms: C14_16  and  O3_17 
REMARK   11  A    between atoms: O3_17  and  C15_18 
REMARK   12  A    between atoms: C20_24  and  O5_25 
REMARK   13  A    between atoms: C22_28  and  C23_29 
REMARK       I    between atoms: C23_29  and  N1_31 
REMARK   14  A    between atoms: N1_31  and  C24_33 
REMARK   15  A    between atoms: C28_37  and  O7_38 
ROOT
HETATM    1  C1  UNL     1      17.312  24.954  17.333  1.00  0.00     0.019 C 
HETATM    2  C2  UNL     1      18.265  24.068  16.950  1.00  0.00    -0.061 C 
ENDROOT
BRANCH   2   3
HETATM    3  C3  UNL     1      18.564  23.064  17.920  1.00  0.00     0.003 C 
HETATM    4  C4  UNL     1      18.321  21.844  18.188  1.00  0.00    -0.022 C 
BRANCH   4   5
HETATM    5  C5  UNL     1      17.525  20.795  17.559  1.00  0.00     0.061 C 
BRANCH   5   6
HETATM    6  C6  UNL     1      16.072  20.792  17.880  1.00  0.00    -0.074 C 
HETATM    7  C7  UNL     1      15.198  21.412  17.143  1.00  0.00    -0.009 C 
BRANCH   7   8
HETATM    8  C8  UNL     1      15.169  22.219  15.946  1.00  0.00     0.104 C 
HETATM    9  C9  UNL     1      16.032  21.955  14.789  1.00  0.00     0.025 C 
BRANCH   8  10
HETATM   10  C10 UNL     1      13.753  22.330  15.401  1.00  0.00     0.265 C 
HETATM   11  O1  UNL     1      13.361  23.373  14.852  1.00  0.00    -0.265 OA
BRANCH  10  12
HETATM   12  O2  UNL     1      12.922  21.259  15.528  1.00  0.00    -0.326 OA
HETATM   13  C11 UNL     1      11.656  21.152  14.899  1.00  0.00     0.213 C 
ENDBRANCH  10  12
ENDBRANCH   8  10
ENDBRANCH   7   8
BRANCH   6  14
HETATM   14  C12 UNL     1      15.627  20.135  19.139  1.00  0.00     0.035 C 
HETATM   15  C13 UNL     1      15.326  21.091  20.271  1.00  0.00     0.017 C 
BRANCH  14  16
HETATM   16  C14 UNL     1      14.471  19.198  19.031  1.00  0.00     0.187 C 
BRANCH  16  17
HETATM   17  O3  UNL     1      13.365  19.604  19.801  1.00  0.00    -0.321 OA
BRANCH  17  18
HETATM   18  C15 UNL     1      12.694  18.651  20.552  1.00  0.00     0.254 C 
HETATM   19  C16 UNL     1      13.423  18.042  21.693  1.00  0.00     0.126 C 
HETATM   20  O4  UNL     1      11.519  18.344  20.250  1.00  0.00    -0.266 OA
ENDBRANCH  17  18
ENDBRANCH  16  17
ENDBRANCH  14  16
ENDBRANCH   6  14
ENDBRANCH   5   6
ENDBRANCH   4   5
ENDBRANCH   2   3
BRANCH   2  21
HETATM   21  C17 UNL     1      18.866  24.251  15.660  1.00  0.00     0.048 C 
HETATM   22  C18 UNL     1      18.212  25.227  14.709  1.00  0.00     0.020 C 
HETATM   23  C19 UNL     1      19.382  25.760  13.973  1.00  0.00     0.026 C 
HETATM   24  C20 UNL     1      19.357  27.036  13.308  1.00  0.00     0.124 C 
HETATM   25  C26 UNL     1      20.319  26.040  15.170  1.00  0.00     0.001 C 
HETATM   26  C21 UNL     1      20.773  27.590  13.538  1.00  0.00     0.047 C 
HETATM   27  C22 UNL     1      21.485  26.507  14.374  1.00  0.00     0.091 C 
HETATM   28  C27 UNL     1      19.816  27.034  16.126  1.00  0.00     0.019 C 
HETATM   29  C28 UNL     1      20.358  24.651  15.690  1.00  0.00     0.136 C 
BRANCH  24  30
HETATM   30  O5  UNL     1      18.385  27.939  13.650  1.00  0.00    -0.395 OA
ATOM     31  H5  UNL     1      18.636  28.841  13.815  1.00  0.00     0.210 HD
ENDBRANCH  24  30
BRANCH  27  32
HETATM   32  C23 UNL     1      22.596  27.081  15.111  1.00  0.00     0.222 C 
HETATM   33  O6  UNL     1      22.807  28.313  15.098  1.00  0.00    -0.273 OA
HETATM   34  N1  UNL     1      23.465  26.250  15.860  1.00  0.00    -0.361 N 
ATOM     35  H1  UNL     1      23.294  25.245  15.871  1.00  0.00     0.162 HD
BRANCH  34  36
HETATM   36  C24 UNL     1      24.590  26.777  16.613  1.00  0.00     0.118 C 
HETATM   37  C25 UNL     1      25.872  26.653  15.829  1.00  0.00     0.026 C 
ENDBRANCH  34  36
ENDBRANCH  27  32
BRANCH  29  38
HETATM   38  O7  UNL     1      21.086  23.885  14.768  1.00  0.00    -0.394 OA
ATOM     39  H7  UNL     1      21.988  24.179  14.734  1.00  0.00     0.210 HD
ENDBRANCH  29  38
ENDBRANCH   2  21
TORSDOF 15
ENDMDL
MODEL 3
REMARK VINA RESULT: -9.571805988      2.241      4.864
REMARK  15 active torsions:
REMARK  status: ('A' for Active; 'I' for Inactive)
REMARK    1  A    between atoms: C2_2  and  C3_3 
REMARK    2  A    between atoms: C2_2  and  C17_21 
REMARK    3  A    between atoms: C4_4  and  C5_5 
REMARK    4  A    between atoms: C5_5  and  C6_6 
REMARK    5  A    between atoms: C6_6  and  C12_14 
REMARK    6  A    between atoms: C7_7  and  C8_8 
REMARK    7  A    between atoms: C8_8  and  C10_10 
REMARK    8  A    between atoms: C10_10  and  O2_12 
REMARK    9  A    between atoms: C12_14  and  C14_16 
REMARK   10  A    between atoms: C14_16  and  O3_17 
REMARK   11  A    between atoms: O3_17  and  C15_18 
REMARK   12  A    between atoms: C20_24  and  O5_25 
REMARK   13  A    between atoms: C22_28  and  C23_29 
REMARK       I    between atoms: C23_29  and  N1_31 
REMARK   14  A    between atoms: N1_31  and  C24_33 
REMARK   15  A    between atoms: C28_37  and  O7_38 
ROOT
HETATM    1  C1  UNL     1      17.577  25.106  16.296  1.00  0.00     0.019 C 
HETATM    2  C2  UNL     1      18.421  24.268  15.643  1.00  0.00    -0.061 C 
ENDROOT
BRANCH   2   3
HETATM    3  C3  UNL     1      18.200  22.883  15.904  1.00  0.00     0.003 C 
HETATM    4  C4  UNL     1      18.345  22.013  16.822  1.00  0.00    -0.022 C 
BRANCH   4   5
HETATM    5  C5  UNL     1      18.878  22.037  18.181  1.00  0.00     0.061 C 
BRANCH   5   6
HETATM    6  C6  UNL     1      18.035  22.711  19.205  1.00  0.00    -0.074 C 
HETATM    7  C7  UNL     1      16.875  22.245  19.564  1.00  0.00    -0.009 C 
BRANCH   7   8
HETATM    8  C8  UNL     1      16.013  21.129  19.252  1.00  0.00     0.104 C 
HETATM    9  C9  UNL     1      15.486  20.221  20.277  1.00  0.00     0.025 C 
BRANCH   8  10
HETATM   10  C10 UNL     1      14.815  21.583  18.431  1.00  0.00     0.265 C 
HETATM   11  O1  UNL     1      13.803  20.870  18.333  1.00  0.00    -0.265 OA
BRANCH  10  12
HETATM   12  O2  UNL     1      14.877  22.791  17.805  1.00  0.00    -0.326 OA
HETATM   13  C11 UNL     1      14.542  23.001  16.443  1.00  0.00     0.213 C 
ENDBRANCH  10  12
ENDBRANCH   8  10
ENDBRANCH   7   8
BRANCH   6  14
HETATM   14  C12 UNL     1      18.499  24.012  19.760  1.00  0.00     0.035 C 
HETATM   15  C13 UNL     1      18.516  24.077  21.270  1.00  0.00     0.017 C 
BRANCH  14  16
HETATM   16  C14 UNL     1      19.822  24.508  19.280  1.00  0.00     0.187 C 
BRANCH  16  17
HETATM   17  O3  UNL     1      20.415  25.425  20.167  1.00  0.00    -0.321 OA
BRANCH  17  18
HETATM   18  C15 UNL     1      21.799  25.450  20.269  1.00  0.00     0.254 C 
HETATM   19  C16 UNL     1      22.546  24.299  19.703  1.00  0.00     0.126 C 
HETATM   20  O4  UNL     1      22.358  26.424  20.821  1.00  0.00    -0.266 OA
ENDBRANCH  17  18
ENDBRANCH  16  17
ENDBRANCH  14  16
ENDBRANCH   6  14
ENDBRANCH   5   6
ENDBRANCH   4   5
ENDBRANCH   2   3
BRANCH   2  21
HETATM   21  C17 UNL     1      19.428  24.856  14.806  1.00  0.00     0.048 C 
HETATM   22  C18 UNL     1      19.215  26.277  14.336  1.00  0.00     0.020 C 
HETATM   23  C19 UNL     1      20.605  26.784  14.274  1.00  0.00     0.026 C 
HETATM   24  C20 UNL     1      20.915  28.188  14.346  1.00  0.00     0.124 C 
HETATM   25  C26 UNL     1      21.115  26.273  15.640  1.00  0.00     0.001 C 
HETATM   26  C21 UNL     1      22.220  28.227  15.160  1.00  0.00     0.047 C 
HETATM   27  C22 UNL     1      22.516  26.751  15.495  1.00  0.00     0.091 C 
HETATM   28  C27 UNL     1      20.416  26.827  16.806  1.00  0.00     0.019 C 
HETATM   29  C28 UNL     1      20.856  24.832  15.395  1.00  0.00     0.136 C 
BRANCH  24  30
HETATM   30  O5  UNL     1      19.970  29.048  14.840  1.00  0.00    -0.395 OA
ATOM     31  H5  UNL     1      20.176  29.558  15.616  1.00  0.00     0.210 HD
ENDBRANCH  24  30
BRANCH  27  32
HETATM   32  C23 UNL     1      23.368  26.655  16.665  1.00  0.00     0.222 C 
HETATM   33  O6  UNL     1      23.162  27.369  17.670  1.00  0.00    -0.273 OA
HETATM   34  N1  UNL     1      24.454  25.746  16.689  1.00  0.00    -0.361 N 
ATOM     35  H1  UNL     1      24.624  25.162  15.869  1.00  0.00     0.162 HD
BRANCH  34  36
HETATM   36  C24 UNL     1      25.335  25.614  17.836  1.00  0.00     0.118 C 
HETATM   37  C25 UNL     1      26.064  24.293  17.810  1.00  0.00     0.026 C 
ENDBRANCH  34  36
ENDBRANCH  27  32
BRANCH  29  38
HETATM   38  O7  UNL     1      21.775  24.406  14.425  1.00  0.00    -0.394 OA
ATOM     39  H7  UNL     1      22.663  24.580  14.714  1.00  0.00     0.210 HD
ENDBRANCH  29  38
ENDBRANCH   2  21
TORSDOF 15
ENDMDL
MODEL 4
REMARK VINA RESULT: -9.344498071      2.152      4.919
REMARK  15 active torsions:
REMARK  status: ('A' for Active; 'I' for Inactive)
REMARK    1  A    between atoms: C2_2  and  C3_3 
REMARK    2  A    between atoms: C2_2  and  C17_21 
REMARK    3  A    between atoms: C4_4  and  C5_5 
REMARK    4  A    between atoms: C5_5  and  C6_6 
REMARK    5  A    between atoms: C6_6  and  C12_14 
REMARK    6  A    between atoms: C7_7  and  C8_8 
REMARK    7  A    between atoms: C8_8  and  C10_10 
REMARK    8  A    between atoms: C10_10  and  O2_12 
REMARK    9  A    between atoms: C12_14  and  C14_16 
REMARK   10  A    between atoms: C14_16  and  O3_17 
REMARK   11  A    between atoms: O3_17  and  C15_18 
REMARK   12  A    between atoms: C20_24  and  O5_25 
REMARK   13  A    between atoms: C22_28  and  C23_29 
REMARK       I    between atoms: C23_29  and  N1_31 
REMARK   14  A    between atoms: N1_31  and  C24_33 
REMARK   15  A    between atoms: C28_37  and  O7_38 
ROOT
HETATM    1  C1  UNL     1      18.735  22.914  15.967  1.00  0.00     0.019 C 
HETATM    2  C2  UNL     1      18.526  24.208  15.619  1.00  0.00    -0.061 C 
ENDROOT
BRANCH   2   3
HETATM    3  C3  UNL     1      17.308  24.765  16.114  1.00  0.00     0.003 C 
HETATM    4  C4  UNL     1      16.714  25.031  17.207  1.00  0.00    -0.022 C 
BRANCH   4   5
HETATM    5  C5  UNL     1      17.041  24.858  18.619  1.00  0.00     0.061 C 
BRANCH   5   6
HETATM    6  C6  UNL     1      17.413  23.482  19.043  1.00  0.00    -0.074 C 
HETATM    7  C7  UNL     1      16.599  22.475  18.921  1.00  0.00    -0.009 C 
BRANCH   7   8
HETATM    8  C8  UNL     1      15.262  22.216  18.441  1.00  0.00     0.104 C 
HETATM    9  C9  UNL     1      14.952  22.016  17.021  1.00  0.00     0.025 C 
BRANCH   8  10
HETATM   10  C10 UNL     1      14.638  21.041  19.180  1.00  0.00     0.265 C 
HETATM   11  O1  UNL     1      13.677  20.421  18.696  1.00  0.00    -0.265 OA
BRANCH  10  12
HETATM   12  O2  UNL     1      15.158  20.683  20.387  1.00  0.00    -0.326 OA
HETATM   13  C11 UNL     1      15.128  19.365  20.909  1.00  0.00     0.213 C 
ENDBRANCH  10  12
ENDBRANCH   8  10
ENDBRANCH   7   8
BRANCH   6  14
HETATM   14  C12 UNL     1      18.725  23.279  19.716  1.00  0.00     0.035 C 
HETATM   15  C13 UNL     1      19.207  21.845  19.727  1.00  0.00     0.017 C 
BRANCH  14  16
HETATM   16  C14 UNL     1      19.858  24.123  19.239  1.00  0.00     0.187 C 
BRANCH  16  17
HETATM   17  O3  UNL     1      20.218  25.125  20.159  1.00  0.00    -0.321 OA
BRANCH  17  18
HETATM   18  C15 UNL     1      21.552  25.498  20.247  1.00  0.00     0.254 C 
HETATM   19  C16 UNL     1      22.569  24.500  19.829  1.00  0.00     0.126 C 
HETATM   20  O4  UNL     1      21.846  26.639  20.668  1.00  0.00    -0.266 OA
ENDBRANCH  17  18
ENDBRANCH  16  17
ENDBRANCH  14  16
ENDBRANCH   6  14
ENDBRANCH   5   6
ENDBRANCH   4   5
ENDBRANCH   2   3
BRANCH   2  21
HETATM   21  C17 UNL     1      19.513  24.845  14.794  1.00  0.00     0.048 C 
HETATM   22  C18 UNL     1      19.262  26.272  14.366  1.00  0.00     0.020 C 
HETATM   23  C19 UNL     1      20.638  26.816  14.312  1.00  0.00     0.026 C 
HETATM   24  C20 UNL     1      20.914  28.225  14.422  1.00  0.00     0.124 C 
HETATM   25  C26 UNL     1      21.168  26.280  15.661  1.00  0.00     0.001 C 
HETATM   26  C21 UNL     1      22.221  28.274  15.231  1.00  0.00     0.047 C 
HETATM   27  C22 UNL     1      22.556  26.798  15.523  1.00  0.00     0.091 C 
HETATM   28  C27 UNL     1      20.462  26.783  16.845  1.00  0.00     0.019 C 
HETATM   29  C28 UNL     1      20.944  24.841  15.376  1.00  0.00     0.136 C 
BRANCH  24  30
HETATM   30  O5  UNL     1      19.950  29.047  14.944  1.00  0.00    -0.395 OA
ATOM     31  H5  UNL     1      19.774  29.011  15.878  1.00  0.00     0.210 HD
ENDBRANCH  24  30
BRANCH  27  32
HETATM   32  C23 UNL     1      23.416  26.691  16.687  1.00  0.00     0.222 C 
HETATM   33  O6  UNL     1      23.233  27.414  17.689  1.00  0.00    -0.273 OA
HETATM   34  N1  UNL     1      24.484  25.760  16.705  1.00  0.00    -0.361 N 
ATOM     35  H1  UNL     1      24.635  25.170  15.888  1.00  0.00     0.162 HD
BRANCH  34  36
HETATM   36  C24 UNL     1      25.372  25.616  17.846  1.00  0.00     0.118 C 
HETATM   37  C25 UNL     1      26.035  24.262  17.848  1.00  0.00     0.026 C 
ENDBRANCH  34  36
ENDBRANCH  27  32
BRANCH  29  38
HETATM   38  O7  UNL     1      21.869  24.465  14.391  1.00  0.00    -0.394 OA
ATOM     39  H7  UNL     1      22.604  24.010  14.785  1.00  0.00     0.210 HD
ENDBRANCH  29  38
ENDBRANCH   2  21
TORSDOF 15
ENDMDL
MODEL 5
REMARK VINA RESULT: -9.310989158      2.241      3.847
REMARK  15 active torsions:
REMARK  status: ('A' for Active; 'I' for Inactive)
REMARK    1  A    between atoms: C2_2  and  C3_3 
REMARK    2  A    between atoms: C2_2  and  C17_21 
REMARK    3  A    between atoms: C4_4  and  C5_5 
REMARK    4  A    between atoms: C5_5  and  C6_6 
REMARK    5  A    between atoms: C6_6  and  C12_14 
REMARK    6  A    between atoms: C7_7  and  C8_8 
REMARK    7  A    between atoms: C8_8  and  C10_10 
REMARK    8  A    between atoms: C10_10  and  O2_12 
REMARK    9  A    between atoms: C12_14  and  C14_16 
REMARK   10  A    between atoms: C14_16  and  O3_17 
REMARK   11  A    between atoms: O3_17  and  C15_18 
REMARK   12  A    between atoms: C20_24  and  O5_25 
REMARK   13  A    between atoms: C22_28  and  C23_29 
REMARK       I    between atoms: C23_29  and  N1_31 
REMARK   14  A    between atoms: N1_31  and  C24_33 
REMARK   15  A    between atoms: C28_37  and  O7_38 
ROOT
HETATM    1  C1  UNL     1      17.947  20.965  17.434  1.00  0.00     0.019 C 
HETATM    2  C2  UNL     1      17.607  22.212  17.024  1.00  0.00    -0.061 C 
ENDROOT
BRANCH   2   3
HETATM    3  C3  UNL     1      16.971  22.263  15.747  1.00  0.00     0.003 C 
HETATM    4  C4  UNL     1      15.814  22.285  15.218  1.00  0.00    -0.022 C 
BRANCH   4   5
HETATM    5  C5  UNL     1      14.450  22.254  15.735  1.00  0.00     0.061 C 
BRANCH   5   6
HETATM    6  C6  UNL     1      13.956  20.931  16.206  1.00  0.00    -0.074 C 
HETATM    7  C7  UNL     1      13.375  20.085  15.408  1.00  0.00    -0.009 C 
BRANCH   7   8
HETATM    8  C8  UNL     1      12.996  19.992  14.017  1.00  0.00     0.104 C 
HETATM    9  C9  UNL     1      13.933  19.584  12.964  1.00  0.00     0.025 C 
BRANCH   8  10
HETATM   10  C10 UNL     1      11.763  19.118  13.848  1.00  0.00     0.265 C 
HETATM   11  O1  UNL     1      11.483  18.241  14.683  1.00  0.00    -0.265 OA
BRANCH  10  12
HETATM   12  O2  UNL     1      10.970  19.317  12.759  1.00  0.00    -0.326 OA
HETATM   13  C11 UNL     1      10.628  18.306  11.826  1.00  0.00     0.213 C 
ENDBRANCH  10  12
ENDBRANCH   8  10
ENDBRANCH   7   8
BRANCH   6  14
HETATM   14  C12 UNL     1      14.050  20.617  17.657  1.00  0.00     0.035 C 
HETATM   15  C13 UNL     1      14.412  21.797  18.531  1.00  0.00     0.017 C 
BRANCH  14  16
HETATM   16  C14 UNL     1      12.863  19.956  18.275  1.00  0.00     0.187 C 
BRANCH  16  17
HETATM   17  O3  UNL     1      13.196  18.788  18.985  1.00  0.00    -0.321 OA
BRANCH  17  18
HETATM   18  C15 UNL     1      12.980  18.758  20.355  1.00  0.00     0.254 C 
HETATM   19  C16 UNL     1      14.157  18.965  21.237  1.00  0.00     0.126 C 
HETATM   20  O4  UNL     1      11.824  18.564  20.792  1.00  0.00    -0.266 OA
ENDBRANCH  17  18
ENDBRANCH  16  17
ENDBRANCH  14  16
ENDBRANCH   6  14
ENDBRANCH   5   6
ENDBRANCH   4   5
ENDBRANCH   2   3
BRANCH   2  21
HETATM   21  C17 UNL     1      17.939  23.311  17.886  1.00  0.00     0.048 C 
HETATM   22  C18 UNL     1      19.172  23.183  18.750  1.00  0.00     0.020 C 
HETATM   23  C19 UNL     1      19.644  24.585  18.811  1.00  0.00     0.026 C 
HETATM   24  C20 UNL     1      21.012  24.925  19.100  1.00  0.00     0.124 C 
HETATM   25  C26 UNL     1      19.533  24.948  17.313  1.00  0.00     0.001 C 
HETATM   26  C21 UNL     1      21.277  26.146  18.203  1.00  0.00     0.047 C 
HETATM   27  C22 UNL     1      19.953  26.368  17.444  1.00  0.00     0.091 C 
HETATM   28  C27 UNL     1      20.389  24.155  16.422  1.00  0.00     0.019 C 
HETATM   29  C28 UNL     1      18.081  24.674  17.174  1.00  0.00     0.136 C 
BRANCH  24  30
HETATM   30  O5  UNL     1      21.975  23.961  18.961  1.00  0.00    -0.395 OA
ATOM     31  H5  UNL     1      21.743  23.055  19.127  1.00  0.00     0.210 HD
ENDBRANCH  24  30
BRANCH  27  32
HETATM   32  C23 UNL     1      20.188  27.102  16.214  1.00  0.00     0.222 C 
HETATM   33  O6  UNL     1      20.980  28.068  16.183  1.00  0.00    -0.273 OA
HETATM   34  N1  UNL     1      19.520  26.732  15.021  1.00  0.00    -0.361 N 
ATOM     35  H1  UNL     1      18.873  25.943  15.044  1.00  0.00     0.162 HD
BRANCH  34  36
HETATM   36  C24 UNL     1      19.722  27.434  13.765  1.00  0.00     0.118 C 
HETATM   37  C25 UNL     1      20.504  26.588  12.792  1.00  0.00     0.026 C 
ENDBRANCH  34  36
ENDBRANCH  27  32
BRANCH  29  38
HETATM   38  O7  UNL     1      17.402  25.671  17.890  1.00  0.00    -0.394 OA
ATOM     39  H7  UNL     1      17.972  26.049  18.550  1.00  0.00     0.210 HD
ENDBRANCH  29  38
ENDBRANCH   2  21
TORSDOF 15
ENDMDL
