MODEL 1
REMARK VINA RESULT: -9.943363360      0.000      0.000
REMARK  12 active torsions:
REMARK  status: ('A' for Active; 'I' for Inactive)
REMARK    1  A    between atoms: C3_3  and  N1_4 
REMARK    2  A    between atoms: N1_4  and  C5_6 
REMARK    3  A    between atoms: C5_6  and  C6_7 
REMARK    4  A    between atoms: C6_7  and  C7_8 
REMARK    5  A    between atoms: C7_8  and  N2_9 
REMARK    6  A    between atoms: N2_9  and  C8_11 
REMARK    7  A    between atoms: C9_14  and  C10_15 
REMARK    8  A    between atoms: C12_17  and  O1_18 
REMARK    9  A    between atoms: C14_20  and  O2_21 
REMARK   10  A    between atoms: N6_30  and  C19_32 
REMARK   11  A    between atoms: C19_32  and  C20_33 
REMARK   12  A    between atoms: C20_33  and  C21_34 
ROOT
HETATM    1  C1  UNL     1      13.652  16.654  12.188  1.00  0.00     0.013 C 
HETATM    2  C2  UNL     1      12.923  17.447  12.760  1.00  0.00    -0.087 C 
HETATM    3  C3  UNL     1      12.044  18.368  13.453  1.00  0.00     0.364 C 
ENDROOT
BRANCH   3   4
HETATM    4  N1  UNL     1      12.515  19.727  13.323  1.00  0.00     0.095 N 
HETATM    5  C4  UNL     1      11.589  20.614  14.043  1.00  0.00     0.310 C 
BRANCH   4   6
HETATM    6  C5  UNL     1      13.779  19.851  14.004  1.00  0.00     0.274 C 
BRANCH   6   7
HETATM    7  C6  UNL     1      14.733  20.814  13.310  1.00  0.00     0.050 C 
BRANCH   7   8
HETATM    8  C7  UNL     1      14.982  21.937  14.310  1.00  0.00     0.140 C 
BRANCH   8   9
HETATM    9  N2  UNL     1      16.201  22.624  14.045  1.00  0.00    -0.225 N 
ATOM     10  H2  UNL     1      16.442  22.791  13.068  1.00  0.00     0.177 HD
BRANCH   9  11
HETATM   11  C8  UNL     1      17.020  23.049  14.936  1.00  0.00     0.694 A 
HETATM   12  N3  UNL     1      17.804  24.122  14.777  1.00  0.00    -0.173 N 
HETATM   13  C9  UNL     1      18.675  24.572  15.731  1.00  0.00     0.163 A 
ATOM     14  H3  UNL     1      17.748  24.632  13.896  1.00  0.00     0.186 HD
HETATM   15  N5  UNL     1      18.704  23.863  16.867  1.00  0.00    -0.173 N 
HETATM   16  C18 UNL     1      17.913  22.762  17.055  1.00  0.00     0.694 A 
ATOM     17  H5  UNL     1      19.335  24.152  17.614  1.00  0.00     0.186 HD
HETATM   18  N6  UNL     1      18.023  22.171  18.167  1.00  0.00    -0.225 N 
HETATM   19  N8  UNL     1      17.074  22.359  16.089  1.00  0.00    -0.022 N 
ATOM     20  H6  UNL     1      18.699  22.587  18.808  1.00  0.00     0.177 HD
ATOM     21  H8  UNL     1      16.483  21.540  16.227  1.00  0.00     0.203 HD
BRANCH  13  22
HETATM   22  C10 UNL     1      19.495  25.751  15.477  1.00  0.00     0.081 A 
HETATM   23  C11 UNL     1      20.084  26.438  16.500  1.00  0.00     0.073 A 
HETATM   24  C12 UNL     1      20.871  27.567  16.279  1.00  0.00     0.105 A 
HETATM   25  C14 UNL     1      21.033  27.968  14.972  1.00  0.00     0.123 A 
HETATM   26  C16 UNL     1      20.437  27.273  13.935  1.00  0.00     0.042 A 
HETATM   27  C17 UNL     1      20.632  27.733  12.535  1.00  0.00     0.071 C 
HETATM   28  N4  UNL     1      19.690  26.189  14.238  1.00  0.00    -0.354 N 
ATOM     29  H4  UNL     1      19.252  25.677  13.473  1.00  0.00     0.166 HD
BRANCH  24  30
HETATM   30  O1  UNL     1      21.466  28.256  17.352  1.00  0.00    -0.353 OA
HETATM   31  C13 UNL     1      21.853  27.578  18.511  1.00  0.00     0.210 C 
ENDBRANCH  24  30
BRANCH  25  32
HETATM   32  O2  UNL     1      21.794  29.073  14.665  1.00  0.00    -0.351 OA
HETATM   33  C15 UNL     1      23.193  29.145  14.746  1.00  0.00     0.210 C 
ENDBRANCH  25  32
ENDBRANCH  13  22
BRANCH  18  34
HETATM   34  C19 UNL     1      17.360  21.025  18.669  1.00  0.00     0.142 C 
BRANCH  34  35
HETATM   35  C20 UNL     1      16.147  21.423  19.484  1.00  0.00     0.061 C 
BRANCH  35  36
HETATM   36  C21 UNL     1      14.945  20.629  19.181  1.00  0.00    -0.029 A 
HETATM   37  C22 UNL     1      14.202  20.652  18.023  1.00  0.00     0.096 A 
HETATM   38  N7  UNL     1      13.166  19.774  18.137  1.00  0.00    -0.365 N 
HETATM   39  C23 UNL     1      13.217  19.183  19.340  1.00  0.00     0.042 A 
ATOM     40  H7  UNL     1      12.462  19.595  17.421  1.00  0.00     0.165 HD
HETATM   41  C24 UNL     1      12.455  18.233  20.003  1.00  0.00     0.030 A 
HETATM   42  C28 UNL     1      14.331  19.714  20.001  1.00  0.00    -0.002 A 
HETATM   43  C25 UNL     1      12.763  17.804  21.285  1.00  0.00     0.002 A 
HETATM   44  C26 UNL     1      13.872  18.361  21.888  1.00  0.00     0.001 A 
HETATM   45  C27 UNL     1      14.659  19.310  21.262  1.00  0.00     0.014 A 
ENDBRANCH  35  36
ENDBRANCH  34  35
ENDBRANCH  18  34
ENDBRANCH   9  11
ENDBRANCH   8   9
ENDBRANCH   7   8
ENDBRANCH   6   7
ENDBRANCH   4   6
ENDBRANCH   3   4
TORSDOF 12
ENDMDL
MODEL 2
REMARK VINA RESULT: -9.567957560      0.946      1.499
REMARK  12 active torsions:
REMARK  status: ('A' for Active; 'I' for Inactive)
REMARK    1  A    between atoms: C3_3  and  N1_4 
REMARK    2  A    between atoms: N1_4  and  C5_6 
REMARK    3  A    between atoms: C5_6  and  C6_7 
REMARK    4  A    between atoms: C6_7  and  C7_8 
REMARK    5  A    between atoms: C7_8  and  N2_9 
REMARK    6  A    between atoms: N2_9  and  C8_11 
REMARK    7  A    between atoms: C9_14  and  C10_15 
REMARK    8  A    between atoms: C12_17  and  O1_18 
REMARK    9  A    between atoms: C14_20  and  O2_21 
REMARK   10  A    between atoms: N6_30  and  C19_32 
REMARK   11  A    between atoms: C19_32  and  C20_33 
REMARK   12  A    between atoms: C20_33  and  C21_34 
ROOT
HETATM    1  C1  UNL     1      14.323  16.283  12.168  1.00  0.00     0.013 C 
HETATM    2  C2  UNL     1      13.401  17.022  12.471  1.00  0.00    -0.087 C 
HETATM    3  C3  UNL     1      12.291  17.878  12.842  1.00  0.00     0.364 C 
ENDROOT
BRANCH   3   4
HETATM    4  N1  UNL     1      12.659  19.271  12.743  1.00  0.00     0.095 N 
HETATM    5  C4  UNL     1      11.538  20.087  13.234  1.00  0.00     0.310 C 
BRANCH   4   6
HETATM    6  C5  UNL     1      13.753  19.531  13.645  1.00  0.00     0.274 C 
BRANCH   6   7
HETATM    7  C6  UNL     1      14.678  20.635  13.151  1.00  0.00     0.050 C 
BRANCH   7   8
HETATM    8  C7  UNL     1      14.928  21.531  14.359  1.00  0.00     0.140 C 
BRANCH   8   9
HETATM    9  N2  UNL     1      16.109  22.312  14.205  1.00  0.00    -0.225 N 
ATOM     10  H2  UNL     1      16.413  22.521  13.254  1.00  0.00     0.177 HD
BRANCH   9  11
HETATM   11  C8  UNL     1      16.821  22.773  15.167  1.00  0.00     0.694 A 
HETATM   12  N3  UNL     1      17.594  23.861  15.067  1.00  0.00    -0.173 N 
HETATM   13  C9  UNL     1      18.352  24.350  16.096  1.00  0.00     0.163 A 
ATOM     14  H3  UNL     1      17.619  24.353  14.174  1.00  0.00     0.186 HD
HETATM   15  N5  UNL     1      18.278  23.663  17.244  1.00  0.00    -0.173 N 
HETATM   16  C18 UNL     1      17.495  22.548  17.373  1.00  0.00     0.694 A 
ATOM     17  H5  UNL     1      18.822  23.981  18.046  1.00  0.00     0.186 HD
HETATM   18  N6  UNL     1      17.501  21.981  18.502  1.00  0.00    -0.225 N 
HETATM   19  N8  UNL     1      16.770  22.107  16.333  1.00  0.00    -0.022 N 
ATOM     20  H6  UNL     1      18.099  22.426  19.200  1.00  0.00     0.177 HD
ATOM     21  H8  UNL     1      16.186  21.277  16.427  1.00  0.00     0.203 HD
BRANCH  13  22
HETATM   22  C10 UNL     1      19.168  25.543  15.902  1.00  0.00     0.081 A 
HETATM   23  C11 UNL     1      19.707  26.212  16.965  1.00  0.00     0.073 A 
HETATM   24  C12 UNL     1      20.490  27.354  16.802  1.00  0.00     0.105 A 
HETATM   25  C14 UNL     1      20.701  27.787  15.512  1.00  0.00     0.123 A 
HETATM   26  C16 UNL     1      20.155  27.110  14.436  1.00  0.00     0.042 A 
HETATM   27  C17 UNL     1      20.403  27.604  13.057  1.00  0.00     0.071 C 
HETATM   28  N4  UNL     1      19.409  26.011  14.683  1.00  0.00    -0.354 N 
ATOM     29  H4  UNL     1      19.008  25.513  13.889  1.00  0.00     0.166 HD
BRANCH  24  30
HETATM   30  O1  UNL     1      21.032  28.024  17.914  1.00  0.00    -0.353 OA
HETATM   31  C13 UNL     1      21.615  27.310  18.965  1.00  0.00     0.210 C 
ENDBRANCH  24  30
BRANCH  25  32
HETATM   32  O2  UNL     1      21.461  28.906  15.262  1.00  0.00    -0.351 OA
HETATM   33  C15 UNL     1      22.860  28.931  15.149  1.00  0.00     0.210 C 
ENDBRANCH  25  32
ENDBRANCH  13  22
BRANCH  18  34
HETATM   34  C19 UNL     1      16.815  20.830  18.957  1.00  0.00     0.142 C 
BRANCH  34  35
HETATM   35  C20 UNL     1      15.666  21.216  19.865  1.00  0.00     0.061 C 
BRANCH  35  36
HETATM   36  C21 UNL     1      14.741  20.107  20.153  1.00  0.00    -0.029 A 
HETATM   37  C22 UNL     1      14.757  19.272  21.246  1.00  0.00     0.096 A 
HETATM   38  N7  UNL     1      13.737  18.374  21.140  1.00  0.00    -0.365 N 
HETATM   39  C23 UNL     1      13.060  18.606  20.006  1.00  0.00     0.042 A 
ATOM     40  H7  UNL     1      13.523  17.642  21.817  1.00  0.00     0.165 HD
HETATM   41  C24 UNL     1      11.961  18.035  19.382  1.00  0.00     0.030 A 
HETATM   42  C28 UNL     1      13.684  19.692  19.381  1.00  0.00    -0.002 A 
HETATM   43  C25 UNL     1      11.473  18.506  18.172  1.00  0.00     0.002 A 
HETATM   44  C26 UNL     1      12.126  19.579  17.602  1.00  0.00     0.001 A 
HETATM   45  C27 UNL     1      13.225  20.177  18.192  1.00  0.00     0.014 A 
ENDBRANCH  35  36
ENDBRANCH  34  35
ENDBRANCH  18  34
ENDBRANCH   9  11
ENDBRANCH   8   9
ENDBRANCH   7   8
ENDBRANCH   6   7
ENDBRANCH   4   6
ENDBRANCH   3   4
TORSDOF 12
ENDMDL
MODEL 3
REMARK VINA RESULT: -9.508669248      3.969     11.226
REMARK  12 active torsions:
REMARK  status: ('A' for Active; 'I' for Inactive)
REMARK    1  A    between atoms: C3_3  and  N1_4 
REMARK    2  A    between atoms: N1_4  and  C5_6 
REMARK    3  A    between atoms: C5_6  and  C6_7 
REMARK    4  A    between atoms: C6_7  and  C7_8 
REMARK    5  A    between atoms: C7_8  and  N2_9 
REMARK    6  A    between atoms: N2_9  and  C8_11 
REMARK    7  A    between atoms: C9_14  and  C10_15 
REMARK    8  A    between atoms: C12_17  and  O1_18 
REMARK    9  A    between atoms: C14_20  and  O2_21 
REMARK   10  A    between atoms: N6_30  and  C19_32 
REMARK   11  A    between atoms: C19_32  and  C20_33 
REMARK   12  A    between atoms: C20_33  and  C21_34 
ROOT
HETATM    1  C1  UNL     1      23.787  25.080  22.896  1.00  0.00     0.013 C 
HETATM    2  C2  UNL     1      22.753  25.658  22.607  1.00  0.00    -0.087 C 
HETATM    3  C3  UNL     1      21.527  26.363  22.285  1.00  0.00     0.364 C 
ENDROOT
BRANCH   3   4
HETATM    4  N1  UNL     1      21.034  25.972  20.985  1.00  0.00     0.095 N 
HETATM    5  C4  UNL     1      21.996  26.417  19.966  1.00  0.00     0.310 C 
BRANCH   4   6
HETATM    6  C5  UNL     1      21.020  24.533  20.903  1.00  0.00     0.274 C 
BRANCH   6   7
HETATM    7  C6  UNL     1      19.678  23.931  21.293  1.00  0.00     0.050 C 
BRANCH   7   8
HETATM    8  C7  UNL     1      18.720  24.296  20.165  1.00  0.00     0.140 C 
BRANCH   8   9
HETATM    9  N2  UNL     1      17.556  23.477  20.170  1.00  0.00    -0.225 N 
ATOM     10  H2  UNL     1      17.117  23.291  21.072  1.00  0.00     0.177 HD
BRANCH   9  11
HETATM   11  C8  UNL     1      17.015  22.953  19.132  1.00  0.00     0.694 A 
HETATM   12  N3  UNL     1      15.959  22.131  19.175  1.00  0.00    -0.173 N 
HETATM   13  C9  UNL     1      15.385  21.575  18.064  1.00  0.00     0.163 A 
ATOM     14  H3  UNL     1      15.561  21.907  20.087  1.00  0.00     0.186 HD
HETATM   15  N5  UNL     1      15.950  21.905  16.896  1.00  0.00    -0.173 N 
HETATM   16  C18 UNL     1      17.030  22.744  16.824  1.00  0.00     0.694 A 
ATOM     17  H5  UNL     1      15.564  21.520  16.034  1.00  0.00     0.186 HD
HETATM   18  N6  UNL     1      17.480  22.987  15.668  1.00  0.00    -0.225 N 
HETATM   19  N8  UNL     1      17.558  23.264  17.942  1.00  0.00    -0.022 N 
ATOM     20  H6  UNL     1      16.979  22.524  14.908  1.00  0.00     0.177 HD
ATOM     21  H8  UNL     1      18.362  23.889  17.891  1.00  0.00     0.203 HD
BRANCH  13  22
HETATM   22  C10 UNL     1      14.235  20.688  18.201  1.00  0.00     0.081 A 
HETATM   23  C11 UNL     1      13.358  20.503  17.169  1.00  0.00     0.073 A 
HETATM   24  C12 UNL     1      12.253  19.660  17.278  1.00  0.00     0.105 A 
HETATM   25  C14 UNL     1      12.078  19.013  18.481  1.00  0.00     0.123 A 
HETATM   26  C16 UNL     1      12.966  19.200  19.526  1.00  0.00     0.042 A 
HETATM   27  C17 UNL     1      12.747  18.487  20.811  1.00  0.00     0.071 C 
HETATM   28  N4  UNL     1      14.011  20.035  19.335  1.00  0.00    -0.354 N 
ATOM     29  H4  UNL     1      14.665  20.172  20.106  1.00  0.00     0.166 HD
BRANCH  24  30
HETATM   30  O1  UNL     1      11.365  19.488  16.201  1.00  0.00    -0.353 OA
HETATM   31  C13 UNL     1      11.772  19.754  14.890  1.00  0.00     0.210 C 
ENDBRANCH  24  30
BRANCH  25  32
HETATM   32  O2  UNL     1      11.013  18.164  18.674  1.00  0.00    -0.351 OA
HETATM   33  C15 UNL     1      10.925  16.848  18.192  1.00  0.00     0.210 C 
ENDBRANCH  25  32
ENDBRANCH  13  22
BRANCH  18  34
HETATM   34  C19 UNL     1      18.564  23.797  15.254  1.00  0.00     0.142 C 
BRANCH  34  35
HETATM   35  C20 UNL     1      18.156  25.255  15.209  1.00  0.00     0.061 C 
BRANCH  35  36
HETATM   36  C21 UNL     1      19.236  26.184  15.580  1.00  0.00    -0.029 A 
HETATM   37  C22 UNL     1      19.695  26.464  16.846  1.00  0.00     0.096 A 
HETATM   38  N7  UNL     1      20.702  27.378  16.767  1.00  0.00    -0.365 N 
HETATM   39  C23 UNL     1      20.908  27.699  15.481  1.00  0.00     0.042 A 
ATOM     40  H7  UNL     1      21.219  27.759  17.559  1.00  0.00     0.165 HD
HETATM   41  C24 UNL     1      21.771  28.547  14.804  1.00  0.00     0.030 A 
HETATM   42  C28 UNL     1      19.991  26.953  14.729  1.00  0.00    -0.002 A 
HETATM   43  C25 UNL     1      21.749  28.674  13.422  1.00  0.00     0.002 A 
HETATM   44  C26 UNL     1      20.825  27.915  12.733  1.00  0.00     0.001 A 
HETATM   45  C27 UNL     1      19.947  27.057  13.371  1.00  0.00     0.014 A 
ENDBRANCH  35  36
ENDBRANCH  34  35
ENDBRANCH  18  34
ENDBRANCH   9  11
ENDBRANCH   8   9
ENDBRANCH   7   8
ENDBRANCH   6   7
ENDBRANCH   4   6
ENDBRANCH   3   4
TORSDOF 12
ENDMDL
MODEL 4
REMARK VINA RESULT: -9.416329676      3.015      6.604
REMARK  12 active torsions:
REMARK  status: ('A' for Active; 'I' for Inactive)
REMARK    1  A    between atoms: C3_3  and  N1_4 
REMARK    2  A    between atoms: N1_4  and  C5_6 
REMARK    3  A    between atoms: C5_6  and  C6_7 
REMARK    4  A    between atoms: C6_7  and  C7_8 
REMARK    5  A    between atoms: C7_8  and  N2_9 
REMARK    6  A    between atoms: N2_9  and  C8_11 
REMARK    7  A    between atoms: C9_14  and  C10_15 
REMARK    8  A    between atoms: C12_17  and  O1_18 
REMARK    9  A    between atoms: C14_20  and  O2_21 
REMARK   10  A    between atoms: N6_30  and  C19_32 
REMARK   11  A    between atoms: C19_32  and  C20_33 
REMARK   12  A    between atoms: C20_33  and  C21_34 
ROOT
HETATM    1  C1  UNL     1      23.495  26.785  16.279  1.00  0.00     0.013 C 
HETATM    2  C2  UNL     1      22.387  27.281  16.164  1.00  0.00    -0.087 C 
HETATM    3  C3  UNL     1      21.072  27.881  16.054  1.00  0.00     0.364 C 
ENDROOT
BRANCH   3   4
HETATM    4  N1  UNL     1      20.595  27.831  14.692  1.00  0.00     0.095 N 
HETATM    5  C4  UNL     1      21.520  28.598  13.844  1.00  0.00     0.310 C 
BRANCH   4   6
HETATM    6  C5  UNL     1      20.671  26.471  14.218  1.00  0.00     0.274 C 
BRANCH   6   7
HETATM    7  C6  UNL     1      19.384  26.002  13.555  1.00  0.00     0.050 C 
BRANCH   7   8
HETATM    8  C7  UNL     1      18.374  25.842  14.686  1.00  0.00     0.140 C 
BRANCH   8   9
HETATM    9  N2  UNL     1      18.498  24.581  15.334  1.00  0.00    -0.225 N 
ATOM     10  H2  UNL     1      18.649  23.763  14.744  1.00  0.00     0.177 HD
BRANCH   9  11
HETATM   11  C8  UNL     1      18.435  24.391  16.601  1.00  0.00     0.694 A 
HETATM   12  N3  UNL     1      19.428  24.682  17.449  1.00  0.00    -0.173 N 
HETATM   13  C9  UNL     1      19.356  24.478  18.801  1.00  0.00     0.163 A 
ATOM     14  H3  UNL     1      20.287  25.078  17.067  1.00  0.00     0.186 HD
HETATM   15  N5  UNL     1      18.205  23.957  19.245  1.00  0.00    -0.173 N 
HETATM   16  C18 UNL     1      17.174  23.650  18.399  1.00  0.00     0.694 A 
ATOM     17  H5  UNL     1      18.094  23.782  20.243  1.00  0.00     0.186 HD
HETATM   18  N6  UNL     1      16.134  23.164  18.928  1.00  0.00    -0.225 N 
HETATM   19  N8  UNL     1      17.293  23.868  17.080  1.00  0.00    -0.022 N 
ATOM     20  H6  UNL     1      16.183  23.053  19.942  1.00  0.00     0.177 HD
ATOM     21  H8  UNL     1      16.526  23.641  16.448  1.00  0.00     0.203 HD
BRANCH  13  22
HETATM   22  C10 UNL     1      20.486  24.824  19.655  1.00  0.00     0.081 A 
HETATM   23  C11 UNL     1      21.739  24.341  19.401  1.00  0.00     0.073 A 
HETATM   24  C12 UNL     1      22.833  24.659  20.204  1.00  0.00     0.105 A 
HETATM   25  C14 UNL     1      22.599  25.488  21.278  1.00  0.00     0.123 A 
HETATM   26  C16 UNL     1      21.330  25.977  21.536  1.00  0.00     0.042 A 
HETATM   27  C17 UNL     1      21.112  26.870  22.704  1.00  0.00     0.071 C 
HETATM   28  N4  UNL     1      20.326  25.620  20.706  1.00  0.00    -0.354 N 
ATOM     29  H4  UNL     1      19.392  25.981  20.898  1.00  0.00     0.166 HD
BRANCH  24  30
HETATM   30  O1  UNL     1      24.112  24.148  19.920  1.00  0.00    -0.353 OA
HETATM   31  C13 UNL     1      25.005  24.862  19.115  1.00  0.00     0.210 C 
ENDBRANCH  24  30
BRANCH  25  32
HETATM   32  O2  UNL     1      23.622  25.851  22.122  1.00  0.00    -0.351 OA
HETATM   33  C15 UNL     1      24.123  25.070  23.176  1.00  0.00     0.210 C 
ENDBRANCH  25  32
ENDBRANCH  13  22
BRANCH  18  34
HETATM   34  C19 UNL     1      14.913  22.747  18.346  1.00  0.00     0.142 C 
BRANCH  34  35
HETATM   35  C20 UNL     1      15.030  21.335  17.812  1.00  0.00     0.061 C 
BRANCH  35  36
HETATM   36  C21 UNL     1      13.996  20.421  18.327  1.00  0.00    -0.029 A 
HETATM   37  C22 UNL     1      12.818  20.065  17.711  1.00  0.00     0.096 A 
HETATM   38  N7  UNL     1      12.136  19.201  18.514  1.00  0.00    -0.365 N 
HETATM   39  C23 UNL     1      12.841  18.988  19.635  1.00  0.00     0.042 A 
ATOM     40  H7  UNL     1      11.232  18.782  18.297  1.00  0.00     0.165 HD
HETATM   41  C24 UNL     1      12.660  18.230  20.782  1.00  0.00     0.030 A 
HETATM   42  C28 UNL     1      14.010  19.750  19.525  1.00  0.00    -0.002 A 
HETATM   43  C25 UNL     1      13.594  18.209  21.808  1.00  0.00     0.002 A 
HETATM   44  C26 UNL     1      14.727  18.979  21.645  1.00  0.00     0.001 A 
HETATM   45  C27 UNL     1      14.945  19.749  20.517  1.00  0.00     0.014 A 
ENDBRANCH  35  36
ENDBRANCH  34  35
ENDBRANCH  18  34
ENDBRANCH   9  11
ENDBRANCH   8   9
ENDBRANCH   7   8
ENDBRANCH   6   7
ENDBRANCH   4   6
ENDBRANCH   3   4
TORSDOF 12
ENDMDL
MODEL 5
REMARK VINA RESULT: -9.385120868      4.044     10.525
REMARK  12 active torsions:
REMARK  status: ('A' for Active; 'I' for Inactive)
REMARK    1  A    between atoms: C3_3  and  N1_4 
REMARK    2  A    between atoms: N1_4  and  C5_6 
REMARK    3  A    between atoms: C5_6  and  C6_7 
REMARK    4  A    between atoms: C6_7  and  C7_8 
REMARK    5  A    between atoms: C7_8  and  N2_9 
REMARK    6  A    between atoms: N2_9  and  C8_11 
REMARK    7  A    between atoms: C9_14  and  C10_15 
REMARK    8  A    between atoms: C12_17  and  O1_18 
REMARK    9  A    between atoms: C14_20  and  O2_21 
REMARK   10  A    between atoms: N6_30  and  C19_32 
REMARK   11  A    between atoms: C19_32  and  C20_33 
REMARK   12  A    between atoms: C20_33  and  C21_34 
ROOT
HETATM    1  C1  UNL     1      19.747  24.399  20.260  1.00  0.00     0.013 C 
HETATM    2  C2  UNL     1      19.310  23.271  20.109  1.00  0.00    -0.087 C 
HETATM    3  C3  UNL     1      18.805  21.921  19.951  1.00  0.00     0.364 C 
ENDROOT
BRANCH   3   4
HETATM    4  N1  UNL     1      17.711  21.886  19.009  1.00  0.00     0.095 N 
HETATM    5  C4  UNL     1      18.245  21.528  17.686  1.00  0.00     0.310 C 
BRANCH   4   6
HETATM    6  C5  UNL     1      16.816  20.816  19.369  1.00  0.00     0.274 C 
BRANCH   6   7
HETATM    7  C6  UNL     1      15.448  21.313  19.814  1.00  0.00     0.050 C 
BRANCH   7   8
HETATM    8  C7  UNL     1      14.436  20.417  19.109  1.00  0.00     0.140 C 
BRANCH   8   9
HETATM    9  N2  UNL     1      13.723  21.117  18.095  1.00  0.00    -0.225 N 
ATOM     10  H2  UNL     1      12.890  21.633  18.378  1.00  0.00     0.177 HD
BRANCH   9  11
HETATM   11  C8  UNL     1      14.044  21.149  16.854  1.00  0.00     0.694 A 
HETATM   12  N3  UNL     1      13.517  20.342  15.926  1.00  0.00    -0.173 N 
HETATM   13  C9  UNL     1      13.861  20.381  14.602  1.00  0.00     0.163 A 
ATOM     14  H3  UNL     1      12.819  19.659  16.222  1.00  0.00     0.186 HD
HETATM   15  N5  UNL     1      14.781  21.297  14.272  1.00  0.00    -0.173 N 
HETATM   16  C18 UNL     1      15.335  22.136  15.201  1.00  0.00     0.694 A 
ATOM     17  H5  UNL     1      15.077  21.372  13.299  1.00  0.00     0.186 HD
HETATM   18  N6  UNL     1      16.192  22.962  14.777  1.00  0.00    -0.225 N 
HETATM   19  N8  UNL     1      14.964  22.058  16.489  1.00  0.00    -0.022 N 
ATOM     20  H6  UNL     1      16.376  22.909  13.774  1.00  0.00     0.177 HD
ATOM     21  H8  UNL     1      15.376  22.682  17.183  1.00  0.00     0.203 HD
BRANCH  13  22
HETATM   22  C10 UNL     1      13.238  19.463  13.655  1.00  0.00     0.081 A 
HETATM   23  C11 UNL     1      12.002  19.718  13.131  1.00  0.00     0.073 A 
HETATM   24  C12 UNL     1      11.389  18.855  12.225  1.00  0.00     0.105 A 
HETATM   25  C14 UNL     1      12.086  17.720  11.875  1.00  0.00     0.123 A 
HETATM   26  C16 UNL     1      13.337  17.461  12.405  1.00  0.00     0.042 A 
HETATM   27  C17 UNL     1      14.062  16.227  12.006  1.00  0.00     0.071 C 
HETATM   28  N4  UNL     1      13.859  18.352  13.277  1.00  0.00    -0.354 N 
ATOM     29  H4  UNL     1      14.781  18.160  13.667  1.00  0.00     0.166 HD
BRANCH  24  30
HETATM   30  O1  UNL     1      10.115  19.141  11.701  1.00  0.00    -0.353 OA
HETATM   31  C13 UNL     1       9.962  19.535  10.368  1.00  0.00     0.210 C 
ENDBRANCH  24  30
BRANCH  25  32
HETATM   32  O2  UNL     1      11.553  16.814  10.987  1.00  0.00    -0.351 OA
HETATM   33  C15 UNL     1      10.539  15.888  11.280  1.00  0.00     0.210 C 
ENDBRANCH  25  32
ENDBRANCH  13  22
BRANCH  18  34
HETATM   34  C19 UNL     1      16.938  23.949  15.464  1.00  0.00     0.142 C 
BRANCH  34  35
HETATM   35  C20 UNL     1      18.292  24.146  14.814  1.00  0.00     0.061 C 
BRANCH  35  36
HETATM   36  C21 UNL     1      19.041  25.297  15.345  1.00  0.00    -0.029 A 
HETATM   37  C22 UNL     1      19.169  25.671  16.663  1.00  0.00     0.096 A 
HETATM   38  N7  UNL     1      19.941  26.792  16.738  1.00  0.00    -0.365 N 
HETATM   39  C23 UNL     1      20.316  27.155  15.503  1.00  0.00     0.042 A 
ATOM     40  H7  UNL     1      20.193  27.278  17.598  1.00  0.00     0.165 HD
HETATM   41  C24 UNL     1      21.081  28.180  14.967  1.00  0.00     0.030 A 
HETATM   42  C28 UNL     1      19.755  26.221  14.622  1.00  0.00    -0.002 A 
HETATM   43  C25 UNL     1      21.301  28.302  13.603  1.00  0.00     0.002 A 
HETATM   44  C26 UNL     1      20.724  27.354  12.783  1.00  0.00     0.001 A 
HETATM   45  C27 UNL     1      19.955  26.316  13.277  1.00  0.00     0.014 A 
ENDBRANCH  35  36
ENDBRANCH  34  35
ENDBRANCH  18  34
ENDBRANCH   9  11
ENDBRANCH   8   9
ENDBRANCH   7   8
ENDBRANCH   6   7
ENDBRANCH   4   6
ENDBRANCH   3   4
TORSDOF 12
ENDMDL
