MODEL 1
REMARK VINA RESULT: -8.983358875      0.000      0.000
REMARK  13 active torsions:
REMARK  status: ('A' for Active; 'I' for Inactive)
REMARK    1  A    between atoms: C2_2  and  N1_3 
REMARK    2  A    between atoms: N1_3  and  C3_4 
REMARK    3  A    between atoms: N1_3  and  C23_36 
REMARK    4  A    between atoms: C3_4  and  C4_5 
REMARK    5  A    between atoms: C4_5  and  N2_6 
REMARK       I    between atoms: N2_6  and  C5_8 
REMARK    6  A    between atoms: C5_8  and  C6_10 
REMARK    7  A    between atoms: C8_14  and  N4_15 
REMARK    8  A    between atoms: N4_15  and  C9_17 
REMARK    9  A    between atoms: C19_29  and  N6_30 
REMARK   10  A    between atoms: N6_30  and  C20_32 
REMARK   11  A    between atoms: C20_32  and  C21_33 
REMARK   12  A    between atoms: C21_33  and  O2_34 
REMARK   13  A    between atoms: C23_36  and  C24_37 
ROOT
HETATM    1  C6  UNL     1      14.686  22.409  15.744  1.00  0.00     0.092 A 
HETATM    2  C7  UNL     1      14.909  23.284  16.827  1.00  0.00     0.127 A 
HETATM    3  N3  UNL     1      16.019  23.992  16.932  1.00  0.00    -0.201 N 
ATOM      4  H3  UNL     1      16.128  24.610  17.736  1.00  0.00     0.183 HD
HETATM    5  C8  UNL     1      17.012  23.935  16.025  1.00  0.00     0.680 A 
HETATM    6  N5  UNL     1      16.820  23.100  14.979  1.00  0.00    -0.176 N 
ATOM      7  H5  UNL     1      17.555  23.035  14.275  1.00  0.00     0.186 HD
HETATM    8  C19 UNL     1      15.682  22.330  14.808  1.00  0.00     0.138 A 
ENDROOT
BRANCH   1   9
HETATM    9  C5  UNL     1      13.396  21.767  15.704  1.00  0.00     0.256 C 
HETATM   10  N2  UNL     1      13.001  20.603  16.357  1.00  0.00    -0.355 N 
ATOM     11  H2  UNL     1      13.665  20.111  16.954  1.00  0.00     0.162 HD
HETATM   12  O1  UNL     1      12.515  22.337  14.963  1.00  0.00    -0.267 OA
BRANCH  10  13
HETATM   13  C4  UNL     1      11.642  20.077  16.198  1.00  0.00     0.142 C 
BRANCH  13  14
HETATM   14  C3  UNL     1      11.066  19.587  17.500  1.00  0.00     0.137 C 
BRANCH  14  15
HETATM   15  N1  UNL     1      11.508  18.287  17.884  1.00  0.00    -0.407 N 
BRANCH  15  16
HETATM   16  C2  UNL     1      10.997  17.230  17.053  1.00  0.00     0.113 C 
HETATM   17  C1  UNL     1      10.938  15.967  17.871  1.00  0.00     0.026 C 
ENDBRANCH  15  16
BRANCH  15  18
HETATM   18  C23 UNL     1      11.493  18.003  19.266  1.00  0.00     0.164 C 
BRANCH  18  19
HETATM   19  C24 UNL     1      12.712  18.428  20.010  1.00  0.00     0.017 A 
HETATM   20  C25 UNL     1      12.936  18.416  21.366  1.00  0.00     0.104 A 
HETATM   21  N7  UNL     1      14.078  18.851  21.788  1.00  0.00    -0.368 N 
HETATM   22  C26 UNL     1      14.985  19.287  20.939  1.00  0.00     0.138 A 
ATOM     23  H7  UNL     1      14.278  18.856  22.788  1.00  0.00     0.165 HD
HETATM   24  S1  UNL     1      14.202  19.080  19.440  1.00  0.00    -0.086 SA
ENDBRANCH  18  19
ENDBRANCH  15  18
ENDBRANCH  14  15
ENDBRANCH  13  14
ENDBRANCH  10  13
ENDBRANCH   1   9
BRANCH   8  25
HETATM   25  N6  UNL     1      15.653  21.563  13.833  1.00  0.00    -0.353 N 
ATOM     26  H6  UNL     1      16.350  20.854  14.058  1.00  0.00     0.166 HD
BRANCH  25  27
HETATM   27  C20 UNL     1      15.179  21.179  12.632  1.00  0.00     0.088 C 
BRANCH  27  28
HETATM   28  C21 UNL     1      13.945  20.252  12.636  1.00  0.00     0.211 C 
BRANCH  28  29
HETATM   29  O2  UNL     1      14.039  19.252  13.572  1.00  0.00    -0.391 OA
HETATM   30  C22 UNL     1      13.311  18.159  13.037  1.00  0.00     0.201 C 
ENDBRANCH  28  29
ENDBRANCH  27  28
ENDBRANCH  25  27
ENDBRANCH   8  25
BRANCH   5  31
HETATM   31  N4  UNL     1      18.039  24.610  16.138  1.00  0.00    -0.217 N 
ATOM     32  H4  UNL     1      18.190  24.735  17.140  1.00  0.00     0.178 HD
BRANCH  31  33
HETATM   33  C9  UNL     1      19.075  25.270  15.506  1.00  0.00     0.048 C 
HETATM   34  C10 UNL     1      19.737  26.251  16.512  1.00  0.00     0.036 C 
HETATM   35  C11 UNL     1      20.734  27.118  15.838  1.00  0.00    -0.012 C 
HETATM   36  C12 UNL     1      20.133  27.973  14.759  1.00  0.00     0.009 C 
HETATM   37  C16 UNL     1      21.829  26.295  15.195  1.00  0.00     0.009 C 
HETATM   38  C13 UNL     1      19.446  27.060  13.778  1.00  0.00    -0.012 C 
HETATM   39  C14 UNL     1      20.511  26.194  13.143  1.00  0.00     0.009 C 
HETATM   40  C18 UNL     1      18.441  26.177  14.442  1.00  0.00     0.036 C 
HETATM   41  C15 UNL     1      21.177  25.383  14.210  1.00  0.00    -0.012 C 
HETATM   42  C17 UNL     1      20.195  24.477  14.926  1.00  0.00     0.036 C 
ENDBRANCH  31  33
ENDBRANCH   5  31
TORSDOF 13
ENDMDL
MODEL 2
REMARK VINA RESULT: -8.584749201      2.869      5.099
REMARK  13 active torsions:
REMARK  status: ('A' for Active; 'I' for Inactive)
REMARK    1  A    between atoms: C2_2  and  N1_3 
REMARK    2  A    between atoms: N1_3  and  C3_4 
REMARK    3  A    between atoms: N1_3  and  C23_36 
REMARK    4  A    between atoms: C3_4  and  C4_5 
REMARK    5  A    between atoms: C4_5  and  N2_6 
REMARK       I    between atoms: N2_6  and  C5_8 
REMARK    6  A    between atoms: C5_8  and  C6_10 
REMARK    7  A    between atoms: C8_14  and  N4_15 
REMARK    8  A    between atoms: N4_15  and  C9_17 
REMARK    9  A    between atoms: C19_29  and  N6_30 
REMARK   10  A    between atoms: N6_30  and  C20_32 
REMARK   11  A    between atoms: C20_32  and  C21_33 
REMARK   12  A    between atoms: C21_33  and  O2_34 
REMARK   13  A    between atoms: C23_36  and  C24_37 
ROOT
HETATM    1  C6  UNL     1      16.540  22.664  18.451  1.00  0.00     0.092 A 
HETATM    2  C7  UNL     1      16.143  22.826  17.107  1.00  0.00     0.127 A 
HETATM    3  N3  UNL     1      16.622  23.799  16.354  1.00  0.00    -0.201 N 
ATOM      4  H3  UNL     1      16.302  23.870  15.388  1.00  0.00     0.183 HD
HETATM    5  C8  UNL     1      17.514  24.702  16.804  1.00  0.00     0.680 A 
HETATM    6  N5  UNL     1      17.906  24.566  18.090  1.00  0.00    -0.176 N 
ATOM      7  H5  UNL     1      18.580  25.236  18.460  1.00  0.00     0.186 HD
HETATM    8  C19 UNL     1      17.444  23.570  18.935  1.00  0.00     0.138 A 
ENDROOT
BRANCH   1   9
HETATM    9  C5  UNL     1      16.013  21.507  19.131  1.00  0.00     0.256 C 
HETATM   10  N2  UNL     1      16.046  20.181  18.710  1.00  0.00    -0.355 N 
ATOM     11  H2  UNL     1      16.491  19.944  17.824  1.00  0.00     0.162 HD
HETATM   12  O1  UNL     1      15.434  21.739  20.254  1.00  0.00    -0.267 OA
BRANCH  10  13
HETATM   13  C4  UNL     1      15.448  19.119  19.526  1.00  0.00     0.142 C 
BRANCH  13  14
HETATM   14  C3  UNL     1      13.988  18.918  19.217  1.00  0.00     0.137 C 
BRANCH  14  15
HETATM   15  N1  UNL     1      13.137  18.943  20.362  1.00  0.00    -0.407 N 
BRANCH  15  16
HETATM   16  C2  UNL     1      13.840  18.810  21.610  1.00  0.00     0.113 C 
HETATM   17  C1  UNL     1      13.492  17.476  22.213  1.00  0.00     0.026 C 
ENDBRANCH  15  16
BRANCH  15  18
HETATM   18  C23 UNL     1      11.950  18.187  20.276  1.00  0.00     0.164 C 
BRANCH  18  19
HETATM   19  C24 UNL     1      11.553  17.793  18.896  1.00  0.00     0.017 A 
HETATM   20  C25 UNL     1      11.285  18.602  17.816  1.00  0.00     0.104 A 
HETATM   21  N7  UNL     1      10.941  18.028  16.710  1.00  0.00    -0.368 N 
HETATM   22  C26 UNL     1      10.853  16.717  16.633  1.00  0.00     0.138 A 
ATOM     23  H7  UNL     1      10.735  18.598  15.890  1.00  0.00     0.165 HD
HETATM   24  S1  UNL     1      11.281  16.235  18.210  1.00  0.00    -0.086 SA
ENDBRANCH  18  19
ENDBRANCH  15  18
ENDBRANCH  14  15
ENDBRANCH  13  14
ENDBRANCH  10  13
ENDBRANCH   1   9
BRANCH   8  25
HETATM   25  N6  UNL     1      17.841  23.588  20.109  1.00  0.00    -0.353 N 
ATOM     26  H6  UNL     1      17.308  22.844  20.559  1.00  0.00     0.166 HD
BRANCH  25  27
HETATM   27  C20 UNL     1      18.609  24.080  21.101  1.00  0.00     0.088 C 
BRANCH  27  28
HETATM   28  C21 UNL     1      20.132  24.104  20.853  1.00  0.00     0.211 C 
BRANCH  28  29
HETATM   29  O2  UNL     1      20.483  24.912  19.800  1.00  0.00    -0.391 OA
HETATM   30  C22 UNL     1      21.873  24.709  19.610  1.00  0.00     0.201 C 
ENDBRANCH  28  29
ENDBRANCH  27  28
ENDBRANCH  25  27
ENDBRANCH   8  25
BRANCH   5  31
HETATM   31  N4  UNL     1      17.953  25.601  16.081  1.00  0.00    -0.217 N 
ATOM     32  H4  UNL     1      17.285  26.371  16.145  1.00  0.00     0.178 HD
BRANCH  31  33
HETATM   33  C9  UNL     1      18.950  26.024  15.225  1.00  0.00     0.048 C 
HETATM   34  C10 UNL     1      19.697  24.782  14.666  1.00  0.00     0.036 C 
HETATM   35  C11 UNL     1      20.893  25.181  13.886  1.00  0.00    -0.012 C 
HETATM   36  C12 UNL     1      21.900  25.938  14.703  1.00  0.00     0.009 C 
HETATM   37  C16 UNL     1      20.514  26.065  12.718  1.00  0.00     0.009 C 
HETATM   38  C13 UNL     1      21.206  27.136  15.296  1.00  0.00    -0.012 C 
HETATM   39  C14 UNL     1      20.779  28.025  14.149  1.00  0.00     0.009 C 
HETATM   40  C18 UNL     1      19.996  26.751  16.082  1.00  0.00     0.036 C 
HETATM   41  C15 UNL     1      19.827  27.267  13.276  1.00  0.00    -0.012 C 
HETATM   42  C17 UNL     1      18.585  26.840  14.032  1.00  0.00     0.036 C 
ENDBRANCH  31  33
ENDBRANCH   5  31
TORSDOF 13
ENDMDL
MODEL 3
REMARK VINA RESULT: -8.566349286      1.693      3.436
REMARK  13 active torsions:
REMARK  status: ('A' for Active; 'I' for Inactive)
REMARK    1  A    between atoms: C2_2  and  N1_3 
REMARK    2  A    between atoms: N1_3  and  C3_4 
REMARK    3  A    between atoms: N1_3  and  C23_36 
REMARK    4  A    between atoms: C3_4  and  C4_5 
REMARK    5  A    between atoms: C4_5  and  N2_6 
REMARK       I    between atoms: N2_6  and  C5_8 
REMARK    6  A    between atoms: C5_8  and  C6_10 
REMARK    7  A    between atoms: C8_14  and  N4_15 
REMARK    8  A    between atoms: N4_15  and  C9_17 
REMARK    9  A    between atoms: C19_29  and  N6_30 
REMARK   10  A    between atoms: N6_30  and  C20_32 
REMARK   11  A    between atoms: C20_32  and  C21_33 
REMARK   12  A    between atoms: C21_33  and  O2_34 
REMARK   13  A    between atoms: C23_36  and  C24_37 
ROOT
HETATM    1  C6  UNL     1      16.133  22.674  18.162  1.00  0.00     0.092 A 
HETATM    2  C7  UNL     1      17.377  23.235  18.518  1.00  0.00     0.127 A 
HETATM    3  N3  UNL     1      17.931  24.201  17.809  1.00  0.00    -0.201 N 
ATOM      4  H3  UNL     1      18.832  24.572  18.112  1.00  0.00     0.183 HD
HETATM    5  C8  UNL     1      17.361  24.720  16.705  1.00  0.00     0.680 A 
HETATM    6  N5  UNL     1      16.169  24.195  16.346  1.00  0.00    -0.176 N 
ATOM      7  H5  UNL     1      15.711  24.567  15.513  1.00  0.00     0.186 HD
HETATM    8  C19 UNL     1      15.532  23.181  17.042  1.00  0.00     0.138 A 
ENDROOT
BRANCH   1   9
HETATM    9  C5  UNL     1      15.599  21.691  19.071  1.00  0.00     0.256 C 
HETATM   10  N2  UNL     1      16.181  20.492  19.471  1.00  0.00    -0.355 N 
ATOM     11  H2  UNL     1      17.100  20.233  19.111  1.00  0.00     0.162 HD
HETATM   12  O1  UNL     1      14.439  21.956  19.557  1.00  0.00    -0.267 OA
BRANCH  10  13
HETATM   13  C4  UNL     1      15.491  19.596  20.404  1.00  0.00     0.142 C 
BRANCH  13  14
HETATM   14  C3  UNL     1      14.278  18.954  19.783  1.00  0.00     0.137 C 
BRANCH  14  15
HETATM   15  N1  UNL     1      13.171  18.811  20.671  1.00  0.00    -0.407 N 
BRANCH  15  16
HETATM   16  C2  UNL     1      13.549  18.644  22.049  1.00  0.00     0.113 C 
HETATM   17  C1  UNL     1      13.494  17.178  22.384  1.00  0.00     0.026 C 
ENDBRANCH  15  16
BRANCH  15  18
HETATM   18  C23 UNL     1      12.131  17.960  20.243  1.00  0.00     0.164 C 
BRANCH  18  19
HETATM   19  C24 UNL     1      11.742  18.111  18.813  1.00  0.00     0.017 A 
HETATM   20  C25 UNL     1      11.281  17.149  17.945  1.00  0.00     0.104 A 
HETATM   21  N7  UNL     1      11.018  17.515  16.733  1.00  0.00    -0.368 N 
HETATM   22  C26 UNL     1      11.189  18.765  16.357  1.00  0.00     0.138 A 
ATOM     23  H7  UNL     1      10.675  16.828  16.062  1.00  0.00     0.165 HD
HETATM   24  S1  UNL     1      11.756  19.496  17.788  1.00  0.00    -0.086 SA
ENDBRANCH  18  19
ENDBRANCH  15  18
ENDBRANCH  14  15
ENDBRANCH  13  14
ENDBRANCH  10  13
ENDBRANCH   1   9
BRANCH   8  25
HETATM   25  N6  UNL     1      14.467  22.749  16.575  1.00  0.00    -0.353 N 
ATOM     26  H6  UNL     1      13.806  22.843  17.346  1.00  0.00     0.166 HD
BRANCH  25  27
HETATM   27  C20 UNL     1      13.728  22.221  15.580  1.00  0.00     0.088 C 
BRANCH  27  28
HETATM   28  C21 UNL     1      14.264  20.929  14.928  1.00  0.00     0.211 C 
BRANCH  28  29
HETATM   29  O2  UNL     1      15.513  21.091  14.382  1.00  0.00    -0.391 OA
HETATM   30  C22 UNL     1      15.296  21.639  13.093  1.00  0.00     0.201 C 
ENDBRANCH  28  29
ENDBRANCH  27  28
ENDBRANCH  25  27
ENDBRANCH   8  25
BRANCH   5  31
HETATM   31  N4  UNL     1      17.894  25.628  16.061  1.00  0.00    -0.217 N 
ATOM     32  H4  UNL     1      17.334  26.464  16.229  1.00  0.00     0.178 HD
BRANCH  31  33
HETATM   33  C9  UNL     1      18.914  26.010  15.212  1.00  0.00     0.048 C 
HETATM   34  C10 UNL     1      19.663  24.741  14.719  1.00  0.00     0.036 C 
HETATM   35  C11 UNL     1      20.880  25.101  13.953  1.00  0.00    -0.012 C 
HETATM   36  C12 UNL     1      21.875  25.881  14.763  1.00  0.00     0.009 C 
HETATM   37  C16 UNL     1      20.535  25.941  12.743  1.00  0.00     0.009 C 
HETATM   38  C13 UNL     1      21.177  27.106  15.293  1.00  0.00    -0.012 C 
HETATM   39  C14 UNL     1      20.784  27.953  14.103  1.00  0.00     0.009 C 
HETATM   40  C18 UNL     1      19.946  26.761  16.065  1.00  0.00     0.036 C 
HETATM   41  C15 UNL     1      19.846  27.169  13.238  1.00  0.00    -0.012 C 
HETATM   42  C17 UNL     1      18.584  26.781  13.981  1.00  0.00     0.036 C 
ENDBRANCH  31  33
ENDBRANCH   5  31
TORSDOF 13
ENDMDL
MODEL 4
REMARK VINA RESULT: -8.422018734      3.052      5.441
REMARK  13 active torsions:
REMARK  status: ('A' for Active; 'I' for Inactive)
REMARK    1  A    between atoms: C2_2  and  N1_3 
REMARK    2  A    between atoms: N1_3  and  C3_4 
REMARK    3  A    between atoms: N1_3  and  C23_36 
REMARK    4  A    between atoms: C3_4  and  C4_5 
REMARK    5  A    between atoms: C4_5  and  N2_6 
REMARK       I    between atoms: N2_6  and  C5_8 
REMARK    6  A    between atoms: C5_8  and  C6_10 
REMARK    7  A    between atoms: C8_14  and  N4_15 
REMARK    8  A    between atoms: N4_15  and  C9_17 
REMARK    9  A    between atoms: C19_29  and  N6_30 
REMARK   10  A    between atoms: N6_30  and  C20_32 
REMARK   11  A    between atoms: C20_32  and  C21_33 
REMARK   12  A    between atoms: C21_33  and  O2_34 
REMARK   13  A    between atoms: C23_36  and  C24_37 
ROOT
HETATM    1  C6  UNL     1      16.989  23.075  18.756  1.00  0.00     0.092 A 
HETATM    2  C7  UNL     1      16.661  22.997  17.387  1.00  0.00     0.127 A 
HETATM    3  N3  UNL     1      17.060  23.913  16.524  1.00  0.00    -0.201 N 
ATOM      4  H3  UNL     1      16.795  23.808  15.545  1.00  0.00     0.183 HD
HETATM    5  C8  UNL     1      17.800  24.981  16.878  1.00  0.00     0.680 A 
HETATM    6  N5  UNL     1      18.125  25.075  18.187  1.00  0.00    -0.176 N 
ATOM      7  H5  UNL     1      18.685  25.873  18.486  1.00  0.00     0.186 HD
HETATM    8  C19 UNL     1      17.740  24.152  19.144  1.00  0.00     0.138 A 
ENDROOT
BRANCH   1   9
HETATM    9  C5  UNL     1      16.570  21.963  19.572  1.00  0.00     0.256 C 
HETATM   10  N2  UNL     1      15.273  21.617  19.942  1.00  0.00    -0.355 N 
ATOM     11  H2  UNL     1      14.489  22.183  19.618  1.00  0.00     0.162 HD
HETATM   12  O1  UNL     1      17.513  21.213  20.016  1.00  0.00    -0.267 OA
BRANCH  10  13
HETATM   13  C4  UNL     1      15.021  20.450  20.792  1.00  0.00     0.142 C 
BRANCH  13  14
HETATM   14  C3  UNL     1      14.529  19.266  20.002  1.00  0.00     0.137 C 
BRANCH  14  15
HETATM   15  N1  UNL     1      13.109  19.142  19.956  1.00  0.00    -0.407 N 
BRANCH  15  16
HETATM   16  C2  UNL     1      12.529  18.646  21.176  1.00  0.00     0.113 C 
HETATM   17  C1  UNL     1      13.479  17.648  21.784  1.00  0.00     0.026 C 
ENDBRANCH  15  16
BRANCH  15  18
HETATM   18  C23 UNL     1      12.567  18.579  18.782  1.00  0.00     0.164 C 
BRANCH  18  19
HETATM   19  C24 UNL     1      12.419  19.525  17.641  1.00  0.00     0.017 A 
HETATM   20  C25 UNL     1      11.278  19.866  16.953  1.00  0.00     0.104 A 
HETATM   21  N7  UNL     1      11.396  20.706  15.978  1.00  0.00    -0.368 N 
HETATM   22  C26 UNL     1      12.571  21.211  15.666  1.00  0.00     0.138 A 
ATOM     23  H7  UNL     1      10.571  20.981  15.446  1.00  0.00     0.165 HD
HETATM   24  S1  UNL     1      13.595  20.469  16.807  1.00  0.00    -0.086 SA
ENDBRANCH  18  19
ENDBRANCH  15  18
ENDBRANCH  14  15
ENDBRANCH  13  14
ENDBRANCH  10  13
ENDBRANCH   1   9
BRANCH   8  25
HETATM   25  N6  UNL     1      18.056  24.384  20.321  1.00  0.00    -0.353 N 
ATOM     26  H6  UNL     1      17.253  24.889  20.695  1.00  0.00     0.166 HD
BRANCH  25  27
HETATM   27  C20 UNL     1      18.908  24.315  21.362  1.00  0.00     0.088 C 
BRANCH  27  28
HETATM   28  C21 UNL     1      20.411  24.462  21.041  1.00  0.00     0.211 C 
BRANCH  28  29
HETATM   29  O2  UNL     1      20.682  25.570  20.278  1.00  0.00    -0.391 OA
HETATM   30  C22 UNL     1      21.202  26.534  21.178  1.00  0.00     0.201 C 
ENDBRANCH  28  29
ENDBRANCH  27  28
ENDBRANCH  25  27
ENDBRANCH   8  25
BRANCH   5  31
HETATM   31  N4  UNL     1      18.168  25.823  16.054  1.00  0.00    -0.217 N 
ATOM     32  H4  UNL     1      17.429  26.525  16.015  1.00  0.00     0.178 HD
BRANCH  31  33
HETATM   33  C9  UNL     1      19.139  26.232  15.161  1.00  0.00     0.048 C 
HETATM   34  C10 UNL     1      19.878  24.982  14.610  1.00  0.00     0.036 C 
HETATM   35  C11 UNL     1      21.050  25.372  13.789  1.00  0.00    -0.012 C 
HETATM   36  C12 UNL     1      22.074  26.152  14.562  1.00  0.00     0.009 C 
HETATM   37  C16 UNL     1      20.634  26.228  12.613  1.00  0.00     0.009 C 
HETATM   38  C13 UNL     1      21.389  27.358  15.148  1.00  0.00    -0.012 C 
HETATM   39  C14 UNL     1      20.925  28.220  13.993  1.00  0.00     0.009 C 
HETATM   40  C18 UNL     1      20.203  26.983  15.974  1.00  0.00     0.036 C 
HETATM   41  C15 UNL     1      19.955  27.437  13.163  1.00  0.00    -0.012 C 
HETATM   42  C17 UNL     1      18.737  27.020  13.962  1.00  0.00     0.036 C 
ENDBRANCH  31  33
ENDBRANCH   5  31
TORSDOF 13
ENDMDL
MODEL 5
REMARK VINA RESULT: -8.414945651      1.697      3.189
REMARK  13 active torsions:
REMARK  status: ('A' for Active; 'I' for Inactive)
REMARK    1  A    between atoms: C2_2  and  N1_3 
REMARK    2  A    between atoms: N1_3  and  C3_4 
REMARK    3  A    between atoms: N1_3  and  C23_36 
REMARK    4  A    between atoms: C3_4  and  C4_5 
REMARK    5  A    between atoms: C4_5  and  N2_6 
REMARK       I    between atoms: N2_6  and  C5_8 
REMARK    6  A    between atoms: C5_8  and  C6_10 
REMARK    7  A    between atoms: C8_14  and  N4_15 
REMARK    8  A    between atoms: N4_15  and  C9_17 
REMARK    9  A    between atoms: C19_29  and  N6_30 
REMARK   10  A    between atoms: N6_30  and  C20_32 
REMARK   11  A    between atoms: C20_32  and  C21_33 
REMARK   12  A    between atoms: C21_33  and  O2_34 
REMARK   13  A    between atoms: C23_36  and  C24_37 
ROOT
HETATM    1  C6  UNL     1      15.195  21.884  15.701  1.00  0.00     0.092 A 
HETATM    2  C7  UNL     1      15.875  22.213  14.510  1.00  0.00     0.127 A 
HETATM    3  N3  UNL     1      16.982  22.933  14.518  1.00  0.00    -0.201 N 
ATOM      4  H3  UNL     1      17.433  23.141  13.628  1.00  0.00     0.183 HD
HETATM    5  C8  UNL     1      17.542  23.403  15.649  1.00  0.00     0.680 A 
HETATM    6  N5  UNL     1      16.905  23.100  16.802  1.00  0.00    -0.176 N 
ATOM      7  H5  UNL     1      17.304  23.443  17.676  1.00  0.00     0.186 HD
HETATM    8  C19 UNL     1      15.741  22.352  16.866  1.00  0.00     0.138 A 
ENDROOT
BRANCH   1   9
HETATM    9  C5  UNL     1      14.053  21.017  15.559  1.00  0.00     0.256 C 
HETATM   10  N2  UNL     1      12.915  20.965  16.360  1.00  0.00    -0.355 N 
ATOM     11  H2  UNL     1      12.828  21.602  17.152  1.00  0.00     0.162 HD
HETATM   12  O1  UNL     1      14.104  20.186  14.580  1.00  0.00    -0.267 OA
BRANCH  10  13
HETATM   13  C4  UNL     1      11.841  20.008  16.078  1.00  0.00     0.142 C 
BRANCH  13  14
HETATM   14  C3  UNL     1      11.157  19.534  17.334  1.00  0.00     0.137 C 
BRANCH  14  15
HETATM   15  N1  UNL     1      11.505  18.208  17.727  1.00  0.00    -0.407 N 
BRANCH  15  16
HETATM   16  C2  UNL     1      11.022  17.192  16.830  1.00  0.00     0.113 C 
HETATM   17  C1  UNL     1      10.657  15.976  17.640  1.00  0.00     0.026 C 
ENDBRANCH  15  16
BRANCH  15  18
HETATM   18  C23 UNL     1      11.354  17.901  19.095  1.00  0.00     0.164 C 
BRANCH  18  19
HETATM   19  C24 UNL     1      12.522  18.249  19.951  1.00  0.00     0.017 A 
HETATM   20  C25 UNL     1      12.571  18.387  21.318  1.00  0.00     0.104 A 
HETATM   21  N7  UNL     1      13.706  18.713  21.846  1.00  0.00    -0.368 N 
HETATM   22  C26 UNL     1      14.767  18.902  21.091  1.00  0.00     0.138 A 
ATOM     23  H7  UNL     1      13.779  18.825  22.857  1.00  0.00     0.165 HD
HETATM   24  S1  UNL     1      14.154  18.606  19.529  1.00  0.00    -0.086 SA
ENDBRANCH  18  19
ENDBRANCH  15  18
ENDBRANCH  14  15
ENDBRANCH  13  14
ENDBRANCH  10  13
ENDBRANCH   1   9
BRANCH   8  25
HETATM   25  N6  UNL     1      15.227  22.191  17.982  1.00  0.00    -0.353 N 
ATOM     26  H6  UNL     1      14.226  22.155  17.788  1.00  0.00     0.166 HD
BRANCH  25  27
HETATM   27  C20 UNL     1      15.300  22.039  19.319  1.00  0.00     0.088 C 
BRANCH  27  28
HETATM   28  C21 UNL     1      16.672  21.630  19.897  1.00  0.00     0.211 C 
BRANCH  28  29
HETATM   29  O2  UNL     1      17.620  22.612  19.752  1.00  0.00    -0.391 OA
HETATM   30  C22 UNL     1      18.863  21.934  19.679  1.00  0.00     0.201 C 
ENDBRANCH  28  29
ENDBRANCH  27  28
ENDBRANCH  25  27
ENDBRANCH   8  25
BRANCH   5  31
HETATM   31  N4  UNL     1      18.581  24.069  15.634  1.00  0.00    -0.217 N 
ATOM     32  H4  UNL     1      19.210  23.631  16.307  1.00  0.00     0.178 HD
BRANCH  31  33
HETATM   33  C9  UNL     1      19.266  25.147  15.108  1.00  0.00     0.048 C 
HETATM   34  C10 UNL     1      20.556  24.634  14.412  1.00  0.00     0.036 C 
HETATM   35  C11 UNL     1      21.422  25.761  13.990  1.00  0.00    -0.012 C 
HETATM   36  C12 UNL     1      21.881  26.611  15.140  1.00  0.00     0.009 C 
HETATM   37  C16 UNL     1      20.699  26.674  13.024  1.00  0.00     0.009 C 
HETATM   38  C13 UNL     1      20.657  27.100  15.868  1.00  0.00    -0.012 C 
HETATM   39  C14 UNL     1      19.889  27.989  14.915  1.00  0.00     0.009 C 
HETATM   40  C18 UNL     1      19.772  25.977  16.297  1.00  0.00     0.036 C 
HETATM   41  C15 UNL     1      19.481  27.182  13.722  1.00  0.00    -0.012 C 
HETATM   42  C17 UNL     1      18.590  26.018  14.105  1.00  0.00     0.036 C 
ENDBRANCH  31  33
ENDBRANCH   5  31
TORSDOF 13
ENDMDL
