MODEL 1
REMARK VINA RESULT: -8.559922330      0.000      0.000
REMARK  13 active torsions:
REMARK  status: ('A' for Active; 'I' for Inactive)
REMARK    1  A    between atoms: S1_2  and  C2_3 
REMARK    2  A    between atoms: C2_3  and  C3_4 
REMARK    3  A    between atoms: C3_4  and  C4_5 
REMARK    4  A    between atoms: C4_5  and  N1_6 
REMARK    5  A    between atoms: C4_5  and  C18_25 
REMARK       I    between atoms: N1_6  and  C5_8 
REMARK    6  A    between atoms: C5_8  and  C6_10 
REMARK       I    between atoms: N2_17  and  C13_18 
REMARK    7  A    between atoms: C13_18  and  O3_20 
REMARK    8  A    between atoms: O3_20  and  C14_21 
REMARK       I    between atoms: C18_25  and  N3_27 
REMARK    9  A    between atoms: N3_27  and  C19_29 
REMARK   10  A    between atoms: C19_29  and  C20_30 
REMARK   11  A    between atoms: C20_30  and  C21_31 
REMARK   12  A    between atoms: C21_31  and  C22_32 
REMARK   13  A    between atoms: C22_32  and  C23_33 
ROOT
HETATM    1  C4  UNL     1      14.560  21.117  18.934  1.00  0.00     0.177 C 
ENDROOT
BRANCH   1   2
HETATM    2  C3  UNL     1      15.182  19.813  19.235  1.00  0.00     0.045 C 
BRANCH   2   3
HETATM    3  C2  UNL     1      14.990  19.216  20.574  1.00  0.00     0.076 C 
BRANCH   3   4
HETATM    4  S1  UNL     1      13.346  18.598  20.945  1.00  0.00    -0.173 SA
HETATM    5  C1  UNL     1      13.478  17.423  22.322  1.00  0.00     0.089 C 
ENDBRANCH   3   4
ENDBRANCH   2   3
ENDBRANCH   1   2
BRANCH   1   6
HETATM    6  N1  UNL     1      15.399  22.289  19.129  1.00  0.00    -0.346 N 
HETATM    7  C5  UNL     1      16.640  22.428  18.456  1.00  0.00     0.247 C 
HETATM    8  O1  UNL     1      16.998  21.513  17.692  1.00  0.00    -0.271 OA
ATOM      9  H1  UNL     1      15.090  23.026  19.762  1.00  0.00     0.163 HD
BRANCH   7  10
HETATM   10  C6  UNL     1      17.454  23.612  18.667  1.00  0.00     0.122 C 
HETATM   11  C7  UNL     1      16.619  24.896  18.598  1.00  0.00     0.050 C 
HETATM   12  C8  UNL     1      18.231  23.580  19.964  1.00  0.00     0.048 C 
HETATM   13  C9  UNL     1      19.071  22.338  19.933  1.00  0.00    -0.021 C 
HETATM   14  C12 UNL     1      19.308  24.602  19.636  1.00  0.00     0.041 C 
HETATM   15  C10 UNL     1      20.000  22.496  18.990  1.00  0.00    -0.005 C 
HETATM   16  C11 UNL     1      19.790  23.817  18.397  1.00  0.00     0.114 C 
HETATM   17  N2  UNL     1      18.508  23.772  17.683  1.00  0.00    -0.301 N 
HETATM   18  C13 UNL     1      18.415  23.880  16.287  1.00  0.00     0.365 C 
HETATM   19  O2  UNL     1      17.295  23.857  15.732  1.00  0.00    -0.238 OA
BRANCH  18  20
HETATM   20  O3  UNL     1      19.556  24.010  15.520  1.00  0.00    -0.294 OA
BRANCH  20  21
HETATM   21  C14 UNL     1      19.985  25.207  14.920  1.00  0.00     0.061 C 
HETATM   22  C15 UNL     1      21.254  24.869  14.139  1.00  0.00     0.046 C 
HETATM   23  C16 UNL     1      18.981  25.680  13.868  1.00  0.00     0.046 C 
HETATM   24  C17 UNL     1      20.270  26.318  15.872  1.00  0.00     0.046 C 
ENDBRANCH  20  21
ENDBRANCH  18  20
ENDBRANCH   7  10
ENDBRANCH   1   6
BRANCH   1  25
HETATM   25  C18 UNL     1      13.905  21.181  17.575  1.00  0.00     0.240 C 
HETATM   26  O4  UNL     1      13.251  20.201  17.169  1.00  0.00    -0.271 OA
HETATM   27  N3  UNL     1      14.046  22.335  16.799  1.00  0.00    -0.359 N 
ATOM     28  H3  UNL     1      14.582  23.080  17.244  1.00  0.00     0.162 HD
BRANCH  27  29
HETATM   29  C19 UNL     1      13.573  22.648  15.501  1.00  0.00     0.122 C 
BRANCH  29  30
HETATM   30  C20 UNL     1      14.437  22.530  14.314  1.00  0.00     0.020 C 
BRANCH  30  31
HETATM   31  C21 UNL     1      15.147  21.256  14.032  1.00  0.00     0.008 C 
BRANCH  31  32
HETATM   32  C22 UNL     1      14.416  20.438  12.976  1.00  0.00     0.060 C 
BRANCH  32  33
HETATM   33  C23 UNL     1      13.503  19.432  13.506  1.00  0.00     0.044 A 
HETATM   34  C24 UNL     1      13.345  18.185  12.897  1.00  0.00     0.135 A 
HETATM   35  N4  UNL     1      12.436  17.480  13.589  1.00  0.00    -0.296 N 
HETATM   36  N5  UNL     1      12.037  18.246  14.585  1.00  0.00    -0.243 N 
ATOM     37  H4  UNL     1      12.116  16.534  13.384  1.00  0.00     0.187 HD
HETATM   38  N6  UNL     1      12.658  19.403  14.552  1.00  0.00    -0.289 N 
ATOM     39  H5  UNL     1      11.344  17.977  15.283  1.00  0.00     0.208 HD
ATOM     40  H6  UNL     1      12.520  20.163  15.218  1.00  0.00     0.188 HD
ENDBRANCH  32  33
ENDBRANCH  31  32
ENDBRANCH  30  31
ENDBRANCH  29  30
ENDBRANCH  27  29
ENDBRANCH   1  25
TORSDOF 13
ENDMDL
MODEL 2
REMARK VINA RESULT: -8.380615779      1.834      2.660
REMARK  13 active torsions:
REMARK  status: ('A' for Active; 'I' for Inactive)
REMARK    1  A    between atoms: S1_2  and  C2_3 
REMARK    2  A    between atoms: C2_3  and  C3_4 
REMARK    3  A    between atoms: C3_4  and  C4_5 
REMARK    4  A    between atoms: C4_5  and  N1_6 
REMARK    5  A    between atoms: C4_5  and  C18_25 
REMARK       I    between atoms: N1_6  and  C5_8 
REMARK    6  A    between atoms: C5_8  and  C6_10 
REMARK       I    between atoms: N2_17  and  C13_18 
REMARK    7  A    between atoms: C13_18  and  O3_20 
REMARK    8  A    between atoms: O3_20  and  C14_21 
REMARK       I    between atoms: C18_25  and  N3_27 
REMARK    9  A    between atoms: N3_27  and  C19_29 
REMARK   10  A    between atoms: C19_29  and  C20_30 
REMARK   11  A    between atoms: C20_30  and  C21_31 
REMARK   12  A    between atoms: C21_31  and  C22_32 
REMARK   13  A    between atoms: C22_32  and  C23_33 
ROOT
HETATM    1  C4  UNL     1      14.738  21.243  16.588  1.00  0.00     0.177 C 
ENDROOT
BRANCH   1   2
HETATM    2  C3  UNL     1      14.471  20.079  17.454  1.00  0.00     0.045 C 
BRANCH   2   3
HETATM    3  C2  UNL     1      13.255  20.071  18.296  1.00  0.00     0.076 C 
BRANCH   3   4
HETATM    4  S1  UNL     1      13.279  18.982  19.722  1.00  0.00    -0.173 SA
HETATM    5  C1  UNL     1      14.757  19.363  20.705  1.00  0.00     0.089 C 
ENDBRANCH   3   4
ENDBRANCH   2   3
ENDBRANCH   1   2
BRANCH   1   6
HETATM    6  N1  UNL     1      15.883  22.064  16.951  1.00  0.00    -0.346 N 
HETATM    7  C5  UNL     1      15.792  23.050  17.965  1.00  0.00     0.247 C 
HETATM    8  O1  UNL     1      14.698  23.202  18.539  1.00  0.00    -0.271 OA
ATOM      9  H1  UNL     1      16.770  21.927  16.466  1.00  0.00     0.163 HD
BRANCH   7  10
HETATM   10  C6  UNL     1      16.953  23.852  18.308  1.00  0.00     0.122 C 
HETATM   11  C7  UNL     1      16.579  25.319  18.550  1.00  0.00     0.050 C 
HETATM   12  C8  UNL     1      17.716  23.319  19.501  1.00  0.00     0.048 C 
HETATM   13  C9  UNL     1      18.105  21.910  19.168  1.00  0.00    -0.021 C 
HETATM   14  C12 UNL     1      19.057  23.996  19.262  1.00  0.00     0.041 C 
HETATM   15  C10 UNL     1      19.007  21.954  18.186  1.00  0.00    -0.005 C 
HETATM   16  C11 UNL     1      19.220  23.365  17.864  1.00  0.00     0.114 C 
HETATM   17  N2  UNL     1      17.972  23.868  17.275  1.00  0.00    -0.301 N 
HETATM   18  C13 UNL     1      17.876  24.277  15.936  1.00  0.00     0.365 C 
HETATM   19  O2  UNL     1      16.794  24.717  15.494  1.00  0.00    -0.238 OA
BRANCH  18  20
HETATM   20  O3  UNL     1      18.973  24.194  15.103  1.00  0.00    -0.294 OA
BRANCH  20  21
HETATM   21  C14 UNL     1      19.773  25.286  14.720  1.00  0.00     0.061 C 
HETATM   22  C15 UNL     1      21.127  24.709  14.311  1.00  0.00     0.046 C 
HETATM   23  C16 UNL     1      19.222  25.950  13.458  1.00  0.00     0.046 C 
HETATM   24  C17 UNL     1      19.972  26.317  15.778  1.00  0.00     0.046 C 
ENDBRANCH  20  21
ENDBRANCH  18  20
ENDBRANCH   7  10
ENDBRANCH   1   6
BRANCH   1  25
HETATM   25  C18 UNL     1      14.799  20.907  15.117  1.00  0.00     0.240 C 
HETATM   26  O4  UNL     1      15.635  21.486  14.395  1.00  0.00    -0.271 OA
HETATM   27  N3  UNL     1      13.919  19.956  14.593  1.00  0.00    -0.359 N 
ATOM     28  H3  UNL     1      13.298  19.531  15.282  1.00  0.00     0.162 HD
BRANCH  27  29
HETATM   29  C19 UNL     1      13.741  19.480  13.271  1.00  0.00     0.122 C 
BRANCH  29  30
HETATM   30  C20 UNL     1      13.192  18.141  12.999  1.00  0.00     0.020 C 
BRANCH  30  31
HETATM   31  C21 UNL     1      11.732  17.894  13.116  1.00  0.00     0.008 C 
BRANCH  31  32
HETATM   32  C22 UNL     1      11.449  16.591  13.850  1.00  0.00     0.060 C 
BRANCH  32  33
HETATM   33  C23 UNL     1      11.117  16.743  15.262  1.00  0.00     0.044 A 
HETATM   34  C24 UNL     1      10.302  15.827  15.932  1.00  0.00     0.135 A 
HETATM   35  N4  UNL     1      10.159  16.230  17.204  1.00  0.00    -0.296 N 
HETATM   36  N5  UNL     1      10.847  17.347  17.331  1.00  0.00    -0.243 N 
ATOM     37  H4  UNL     1       9.620  15.761  17.933  1.00  0.00     0.187 HD
HETATM   38  N6  UNL     1      11.420  17.665  16.194  1.00  0.00    -0.289 N 
ATOM     39  H5  UNL     1      10.923  17.887  18.192  1.00  0.00     0.208 HD
ATOM     40  H6  UNL     1      12.006  18.485  16.040  1.00  0.00     0.188 HD
ENDBRANCH  32  33
ENDBRANCH  31  32
ENDBRANCH  30  31
ENDBRANCH  29  30
ENDBRANCH  27  29
ENDBRANCH   1  25
TORSDOF 13
ENDMDL
MODEL 3
REMARK VINA RESULT: -8.378823091      4.249      7.210
REMARK  13 active torsions:
REMARK  status: ('A' for Active; 'I' for Inactive)
REMARK    1  A    between atoms: S1_2  and  C2_3 
REMARK    2  A    between atoms: C2_3  and  C3_4 
REMARK    3  A    between atoms: C3_4  and  C4_5 
REMARK    4  A    between atoms: C4_5  and  N1_6 
REMARK    5  A    between atoms: C4_5  and  C18_25 
REMARK       I    between atoms: N1_6  and  C5_8 
REMARK    6  A    between atoms: C5_8  and  C6_10 
REMARK       I    between atoms: N2_17  and  C13_18 
REMARK    7  A    between atoms: C13_18  and  O3_20 
REMARK    8  A    between atoms: O3_20  and  C14_21 
REMARK       I    between atoms: C18_25  and  N3_27 
REMARK    9  A    between atoms: N3_27  and  C19_29 
REMARK   10  A    between atoms: C19_29  and  C20_30 
REMARK   11  A    between atoms: C20_30  and  C21_31 
REMARK   12  A    between atoms: C21_31  and  C22_32 
REMARK   13  A    between atoms: C22_32  and  C23_33 
ROOT
HETATM    1  C4  UNL     1      19.989  24.679  15.930  1.00  0.00     0.177 C 
ENDROOT
BRANCH   1   2
HETATM    2  C3  UNL     1      20.645  24.880  14.624  1.00  0.00     0.045 C 
BRANCH   2   3
HETATM    3  C2  UNL     1      20.010  25.768  13.628  1.00  0.00     0.076 C 
BRANCH   3   4
HETATM    4  S1  UNL     1      20.842  27.324  13.298  1.00  0.00    -0.173 SA
HETATM    5  C1  UNL     1      20.818  28.315  14.818  1.00  0.00     0.089 C 
ENDBRANCH   3   4
ENDBRANCH   2   3
ENDBRANCH   1   2
BRANCH   1   6
HETATM    6  N1  UNL     1      20.356  25.612  16.984  1.00  0.00    -0.346 N 
HETATM    7  C5  UNL     1      20.828  25.156  18.242  1.00  0.00     0.247 C 
HETATM    8  O1  UNL     1      20.915  23.928  18.425  1.00  0.00    -0.271 OA
ATOM      9  H1  UNL     1      20.273  26.614  16.816  1.00  0.00     0.163 HD
BRANCH   7  10
HETATM   10  C6  UNL     1      21.191  26.111  19.273  1.00  0.00     0.122 C 
HETATM   11  C7  UNL     1      21.134  27.554  18.757  1.00  0.00     0.050 C 
HETATM   12  C8  UNL     1      20.353  25.987  20.526  1.00  0.00     0.048 C 
HETATM   13  C9  UNL     1      20.509  24.576  21.010  1.00  0.00    -0.021 C 
HETATM   14  C12 UNL     1      21.278  26.679  21.515  1.00  0.00     0.041 C 
HETATM   15  C10 UNL     1      21.766  24.423  21.430  1.00  0.00    -0.005 C 
HETATM   16  C11 UNL     1      22.442  25.706  21.233  1.00  0.00     0.114 C 
HETATM   17  N2  UNL     1      22.536  25.927  19.784  1.00  0.00    -0.301 N 
HETATM   18  C13 UNL     1      23.761  25.947  19.099  1.00  0.00     0.365 C 
HETATM   19  O2  UNL     1      23.784  26.162  17.868  1.00  0.00    -0.238 OA
BRANCH  18  20
HETATM   20  O3  UNL     1      24.943  25.729  19.778  1.00  0.00    -0.294 OA
BRANCH  20  21
HETATM   21  C14 UNL     1      25.644  24.510  19.794  1.00  0.00     0.061 C 
HETATM   22  C15 UNL     1      26.866  24.701  18.897  1.00  0.00     0.046 C 
HETATM   23  C16 UNL     1      26.209  24.225  21.186  1.00  0.00     0.046 C 
HETATM   24  C17 UNL     1      24.862  23.331  19.324  1.00  0.00     0.046 C 
ENDBRANCH  20  21
ENDBRANCH  18  20
ENDBRANCH   7  10
ENDBRANCH   1   6
BRANCH   1  25
HETATM   25  C18 UNL     1      18.485  24.574  15.846  1.00  0.00     0.240 C 
HETATM   26  O4  UNL     1      17.784  25.496  16.309  1.00  0.00    -0.271 OA
HETATM   27  N3  UNL     1      17.908  23.448  15.254  1.00  0.00    -0.359 N 
ATOM     28  H3  UNL     1      18.579  22.772  14.889  1.00  0.00     0.162 HD
BRANCH  27  29
HETATM   29  C19 UNL     1      16.550  23.083  15.072  1.00  0.00     0.122 C 
BRANCH  29  30
HETATM   30  C20 UNL     1      15.989  21.866  15.683  1.00  0.00     0.020 C 
BRANCH  30  31
HETATM   31  C21 UNL     1      16.618  21.281  16.894  1.00  0.00     0.008 C 
BRANCH  31  32
HETATM   32  C22 UNL     1      15.934  21.770  18.163  1.00  0.00     0.060 C 
BRANCH  32  33
HETATM   33  C23 UNL     1      16.167  23.174  18.482  1.00  0.00     0.044 A 
HETATM   34  C24 UNL     1      17.344  23.607  19.096  1.00  0.00     0.135 A 
HETATM   35  N4  UNL     1      17.271  24.934  19.279  1.00  0.00    -0.296 N 
HETATM   36  N5  UNL     1      16.104  25.322  18.805  1.00  0.00    -0.243 N 
ATOM     37  H4  UNL     1      17.983  25.530  19.703  1.00  0.00     0.187 HD
HETATM   38  N6  UNL     1      15.438  24.295  18.329  1.00  0.00    -0.289 N 
ATOM     39  H5  UNL     1      15.766  26.283  18.808  1.00  0.00     0.208 HD
ATOM     40  H6  UNL     1      14.510  24.340  17.908  1.00  0.00     0.188 HD
ENDBRANCH  32  33
ENDBRANCH  31  32
ENDBRANCH  30  31
ENDBRANCH  29  30
ENDBRANCH  27  29
ENDBRANCH   1  25
TORSDOF 13
ENDMDL
MODEL 4
REMARK VINA RESULT: -8.374088608      2.269      4.115
REMARK  13 active torsions:
REMARK  status: ('A' for Active; 'I' for Inactive)
REMARK    1  A    between atoms: S1_2  and  C2_3 
REMARK    2  A    between atoms: C2_3  and  C3_4 
REMARK    3  A    between atoms: C3_4  and  C4_5 
REMARK    4  A    between atoms: C4_5  and  N1_6 
REMARK    5  A    between atoms: C4_5  and  C18_25 
REMARK       I    between atoms: N1_6  and  C5_8 
REMARK    6  A    between atoms: C5_8  and  C6_10 
REMARK       I    between atoms: N2_17  and  C13_18 
REMARK    7  A    between atoms: C13_18  and  O3_20 
REMARK    8  A    between atoms: O3_20  and  C14_21 
REMARK       I    between atoms: C18_25  and  N3_27 
REMARK    9  A    between atoms: N3_27  and  C19_29 
REMARK   10  A    between atoms: C19_29  and  C20_30 
REMARK   11  A    between atoms: C20_30  and  C21_31 
REMARK   12  A    between atoms: C21_31  and  C22_32 
REMARK   13  A    between atoms: C22_32  and  C23_33 
ROOT
HETATM    1  C4  UNL     1      15.378  21.581  16.414  1.00  0.00     0.177 C 
ENDROOT
BRANCH   1   2
HETATM    2  C3  UNL     1      14.579  22.001  15.247  1.00  0.00     0.045 C 
BRANCH   2   3
HETATM    3  C2  UNL     1      14.890  21.431  13.918  1.00  0.00     0.076 C 
BRANCH   3   4
HETATM    4  S1  UNL     1      13.935  19.994  13.423  1.00  0.00    -0.173 SA
HETATM    5  C1  UNL     1      12.208  20.262  13.916  1.00  0.00     0.089 C 
ENDBRANCH   3   4
ENDBRANCH   2   3
ENDBRANCH   1   2
BRANCH   1   6
HETATM    6  N1  UNL     1      15.855  22.645  17.283  1.00  0.00    -0.346 N 
HETATM    7  C5  UNL     1      17.212  23.058  17.268  1.00  0.00     0.247 C 
HETATM    8  O1  UNL     1      17.992  22.480  16.489  1.00  0.00    -0.271 OA
ATOM      9  H1  UNL     1      15.201  23.104  17.916  1.00  0.00     0.163 HD
BRANCH   7  10
HETATM   10  C6  UNL     1      17.658  24.127  18.143  1.00  0.00     0.122 C 
HETATM   11  C7  UNL     1      16.524  25.106  18.469  1.00  0.00     0.050 C 
HETATM   12  C8  UNL     1      18.281  23.627  19.428  1.00  0.00     0.048 C 
HETATM   13  C9  UNL     1      19.419  22.733  19.035  1.00  0.00    -0.021 C 
HETATM   14  C12 UNL     1      19.076  24.863  19.818  1.00  0.00     0.041 C 
HETATM   15  C10 UNL     1      20.363  23.492  18.478  1.00  0.00    -0.005 C 
HETATM   16  C11 UNL     1      19.871  24.870  18.495  1.00  0.00     0.114 C 
HETATM   17  N2  UNL     1      18.725  24.931  17.578  1.00  0.00    -0.301 N 
HETATM   18  C13 UNL     1      18.747  25.672  16.386  1.00  0.00     0.365 C 
HETATM   19  O2  UNL     1      17.735  25.706  15.654  1.00  0.00    -0.238 OA
BRANCH  18  20
HETATM   20  O3  UNL     1      19.883  26.363  16.016  1.00  0.00    -0.294 OA
BRANCH  20  21
HETATM   21  C14 UNL     1      20.656  26.083  14.875  1.00  0.00     0.061 C 
HETATM   22  C15 UNL     1      22.100  26.430  15.233  1.00  0.00     0.046 C 
HETATM   23  C16 UNL     1      20.665  24.583  14.578  1.00  0.00     0.046 C 
HETATM   24  C17 UNL     1      20.255  26.830  13.649  1.00  0.00     0.046 C 
ENDBRANCH  20  21
ENDBRANCH  18  20
ENDBRANCH   7  10
ENDBRANCH   1   6
BRANCH   1  25
HETATM   25  C18 UNL     1      14.723  20.502  17.244  1.00  0.00     0.240 C 
HETATM   26  O4  UNL     1      13.501  20.295  17.117  1.00  0.00    -0.271 OA
HETATM   27  N3  UNL     1      15.499  19.759  18.138  1.00  0.00    -0.359 N 
ATOM     28  H3  UNL     1      16.490  19.999  18.138  1.00  0.00     0.162 HD
BRANCH  27  29
HETATM   29  C19 UNL     1      15.145  18.728  19.043  1.00  0.00     0.122 C 
BRANCH  29  30
HETATM   30  C20 UNL     1      14.508  19.022  20.338  1.00  0.00     0.020 C 
BRANCH  30  31
HETATM   31  C21 UNL     1      13.553  18.055  20.937  1.00  0.00     0.008 C 
BRANCH  31  32
HETATM   32  C22 UNL     1      12.115  18.409  20.586  1.00  0.00     0.060 C 
BRANCH  32  33
HETATM   33  C23 UNL     1      11.733  18.121  19.208  1.00  0.00     0.044 A 
HETATM   34  C24 UNL     1      11.761  16.824  18.690  1.00  0.00     0.135 A 
HETATM   35  N4  UNL     1      11.378  16.865  17.405  1.00  0.00    -0.296 N 
HETATM   36  N5  UNL     1      11.122  18.127  17.124  1.00  0.00    -0.243 N 
ATOM     37  H4  UNL     1      11.299  16.073  16.768  1.00  0.00     0.187 HD
HETATM   38  N6  UNL     1      11.326  18.883  18.178  1.00  0.00    -0.289 N 
ATOM     39  H5  UNL     1      10.810  18.468  16.215  1.00  0.00     0.208 HD
ATOM     40  H6  UNL     1      11.195  19.894  18.210  1.00  0.00     0.188 HD
ENDBRANCH  32  33
ENDBRANCH  31  32
ENDBRANCH  30  31
ENDBRANCH  29  30
ENDBRANCH  27  29
ENDBRANCH   1  25
TORSDOF 13
ENDMDL
MODEL 5
REMARK VINA RESULT: -8.349219481      3.620      8.358
REMARK  13 active torsions:
REMARK  status: ('A' for Active; 'I' for Inactive)
REMARK    1  A    between atoms: S1_2  and  C2_3 
REMARK    2  A    between atoms: C2_3  and  C3_4 
REMARK    3  A    between atoms: C3_4  and  C4_5 
REMARK    4  A    between atoms: C4_5  and  N1_6 
REMARK    5  A    between atoms: C4_5  and  C18_25 
REMARK       I    between atoms: N1_6  and  C5_8 
REMARK    6  A    between atoms: C5_8  and  C6_10 
REMARK       I    between atoms: N2_17  and  C13_18 
REMARK    7  A    between atoms: C13_18  and  O3_20 
REMARK    8  A    between atoms: O3_20  and  C14_21 
REMARK       I    between atoms: C18_25  and  N3_27 
REMARK    9  A    between atoms: N3_27  and  C19_29 
REMARK   10  A    between atoms: C19_29  and  C20_30 
REMARK   11  A    between atoms: C20_30  and  C21_31 
REMARK   12  A    between atoms: C21_31  and  C22_32 
REMARK   13  A    between atoms: C22_32  and  C23_33 
ROOT
HETATM    1  C4  UNL     1      20.863  25.234  18.016  1.00  0.00     0.177 C 
ENDROOT
BRANCH   1   2
HETATM    2  C3  UNL     1      21.468  24.777  19.282  1.00  0.00     0.045 C 
BRANCH   2   3
HETATM    3  C2  UNL     1      20.748  25.013  20.551  1.00  0.00     0.076 C 
BRANCH   3   4
HETATM    4  S1  UNL     1      21.547  26.103  21.732  1.00  0.00    -0.173 SA
HETATM    5  C1  UNL     1      23.096  25.324  22.268  1.00  0.00     0.089 C 
ENDBRANCH   3   4
ENDBRANCH   2   3
ENDBRANCH   1   2
BRANCH   1   6
HETATM    6  N1  UNL     1      19.412  25.170  17.938  1.00  0.00    -0.346 N 
HETATM    7  C5  UNL     1      18.750  24.031  17.414  1.00  0.00     0.247 C 
HETATM    8  O1  UNL     1      19.448  23.081  17.013  1.00  0.00    -0.271 OA
ATOM      9  H1  UNL     1      18.858  25.961  18.268  1.00  0.00     0.163 HD
BRANCH   7  10
HETATM   10  C6  UNL     1      17.300  23.994  17.353  1.00  0.00     0.122 C 
HETATM   11  C7  UNL     1      16.663  24.817  18.478  1.00  0.00     0.050 C 
HETATM   12  C8  UNL     1      16.746  24.443  16.019  1.00  0.00     0.048 C 
HETATM   13  C9  UNL     1      17.358  23.555  14.978  1.00  0.00    -0.021 C 
HETATM   14  C12 UNL     1      15.368  23.803  16.093  1.00  0.00     0.041 C 
HETATM   15  C10 UNL     1      16.869  22.326  15.147  1.00  0.00    -0.005 C 
HETATM   16  C11 UNL     1      15.946  22.385  16.281  1.00  0.00     0.114 C 
HETATM   17  N2  UNL     1      16.749  22.657  17.480  1.00  0.00    -0.301 N 
HETATM   18  C13 UNL     1      16.897  21.728  18.520  1.00  0.00     0.365 C 
HETATM   19  O2  UNL     1      17.575  22.021  19.528  1.00  0.00    -0.238 OA
BRANCH  18  20
HETATM   20  O3  UNL     1      16.297  20.487  18.437  1.00  0.00    -0.294 OA
BRANCH  20  21
HETATM   21  C14 UNL     1      15.185  20.082  19.196  1.00  0.00     0.061 C 
HETATM   22  C15 UNL     1      13.946  20.502  18.407  1.00  0.00     0.046 C 
HETATM   23  C16 UNL     1      15.109  18.558  19.281  1.00  0.00     0.046 C 
HETATM   24  C17 UNL     1      15.120  20.661  20.568  1.00  0.00     0.046 C 
ENDBRANCH  20  21
ENDBRANCH  18  20
ENDBRANCH   7  10
ENDBRANCH   1   6
BRANCH   1  25
HETATM   25  C18 UNL     1      21.336  26.598  17.572  1.00  0.00     0.240 C 
HETATM   26  O4  UNL     1      20.498  27.502  17.387  1.00  0.00    -0.271 OA
HETATM   27  N3  UNL     1      22.702  26.820  17.376  1.00  0.00    -0.359 N 
ATOM     28  H3  UNL     1      23.294  26.015  17.581  1.00  0.00     0.162 HD
BRANCH  27  29
HETATM   29  C19 UNL     1      23.405  27.970  16.940  1.00  0.00     0.122 C 
BRANCH  29  30
HETATM   30  C20 UNL     1      23.554  28.290  15.510  1.00  0.00     0.020 C 
BRANCH  30  31
HETATM   31  C21 UNL     1      22.729  29.361  14.895  1.00  0.00     0.008 C 
BRANCH  31  32
HETATM   32  C22 UNL     1      21.943  28.836  13.701  1.00  0.00     0.060 C 
BRANCH  32  33
HETATM   33  C23 UNL     1      20.886  27.888  14.032  1.00  0.00     0.044 A 
HETATM   34  C24 UNL     1      21.000  26.526  13.745  1.00  0.00     0.135 A 
HETATM   35  N4  UNL     1      19.878  25.906  14.144  1.00  0.00    -0.296 N 
HETATM   36  N5  UNL     1      19.093  26.833  14.657  1.00  0.00    -0.243 N 
ATOM     37  H4  UNL     1      19.673  24.911  14.066  1.00  0.00     0.187 HD
HETATM   38  N6  UNL     1      19.672  28.010  14.599  1.00  0.00    -0.289 N 
ATOM     39  H5  UNL     1      18.165  26.659  15.043  1.00  0.00     0.208 HD
ATOM     40  H6  UNL     1      19.265  28.882  14.934  1.00  0.00     0.188 HD
ENDBRANCH  32  33
ENDBRANCH  31  32
ENDBRANCH  30  31
ENDBRANCH  29  30
ENDBRANCH  27  29
ENDBRANCH   1  25
TORSDOF 13
ENDMDL
