MODEL 1
REMARK VINA RESULT: -8.715007809      0.000      0.000
REMARK  13 active torsions:
REMARK  status: ('A' for Active; 'I' for Inactive)
REMARK    1  A    between atoms: C2_2  and  N1_3 
REMARK    2  A    between atoms: N1_3  and  C3_4 
REMARK    3  A    between atoms: N1_3  and  C5_6 
REMARK    4  A    between atoms: C5_6  and  C6_7 
REMARK    5  A    between atoms: C6_7  and  N2_8 
REMARK       I    between atoms: N2_8  and  C7_10 
REMARK    6  A    between atoms: C7_10  and  C8_12 
REMARK    7  A    between atoms: C8_12  and  C9_13 
REMARK    8  A    between atoms: C9_13  and  C10_14 
REMARK    9  A    between atoms: C10_14  and  C11_15 
REMARK   10  A    between atoms: C14_20  and  C15_21 
REMARK   11  A    between atoms: C15_21  and  C16_22 
REMARK   12  A    between atoms: C16_22  and  C17_23 
REMARK   13  A    between atoms: C26_35  and  O3_36 
ROOT
HETATM    1  C11 UNL     1      19.173  11.346  17.711  1.00  0.00    -0.003 C 
HETATM    2  C12 UNL     1      18.026  10.735  17.902  1.00  0.00     0.043 C 
HETATM    3  C13 UNL     1      17.663   9.539  18.682  1.00  0.00     0.062 A 
HETATM    4  N3  UNL     1      16.387   9.086  18.503  1.00  0.00    -0.341 N 
ATOM      5  H3  UNL     1      15.682   9.496  17.891  1.00  0.00     0.167 HD
HETATM    6  C14 UNL     1      16.229   7.995  19.284  1.00  0.00     0.106 A 
HETATM    7  N4  UNL     1      17.395   7.797  19.923  1.00  0.00    -0.340 N 
ATOM      8  H4  UNL     1      17.566   7.039  20.584  1.00  0.00     0.167 HD
HETATM    9  C19 UNL     1      18.301   8.718  19.584  1.00  0.00     0.072 A 
HETATM   10  C20 UNL     1      19.635   8.672  20.174  1.00  0.00     0.008 A 
HETATM   11  C21 UNL     1      19.578   7.668  21.119  1.00  0.00     0.016 A 
HETATM   12  C22 UNL     1      20.715   7.377  21.865  1.00  0.00     0.020 A 
HETATM   13  C23 UNL     1      21.893   8.053  21.693  1.00  0.00     0.060 A 
HETATM   14  C24 UNL     1      21.954   9.054  20.750  1.00  0.00     0.065 A 
HETATM   15  C25 UNL     1      20.829   9.345  20.010  1.00  0.00     0.042 A 
HETATM   16  C26 UNL     1      21.223  10.332  19.211  1.00  0.00     0.130 C 
HETATM   17  C27 UNL     1      20.566  11.114  18.177  1.00  0.00     0.212 C 
HETATM   18  O4  UNL     1      21.432  11.754  17.515  1.00  0.00    -0.285 OA
HETATM   19  N5  UNL     1      23.195   9.237  21.081  1.00  0.00    -0.321 N 
ATOM     20  H5  UNL     1      23.892   9.895  20.731  1.00  0.00     0.169 HD
HETATM   21  C28 UNL     1      23.278   8.237  22.080  1.00  0.00     0.258 A 
HETATM   22  O5  UNL     1      24.115   7.770  22.872  1.00  0.00    -0.267 OA
ENDROOT
BRANCH   1  23
HETATM   23  C10 UNL     1      19.119  12.532  16.849  1.00  0.00     0.043 C 
BRANCH  23  24
HETATM   24  C9  UNL     1      18.439  13.733  17.396  1.00  0.00     0.014 C 
BRANCH  24  25
HETATM   25  C8  UNL     1      19.315  14.965  17.376  1.00  0.00     0.103 C 
BRANCH  25  26
HETATM   26  C7  UNL     1      20.332  14.939  16.302  1.00  0.00     0.217 C 
HETATM   27  N2  UNL     1      21.693  14.704  16.616  1.00  0.00    -0.359 N 
ATOM     28  H2  UNL     1      21.972  14.547  17.585  1.00  0.00     0.162 HD
HETATM   29  O1  UNL     1      19.953  15.129  15.122  1.00  0.00    -0.274 OA
BRANCH  27  30
HETATM   30  C6  UNL     1      22.682  14.685  15.575  1.00  0.00     0.152 C 
BRANCH  30  31
HETATM   31  C5  UNL     1      23.834  13.756  15.852  1.00  0.00     0.292 C 
BRANCH  31  32
HETATM   32  N1  UNL     1      24.853  14.500  16.556  1.00  0.00     0.089 N 
BRANCH  32  33
HETATM   33  C2  UNL     1      25.618  13.726  17.483  1.00  0.00     0.268 C 
HETATM   34  C1  UNL     1      26.877  13.158  16.910  1.00  0.00     0.037 C 
ENDBRANCH  32  33
BRANCH  32  35
HETATM   35  C3  UNL     1      25.666  15.299  15.666  1.00  0.00     0.268 C 
HETATM   36  C4  UNL     1      25.663  16.717  16.210  1.00  0.00     0.037 C 
ENDBRANCH  32  35
ENDBRANCH  31  32
ENDBRANCH  30  31
ENDBRANCH  27  30
ENDBRANCH  25  26
ENDBRANCH  24  25
ENDBRANCH  23  24
ENDBRANCH   1  23
BRANCH  16  37
HETATM   37  O3  UNL     1      22.559  10.677  19.428  1.00  0.00    -0.356 OA
ATOM     38  H3  UNL     1      22.995  10.926  18.621  1.00  0.00     0.218 HD
ENDBRANCH  16  37
BRANCH   6  39
HETATM   39  C15 UNL     1      15.011   7.177  19.409  1.00  0.00     0.052 C 
BRANCH  39  40
HETATM   40  C16 UNL     1      14.683   6.724  20.605  1.00  0.00     0.053 C 
BRANCH  40  41
HETATM   41  C17 UNL     1      15.027   5.376  20.982  1.00  0.00     0.145 C 
HETATM   42  C18 UNL     1      15.073   5.000  22.413  1.00  0.00     0.096 C 
HETATM   43  O2  UNL     1      15.285   4.527  20.108  1.00  0.00    -0.294 OA
ENDBRANCH  40  41
ENDBRANCH  39  40
ENDBRANCH   6  39
TORSDOF 13
ENDMDL
MODEL 2
REMARK VINA RESULT: -8.654917131      2.391      8.045
REMARK  13 active torsions:
REMARK  status: ('A' for Active; 'I' for Inactive)
REMARK    1  A    between atoms: C2_2  and  N1_3 
REMARK    2  A    between atoms: N1_3  and  C3_4 
REMARK    3  A    between atoms: N1_3  and  C5_6 
REMARK    4  A    between atoms: C5_6  and  C6_7 
REMARK    5  A    between atoms: C6_7  and  N2_8 
REMARK       I    between atoms: N2_8  and  C7_10 
REMARK    6  A    between atoms: C7_10  and  C8_12 
REMARK    7  A    between atoms: C8_12  and  C9_13 
REMARK    8  A    between atoms: C9_13  and  C10_14 
REMARK    9  A    between atoms: C10_14  and  C11_15 
REMARK   10  A    between atoms: C14_20  and  C15_21 
REMARK   11  A    between atoms: C15_21  and  C16_22 
REMARK   12  A    between atoms: C16_22  and  C17_23 
REMARK   13  A    between atoms: C26_35  and  O3_36 
ROOT
HETATM    1  C11 UNL     1      21.932   9.784  19.092  1.00  0.00    -0.003 C 
HETATM    2  C12 UNL     1      20.796   9.138  19.225  1.00  0.00     0.043 C 
HETATM    3  C13 UNL     1      19.394   9.572  19.102  1.00  0.00     0.062 A 
HETATM    4  N3  UNL     1      18.458   8.655  19.490  1.00  0.00    -0.341 N 
ATOM      5  H3  UNL     1      18.645   7.718  19.847  1.00  0.00     0.167 HD
HETATM    6  C14 UNL     1      17.242   9.214  19.313  1.00  0.00     0.106 A 
HETATM    7  N4  UNL     1      17.444  10.451  18.826  1.00  0.00    -0.340 N 
ATOM      8  H4  UNL     1      16.698  11.107  18.596  1.00  0.00     0.167 HD
HETATM    9  C19 UNL     1      18.747  10.712  18.681  1.00  0.00     0.072 A 
HETATM   10  C20 UNL     1      19.171  12.009  18.165  1.00  0.00     0.008 A 
HETATM   11  C21 UNL     1      18.005  12.652  17.801  1.00  0.00     0.016 A 
HETATM   12  C22 UNL     1      18.080  13.933  17.264  1.00  0.00     0.020 A 
HETATM   13  C23 UNL     1      19.273  14.580  17.083  1.00  0.00     0.060 A 
HETATM   14  C24 UNL     1      20.437  13.941  17.445  1.00  0.00     0.065 A 
HETATM   15  C25 UNL     1      20.367  12.673  17.977  1.00  0.00     0.042 A 
HETATM   16  C26 UNL     1      21.637  12.358  18.215  1.00  0.00     0.130 C 
HETATM   17  C27 UNL     1      22.298  11.189  18.771  1.00  0.00     0.212 C 
HETATM   18  O4  UNL     1      23.499  11.472  19.044  1.00  0.00    -0.285 OA
HETATM   19  N5  UNL     1      21.090  14.991  17.051  1.00  0.00    -0.321 N 
ATOM     20  H5  UNL     1      22.090  15.195  17.042  1.00  0.00     0.169 HD
HETATM   21  C28 UNL     1      19.979  15.765  16.636  1.00  0.00     0.258 A 
HETATM   22  O5  UNL     1      19.746  16.883  16.145  1.00  0.00    -0.267 OA
ENDROOT
BRANCH   1  23
HETATM   23  C10 UNL     1      23.142   8.980  19.298  1.00  0.00     0.043 C 
BRANCH  23  24
HETATM   24  C9  UNL     1      23.399   8.491  20.675  1.00  0.00     0.014 C 
BRANCH  24  25
HETATM   25  C8  UNL     1      23.030   7.037  20.862  1.00  0.00     0.103 C 
BRANCH  25  26
HETATM   26  C7  UNL     1      21.719   6.849  21.522  1.00  0.00     0.217 C 
HETATM   27  N2  UNL     1      20.707   6.085  20.889  1.00  0.00    -0.359 N 
ATOM     28  H2  UNL     1      20.884   5.660  19.978  1.00  0.00     0.162 HD
HETATM   29  O1  UNL     1      21.538   7.379  22.643  1.00  0.00    -0.274 OA
BRANCH  27  30
HETATM   30  C6  UNL     1      19.432   5.907  21.526  1.00  0.00     0.152 C 
BRANCH  30  31
HETATM   31  C5  UNL     1      18.430   5.171  20.677  1.00  0.00     0.292 C 
BRANCH  31  32
HETATM   32  N1  UNL     1      17.933   4.048  21.439  1.00  0.00     0.089 N 
BRANCH  32  33
HETATM   33  C2  UNL     1      18.940   3.125  21.857  1.00  0.00     0.268 C 
HETATM   34  C1  UNL     1      19.758   2.565  20.738  1.00  0.00     0.037 C 
ENDBRANCH  32  33
BRANCH  32  35
HETATM   35  C3  UNL     1      17.047   4.455  22.506  1.00  0.00     0.268 C 
HETATM   36  C4  UNL     1      15.795   3.601  22.399  1.00  0.00     0.037 C 
ENDBRANCH  32  35
ENDBRANCH  31  32
ENDBRANCH  30  31
ENDBRANCH  27  30
ENDBRANCH  25  26
ENDBRANCH  24  25
ENDBRANCH  23  24
ENDBRANCH   1  23
BRANCH  16  37
HETATM   37  O3  UNL     1      22.507  13.386  17.844  1.00  0.00    -0.356 OA
ATOM     38  H3  UNL     1      22.836  13.860  18.598  1.00  0.00     0.218 HD
ENDBRANCH  16  37
BRANCH   6  39
HETATM   39  C15 UNL     1      15.940   8.588  19.603  1.00  0.00     0.052 C 
BRANCH  39  40
HETATM   40  C16 UNL     1      15.657   7.439  19.018  1.00  0.00     0.053 C 
BRANCH  40  41
HETATM   41  C17 UNL     1      14.995   6.397  19.764  1.00  0.00     0.145 C 
HETATM   42  C18 UNL     1      14.386   6.703  21.076  1.00  0.00     0.096 C 
HETATM   43  O2  UNL     1      14.937   5.240  19.305  1.00  0.00    -0.294 OA
ENDBRANCH  40  41
ENDBRANCH  39  40
ENDBRANCH   6  39
TORSDOF 13
ENDMDL
MODEL 3
REMARK VINA RESULT: -8.490046218      2.445      8.143
REMARK  13 active torsions:
REMARK  status: ('A' for Active; 'I' for Inactive)
REMARK    1  A    between atoms: C2_2  and  N1_3 
REMARK    2  A    between atoms: N1_3  and  C3_4 
REMARK    3  A    between atoms: N1_3  and  C5_6 
REMARK    4  A    between atoms: C5_6  and  C6_7 
REMARK    5  A    between atoms: C6_7  and  N2_8 
REMARK       I    between atoms: N2_8  and  C7_10 
REMARK    6  A    between atoms: C7_10  and  C8_12 
REMARK    7  A    between atoms: C8_12  and  C9_13 
REMARK    8  A    between atoms: C9_13  and  C10_14 
REMARK    9  A    between atoms: C10_14  and  C11_15 
REMARK   10  A    between atoms: C14_20  and  C15_21 
REMARK   11  A    between atoms: C15_21  and  C16_22 
REMARK   12  A    between atoms: C16_22  and  C17_23 
REMARK   13  A    between atoms: C26_35  and  O3_36 
ROOT
HETATM    1  C11 UNL     1      21.897   9.642  19.171  1.00  0.00    -0.003 C 
HETATM    2  C12 UNL     1      20.756   9.007  19.323  1.00  0.00     0.043 C 
HETATM    3  C13 UNL     1      19.357   9.452  19.209  1.00  0.00     0.062 A 
HETATM    4  N3  UNL     1      18.417   8.548  19.617  1.00  0.00    -0.341 N 
ATOM      5  H3  UNL     1      18.599   7.614  19.984  1.00  0.00     0.167 HD
HETATM    6  C14 UNL     1      17.204   9.116  19.446  1.00  0.00     0.106 A 
HETATM    7  N4  UNL     1      17.413  10.345  18.942  1.00  0.00    -0.340 N 
ATOM      8  H4  UNL     1      16.670  11.005  18.711  1.00  0.00     0.167 HD
HETATM    9  C19 UNL     1      18.716  10.593  18.781  1.00  0.00     0.072 A 
HETATM   10  C20 UNL     1      19.146  11.880  18.245  1.00  0.00     0.008 A 
HETATM   11  C21 UNL     1      17.982  12.529  17.885  1.00  0.00     0.016 A 
HETATM   12  C22 UNL     1      18.063  13.803  17.332  1.00  0.00     0.020 A 
HETATM   13  C23 UNL     1      19.260  14.436  17.131  1.00  0.00     0.060 A 
HETATM   14  C24 UNL     1      20.422  13.791  17.489  1.00  0.00     0.065 A 
HETATM   15  C25 UNL     1      20.346  12.531  18.037  1.00  0.00     0.042 A 
HETATM   16  C26 UNL     1      21.615  12.207  18.266  1.00  0.00     0.130 C 
HETATM   17  C27 UNL     1      22.272  11.040  18.829  1.00  0.00     0.212 C 
HETATM   18  O4  UNL     1      23.478  11.314  19.087  1.00  0.00    -0.285 OA
HETATM   19  N5  UNL     1      21.080  14.831  17.076  1.00  0.00    -0.321 N 
ATOM     20  H5  UNL     1      22.082  15.025  17.055  1.00  0.00     0.169 HD
HETATM   21  C28 UNL     1      19.972  15.609  16.662  1.00  0.00     0.258 A 
HETATM   22  O5  UNL     1      19.744  16.723  16.160  1.00  0.00    -0.267 OA
ENDROOT
BRANCH   1  23
HETATM   23  C10 UNL     1      23.101   8.829  19.374  1.00  0.00     0.043 C 
BRANCH  23  24
HETATM   24  C9  UNL     1      23.276   8.206  20.710  1.00  0.00     0.014 C 
BRANCH  24  25
HETATM   25  C8  UNL     1      22.823   6.765  20.751  1.00  0.00     0.103 C 
BRANCH  25  26
HETATM   26  C7  UNL     1      21.478   6.593  21.343  1.00  0.00     0.217 C 
HETATM   27  N2  UNL     1      20.532   5.737  20.725  1.00  0.00    -0.359 N 
ATOM     28  H2  UNL     1      20.781   5.235  19.873  1.00  0.00     0.162 HD
HETATM   29  O1  UNL     1      21.209   7.220  22.394  1.00  0.00    -0.274 OA
BRANCH  27  30
HETATM   30  C6  UNL     1      19.224   5.575  21.296  1.00  0.00     0.152 C 
BRANCH  30  31
HETATM   31  C5  UNL     1      18.913   4.159  21.701  1.00  0.00     0.292 C 
BRANCH  31  32
HETATM   32  N1  UNL     1      18.167   4.198  22.938  1.00  0.00     0.089 N 
BRANCH  32  33
HETATM   33  C2  UNL     1      18.897   4.709  24.055  1.00  0.00     0.268 C 
HETATM   34  C1  UNL     1      18.137   4.686  25.343  1.00  0.00     0.037 C 
ENDBRANCH  32  33
BRANCH  32  35
HETATM   35  C3  UNL     1      16.864   4.805  22.776  1.00  0.00     0.268 C 
HETATM   36  C4  UNL     1      15.894   3.695  22.411  1.00  0.00     0.037 C 
ENDBRANCH  32  35
ENDBRANCH  31  32
ENDBRANCH  30  31
ENDBRANCH  27  30
ENDBRANCH  25  26
ENDBRANCH  24  25
ENDBRANCH  23  24
ENDBRANCH   1  23
BRANCH  16  37
HETATM   37  O3  UNL     1      22.491  13.223  17.874  1.00  0.00    -0.356 OA
ATOM     38  H3  UNL     1      23.397  12.941  17.909  1.00  0.00     0.218 HD
ENDBRANCH  16  37
BRANCH   6  39
HETATM   39  C15 UNL     1      15.900   8.506  19.757  1.00  0.00     0.052 C 
BRANCH  39  40
HETATM   40  C16 UNL     1      15.528   7.444  19.066  1.00  0.00     0.053 C 
BRANCH  40  41
HETATM   41  C17 UNL     1      14.889   6.338  19.735  1.00  0.00     0.145 C 
HETATM   42  C18 UNL     1      14.098   6.578  20.963  1.00  0.00     0.096 C 
HETATM   43  O2  UNL     1      15.002   5.183  19.284  1.00  0.00    -0.294 OA
ENDBRANCH  40  41
ENDBRANCH  39  40
ENDBRANCH   6  39
TORSDOF 13
ENDMDL
MODEL 4
REMARK VINA RESULT: -8.475174420      2.172     10.099
REMARK  13 active torsions:
REMARK  status: ('A' for Active; 'I' for Inactive)
REMARK    1  A    between atoms: C2_2  and  N1_3 
REMARK    2  A    between atoms: N1_3  and  C3_4 
REMARK    3  A    between atoms: N1_3  and  C5_6 
REMARK    4  A    between atoms: C5_6  and  C6_7 
REMARK    5  A    between atoms: C6_7  and  N2_8 
REMARK       I    between atoms: N2_8  and  C7_10 
REMARK    6  A    between atoms: C7_10  and  C8_12 
REMARK    7  A    between atoms: C8_12  and  C9_13 
REMARK    8  A    between atoms: C9_13  and  C10_14 
REMARK    9  A    between atoms: C10_14  and  C11_15 
REMARK   10  A    between atoms: C14_20  and  C15_21 
REMARK   11  A    between atoms: C15_21  and  C16_22 
REMARK   12  A    between atoms: C16_22  and  C17_23 
REMARK   13  A    between atoms: C26_35  and  O3_36 
ROOT
HETATM    1  C11 UNL     1      22.655  10.203  18.659  1.00  0.00    -0.003 C 
HETATM    2  C12 UNL     1      23.666  10.995  18.386  1.00  0.00     0.043 C 
HETATM    3  C13 UNL     1      23.735  12.331  17.769  1.00  0.00     0.062 A 
HETATM    4  N3  UNL     1      24.991  12.780  17.477  1.00  0.00    -0.341 N 
ATOM      5  H3  UNL     1      25.864  12.282  17.647  1.00  0.00     0.167 HD
HETATM    6  C14 UNL     1      24.867  14.005  16.922  1.00  0.00     0.106 A 
HETATM    7  N4  UNL     1      23.553  14.287  16.881  1.00  0.00    -0.340 N 
ATOM      8  H4  UNL     1      23.163  15.153  16.510  1.00  0.00     0.167 HD
HETATM    9  C19 UNL     1      22.823  13.290  17.389  1.00  0.00     0.072 A 
HETATM   10  C20 UNL     1      21.370  13.407  17.432  1.00  0.00     0.008 A 
HETATM   11  C21 UNL     1      21.099  14.695  17.015  1.00  0.00     0.016 A 
HETATM   12  C22 UNL     1      19.775  15.119  16.948  1.00  0.00     0.020 A 
HETATM   13  C23 UNL     1      18.730  14.301  17.282  1.00  0.00     0.060 A 
HETATM   14  C24 UNL     1      18.997  13.016  17.698  1.00  0.00     0.065 A 
HETATM   15  C25 UNL     1      20.306  12.593  17.765  1.00  0.00     0.042 A 
HETATM   16  C26 UNL     1      20.212  11.336  18.187  1.00  0.00     0.130 C 
HETATM   17  C27 UNL     1      21.182  10.293  18.474  1.00  0.00     0.212 C 
HETATM   18  O4  UNL     1      20.591   9.183  18.590  1.00  0.00    -0.285 OA
HETATM   19  N5  UNL     1      17.719  12.835  17.831  1.00  0.00    -0.321 N 
ATOM     20  H5  UNL     1      17.185  12.020  18.135  1.00  0.00     0.169 HD
HETATM   21  C28 UNL     1      17.297  14.123  17.423  1.00  0.00     0.258 A 
HETATM   22  O5  UNL     1      16.240  14.760  17.269  1.00  0.00    -0.267 OA
ENDROOT
BRANCH   1  23
HETATM   23  C10 UNL     1      23.008   8.926  19.290  1.00  0.00     0.043 C 
BRANCH  23  24
HETATM   24  C9  UNL     1      22.946   8.866  20.772  1.00  0.00     0.014 C 
BRANCH  24  25
HETATM   25  C8  UNL     1      22.740   7.463  21.295  1.00  0.00     0.103 C 
BRANCH  25  26
HETATM   26  C7  UNL     1      21.319   7.136  21.545  1.00  0.00     0.217 C 
HETATM   27  N2  UNL     1      20.497   6.682  20.483  1.00  0.00    -0.359 N 
ATOM     28  H2  UNL     1      20.887   6.575  19.547  1.00  0.00     0.162 HD
HETATM   29  O1  UNL     1      20.874   7.273  22.709  1.00  0.00    -0.274 OA
BRANCH  27  30
HETATM   30  C6  UNL     1      19.115   6.371  20.723  1.00  0.00     0.152 C 
BRANCH  30  31
HETATM   31  C5  UNL     1      18.164   7.113  19.822  1.00  0.00     0.292 C 
BRANCH  31  32
HETATM   32  N1  UNL     1      16.831   6.972  20.361  1.00  0.00     0.089 N 
BRANCH  32  33
HETATM   33  C2  UNL     1      15.865   7.857  19.791  1.00  0.00     0.268 C 
HETATM   34  C1  UNL     1      16.366   8.631  18.614  1.00  0.00     0.037 C 
ENDBRANCH  32  33
BRANCH  32  35
HETATM   35  C3  UNL     1      16.395   5.594  20.400  1.00  0.00     0.268 C 
HETATM   36  C4  UNL     1      14.923   5.579  20.027  1.00  0.00     0.037 C 
ENDBRANCH  32  35
ENDBRANCH  31  32
ENDBRANCH  30  31
ENDBRANCH  27  30
ENDBRANCH  25  26
ENDBRANCH  24  25
ENDBRANCH  23  24
ENDBRANCH   1  23
BRANCH  16  37
HETATM   37  O3  UNL     1      18.884  10.954  18.394  1.00  0.00    -0.356 OA
ATOM     38  H3  UNL     1      18.822  10.129  18.861  1.00  0.00     0.218 HD
ENDBRANCH  16  37
BRANCH   6  39
HETATM   39  C15 UNL     1      25.964  14.867  16.448  1.00  0.00     0.052 C 
BRANCH  39  40
HETATM   40  C16 UNL     1      25.700  15.748  15.501  1.00  0.00     0.053 C 
BRANCH  40  41
HETATM   41  C17 UNL     1      25.483  17.131  15.847  1.00  0.00     0.145 C 
HETATM   42  C18 UNL     1      24.336  17.864  15.265  1.00  0.00     0.096 C 
HETATM   43  O2  UNL     1      26.257  17.710  16.632  1.00  0.00    -0.294 OA
ENDBRANCH  40  41
ENDBRANCH  39  40
ENDBRANCH   6  39
TORSDOF 13
ENDMDL
MODEL 5
REMARK VINA RESULT: -8.444357368      2.431      8.115
REMARK  13 active torsions:
REMARK  status: ('A' for Active; 'I' for Inactive)
REMARK    1  A    between atoms: C2_2  and  N1_3 
REMARK    2  A    between atoms: N1_3  and  C3_4 
REMARK    3  A    between atoms: N1_3  and  C5_6 
REMARK    4  A    between atoms: C5_6  and  C6_7 
REMARK    5  A    between atoms: C6_7  and  N2_8 
REMARK       I    between atoms: N2_8  and  C7_10 
REMARK    6  A    between atoms: C7_10  and  C8_12 
REMARK    7  A    between atoms: C8_12  and  C9_13 
REMARK    8  A    between atoms: C9_13  and  C10_14 
REMARK    9  A    between atoms: C10_14  and  C11_15 
REMARK   10  A    between atoms: C14_20  and  C15_21 
REMARK   11  A    between atoms: C15_21  and  C16_22 
REMARK   12  A    between atoms: C16_22  and  C17_23 
REMARK   13  A    between atoms: C26_35  and  O3_36 
ROOT
HETATM    1  C11 UNL     1      21.881   9.597  19.163  1.00  0.00    -0.003 C 
HETATM    2  C12 UNL     1      20.725   8.984  19.290  1.00  0.00     0.043 C 
HETATM    3  C13 UNL     1      19.337   9.459  19.157  1.00  0.00     0.062 A 
HETATM    4  N3  UNL     1      18.373   8.570  19.540  1.00  0.00    -0.341 N 
ATOM      5  H3  UNL     1      18.529   7.629  19.900  1.00  0.00     0.167 HD
HETATM    6  C14 UNL     1      17.174   9.165  19.355  1.00  0.00     0.106 A 
HETATM    7  N4  UNL     1      17.416  10.394  18.867  1.00  0.00    -0.340 N 
ATOM      8  H4  UNL     1      16.691  11.071  18.631  1.00  0.00     0.167 HD
HETATM    9  C19 UNL     1      18.726  10.616  18.730  1.00  0.00     0.072 A 
HETATM   10  C20 UNL     1      19.192  11.900  18.215  1.00  0.00     0.008 A 
HETATM   11  C21 UNL     1      18.048  12.576  17.843  1.00  0.00     0.016 A 
HETATM   12  C22 UNL     1      18.164  13.854  17.304  1.00  0.00     0.020 A 
HETATM   13  C23 UNL     1      19.376  14.465  17.130  1.00  0.00     0.060 A 
HETATM   14  C24 UNL     1      20.519  13.792  17.501  1.00  0.00     0.065 A 
HETATM   15  C25 UNL     1      20.408  12.528  18.034  1.00  0.00     0.042 A 
HETATM   16  C26 UNL     1      21.667  12.176  18.281  1.00  0.00     0.130 C 
HETATM   17  C27 UNL     1      22.290  10.990  18.843  1.00  0.00     0.212 C 
HETATM   18  O4  UNL     1      23.497  11.237  19.123  1.00  0.00    -0.285 OA
HETATM   19  N5  UNL     1      21.205  14.822  17.109  1.00  0.00    -0.321 N 
ATOM     20  H5  UNL     1      22.211  14.996  17.107  1.00  0.00     0.169 HD
HETATM   21  C28 UNL     1      20.120  15.627  16.685  1.00  0.00     0.258 A 
HETATM   22  O5  UNL     1      19.923  16.751  16.191  1.00  0.00    -0.267 OA
ENDROOT
BRANCH   1  23
HETATM   23  C10 UNL     1      23.065   8.758  19.379  1.00  0.00     0.043 C 
BRANCH  23  24
HETATM   24  C9  UNL     1      23.218   8.139  20.719  1.00  0.00     0.014 C 
BRANCH  24  25
HETATM   25  C8  UNL     1      22.725   6.712  20.769  1.00  0.00     0.103 C 
BRANCH  25  26
HETATM   26  C7  UNL     1      21.390   6.578  21.393  1.00  0.00     0.217 C 
HETATM   27  N2  UNL     1      20.399   5.767  20.785  1.00  0.00    -0.359 N 
ATOM     28  H2  UNL     1      20.608   5.272  19.918  1.00  0.00     0.162 HD
HETATM   29  O1  UNL     1      21.170   7.195  22.461  1.00  0.00    -0.274 OA
BRANCH  27  30
HETATM   30  C6  UNL     1      19.101   5.642  21.387  1.00  0.00     0.152 C 
BRANCH  30  31
HETATM   31  C5  UNL     1      18.959   4.432  22.272  1.00  0.00     0.292 C 
BRANCH  31  32
HETATM   32  N1  UNL     1      18.255   4.829  23.469  1.00  0.00     0.089 N 
BRANCH  32  33
HETATM   33  C2  UNL     1      16.840   4.630  23.417  1.00  0.00     0.268 C 
HETATM   34  C1  UNL     1      16.068   5.497  24.360  1.00  0.00     0.037 C 
ENDBRANCH  32  33
BRANCH  32  35
HETATM   35  C3  UNL     1      18.865   4.303  24.669  1.00  0.00     0.268 C 
HETATM   36  C4  UNL     1      19.782   5.383  25.217  1.00  0.00     0.037 C 
ENDBRANCH  32  35
ENDBRANCH  31  32
ENDBRANCH  30  31
ENDBRANCH  27  30
ENDBRANCH  25  26
ENDBRANCH  24  25
ENDBRANCH  23  24
ENDBRANCH   1  23
BRANCH  16  37
HETATM   37  O3  UNL     1      22.569  13.178  17.914  1.00  0.00    -0.356 OA
ATOM     38  H3  UNL     1      23.464  12.861  17.904  1.00  0.00     0.218 HD
ENDBRANCH  16  37
BRANCH   6  39
HETATM   39  C15 UNL     1      15.853   8.578  19.637  1.00  0.00     0.052 C 
BRANCH  39  40
HETATM   40  C16 UNL     1      15.521   7.461  19.017  1.00  0.00     0.053 C 
BRANCH  40  41
HETATM   41  C17 UNL     1      14.976   6.356  19.767  1.00  0.00     0.145 C 
HETATM   42  C18 UNL     1      14.487   6.573  21.146  1.00  0.00     0.096 C 
HETATM   43  O2  UNL     1      14.918   5.222  19.257  1.00  0.00    -0.294 OA
ENDBRANCH  40  41
ENDBRANCH  39  40
ENDBRANCH   6  39
TORSDOF 13
ENDMDL
