MODEL 1
REMARK VINA RESULT: -8.226940509      0.000      0.000
REMARK  12 active torsions:
REMARK  status: ('A' for Active; 'I' for Inactive)
REMARK    1  A    between atoms: C2_2  and  C3_3 
REMARK    2  A    between atoms: C3_3  and  C4_4 
REMARK    3  A    between atoms: C4_4  and  N1_5 
REMARK       I    between atoms: N1_5  and  C5_6 
REMARK    4  A    between atoms: N1_5  and  C16_22 
REMARK    5  A    between atoms: C5_6  and  C6_8 
REMARK    6  A    between atoms: C6_8  and  O2_9 
REMARK    7  A    between atoms: O2_9  and  C7_10 
REMARK    8  A    between atoms: C7_10  and  C8_12 
REMARK    9  A    between atoms: C10_14  and  O4_15 
REMARK   10  A    between atoms: C13_18  and  O5_19 
REMARK   11  A    between atoms: C17_23  and  N2_24 
REMARK       I    between atoms: N2_24  and  C18_26 
REMARK   12  A    between atoms: C18_26  and  C19_28 
ROOT
HETATM    1  N1  UNL     1      21.491  11.688  18.293  1.00  0.00    -0.308 N 
HETATM    2  C5  UNL     1      21.722  11.463  19.668  1.00  0.00     0.248 C 
HETATM    3  O1  UNL     1      21.225  12.267  20.496  1.00  0.00    -0.271 OA
ENDROOT
BRANCH   1   4
HETATM    4  C4  UNL     1      21.992  10.723  17.335  1.00  0.00     0.132 C 
BRANCH   4   5
HETATM    5  C3  UNL     1      20.947   9.843  16.735  1.00  0.00     0.020 C 
BRANCH   5   6
HETATM    6  C2  UNL     1      20.745   8.633  17.624  1.00  0.00    -0.003 C 
HETATM    7  C1  UNL     1      19.317   8.188  17.673  1.00  0.00     0.005 C 
ENDBRANCH   5   6
ENDBRANCH   4   5
ENDBRANCH   1   4
BRANCH   1   8
HETATM    8  C16 UNL     1      20.758  12.842  17.851  1.00  0.00     0.150 A 
HETATM    9  C17 UNL     1      21.428  13.991  17.425  1.00  0.00     0.145 A 
HETATM   10  N3  UNL     1      20.696  15.022  17.029  1.00  0.00    -0.292 N 
HETATM   11  C23 UNL     1      19.323  15.022  17.016  1.00  0.00     0.328 A 
ATOM     12  H3  UNL     1      21.180  15.863  16.717  1.00  0.00     0.172 HD
HETATM   13  O7  UNL     1      18.681  16.028  16.631  1.00  0.00    -0.247 OA
HETATM   14  N4  UNL     1      18.698  13.914  17.428  1.00  0.00    -0.273 N 
HETATM   15  C24 UNL     1      19.393  12.844  17.838  1.00  0.00     0.280 A 
ATOM     16  H4  UNL     1      17.679  13.882  17.429  1.00  0.00     0.173 HD
HETATM   17  O8  UNL     1      18.731  11.834  18.212  1.00  0.00    -0.265 OA
BRANCH   9  18
HETATM   18  N2  UNL     1      22.829  13.973  17.450  1.00  0.00    -0.310 N 
HETATM   19  C18 UNL     1      23.717  13.996  16.368  1.00  0.00     0.231 C 
HETATM   20  O6  UNL     1      23.341  14.037  15.191  1.00  0.00    -0.272 OA
ATOM     21  H2  UNL     1      23.256  13.938  18.376  1.00  0.00     0.170 HD
BRANCH  19  22
HETATM   22  C19 UNL     1      25.197  13.973  16.586  1.00  0.00     0.038 A 
HETATM   23  C20 UNL     1      25.749  12.960  17.559  1.00  0.00     0.025 C 
HETATM   24  C21 UNL     1      25.909  15.322  16.674  1.00  0.00     0.020 A 
HETATM   25  C22 UNL     1      26.075  14.407  15.485  1.00  0.00     0.020 A 
ENDBRANCH  19  22
ENDBRANCH   9  18
ENDBRANCH   1   8
BRANCH   2  26
HETATM   26  C6  UNL     1      22.518  10.328  20.121  1.00  0.00     0.282 C 
BRANCH  26  27
HETATM   27  O2  UNL     1      22.115   9.813  21.375  1.00  0.00    -0.308 OA
BRANCH  27  28
HETATM   28  C7  UNL     1      21.904   8.496  21.678  1.00  0.00     0.293 C 
HETATM   29  O3  UNL     1      22.843   7.837  22.200  1.00  0.00    -0.259 OA
BRANCH  28  30
HETATM   30  C8  UNL     1      20.649   7.791  21.435  1.00  0.00     0.044 A 
HETATM   31  C9  UNL     1      19.466   8.475  21.233  1.00  0.00     0.054 A 
HETATM   32  C10 UNL     1      18.262   7.814  21.003  1.00  0.00     0.071 A 
HETATM   33  C12 UNL     1      18.235   6.418  20.974  1.00  0.00     0.073 A 
HETATM   34  C13 UNL     1      19.412   5.715  21.176  1.00  0.00     0.071 A 
HETATM   35  C15 UNL     1      20.578   6.414  21.399  1.00  0.00     0.054 A 
BRANCH  32  36
HETATM   36  O4  UNL     1      17.072   8.457  20.797  1.00  0.00    -0.356 OA
HETATM   37  C11 UNL     1      15.910   8.095  21.484  1.00  0.00     0.210 C 
ENDBRANCH  32  36
BRANCH  34  38
HETATM   38  O5  UNL     1      19.407   4.304  21.151  1.00  0.00    -0.356 OA
HETATM   39  C14 UNL     1      18.219   3.616  21.499  1.00  0.00     0.210 C 
ENDBRANCH  34  38
ENDBRANCH  28  30
ENDBRANCH  27  28
ENDBRANCH  26  27
ENDBRANCH   2  26
TORSDOF 12
ENDMDL
MODEL 2
REMARK VINA RESULT: -8.222760635      0.039      1.819
REMARK  12 active torsions:
REMARK  status: ('A' for Active; 'I' for Inactive)
REMARK    1  A    between atoms: C2_2  and  C3_3 
REMARK    2  A    between atoms: C3_3  and  C4_4 
REMARK    3  A    between atoms: C4_4  and  N1_5 
REMARK       I    between atoms: N1_5  and  C5_6 
REMARK    4  A    between atoms: N1_5  and  C16_22 
REMARK    5  A    between atoms: C5_6  and  C6_8 
REMARK    6  A    between atoms: C6_8  and  O2_9 
REMARK    7  A    between atoms: O2_9  and  C7_10 
REMARK    8  A    between atoms: C7_10  and  C8_12 
REMARK    9  A    between atoms: C10_14  and  O4_15 
REMARK   10  A    between atoms: C13_18  and  O5_19 
REMARK   11  A    between atoms: C17_23  and  N2_24 
REMARK       I    between atoms: N2_24  and  C18_26 
REMARK   12  A    between atoms: C18_26  and  C19_28 
ROOT
HETATM    1  N1  UNL     1      21.487  11.684  18.318  1.00  0.00    -0.308 N 
HETATM    2  C5  UNL     1      21.730  11.468  19.692  1.00  0.00     0.248 C 
HETATM    3  O1  UNL     1      21.242  12.278  20.519  1.00  0.00    -0.271 OA
ENDROOT
BRANCH   1   4
HETATM    4  C4  UNL     1      21.977  10.713  17.362  1.00  0.00     0.132 C 
BRANCH   4   5
HETATM    5  C3  UNL     1      20.924   9.837  16.770  1.00  0.00     0.020 C 
BRANCH   5   6
HETATM    6  C2  UNL     1      20.730   8.623  17.655  1.00  0.00    -0.003 C 
HETATM    7  C1  UNL     1      19.303   8.177  17.713  1.00  0.00     0.005 C 
ENDBRANCH   5   6
ENDBRANCH   4   5
ENDBRANCH   1   4
BRANCH   1   8
HETATM    8  C16 UNL     1      20.754  12.838  17.875  1.00  0.00     0.150 A 
HETATM    9  C17 UNL     1      21.423  13.984  17.440  1.00  0.00     0.145 A 
HETATM   10  N3  UNL     1      20.690  15.014  17.044  1.00  0.00    -0.292 N 
HETATM   11  C23 UNL     1      19.317  15.016  17.039  1.00  0.00     0.328 A 
ATOM     12  H3  UNL     1      21.173  15.854  16.726  1.00  0.00     0.172 HD
HETATM   13  O7  UNL     1      18.674  16.022  16.653  1.00  0.00    -0.247 OA
HETATM   14  N4  UNL     1      18.693  13.911  17.459  1.00  0.00    -0.273 N 
HETATM   15  C24 UNL     1      19.388  12.842  17.870  1.00  0.00     0.280 A 
ATOM     16  H4  UNL     1      17.673  13.881  17.466  1.00  0.00     0.173 HD
HETATM   17  O8  UNL     1      18.727  11.834  18.252  1.00  0.00    -0.265 OA
BRANCH   9  18
HETATM   18  N2  UNL     1      22.824  13.964  17.457  1.00  0.00    -0.310 N 
HETATM   19  C18 UNL     1      23.706  13.989  16.370  1.00  0.00     0.231 C 
HETATM   20  O6  UNL     1      23.323  14.034  15.195  1.00  0.00    -0.272 OA
ATOM     21  H2  UNL     1      23.256  13.926  18.381  1.00  0.00     0.170 HD
BRANCH  19  22
HETATM   22  C19 UNL     1      25.187  13.963  16.580  1.00  0.00     0.038 A 
HETATM   23  C20 UNL     1      25.745  12.937  17.536  1.00  0.00     0.025 C 
HETATM   24  C21 UNL     1      25.899  15.311  16.682  1.00  0.00     0.020 A 
HETATM   25  C22 UNL     1      26.059  14.412  15.480  1.00  0.00     0.020 A 
ENDBRANCH  19  22
ENDBRANCH   9  18
ENDBRANCH   1   8
BRANCH   2  26
HETATM   26  C6  UNL     1      22.527  10.333  20.145  1.00  0.00     0.282 C 
BRANCH  26  27
HETATM   27  O2  UNL     1      22.119   9.813  21.395  1.00  0.00    -0.308 OA
BRANCH  27  28
HETATM   28  C7  UNL     1      21.920   8.494  21.695  1.00  0.00     0.293 C 
HETATM   29  O3  UNL     1      22.862   7.843  22.222  1.00  0.00    -0.259 OA
BRANCH  28  30
HETATM   30  C8  UNL     1      20.673   7.776  21.446  1.00  0.00     0.044 A 
HETATM   31  C9  UNL     1      20.634   6.397  21.393  1.00  0.00     0.054 A 
HETATM   32  C10 UNL     1      19.452   5.700  21.154  1.00  0.00     0.071 A 
HETATM   33  C12 UNL     1      18.263   6.405  20.959  1.00  0.00     0.073 A 
HETATM   34  C13 UNL     1      18.282   7.790  21.007  1.00  0.00     0.071 A 
HETATM   35  C15 UNL     1      19.477   8.433  21.248  1.00  0.00     0.054 A 
BRANCH  32  36
HETATM   36  O4  UNL     1      19.375   4.335  21.096  1.00  0.00    -0.356 OA
HETATM   37  C11 UNL     1      18.205   3.648  21.430  1.00  0.00     0.210 C 
ENDBRANCH  32  36
BRANCH  34  38
HETATM   38  O5  UNL     1      17.092   8.522  20.813  1.00  0.00    -0.356 OA
HETATM   39  C14 UNL     1      15.936   8.161  21.548  1.00  0.00     0.210 C 
ENDBRANCH  34  38
ENDBRANCH  28  30
ENDBRANCH  27  28
ENDBRANCH  26  27
ENDBRANCH   2  26
TORSDOF 12
ENDMDL
MODEL 3
REMARK VINA RESULT: -8.119599440      2.735      7.897
REMARK  12 active torsions:
REMARK  status: ('A' for Active; 'I' for Inactive)
REMARK    1  A    between atoms: C2_2  and  C3_3 
REMARK    2  A    between atoms: C3_3  and  C4_4 
REMARK    3  A    between atoms: C4_4  and  N1_5 
REMARK       I    between atoms: N1_5  and  C5_6 
REMARK    4  A    between atoms: N1_5  and  C16_22 
REMARK    5  A    between atoms: C5_6  and  C6_8 
REMARK    6  A    between atoms: C6_8  and  O2_9 
REMARK    7  A    between atoms: O2_9  and  C7_10 
REMARK    8  A    between atoms: C7_10  and  C8_12 
REMARK    9  A    between atoms: C10_14  and  O4_15 
REMARK   10  A    between atoms: C13_18  and  O5_19 
REMARK   11  A    between atoms: C17_23  and  N2_24 
REMARK       I    between atoms: N2_24  and  C18_26 
REMARK   12  A    between atoms: C18_26  and  C19_28 
ROOT
HETATM    1  N1  UNL     1      18.318   9.102  19.047  1.00  0.00    -0.308 N 
HETATM    2  C5  UNL     1      18.530  10.131  19.991  1.00  0.00     0.248 C 
HETATM    3  O1  UNL     1      18.164   9.938  21.177  1.00  0.00    -0.271 OA
ENDROOT
BRANCH   1   4
HETATM    4  C4  UNL     1      18.809   9.283  17.696  1.00  0.00     0.132 C 
BRANCH   4   5
HETATM    5  C3  UNL     1      20.277   9.067  17.534  1.00  0.00     0.020 C 
BRANCH   5   6
HETATM    6  C2  UNL     1      20.813  10.042  16.506  1.00  0.00    -0.003 C 
HETATM    7  C1  UNL     1      19.781  11.026  16.055  1.00  0.00     0.005 C 
ENDBRANCH   5   6
ENDBRANCH   4   5
ENDBRANCH   1   4
BRANCH   1   8
HETATM    8  C16 UNL     1      17.642   7.891  19.421  1.00  0.00     0.150 A 
HETATM    9  C17 UNL     1      18.356   6.806  19.935  1.00  0.00     0.145 A 
HETATM   10  N3  UNL     1      17.676   5.717  20.262  1.00  0.00    -0.292 N 
HETATM   11  C23 UNL     1      16.315   5.599  20.124  1.00  0.00     0.328 A 
ATOM     12  H3  UNL     1      18.192   4.923  20.638  1.00  0.00     0.172 HD
HETATM   13  O7  UNL     1      15.723   4.542  20.450  1.00  0.00    -0.247 OA
HETATM   14  N4  UNL     1      15.647   6.646  19.630  1.00  0.00    -0.273 N 
HETATM   15  C24 UNL     1      16.289   7.770  19.283  1.00  0.00     0.280 A 
ATOM     16  H4  UNL     1      14.635   6.589  19.515  1.00  0.00     0.173 HD
HETATM   17  O8  UNL     1      15.589   8.717  18.824  1.00  0.00    -0.265 OA
BRANCH   9  18
HETATM   18  N2  UNL     1      19.745   6.946  20.065  1.00  0.00    -0.310 N 
HETATM   19  C18 UNL     1      20.520   6.874  21.229  1.00  0.00     0.231 C 
HETATM   20  O6  UNL     1      20.034   6.667  22.347  1.00  0.00    -0.272 OA
ATOM     21  H2  UNL     1      20.256   7.123  19.200  1.00  0.00     0.170 HD
BRANCH  19  22
HETATM   22  C19 UNL     1      22.004   7.048  21.177  1.00  0.00     0.038 A 
HETATM   23  C20 UNL     1      22.680   7.693  22.363  1.00  0.00     0.025 C 
HETATM   24  C21 UNL     1      22.607   7.490  19.844  1.00  0.00     0.020 A 
HETATM   25  C22 UNL     1      22.795   6.092  20.381  1.00  0.00     0.020 A 
ENDBRANCH  19  22
ENDBRANCH   9  18
ENDBRANCH   1   8
BRANCH   2  26
HETATM   26  C6  UNL     1      19.159  11.389  19.603  1.00  0.00     0.282 C 
BRANCH  26  27
HETATM   27  O2  UNL     1      20.300  11.716  20.373  1.00  0.00    -0.308 OA
BRANCH  27  28
HETATM   28  C7  UNL     1      21.604  11.562  19.991  1.00  0.00     0.293 C 
HETATM   29  O3  UNL     1      22.329  10.749  20.625  1.00  0.00    -0.259 OA
BRANCH  28  30
HETATM   30  C8  UNL     1      22.223  12.283  18.883  1.00  0.00     0.044 A 
HETATM   31  C9  UNL     1      23.546  12.080  18.541  1.00  0.00     0.054 A 
HETATM   32  C10 UNL     1      24.150  12.763  17.488  1.00  0.00     0.071 A 
HETATM   33  C12 UNL     1      23.407  13.684  16.747  1.00  0.00     0.073 A 
HETATM   34  C13 UNL     1      22.078  13.903  17.077  1.00  0.00     0.071 A 
HETATM   35  C15 UNL     1      21.527  13.202  18.127  1.00  0.00     0.054 A 
BRANCH  32  36
HETATM   36  O4  UNL     1      25.456  12.586  17.120  1.00  0.00    -0.356 OA
HETATM   37  C11 UNL     1      26.410  13.593  17.286  1.00  0.00     0.210 C 
ENDBRANCH  32  36
BRANCH  34  38
HETATM   38  O5  UNL     1      21.310  14.830  16.341  1.00  0.00    -0.356 OA
HETATM   39  C14 UNL     1      19.996  15.130  16.775  1.00  0.00     0.210 C 
ENDBRANCH  34  38
ENDBRANCH  28  30
ENDBRANCH  27  28
ENDBRANCH  26  27
ENDBRANCH   2  26
TORSDOF 12
ENDMDL
MODEL 4
REMARK VINA RESULT: -8.116192702      2.733      7.739
REMARK  12 active torsions:
REMARK  status: ('A' for Active; 'I' for Inactive)
REMARK    1  A    between atoms: C2_2  and  C3_3 
REMARK    2  A    between atoms: C3_3  and  C4_4 
REMARK    3  A    between atoms: C4_4  and  N1_5 
REMARK       I    between atoms: N1_5  and  C5_6 
REMARK    4  A    between atoms: N1_5  and  C16_22 
REMARK    5  A    between atoms: C5_6  and  C6_8 
REMARK    6  A    between atoms: C6_8  and  O2_9 
REMARK    7  A    between atoms: O2_9  and  C7_10 
REMARK    8  A    between atoms: C7_10  and  C8_12 
REMARK    9  A    between atoms: C10_14  and  O4_15 
REMARK   10  A    between atoms: C13_18  and  O5_19 
REMARK   11  A    between atoms: C17_23  and  N2_24 
REMARK       I    between atoms: N2_24  and  C18_26 
REMARK   12  A    between atoms: C18_26  and  C19_28 
ROOT
HETATM    1  N1  UNL     1      18.345   9.133  19.035  1.00  0.00    -0.308 N 
HETATM    2  C5  UNL     1      18.562  10.163  19.977  1.00  0.00     0.248 C 
HETATM    3  O1  UNL     1      18.196   9.973  21.164  1.00  0.00    -0.271 OA
ENDROOT
BRANCH   1   4
HETATM    4  C4  UNL     1      18.835   9.310  17.684  1.00  0.00     0.132 C 
BRANCH   4   5
HETATM    5  C3  UNL     1      20.309   9.137  17.529  1.00  0.00     0.020 C 
BRANCH   5   6
HETATM    6  C2  UNL     1      20.811  10.076  16.451  1.00  0.00    -0.003 C 
HETATM    7  C1  UNL     1      19.777  11.072  16.031  1.00  0.00     0.005 C 
ENDBRANCH   5   6
ENDBRANCH   4   5
ENDBRANCH   1   4
BRANCH   1   8
HETATM    8  C16 UNL     1      17.667   7.924  19.413  1.00  0.00     0.150 A 
HETATM    9  C17 UNL     1      18.378   6.839  19.930  1.00  0.00     0.145 A 
HETATM   10  N3  UNL     1      17.695   5.753  20.260  1.00  0.00    -0.292 N 
HETATM   11  C23 UNL     1      16.333   5.637  20.122  1.00  0.00     0.328 A 
ATOM     12  H3  UNL     1      18.209   4.958  20.638  1.00  0.00     0.172 HD
HETATM   13  O7  UNL     1      15.739   4.583  20.451  1.00  0.00    -0.247 OA
HETATM   14  N4  UNL     1      15.668   6.686  19.625  1.00  0.00    -0.273 N 
HETATM   15  C24 UNL     1      16.313   7.807  19.276  1.00  0.00     0.280 A 
ATOM     16  H4  UNL     1      14.656   6.630  19.511  1.00  0.00     0.173 HD
HETATM   17  O8  UNL     1      15.615   8.754  18.814  1.00  0.00    -0.265 OA
BRANCH   9  18
HETATM   18  N2  UNL     1      19.767   6.976  20.059  1.00  0.00    -0.310 N 
HETATM   19  C18 UNL     1      20.543   6.893  21.221  1.00  0.00     0.231 C 
HETATM   20  O6  UNL     1      20.059   6.678  22.338  1.00  0.00    -0.272 OA
ATOM     21  H2  UNL     1      20.277   7.159  19.195  1.00  0.00     0.170 HD
BRANCH  19  22
HETATM   22  C19 UNL     1      22.028   7.065  21.169  1.00  0.00     0.038 A 
HETATM   23  C20 UNL     1      22.704   7.712  22.353  1.00  0.00     0.025 C 
HETATM   24  C21 UNL     1      22.631   7.504  19.835  1.00  0.00     0.020 A 
HETATM   25  C22 UNL     1      22.817   6.107  20.375  1.00  0.00     0.020 A 
ENDBRANCH  19  22
ENDBRANCH   9  18
ENDBRANCH   1   8
BRANCH   2  26
HETATM   26  C6  UNL     1      19.194  11.418  19.586  1.00  0.00     0.282 C 
BRANCH  26  27
HETATM   27  O2  UNL     1      20.343  11.739  20.347  1.00  0.00    -0.308 OA
BRANCH  27  28
HETATM   28  C7  UNL     1      21.643  11.587  19.951  1.00  0.00     0.293 C 
HETATM   29  O3  UNL     1      22.373  10.767  20.570  1.00  0.00    -0.259 OA
BRANCH  28  30
HETATM   30  C8  UNL     1      22.252  12.318  18.843  1.00  0.00     0.044 A 
HETATM   31  C9  UNL     1      21.521  13.206  18.078  1.00  0.00     0.054 A 
HETATM   32  C10 UNL     1      22.090  13.908  17.018  1.00  0.00     0.071 A 
HETATM   33  C12 UNL     1      23.438  13.718  16.708  1.00  0.00     0.073 A 
HETATM   34  C13 UNL     1      24.187  12.830  17.465  1.00  0.00     0.071 A 
HETATM   35  C15 UNL     1      23.579  12.160  18.504  1.00  0.00     0.054 A 
BRANCH  32  36
HETATM   36  O4  UNL     1      21.398  14.796  16.240  1.00  0.00    -0.356 OA
HETATM   37  C11 UNL     1      20.247  15.439  16.702  1.00  0.00     0.210 C 
ENDBRANCH  32  36
BRANCH  34  38
HETATM   38  O5  UNL     1      25.550  12.623  17.169  1.00  0.00    -0.356 OA
HETATM   39  C14 UNL     1      26.262  13.630  16.471  1.00  0.00     0.210 C 
ENDBRANCH  34  38
ENDBRANCH  28  30
ENDBRANCH  27  28
ENDBRANCH  26  27
ENDBRANCH   2  26
TORSDOF 12
ENDMDL
MODEL 5
REMARK VINA RESULT: -7.980634634      2.241      8.881
REMARK  12 active torsions:
REMARK  status: ('A' for Active; 'I' for Inactive)
REMARK    1  A    between atoms: C2_2  and  C3_3 
REMARK    2  A    between atoms: C3_3  and  C4_4 
REMARK    3  A    between atoms: C4_4  and  N1_5 
REMARK       I    between atoms: N1_5  and  C5_6 
REMARK    4  A    between atoms: N1_5  and  C16_22 
REMARK    5  A    between atoms: C5_6  and  C6_8 
REMARK    6  A    between atoms: C6_8  and  O2_9 
REMARK    7  A    between atoms: O2_9  and  C7_10 
REMARK    8  A    between atoms: C7_10  and  C8_12 
REMARK    9  A    between atoms: C10_14  and  O4_15 
REMARK   10  A    between atoms: C13_18  and  O5_19 
REMARK   11  A    between atoms: C17_23  and  N2_24 
REMARK       I    between atoms: N2_24  and  C18_26 
REMARK   12  A    between atoms: C18_26  and  C19_28 
ROOT
HETATM    1  N1  UNL     1      20.257   9.886  19.232  1.00  0.00    -0.308 N 
HETATM    2  C5  UNL     1      19.692  11.150  19.511  1.00  0.00     0.248 C 
HETATM    3  O1  UNL     1      20.088  11.769  20.530  1.00  0.00    -0.271 OA
ENDROOT
BRANCH   1   4
HETATM    4  C4  UNL     1      19.867   9.200  18.018  1.00  0.00     0.132 C 
BRANCH   4   5
HETATM    5  C3  UNL     1      18.738   8.239  18.182  1.00  0.00     0.020 C 
BRANCH   5   6
HETATM    6  C2  UNL     1      17.513   8.784  17.475  1.00  0.00    -0.003 C 
HETATM    7  C1  UNL     1      16.277   8.689  18.312  1.00  0.00     0.005 C 
ENDBRANCH   5   6
ENDBRANCH   4   5
ENDBRANCH   1   4
BRANCH   1   8
HETATM    8  C16 UNL     1      21.215   9.297  20.128  1.00  0.00     0.150 A 
HETATM    9  C17 UNL     1      20.795   8.498  21.194  1.00  0.00     0.145 A 
HETATM   10  N3  UNL     1      21.726   7.984  21.984  1.00  0.00    -0.292 N 
HETATM   11  C23 UNL     1      23.072   8.192  21.812  1.00  0.00     0.328 A 
ATOM     12  H3  UNL     1      21.425   7.401  22.764  1.00  0.00     0.172 HD
HETATM   13  O7  UNL     1      23.909   7.680  22.593  1.00  0.00    -0.247 OA
HETATM   14  N4  UNL     1      23.456   8.960  20.787  1.00  0.00    -0.273 N 
HETATM   15  C24 UNL     1      22.554   9.504  19.959  1.00  0.00     0.280 A 
ATOM     16  H4  UNL     1      24.449   9.133  20.632  1.00  0.00     0.173 HD
HETATM   17  O8  UNL     1      22.994  10.217  19.013  1.00  0.00    -0.265 OA
BRANCH   9  18
HETATM   18  N2  UNL     1      19.417   8.301  21.355  1.00  0.00    -0.310 N 
HETATM   19  C18 UNL     1      18.697   7.103  21.282  1.00  0.00     0.231 C 
HETATM   20  O6  UNL     1      19.231   6.012  21.052  1.00  0.00    -0.272 OA
ATOM     21  H2  UNL     1      18.868   9.139  21.550  1.00  0.00     0.170 HD
BRANCH  19  22
HETATM   22  C19 UNL     1      17.215   7.082  21.484  1.00  0.00     0.038 A 
HETATM   23  C20 UNL     1      16.508   8.405  21.654  1.00  0.00     0.025 C 
HETATM   24  C21 UNL     1      16.652   5.993  22.397  1.00  0.00     0.020 A 
HETATM   25  C22 UNL     1      16.444   5.969  20.902  1.00  0.00     0.020 A 
ENDBRANCH  19  22
ENDBRANCH   9  18
ENDBRANCH   1   8
BRANCH   2  26
HETATM   26  C6  UNL     1      18.674  11.726  18.640  1.00  0.00     0.282 C 
BRANCH  26  27
HETATM   27  O2  UNL     1      19.148  12.788  17.834  1.00  0.00    -0.308 OA
BRANCH  27  28
HETATM   28  C7  UNL     1      19.818  12.665  16.648  1.00  0.00     0.293 C 
HETATM   29  O3  UNL     1      19.344  11.908  15.759  1.00  0.00    -0.259 OA
BRANCH  28  30
HETATM   30  C8  UNL     1      21.064  13.361  16.336  1.00  0.00     0.044 A 
HETATM   31  C9  UNL     1      22.291  12.830  16.682  1.00  0.00     0.054 A 
HETATM   32  C10 UNL     1      23.486  13.485  16.391  1.00  0.00     0.071 A 
HETATM   33  C12 UNL     1      23.457  14.715  15.733  1.00  0.00     0.073 A 
HETATM   34  C13 UNL     1      22.234  15.264  15.379  1.00  0.00     0.071 A 
HETATM   35  C15 UNL     1      21.080  14.577  15.688  1.00  0.00     0.054 A 
BRANCH  32  36
HETATM   36  O4  UNL     1      24.719  12.989  16.717  1.00  0.00    -0.356 OA
HETATM   37  C11 UNL     1      25.883  13.745  16.552  1.00  0.00     0.210 C 
ENDBRANCH  32  36
BRANCH  34  38
HETATM   38  O5  UNL     1      22.182  16.506  14.713  1.00  0.00    -0.356 OA
HETATM   39  C14 UNL     1      21.631  17.624  15.386  1.00  0.00     0.210 C 
ENDBRANCH  34  38
ENDBRANCH  28  30
ENDBRANCH  27  28
ENDBRANCH  26  27
ENDBRANCH   2  26
TORSDOF 12
ENDMDL
