MODEL 1
REMARK VINA RESULT: -8.574065783      0.000      0.000
REMARK  13 active torsions:
REMARK  status: ('A' for Active; 'I' for Inactive)
REMARK    1  A    between atoms: C2_2  and  C3_3 
REMARK    2  A    between atoms: C3_3  and  C4_4 
REMARK    3  A    between atoms: C4_4  and  N1_5 
REMARK    4  A    between atoms: N1_5  and  C5_7 
REMARK    5  A    between atoms: C8_12  and  C9_13 
REMARK    6  A    between atoms: C9_13  and  C10_14 
REMARK    7  A    between atoms: C10_14  and  N3_15 
REMARK    8  A    between atoms: C12_19  and  C13_20 
REMARK    9  A    between atoms: C13_20  and  N4_21 
REMARK   10  A    between atoms: C21_32  and  N6_33 
REMARK   11  A    between atoms: N6_33  and  C22_35 
REMARK   12  A    between atoms: C22_35  and  C23_36 
REMARK   13  A    between atoms: C23_36  and  N7_37 
ROOT
HETATM    1  C5  UNL     1      20.012  10.562  16.607  1.00  0.00     0.146 A 
HETATM    2  N2  UNL     1      18.813  10.127  17.007  1.00  0.00    -0.338 N 
ATOM      3  H2  UNL     1      17.989  10.360  16.452  1.00  0.00     0.167 HD
HETATM    4  C6  UNL     1      18.663   9.384  18.131  1.00  0.00     0.061 A 
HETATM    5  C7  UNL     1      17.428   8.932  18.510  1.00  0.00     0.040 A 
HETATM    6  C8  UNL     1      17.241   8.163  19.622  1.00  0.00    -0.043 A 
HETATM    7  C12 UNL     1      18.323   7.786  20.454  1.00  0.00    -0.011 A 
HETATM    8  C18 UNL     1      19.564   8.242  20.086  1.00  0.00    -0.021 A 
HETATM    9  C19 UNL     1      20.803   8.116  20.853  1.00  0.00     0.052 C 
HETATM   10  C20 UNL     1      19.725   9.033  18.926  1.00  0.00     0.067 A 
HETATM   11  N5  UNL     1      20.931   9.473  18.518  1.00  0.00    -0.337 N 
ATOM     12  H5  UNL     1      21.754   9.239  19.074  1.00  0.00     0.167 HD
HETATM   13  C21 UNL     1      21.094  10.222  17.386  1.00  0.00     0.146 A 
ENDROOT
BRANCH  13  14
HETATM   14  N6  UNL     1      22.252  10.634  17.008  1.00  0.00    -0.371 N 
ATOM     15  H6  UNL     1      22.483  10.528  16.021  1.00  0.00     0.161 HD
BRANCH  14  16
HETATM   16  C22 UNL     1      23.252  11.233  17.857  1.00  0.00     0.151 C 
BRANCH  16  17
HETATM   17  C23 UNL     1      23.321  12.712  17.533  1.00  0.00     0.292 C 
BRANCH  17  18
HETATM   18  N7  UNL     1      24.517  13.035  16.778  1.00  0.00     0.094 N 
HETATM   19  C24 UNL     1      24.410  14.419  16.345  1.00  0.00     0.298 C 
HETATM   20  C25 UNL     1      25.627  14.829  15.533  1.00  0.00     0.198 C 
HETATM   21  O1  UNL     1      26.622  13.853  15.569  1.00  0.00    -0.388 OA
HETATM   22  C26 UNL     1      26.915  13.511  16.877  1.00  0.00     0.198 C 
HETATM   23  C27 UNL     1      25.705  12.962  17.613  1.00  0.00     0.298 C 
ENDBRANCH  17  18
ENDBRANCH  16  17
ENDBRANCH  14  16
ENDBRANCH  13  14
BRANCH   1  24
HETATM   24  N1  UNL     1      20.144  11.276  15.530  1.00  0.00    -0.373 N 
ATOM     25  H1  UNL     1      20.777  10.988  14.785  1.00  0.00     0.161 HD
BRANCH  24  26
HETATM   26  C4  UNL     1      19.373  12.485  15.415  1.00  0.00     0.121 C 
BRANCH  26  27
HETATM   27  C3  UNL     1      20.207  13.720  15.694  1.00  0.00     0.019 C 
BRANCH  27  28
HETATM   28  C2  UNL     1      19.849  14.200  17.086  1.00  0.00    -0.003 C 
HETATM   29  C1  UNL     1      18.406  13.836  17.405  1.00  0.00     0.005 C 
ENDBRANCH  27  28
ENDBRANCH  26  27
ENDBRANCH  24  26
ENDBRANCH   1  24
BRANCH   7  30
HETATM   30  C13 UNL     1      18.025   6.940  21.578  1.00  0.00     0.072 C 
BRANCH  30  31
HETATM   31  N4  UNL     1      17.848   5.519  21.396  1.00  0.00    -0.290 NA
HETATM   32  C14 UNL     1      19.167   4.870  21.410  1.00  0.00     0.105 C 
HETATM   33  C15 UNL     1      19.070   3.368  21.290  1.00  0.00     0.088 C 
HETATM   34  S1  UNL     1      18.656   2.868  23.026  1.00  0.00    -0.167 SA
HETATM   35  C16 UNL     1      17.925   4.445  23.654  1.00  0.00     0.088 C 
HETATM   36  C17 UNL     1      17.103   4.968  22.540  1.00  0.00     0.105 C 
ENDBRANCH  30  31
ENDBRANCH   7  30
BRANCH   6  37
HETATM   37  C9  UNL     1      15.856   7.794  19.957  1.00  0.00     0.067 C 
BRANCH  37  38
HETATM   38  C10 UNL     1      15.099   7.228  18.802  1.00  0.00     0.236 C 
BRANCH  38  39
HETATM   39  N3  UNL     1      14.157   6.239  19.316  1.00  0.00    -0.079 N 
HETATM   40  C11 UNL     1      14.099   6.273  20.765  1.00  0.00     0.267 C 
ATOM     41  H32 UNL     1      13.232   6.350  18.901  1.00  0.00     0.276 HD
ATOM     42  H31 UNL     1      14.370   5.303  18.971  1.00  0.00     0.276 HD
ENDBRANCH  38  39
ENDBRANCH  37  38
ENDBRANCH   6  37
TORSDOF 13
ENDMDL
MODEL 2
REMARK VINA RESULT: -8.450448255      4.266     10.319
REMARK  13 active torsions:
REMARK  status: ('A' for Active; 'I' for Inactive)
REMARK    1  A    between atoms: C2_2  and  C3_3 
REMARK    2  A    between atoms: C3_3  and  C4_4 
REMARK    3  A    between atoms: C4_4  and  N1_5 
REMARK    4  A    between atoms: N1_5  and  C5_7 
REMARK    5  A    between atoms: C8_12  and  C9_13 
REMARK    6  A    between atoms: C9_13  and  C10_14 
REMARK    7  A    between atoms: C10_14  and  N3_15 
REMARK    8  A    between atoms: C12_19  and  C13_20 
REMARK    9  A    between atoms: C13_20  and  N4_21 
REMARK   10  A    between atoms: C21_32  and  N6_33 
REMARK   11  A    between atoms: N6_33  and  C22_35 
REMARK   12  A    between atoms: C22_35  and  C23_36 
REMARK   13  A    between atoms: C23_36  and  N7_37 
ROOT
HETATM    1  C5  UNL     1      21.174   8.739  18.172  1.00  0.00     0.146 A 
HETATM    2  N2  UNL     1      22.174   9.616  18.031  1.00  0.00    -0.338 N 
ATOM      3  H2  UNL     1      23.098   9.378  18.392  1.00  0.00     0.167 HD
HETATM    4  C6  UNL     1      21.992  10.813  17.420  1.00  0.00     0.061 A 
HETATM    5  C7  UNL     1      23.035  11.686  17.269  1.00  0.00     0.040 A 
HETATM    6  C8  UNL     1      22.895  12.890  16.640  1.00  0.00    -0.043 A 
HETATM    7  C12 UNL     1      21.653  13.307  16.105  1.00  0.00    -0.011 A 
HETATM    8  C18 UNL     1      20.599  12.442  16.260  1.00  0.00    -0.021 A 
HETATM    9  C19 UNL     1      19.198  12.703  15.932  1.00  0.00     0.052 C 
HETATM   10  C20 UNL     1      20.777  11.200  16.912  1.00  0.00     0.067 A 
HETATM   11  N5  UNL     1      19.774  10.313  17.056  1.00  0.00    -0.337 N 
ATOM     12  H5  UNL     1      18.851  10.553  16.695  1.00  0.00     0.167 HD
HETATM   13  C21 UNL     1      19.946   9.104  17.669  1.00  0.00     0.146 A 
ENDROOT
BRANCH  13  14
HETATM   14  N6  UNL     1      18.979   8.266  17.798  1.00  0.00    -0.371 N 
ATOM     15  H6  UNL     1      19.106   7.342  17.385  1.00  0.00     0.161 HD
BRANCH  14  16
HETATM   16  C22 UNL     1      17.731   8.517  18.475  1.00  0.00     0.151 C 
BRANCH  16  17
HETATM   17  C23 UNL     1      17.727   7.725  19.766  1.00  0.00     0.292 C 
BRANCH  17  18
HETATM   18  N7  UNL     1      16.779   6.627  19.714  1.00  0.00     0.094 N 
HETATM   19  C24 UNL     1      16.806   5.954  21.001  1.00  0.00     0.298 C 
HETATM   20  C25 UNL     1      15.842   4.779  21.019  1.00  0.00     0.198 C 
HETATM   21  O1  UNL     1      15.038   4.756  19.880  1.00  0.00    -0.388 OA
HETATM   22  C26 UNL     1      14.419   5.981  19.702  1.00  0.00     0.198 C 
HETATM   23  C27 UNL     1      15.420   7.112  19.536  1.00  0.00     0.298 C 
ENDBRANCH  17  18
ENDBRANCH  16  17
ENDBRANCH  14  16
ENDBRANCH  13  14
BRANCH   1  24
HETATM   24  N1  UNL     1      21.360   7.597  18.761  1.00  0.00    -0.373 N 
ATOM     25  H1  UNL     1      21.392   6.731  18.224  1.00  0.00     0.161 HD
BRANCH  24  26
HETATM   26  C4  UNL     1      21.518   7.585  20.191  1.00  0.00     0.121 C 
BRANCH  26  27
HETATM   27  C3  UNL     1      22.767   6.840  20.619  1.00  0.00     0.019 C 
BRANCH  27  28
HETATM   28  C2  UNL     1      23.612   7.805  21.426  1.00  0.00    -0.003 C 
HETATM   29  C1  UNL     1      22.769   8.995  21.860  1.00  0.00     0.005 C 
ENDBRANCH  27  28
ENDBRANCH  26  27
ENDBRANCH  24  26
ENDBRANCH   1  24
BRANCH   7  30
HETATM   30  C13 UNL     1      21.621  14.574  15.426  1.00  0.00     0.072 C 
BRANCH  30  31
HETATM   31  N4  UNL     1      21.553  15.805  16.178  1.00  0.00    -0.290 NA
HETATM   32  C14 UNL     1      21.657  16.937  15.248  1.00  0.00     0.105 C 
HETATM   33  C15 UNL     1      21.529  18.269  15.947  1.00  0.00     0.088 C 
HETATM   34  S1  UNL     1      19.694  18.426  16.145  1.00  0.00    -0.167 SA
HETATM   35  C16 UNL     1      19.201  16.648  16.051  1.00  0.00     0.088 C 
HETATM   36  C17 UNL     1      20.232  15.914  16.819  1.00  0.00     0.105 C 
ENDBRANCH  30  31
ENDBRANCH   7  30
BRANCH   6  37
HETATM   37  C9  UNL     1      24.077  13.765  16.597  1.00  0.00     0.067 C 
BRANCH  37  38
HETATM   38  C10 UNL     1      24.780  13.877  17.909  1.00  0.00     0.236 C 
BRANCH  38  39
HETATM   39  N3  UNL     1      26.154  13.419  17.731  1.00  0.00    -0.079 N 
HETATM   40  C11 UNL     1      26.575  13.550  16.349  1.00  0.00     0.267 C 
ATOM     41  H32 UNL     1      26.794  13.898  18.365  1.00  0.00     0.276 HD
ATOM     42  H31 UNL     1      26.280  12.467  18.073  1.00  0.00     0.276 HD
ENDBRANCH  38  39
ENDBRANCH  37  38
ENDBRANCH   6  37
TORSDOF 13
ENDMDL
MODEL 3
REMARK VINA RESULT: -8.218305698      4.464     10.578
REMARK  13 active torsions:
REMARK  status: ('A' for Active; 'I' for Inactive)
REMARK    1  A    between atoms: C2_2  and  C3_3 
REMARK    2  A    between atoms: C3_3  and  C4_4 
REMARK    3  A    between atoms: C4_4  and  N1_5 
REMARK    4  A    between atoms: N1_5  and  C5_7 
REMARK    5  A    between atoms: C8_12  and  C9_13 
REMARK    6  A    between atoms: C9_13  and  C10_14 
REMARK    7  A    between atoms: C10_14  and  N3_15 
REMARK    8  A    between atoms: C12_19  and  C13_20 
REMARK    9  A    between atoms: C13_20  and  N4_21 
REMARK   10  A    between atoms: C21_32  and  N6_33 
REMARK   11  A    between atoms: N6_33  and  C22_35 
REMARK   12  A    between atoms: C22_35  and  C23_36 
REMARK   13  A    between atoms: C23_36  and  N7_37 
ROOT
HETATM    1  C5  UNL     1      21.943   9.575  18.563  1.00  0.00     0.146 A 
HETATM    2  N2  UNL     1      22.726  10.446  17.918  1.00  0.00    -0.338 N 
ATOM      3  H2  UNL     1      23.720  10.242  17.820  1.00  0.00     0.167 HD
HETATM    4  C6  UNL     1      22.232  11.593  17.392  1.00  0.00     0.061 A 
HETATM    5  C7  UNL     1      23.049  12.461  16.717  1.00  0.00     0.040 A 
HETATM    6  C8  UNL     1      22.583  13.614  16.155  1.00  0.00    -0.043 A 
HETATM    7  C12 UNL     1      21.219  13.982  16.237  1.00  0.00    -0.011 A 
HETATM    8  C18 UNL     1      20.395  13.123  16.919  1.00  0.00    -0.021 A 
HETATM    9  C19 UNL     1      18.993  13.350  17.268  1.00  0.00     0.052 C 
HETATM   10  C20 UNL     1      20.906  11.933  17.487  1.00  0.00     0.067 A 
HETATM   11  N5  UNL     1      20.122  11.052  18.137  1.00  0.00    -0.337 N 
ATOM     12  H5  UNL     1      19.127  11.258  18.235  1.00  0.00     0.167 HD
HETATM   13  C21 UNL     1      20.608   9.892  18.671  1.00  0.00     0.146 A 
ENDROOT
BRANCH  13  14
HETATM   14  N6  UNL     1      19.847   9.059  19.288  1.00  0.00    -0.371 N 
ATOM     15  H6  UNL     1      20.106   8.813  20.243  1.00  0.00     0.161 HD
BRANCH  14  16
HETATM   16  C22 UNL     1      18.660   8.442  18.748  1.00  0.00     0.151 C 
BRANCH  16  17
HETATM   17  C23 UNL     1      17.668   8.260  19.878  1.00  0.00     0.292 C 
BRANCH  17  18
HETATM   18  N7  UNL     1      16.838   7.088  19.673  1.00  0.00     0.094 N 
HETATM   19  C24 UNL     1      16.811   6.337  20.917  1.00  0.00     0.298 C 
HETATM   20  C25 UNL     1      15.966   5.082  20.775  1.00  0.00     0.198 C 
HETATM   21  O1  UNL     1      15.275   5.061  19.565  1.00  0.00    -0.388 OA
HETATM   22  C26 UNL     1      14.561   6.235  19.397  1.00  0.00     0.198 C 
HETATM   23  C27 UNL     1      15.460   7.459  19.393  1.00  0.00     0.298 C 
ENDBRANCH  17  18
ENDBRANCH  16  17
ENDBRANCH  14  16
ENDBRANCH  13  14
BRANCH   1  24
HETATM   24  N1  UNL     1      22.427   8.479  19.067  1.00  0.00    -0.373 N 
ATOM     25  H1  UNL     1      22.283   7.582  18.604  1.00  0.00     0.161 HD
BRANCH  24  26
HETATM   26  C4  UNL     1      23.173   8.565  20.293  1.00  0.00     0.121 C 
BRANCH  26  27
HETATM   27  C3  UNL     1      22.856   7.419  21.233  1.00  0.00     0.019 C 
BRANCH  27  28
HETATM   28  C2  UNL     1      22.092   6.381  20.436  1.00  0.00    -0.003 C 
HETATM   29  C1  UNL     1      20.737   6.125  21.080  1.00  0.00     0.005 C 
ENDBRANCH  27  28
ENDBRANCH  26  27
ENDBRANCH  24  26
ENDBRANCH   1  24
BRANCH   7  30
HETATM   30  C13 UNL     1      20.824  15.196  15.575  1.00  0.00     0.072 C 
BRANCH  30  31
HETATM   31  N4  UNL     1      20.757  16.439  16.307  1.00  0.00    -0.290 NA
HETATM   32  C14 UNL     1      21.395  17.495  15.509  1.00  0.00     0.105 C 
HETATM   33  C15 UNL     1      21.312  18.848  16.174  1.00  0.00     0.088 C 
HETATM   34  S1  UNL     1      19.589  19.381  15.751  1.00  0.00    -0.167 SA
HETATM   35  C16 UNL     1      18.808  17.738  15.430  1.00  0.00     0.088 C 
HETATM   36  C17 UNL     1      19.349  16.835  16.471  1.00  0.00     0.105 C 
ENDBRANCH  30  31
ENDBRANCH   7  30
BRANCH   6  37
HETATM   37  C9  UNL     1      23.573  14.492  15.511  1.00  0.00     0.067 C 
BRANCH  37  38
HETATM   38  C10 UNL     1      24.979  14.196  15.913  1.00  0.00     0.236 C 
BRANCH  38  39
HETATM   39  N3  UNL     1      25.841  15.235  15.359  1.00  0.00    -0.079 N 
HETATM   40  C11 UNL     1      25.390  16.555  15.754  1.00  0.00     0.267 C 
ATOM     41  H32 UNL     1      26.819  15.083  15.606  1.00  0.00     0.276 HD
ATOM     42  H31 UNL     1      25.922  15.154  14.345  1.00  0.00     0.276 HD
ENDBRANCH  38  39
ENDBRANCH  37  38
ENDBRANCH   6  37
TORSDOF 13
ENDMDL
MODEL 4
REMARK VINA RESULT: -8.139171613      3.257      5.901
REMARK  13 active torsions:
REMARK  status: ('A' for Active; 'I' for Inactive)
REMARK    1  A    between atoms: C2_2  and  C3_3 
REMARK    2  A    between atoms: C3_3  and  C4_4 
REMARK    3  A    between atoms: C4_4  and  N1_5 
REMARK    4  A    between atoms: N1_5  and  C5_7 
REMARK    5  A    between atoms: C8_12  and  C9_13 
REMARK    6  A    between atoms: C9_13  and  C10_14 
REMARK    7  A    between atoms: C10_14  and  N3_15 
REMARK    8  A    between atoms: C12_19  and  C13_20 
REMARK    9  A    between atoms: C13_20  and  N4_21 
REMARK   10  A    between atoms: C21_32  and  N6_33 
REMARK   11  A    between atoms: N6_33  and  C22_35 
REMARK   12  A    between atoms: C22_35  and  C23_36 
REMARK   13  A    between atoms: C23_36  and  N7_37 
ROOT
HETATM    1  C5  UNL     1      22.350  13.743  16.907  1.00  0.00     0.146 A 
HETATM    2  N2  UNL     1      22.841  12.649  17.500  1.00  0.00    -0.338 N 
ATOM      3  H2  UNL     1      23.839  12.452  17.430  1.00  0.00     0.167 HD
HETATM    4  C6  UNL     1      22.046  11.795  18.190  1.00  0.00     0.061 A 
HETATM    5  C7  UNL     1      22.574  10.693  18.807  1.00  0.00     0.040 A 
HETATM    6  C8  UNL     1      21.810   9.823  19.528  1.00  0.00    -0.043 A 
HETATM    7  C12 UNL     1      20.415  10.013  19.683  1.00  0.00    -0.011 A 
HETATM    8  C18 UNL     1      19.875  11.110  19.061  1.00  0.00    -0.021 A 
HETATM    9  C19 UNL     1      18.455  11.439  18.947  1.00  0.00     0.052 C 
HETATM   10  C20 UNL     1      20.695  11.996  18.324  1.00  0.00     0.067 A 
HETATM   11  N5  UNL     1      20.206  13.099  17.725  1.00  0.00    -0.337 N 
ATOM     12  H5  UNL     1      19.207  13.293  17.795  1.00  0.00     0.167 HD
HETATM   13  C21 UNL     1      20.998  13.967  17.028  1.00  0.00     0.146 A 
ENDROOT
BRANCH  13  14
HETATM   14  N6  UNL     1      20.517  15.017  16.463  1.00  0.00    -0.371 N 
ATOM     15  H6  UNL     1      20.945  15.310  15.585  1.00  0.00     0.161 HD
BRANCH  14  16
HETATM   16  C22 UNL     1      19.426  15.818  16.962  1.00  0.00     0.151 C 
BRANCH  16  17
HETATM   17  C23 UNL     1      19.877  17.264  16.992  1.00  0.00     0.292 C 
BRANCH  17  18
HETATM   18  N7  UNL     1      19.998  17.811  15.654  1.00  0.00     0.094 N 
HETATM   19  C24 UNL     1      18.658  18.091  15.165  1.00  0.00     0.298 C 
HETATM   20  C25 UNL     1      18.702  18.658  13.755  1.00  0.00     0.198 C 
HETATM   21  O1  UNL     1      20.007  18.951  13.360  1.00  0.00    -0.388 OA
HETATM   22  C26 UNL     1      20.628  19.751  14.302  1.00  0.00     0.198 C 
HETATM   23  C27 UNL     1      20.699  19.085  15.666  1.00  0.00     0.298 C 
ENDBRANCH  17  18
ENDBRANCH  16  17
ENDBRANCH  14  16
ENDBRANCH  13  14
BRANCH   1  24
HETATM   24  N1  UNL     1      23.120  14.552  16.245  1.00  0.00    -0.373 N 
ATOM     25  H1  UNL     1      22.887  15.541  16.157  1.00  0.00     0.161 HD
BRANCH  24  26
HETATM   26  C4  UNL     1      24.311  14.018  15.640  1.00  0.00     0.121 C 
BRANCH  26  27
HETATM   27  C3  UNL     1      25.545  14.816  16.014  1.00  0.00     0.019 C 
BRANCH  27  28
HETATM   28  C2  UNL     1      26.619  13.823  16.413  1.00  0.00    -0.003 C 
HETATM   29  C1  UNL     1      26.309  13.249  17.788  1.00  0.00     0.005 C 
ENDBRANCH  27  28
ENDBRANCH  26  27
ENDBRANCH  24  26
ENDBRANCH   1  24
BRANCH   7  30
HETATM   30  C13 UNL     1      19.708   9.062  20.497  1.00  0.00     0.072 C 
BRANCH  30  31
HETATM   31  N4  UNL     1      19.264   7.807  19.937  1.00  0.00    -0.290 NA
HETATM   32  C14 UNL     1      18.958   6.879  21.035  1.00  0.00     0.105 C 
HETATM   33  C15 UNL     1      18.423   5.558  20.538  1.00  0.00     0.088 C 
HETATM   34  S1  UNL     1      16.645   5.962  20.204  1.00  0.00    -0.167 SA
HETATM   35  C16 UNL     1      16.763   7.793  19.983  1.00  0.00     0.088 C 
HETATM   36  C17 UNL     1      18.003   8.016  19.207  1.00  0.00     0.105 C 
ENDBRANCH  30  31
ENDBRANCH   7  30
BRANCH   6  37
HETATM   37  C9  UNL     1      22.486   8.642  20.089  1.00  0.00     0.067 C 
BRANCH  37  38
HETATM   38  C10 UNL     1      23.756   8.969  20.801  1.00  0.00     0.236 C 
BRANCH  38  39
HETATM   39  N3  UNL     1      23.873   8.084  21.955  1.00  0.00    -0.079 N 
HETATM   40  C11 UNL     1      22.574   7.589  22.369  1.00  0.00     0.267 C 
ATOM     41  H32 UNL     1      24.526   7.321  21.778  1.00  0.00     0.276 HD
ATOM     42  H31 UNL     1      24.366   8.535  22.726  1.00  0.00     0.276 HD
ENDBRANCH  38  39
ENDBRANCH  37  38
ENDBRANCH   6  37
TORSDOF 13
ENDMDL
MODEL 5
REMARK VINA RESULT: -8.120466121      0.872      1.285
REMARK  13 active torsions:
REMARK  status: ('A' for Active; 'I' for Inactive)
REMARK    1  A    between atoms: C2_2  and  C3_3 
REMARK    2  A    between atoms: C3_3  and  C4_4 
REMARK    3  A    between atoms: C4_4  and  N1_5 
REMARK    4  A    between atoms: N1_5  and  C5_7 
REMARK    5  A    between atoms: C8_12  and  C9_13 
REMARK    6  A    between atoms: C9_13  and  C10_14 
REMARK    7  A    between atoms: C10_14  and  N3_15 
REMARK    8  A    between atoms: C12_19  and  C13_20 
REMARK    9  A    between atoms: C13_20  and  N4_21 
REMARK   10  A    between atoms: C21_32  and  N6_33 
REMARK   11  A    between atoms: N6_33  and  C22_35 
REMARK   12  A    between atoms: C22_35  and  C23_36 
REMARK   13  A    between atoms: C23_36  and  N7_37 
ROOT
HETATM    1  C5  UNL     1      20.162  10.823  16.936  1.00  0.00     0.146 A 
HETATM    2  N2  UNL     1      18.951  10.401  17.315  1.00  0.00    -0.338 N 
ATOM      3  H2  UNL     1      18.124  10.883  16.961  1.00  0.00     0.167 HD
HETATM    4  C6  UNL     1      18.793   9.351  18.157  1.00  0.00     0.061 A 
HETATM    5  C7  UNL     1      17.543   8.924  18.515  1.00  0.00     0.040 A 
HETATM    6  C8  UNL     1      17.344   7.857  19.343  1.00  0.00    -0.043 A 
HETATM    7  C12 UNL     1      18.430   7.125  19.883  1.00  0.00    -0.011 A 
HETATM    8  C18 UNL     1      19.687   7.551  19.536  1.00  0.00    -0.021 A 
HETATM    9  C19 UNL     1      20.955   7.061  20.075  1.00  0.00     0.052 C 
HETATM   10  C20 UNL     1      19.859   8.657  18.673  1.00  0.00     0.067 A 
HETATM   11  N5  UNL     1      21.077   9.086  18.287  1.00  0.00    -0.337 N 
ATOM     12  H5  UNL     1      21.903   8.603  18.642  1.00  0.00     0.167 HD
HETATM   13  C21 UNL     1      21.248  10.142  17.438  1.00  0.00     0.146 A 
ENDROOT
BRANCH  13  14
HETATM   14  N6  UNL     1      22.416  10.539  17.077  1.00  0.00    -0.371 N 
ATOM     15  H6  UNL     1      22.682  10.379  16.106  1.00  0.00     0.161 HD
BRANCH  14  16
HETATM   16  C22 UNL     1      23.384  11.191  17.925  1.00  0.00     0.151 C 
BRANCH  16  17
HETATM   17  C23 UNL     1      23.399  12.665  17.578  1.00  0.00     0.292 C 
BRANCH  17  18
HETATM   18  N7  UNL     1      24.568  13.015  16.793  1.00  0.00     0.094 N 
HETATM   19  C24 UNL     1      24.436  14.406  16.393  1.00  0.00     0.298 C 
HETATM   20  C25 UNL     1      25.624  14.844  15.552  1.00  0.00     0.198 C 
HETATM   21  O1  UNL     1      26.627  13.877  15.537  1.00  0.00    -0.388 OA
HETATM   22  C26 UNL     1      26.964  13.511  16.828  1.00  0.00     0.198 C 
HETATM   23  C27 UNL     1      25.782  12.935  17.589  1.00  0.00     0.298 C 
ENDBRANCH  17  18
ENDBRANCH  16  17
ENDBRANCH  14  16
ENDBRANCH  13  14
BRANCH   1  24
HETATM   24  N1  UNL     1      20.301  11.833  16.130  1.00  0.00    -0.373 N 
ATOM     25  H1  UNL     1      21.094  11.887  15.491  1.00  0.00     0.161 HD
BRANCH  24  26
HETATM   26  C4  UNL     1      19.308  12.873  16.164  1.00  0.00     0.121 C 
BRANCH  26  27
HETATM   27  C3  UNL     1      19.556  13.859  17.288  1.00  0.00     0.019 C 
BRANCH  27  28
HETATM   28  C2  UNL     1      20.486  14.929  16.752  1.00  0.00    -0.003 C 
HETATM   29  C1  UNL     1      19.852  16.302  16.928  1.00  0.00     0.005 C 
ENDBRANCH  27  28
ENDBRANCH  26  27
ENDBRANCH  24  26
ENDBRANCH   1  24
BRANCH   7  30
HETATM   30  C13 UNL     1      18.112   5.992  20.710  1.00  0.00     0.072 C 
BRANCH  30  31
HETATM   31  N4  UNL     1      17.972   6.148  22.139  1.00  0.00    -0.290 NA
HETATM   32  C14 UNL     1      16.693   5.558  22.558  1.00  0.00     0.105 C 
HETATM   33  C15 UNL     1      16.495   5.620  24.053  1.00  0.00     0.088 C 
HETATM   34  S1  UNL     1      17.504   4.179  24.636  1.00  0.00    -0.167 SA
HETATM   35  C16 UNL     1      18.667   3.997  23.212  1.00  0.00     0.088 C 
HETATM   36  C17 UNL     1      19.027   5.378  22.819  1.00  0.00     0.105 C 
ENDBRANCH  30  31
ENDBRANCH   7  30
BRANCH   6  37
HETATM   37  C9  UNL     1      15.954   7.537  19.702  1.00  0.00     0.067 C 
BRANCH  37  38
HETATM   38  C10 UNL     1      15.065   7.349  18.519  1.00  0.00     0.236 C 
BRANCH  38  39
HETATM   39  N3  UNL     1      13.989   6.437  18.896  1.00  0.00    -0.079 N 
HETATM   40  C11 UNL     1      13.920   6.278  20.337  1.00  0.00     0.267 C 
ATOM     41  H32 UNL     1      13.094   6.731  18.507  1.00  0.00     0.276 HD
ATOM     42  H31 UNL     1      14.076   5.538  18.423  1.00  0.00     0.276 HD
ENDBRANCH  38  39
ENDBRANCH  37  38
ENDBRANCH   6  37
TORSDOF 13
ENDMDL
