MODEL 1
REMARK VINA RESULT: -8.545221482      0.000      0.000
REMARK  12 active torsions:
REMARK  status: ('A' for Active; 'I' for Inactive)
REMARK    1  A    between atoms: C3_3  and  C4_4 
REMARK    2  A    between atoms: C4_4  and  C5_5 
REMARK    3  A    between atoms: C5_5  and  C6_6 
REMARK    4  A    between atoms: C6_6  and  C7_7 
REMARK    5  A    between atoms: C7_7  and  C8_8 
REMARK    6  A    between atoms: C7_7  and  N1_17 
REMARK    7  A    between atoms: C8_8  and  C9_9 
REMARK    8  A    between atoms: C9_9  and  O1_10 
REMARK    9  A    between atoms: O1_10  and  C10_11 
REMARK   10  A    between atoms: C10_11  and  C11_12 
REMARK   11  A    between atoms: N1_17  and  C14_19 
REMARK   12  A    between atoms: N5_33  and  O4_35 
ROOT
HETATM    1  C1  UNL     1      26.814  13.263  16.719  1.00  0.00     0.012 C 
HETATM    2  C2  UNL     1      25.711  13.661  16.493  1.00  0.00    -0.117 C 
HETATM    3  C3  UNL     1      24.349  14.115  16.231  1.00  0.00     0.093 C 
ENDROOT
BRANCH   3   4
HETATM    4  C4  UNL     1      23.391  12.992  16.532  1.00  0.00     0.012 C 
BRANCH   4   5
HETATM    5  C5  UNL     1      23.749  12.280  17.804  1.00  0.00     0.003 C 
BRANCH   5   6
HETATM    6  C6  UNL     1      23.331  10.848  17.716  1.00  0.00     0.025 C 
BRANCH   6   7
HETATM    7  C7  UNL     1      21.809  10.699  17.895  1.00  0.00     0.085 C 
BRANCH   7   8
HETATM    8  C8  UNL     1      21.536  11.303  19.311  1.00  0.00     0.051 C 
BRANCH   8   9
HETATM    9  C9  UNL     1      20.420  12.252  19.146  1.00  0.00     0.171 C 
BRANCH   9  10
HETATM   10  O1  UNL     1      19.510  12.180  18.191  1.00  0.00    -0.369 OA
BRANCH  10  11
HETATM   11  C10 UNL     1      19.340  13.052  17.179  1.00  0.00     0.148 A 
HETATM   12  C12 UNL     1      18.206  14.073  17.282  1.00  0.00     0.053 A 
HETATM   13  C13 UNL     1      19.636  14.518  17.396  1.00  0.00     0.053 A 
BRANCH  11  14
HETATM   14  C11 UNL     1      19.516  12.587  15.783  1.00  0.00     0.209 C 
HETATM   15  O2  UNL     1      19.276  11.347  15.525  1.00  0.00    -0.646 OA
HETATM   16  O3  UNL     1      19.921  13.356  14.731  1.00  0.00    -0.646 OA
ENDBRANCH  11  14
ENDBRANCH  10  11
ENDBRANCH   9  10
ENDBRANCH   8   9
ENDBRANCH   7   8
BRANCH   7  17
HETATM   17  N1  UNL     1      21.378   9.352  17.933  1.00  0.00    -0.370 N 
ATOM     18  H1  UNL     1      22.072   8.655  17.660  1.00  0.00     0.161 HD
BRANCH  17  19
HETATM   19  C14 UNL     1      20.226   8.894  18.268  1.00  0.00     0.123 A 
HETATM   20  N2  UNL     1      19.065   9.222  17.693  1.00  0.00    -0.351 N 
HETATM   21  C15 UNL     1      17.921   8.680  18.129  1.00  0.00     0.100 A 
ATOM     22  H2  UNL     1      19.050   9.888  16.921  1.00  0.00     0.166 HD
HETATM   23  C16 UNL     1      17.843   7.763  19.176  1.00  0.00    -0.006 A 
HETATM   24  C17 UNL     1      19.011   7.415  19.774  1.00  0.00     0.013 A 
HETATM   25  C27 UNL     1      16.487   7.278  19.519  1.00  0.00     0.209 C 
HETATM   26  C18 UNL     1      20.183   7.985  19.312  1.00  0.00     0.100 A 
HETATM   27  C20 UNL     1      19.114   6.429  20.920  1.00  0.00     0.101 C 
HETATM   28  C19 UNL     1      21.428   7.605  19.965  1.00  0.00     0.104 C 
HETATM   29  N3  UNL     1      22.425   7.322  20.487  1.00  0.00    -0.191 NA
HETATM   30  N4  UNL     1      19.246   5.100  20.478  1.00  0.00    -0.372 N 
HETATM   31  C21 UNL     1      18.454   4.067  20.986  1.00  0.00     0.119 C 
ATOM     32  H4  UNL     1      19.943   4.884  19.764  1.00  0.00     0.164 HD
HETATM   33  C22 UNL     1      17.665   4.324  22.205  1.00  0.00     0.069 C 
HETATM   34  N5  UNL     1      18.359   4.682  23.247  1.00  0.00    -0.266 N 
HETATM   35  C24 UNL     1      16.230   4.190  22.348  1.00  0.00     0.031 C 
ATOM     36  H5  UNL     1      19.368   4.745  23.114  1.00  0.00     0.194 HD
HETATM   37  C25 UNL     1      15.259   4.683  21.660  1.00  0.00     0.002 C 
HETATM   38  C26 UNL     1      15.245   5.566  20.479  1.00  0.00     0.195 C 
HETATM   39  O5  UNL     1      16.445   6.192  20.337  1.00  0.00    -0.383 OA
BRANCH  34  40
HETATM   40  O4  UNL     1      17.905   4.975  24.475  1.00  0.00    -0.285 OA
HETATM   41  C23 UNL     1      18.333   4.363  25.685  1.00  0.00     0.237 C 
ENDBRANCH  34  40
ENDBRANCH  17  19
ENDBRANCH   7  17
ENDBRANCH   6   7
ENDBRANCH   5   6
ENDBRANCH   4   5
ENDBRANCH   3   4
TORSDOF 12
ENDMDL
MODEL 2
REMARK VINA RESULT: -8.189349653      1.553      3.213
REMARK  12 active torsions:
REMARK  status: ('A' for Active; 'I' for Inactive)
REMARK    1  A    between atoms: C3_3  and  C4_4 
REMARK    2  A    between atoms: C4_4  and  C5_5 
REMARK    3  A    between atoms: C5_5  and  C6_6 
REMARK    4  A    between atoms: C6_6  and  C7_7 
REMARK    5  A    between atoms: C7_7  and  C8_8 
REMARK    6  A    between atoms: C7_7  and  N1_17 
REMARK    7  A    between atoms: C8_8  and  C9_9 
REMARK    8  A    between atoms: C9_9  and  O1_10 
REMARK    9  A    between atoms: O1_10  and  C10_11 
REMARK   10  A    between atoms: C10_11  and  C11_12 
REMARK   11  A    between atoms: N1_17  and  C14_19 
REMARK   12  A    between atoms: N5_33  and  O4_35 
ROOT
HETATM    1  C1  UNL     1      21.207   7.046  23.040  1.00  0.00     0.012 C 
HETATM    2  C2  UNL     1      22.043   7.783  22.611  1.00  0.00    -0.117 C 
HETATM    3  C3  UNL     1      23.039   8.706  22.074  1.00  0.00     0.093 C 
ENDROOT
BRANCH   3   4
HETATM    4  C4  UNL     1      22.338   9.763  21.260  1.00  0.00     0.012 C 
BRANCH   4   5
HETATM    5  C5  UNL     1      23.092  10.090  20.004  1.00  0.00     0.003 C 
BRANCH   5   6
HETATM    6  C6  UNL     1      22.182  10.766  19.030  1.00  0.00     0.025 C 
BRANCH   6   7
HETATM    7  C7  UNL     1      22.323  10.160  17.621  1.00  0.00     0.085 C 
BRANCH   7   8
HETATM    8  C8  UNL     1      22.279  11.401  16.672  1.00  0.00     0.051 C 
BRANCH   8   9
HETATM    9  C9  UNL     1      22.243  12.587  17.545  1.00  0.00     0.171 C 
BRANCH   9  10
HETATM   10  O1  UNL     1      21.845  13.788  17.163  1.00  0.00    -0.369 OA
BRANCH  10  11
HETATM   11  C10 UNL     1      20.633  14.112  16.673  1.00  0.00     0.148 A 
HETATM   12  C12 UNL     1      20.214  15.583  16.685  1.00  0.00     0.053 A 
HETATM   13  C13 UNL     1      20.530  14.897  15.386  1.00  0.00     0.053 A 
BRANCH  11  14
HETATM   14  C11 UNL     1      19.479  13.225  16.948  1.00  0.00     0.209 C 
HETATM   15  O2  UNL     1      19.001  12.534  15.969  1.00  0.00    -0.646 OA
HETATM   16  O3  UNL     1      18.859  13.071  18.154  1.00  0.00    -0.646 OA
ENDBRANCH  11  14
ENDBRANCH  10  11
ENDBRANCH   9  10
ENDBRANCH   8   9
ENDBRANCH   7   8
BRANCH   7  17
HETATM   17  N1  UNL     1      21.238   9.327  17.259  1.00  0.00    -0.370 N 
ATOM     18  H1  UNL     1      21.360   8.785  16.403  1.00  0.00     0.161 HD
BRANCH  17  19
HETATM   19  C14 UNL     1      20.120   9.165  17.870  1.00  0.00     0.123 A 
HETATM   20  N2  UNL     1      19.018   9.896  17.675  1.00  0.00    -0.351 N 
HETATM   21  C15 UNL     1      17.906   9.636  18.374  1.00  0.00     0.100 A 
ATOM     22  H2  UNL     1      19.025  10.654  16.993  1.00  0.00     0.166 HD
HETATM   23  C16 UNL     1      17.803   8.622  19.325  1.00  0.00    -0.006 A 
HETATM   24  C17 UNL     1      18.911   7.867  19.539  1.00  0.00     0.013 A 
HETATM   25  C27 UNL     1      16.492   8.491  19.999  1.00  0.00     0.209 C 
HETATM   26  C18 UNL     1      20.051   8.150  18.809  1.00  0.00     0.100 A 
HETATM   27  C20 UNL     1      18.976   6.722  20.528  1.00  0.00     0.101 C 
HETATM   28  C19 UNL     1      21.233   7.334  19.051  1.00  0.00     0.104 C 
HETATM   29  N3  UNL     1      22.186   6.701  19.245  1.00  0.00    -0.191 NA
HETATM   30  N4  UNL     1      18.570   5.499  19.965  1.00  0.00    -0.372 N 
HETATM   31  C21 UNL     1      17.642   4.664  20.594  1.00  0.00     0.119 C 
ATOM     32  H4  UNL     1      18.964   5.212  19.068  1.00  0.00     0.164 HD
HETATM   33  C22 UNL     1      17.300   4.934  22.003  1.00  0.00     0.069 C 
HETATM   34  N5  UNL     1      18.306   4.908  22.831  1.00  0.00    -0.266 N 
HETATM   35  C24 UNL     1      15.978   5.189  22.536  1.00  0.00     0.031 C 
ATOM     36  H5  UNL     1      19.218   4.705  22.422  1.00  0.00     0.194 HD
HETATM   37  C25 UNL     1      15.074   6.040  22.192  1.00  0.00     0.002 C 
HETATM   38  C26 UNL     1      15.049   7.069  21.135  1.00  0.00     0.195 C 
HETATM   39  O5  UNL     1      16.312   7.345  20.709  1.00  0.00    -0.383 OA
BRANCH  34  40
HETATM   40  O4  UNL     1      18.284   5.117  24.156  1.00  0.00    -0.285 OA
HETATM   41  C23 UNL     1      19.138   4.493  25.107  1.00  0.00     0.237 C 
ENDBRANCH  34  40
ENDBRANCH  17  19
ENDBRANCH   7  17
ENDBRANCH   6   7
ENDBRANCH   5   6
ENDBRANCH   4   5
ENDBRANCH   3   4
TORSDOF 12
ENDMDL
MODEL 3
REMARK VINA RESULT: -8.172436445      1.668      3.503
REMARK  12 active torsions:
REMARK  status: ('A' for Active; 'I' for Inactive)
REMARK    1  A    between atoms: C3_3  and  C4_4 
REMARK    2  A    between atoms: C4_4  and  C5_5 
REMARK    3  A    between atoms: C5_5  and  C6_6 
REMARK    4  A    between atoms: C6_6  and  C7_7 
REMARK    5  A    between atoms: C7_7  and  C8_8 
REMARK    6  A    between atoms: C7_7  and  N1_17 
REMARK    7  A    between atoms: C8_8  and  C9_9 
REMARK    8  A    between atoms: C9_9  and  O1_10 
REMARK    9  A    between atoms: O1_10  and  C10_11 
REMARK   10  A    between atoms: C10_11  and  C11_12 
REMARK   11  A    between atoms: N1_17  and  C14_19 
REMARK   12  A    between atoms: N5_33  and  O4_35 
ROOT
HETATM    1  C1  UNL     1      20.478  15.797  16.558  1.00  0.00     0.012 C 
HETATM    2  C2  UNL     1      19.608  15.078  16.947  1.00  0.00    -0.117 C 
HETATM    3  C3  UNL     1      18.569  14.171  17.426  1.00  0.00     0.093 C 
ENDROOT
BRANCH   3   4
HETATM    4  C4  UNL     1      19.151  12.789  17.565  1.00  0.00     0.012 C 
BRANCH   4   5
HETATM    5  C5  UNL     1      19.513  12.199  16.232  1.00  0.00     0.003 C 
BRANCH   5   6
HETATM    6  C6  UNL     1      20.829  11.498  16.330  1.00  0.00     0.025 C 
BRANCH   6   7
HETATM    7  C7  UNL     1      21.033  10.890  17.731  1.00  0.00     0.085 C 
BRANCH   7   8
HETATM    8  C8  UNL     1      22.571  11.023  17.977  1.00  0.00     0.051 C 
BRANCH   8   9
HETATM    9  C9  UNL     1      23.065  11.997  16.987  1.00  0.00     0.171 C 
BRANCH   9  10
HETATM   10  O1  UNL     1      23.577  13.177  17.289  1.00  0.00    -0.369 OA
BRANCH  10  11
HETATM   11  C10 UNL     1      24.832  13.595  17.034  1.00  0.00     0.148 A 
HETATM   12  C12 UNL     1      25.751  13.900  18.217  1.00  0.00     0.053 A 
HETATM   13  C13 UNL     1      26.001  12.694  17.357  1.00  0.00     0.053 A 
BRANCH  11  14
HETATM   14  C11 UNL     1      25.069  14.536  15.914  1.00  0.00     0.209 C 
HETATM   15  O2  UNL     1      26.129  14.368  15.198  1.00  0.00    -0.646 OA
HETATM   16  O3  UNL     1      24.267  15.584  15.568  1.00  0.00    -0.646 OA
ENDBRANCH  11  14
ENDBRANCH  10  11
ENDBRANCH   9  10
ENDBRANCH   8   9
ENDBRANCH   7   8
BRANCH   7  17
HETATM   17  N1  UNL     1      20.726   9.510  17.792  1.00  0.00    -0.370 N 
ATOM     18  H1  UNL     1      21.452   8.877  17.458  1.00  0.00     0.161 HD
BRANCH  17  19
HETATM   19  C14 UNL     1      19.648   8.953  18.216  1.00  0.00     0.123 A 
HETATM   20  N2  UNL     1      18.420   9.183  17.742  1.00  0.00    -0.351 N 
HETATM   21  C15 UNL     1      17.367   8.542  18.265  1.00  0.00     0.100 A 
ATOM     22  H2  UNL     1      18.284   9.847  16.981  1.00  0.00     0.166 HD
HETATM   23  C16 UNL     1      17.455   7.618  19.304  1.00  0.00    -0.006 A 
HETATM   24  C17 UNL     1      18.694   7.370  19.800  1.00  0.00     0.013 A 
HETATM   25  C27 UNL     1      16.179   7.016  19.752  1.00  0.00     0.209 C 
HETATM   26  C18 UNL     1      19.770   8.041  19.249  1.00  0.00     0.100 A 
HETATM   27  C20 UNL     1      18.976   6.392  20.923  1.00  0.00     0.101 C 
HETATM   28  C19 UNL     1      21.094   7.767  19.794  1.00  0.00     0.104 C 
HETATM   29  N3  UNL     1      22.151   7.569  20.229  1.00  0.00    -0.191 NA
HETATM   30  N4  UNL     1      19.184   5.081  20.457  1.00  0.00    -0.372 N 
HETATM   31  C21 UNL     1      18.528   3.981  21.017  1.00  0.00     0.119 C 
ATOM     32  H4  UNL     1      19.835   4.928  19.686  1.00  0.00     0.164 HD
HETATM   33  C22 UNL     1      17.823   4.165  22.300  1.00  0.00     0.069 C 
HETATM   34  N5  UNL     1      18.569   4.577  23.286  1.00  0.00    -0.266 N 
HETATM   35  C24 UNL     1      16.422   3.907  22.559  1.00  0.00     0.031 C 
ATOM     36  H5  UNL     1      19.554   4.728  23.070  1.00  0.00     0.194 HD
HETATM   37  C25 UNL     1      15.359   4.317  21.959  1.00  0.00     0.002 C 
HETATM   38  C26 UNL     1      15.172   5.200  20.792  1.00  0.00     0.195 C 
HETATM   39  O5  UNL     1      16.298   5.928  20.559  1.00  0.00    -0.383 OA
BRANCH  34  40
HETATM   40  O4  UNL     1      18.195   4.826  24.550  1.00  0.00    -0.285 OA
HETATM   41  C23 UNL     1      18.607   4.092  25.696  1.00  0.00     0.237 C 
ENDBRANCH  34  40
ENDBRANCH  17  19
ENDBRANCH   7  17
ENDBRANCH   6   7
ENDBRANCH   5   6
ENDBRANCH   4   5
ENDBRANCH   3   4
TORSDOF 12
ENDMDL
MODEL 4
REMARK VINA RESULT: -8.171489531      1.452      1.911
REMARK  12 active torsions:
REMARK  status: ('A' for Active; 'I' for Inactive)
REMARK    1  A    between atoms: C3_3  and  C4_4 
REMARK    2  A    between atoms: C4_4  and  C5_5 
REMARK    3  A    between atoms: C5_5  and  C6_6 
REMARK    4  A    between atoms: C6_6  and  C7_7 
REMARK    5  A    between atoms: C7_7  and  C8_8 
REMARK    6  A    between atoms: C7_7  and  N1_17 
REMARK    7  A    between atoms: C8_8  and  C9_9 
REMARK    8  A    between atoms: C9_9  and  O1_10 
REMARK    9  A    between atoms: O1_10  and  C10_11 
REMARK   10  A    between atoms: C10_11  and  C11_12 
REMARK   11  A    between atoms: N1_17  and  C14_19 
REMARK   12  A    between atoms: N5_33  and  O4_35 
ROOT
HETATM    1  C1  UNL     1      26.658  13.298  17.546  1.00  0.00     0.012 C 
HETATM    2  C2  UNL     1      25.517  13.036  17.309  1.00  0.00    -0.117 C 
HETATM    3  C3  UNL     1      24.116  12.714  17.056  1.00  0.00     0.093 C 
ENDROOT
BRANCH   3   4
HETATM    4  C4  UNL     1      23.457  12.338  18.358  1.00  0.00     0.012 C 
BRANCH   4   5
HETATM    5  C5  UNL     1      22.528  11.169  18.196  1.00  0.00     0.003 C 
BRANCH   5   6
HETATM    6  C6  UNL     1      21.852  11.241  16.866  1.00  0.00     0.025 C 
BRANCH   6   7
HETATM    7  C7  UNL     1      20.362  10.867  16.977  1.00  0.00     0.085 C 
BRANCH   7   8
HETATM    8  C8  UNL     1      19.841  11.747  18.159  1.00  0.00     0.051 C 
BRANCH   8   9
HETATM    9  C9  UNL     1      19.301  12.976  17.551  1.00  0.00     0.171 C 
BRANCH   9  10
HETATM   10  O1  UNL     1      19.913  14.147  17.558  1.00  0.00    -0.369 OA
BRANCH  10  11
HETATM   11  C10 UNL     1      20.207  14.904  16.483  1.00  0.00     0.148 A 
HETATM   12  C12 UNL     1      21.573  14.727  15.821  1.00  0.00     0.053 A 
HETATM   13  C13 UNL     1      20.329  14.258  15.123  1.00  0.00     0.053 A 
BRANCH  11  14
HETATM   14  C11 UNL     1      19.779  16.323  16.456  1.00  0.00     0.209 C 
HETATM   15  O2  UNL     1      19.231  16.768  15.377  1.00  0.00    -0.646 OA
HETATM   16  O3  UNL     1      19.917  17.218  17.476  1.00  0.00    -0.646 OA
ENDBRANCH  11  14
ENDBRANCH  10  11
ENDBRANCH   9  10
ENDBRANCH   8   9
ENDBRANCH   7   8
BRANCH   7  17
HETATM   17  N1  UNL     1      20.149   9.518  17.346  1.00  0.00    -0.370 N 
ATOM     18  H1  UNL     1      20.905   8.870  17.120  1.00  0.00     0.161 HD
BRANCH  17  19
HETATM   19  C14 UNL     1      19.126   9.004  17.929  1.00  0.00     0.123 A 
HETATM   20  N2  UNL     1      17.850   9.265  17.627  1.00  0.00    -0.351 N 
HETATM   21  C15 UNL     1      16.863   8.669  18.306  1.00  0.00     0.100 A 
ATOM     22  H2  UNL     1      17.629   9.921  16.878  1.00  0.00     0.166 HD
HETATM   23  C16 UNL     1      17.069   7.759  19.343  1.00  0.00    -0.006 A 
HETATM   24  C17 UNL     1      18.358   7.479  19.665  1.00  0.00     0.013 A 
HETATM   25  C27 UNL     1      15.851   7.208  19.978  1.00  0.00     0.209 C 
HETATM   26  C18 UNL     1      19.365   8.105  18.954  1.00  0.00     0.100 A 
HETATM   27  C20 UNL     1      18.765   6.512  20.758  1.00  0.00     0.101 C 
HETATM   28  C19 UNL     1      20.743   7.797  19.313  1.00  0.00     0.104 C 
HETATM   29  N3  UNL     1      21.844   7.572  19.599  1.00  0.00    -0.191 NA
HETATM   30  N4  UNL     1      18.866   5.188  20.296  1.00  0.00    -0.372 N 
HETATM   31  C21 UNL     1      18.262   4.120  20.966  1.00  0.00     0.119 C 
ATOM     32  H4  UNL     1      19.396   5.000  19.444  1.00  0.00     0.164 HD
HETATM   33  C22 UNL     1      17.752   4.348  22.330  1.00  0.00     0.069 C 
HETATM   34  N5  UNL     1      18.641   4.752  23.192  1.00  0.00    -0.266 N 
HETATM   35  C24 UNL     1      16.394   4.141  22.789  1.00  0.00     0.031 C 
ATOM     36  H5  UNL     1      19.590   4.867  22.838  1.00  0.00     0.194 HD
HETATM   37  C25 UNL     1      15.269   4.576  22.336  1.00  0.00     0.002 C 
HETATM   38  C26 UNL     1      14.946   5.444  21.188  1.00  0.00     0.195 C 
HETATM   39  O5  UNL     1      16.049   6.130  20.784  1.00  0.00    -0.383 OA
BRANCH  34  40
HETATM   40  O4  UNL     1      18.457   5.035  24.491  1.00  0.00    -0.285 OA
HETATM   41  C23 UNL     1      19.362   4.725  25.543  1.00  0.00     0.237 C 
ENDBRANCH  34  40
ENDBRANCH  17  19
ENDBRANCH   7  17
ENDBRANCH   6   7
ENDBRANCH   5   6
ENDBRANCH   4   5
ENDBRANCH   3   4
TORSDOF 12
ENDMDL
MODEL 5
REMARK VINA RESULT: -8.141543182      1.138      1.614
REMARK  12 active torsions:
REMARK  status: ('A' for Active; 'I' for Inactive)
REMARK    1  A    between atoms: C3_3  and  C4_4 
REMARK    2  A    between atoms: C4_4  and  C5_5 
REMARK    3  A    between atoms: C5_5  and  C6_6 
REMARK    4  A    between atoms: C6_6  and  C7_7 
REMARK    5  A    between atoms: C7_7  and  C8_8 
REMARK    6  A    between atoms: C7_7  and  N1_17 
REMARK    7  A    between atoms: C8_8  and  C9_9 
REMARK    8  A    between atoms: C9_9  and  O1_10 
REMARK    9  A    between atoms: O1_10  and  C10_11 
REMARK   10  A    between atoms: C10_11  and  C11_12 
REMARK   11  A    between atoms: N1_17  and  C14_19 
REMARK   12  A    between atoms: N5_33  and  O4_35 
ROOT
HETATM    1  C1  UNL     1      26.455  13.407  17.613  1.00  0.00     0.012 C 
HETATM    2  C2  UNL     1      25.293  13.226  17.407  1.00  0.00    -0.117 C 
HETATM    3  C3  UNL     1      23.868  12.996  17.190  1.00  0.00     0.093 C 
ENDROOT
BRANCH   3   4
HETATM    4  C4  UNL     1      23.273  12.397  18.438  1.00  0.00     0.012 C 
BRANCH   4   5
HETATM    5  C5  UNL     1      22.700  11.033  18.185  1.00  0.00     0.003 C 
BRANCH   5   6
HETATM    6  C6  UNL     1      22.398  10.873  16.730  1.00  0.00     0.025 C 
BRANCH   6   7
HETATM    7  C7  UNL     1      21.008  10.245  16.515  1.00  0.00     0.085 C 
BRANCH   7   8
HETATM    8  C8  UNL     1      20.016  11.359  16.984  1.00  0.00     0.051 C 
BRANCH   8   9
HETATM    9  C9  UNL     1      19.657  12.126  15.778  1.00  0.00     0.171 C 
BRANCH   9  10
HETATM   10  O1  UNL     1      19.312  13.401  15.776  1.00  0.00    -0.369 OA
BRANCH  10  11
HETATM   11  C10 UNL     1      20.148  14.458  15.758  1.00  0.00     0.148 A 
HETATM   12  C12 UNL     1      19.695  15.755  16.428  1.00  0.00     0.053 A 
HETATM   13  C13 UNL     1      20.787  14.928  17.044  1.00  0.00     0.053 A 
BRANCH  11  14
HETATM   14  C11 UNL     1      20.941  14.735  14.538  1.00  0.00     0.209 C 
HETATM   15  O2  UNL     1      22.226  14.772  14.647  1.00  0.00    -0.646 OA
HETATM   16  O3  UNL     1      20.435  14.964  13.292  1.00  0.00    -0.646 OA
ENDBRANCH  11  14
ENDBRANCH  10  11
ENDBRANCH   9  10
ENDBRANCH   8   9
ENDBRANCH   7   8
BRANCH   7  17
HETATM   17  N1  UNL     1      20.771   9.115  17.332  1.00  0.00    -0.370 N 
ATOM     18  H1  UNL     1      21.580   8.519  17.512  1.00  0.00     0.161 HD
BRANCH  17  19
HETATM   19  C14 UNL     1      19.669   8.743  17.877  1.00  0.00     0.123 A 
HETATM   20  N2  UNL     1      18.448   9.136  17.501  1.00  0.00    -0.351 N 
HETATM   21  C15 UNL     1      17.367   8.682  18.146  1.00  0.00     0.100 A 
ATOM     22  H2  UNL     1      18.340   9.783  16.720  1.00  0.00     0.166 HD
HETATM   23  C16 UNL     1      17.416   7.796  19.221  1.00  0.00    -0.006 A 
HETATM   24  C17 UNL     1      18.647   7.384  19.620  1.00  0.00     0.013 A 
HETATM   25  C27 UNL     1      16.113   7.411  19.810  1.00  0.00     0.209 C 
HETATM   26  C18 UNL     1      19.753   7.864  18.942  1.00  0.00     0.100 A 
HETATM   27  C20 UNL     1      18.887   6.419  20.763  1.00  0.00     0.101 C 
HETATM   28  C19 UNL     1      21.067   7.415  19.383  1.00  0.00     0.104 C 
HETATM   29  N3  UNL     1      22.120   7.078  19.734  1.00  0.00    -0.191 NA
HETATM   30  N4  UNL     1      18.857   5.075  20.350  1.00  0.00    -0.372 N 
HETATM   31  C21 UNL     1      18.102   4.109  21.023  1.00  0.00     0.119 C 
ATOM     32  H4  UNL     1      19.403   4.796  19.535  1.00  0.00     0.164 HD
HETATM   33  C22 UNL     1      17.556   4.447  22.350  1.00  0.00     0.069 C 
HETATM   34  N5  UNL     1      18.443   4.780  23.244  1.00  0.00    -0.266 N 
HETATM   35  C24 UNL     1      16.163   4.413  22.744  1.00  0.00     0.031 C 
ATOM     36  H5  UNL     1      19.415   4.773  22.936  1.00  0.00     0.194 HD
HETATM   37  C25 UNL     1      15.119   4.954  22.218  1.00  0.00     0.002 C 
HETATM   38  C26 UNL     1      14.954   5.809  21.028  1.00  0.00     0.195 C 
HETATM   39  O5  UNL     1      16.147   6.349  20.659  1.00  0.00    -0.383 OA
BRANCH  34  40
HETATM   40  O4  UNL     1      18.230   5.131  24.521  1.00  0.00    -0.285 OA
HETATM   41  C23 UNL     1      19.140   4.937  25.597  1.00  0.00     0.237 C 
ENDBRANCH  34  40
ENDBRANCH  17  19
ENDBRANCH   7  17
ENDBRANCH   6   7
ENDBRANCH   5   6
ENDBRANCH   4   5
ENDBRANCH   3   4
TORSDOF 12
ENDMDL
