MODEL 1
REMARK VINA RESULT: -9.110065491      0.000      0.000
REMARK  14 active torsions:
REMARK  status: ('A' for Active; 'I' for Inactive)
REMARK    1  A    between atoms: C2_2  and  C4_4 
REMARK    2  A    between atoms: C4_4  and  N1_5 
REMARK    3  A    between atoms: N1_5  and  C5_7 
REMARK    4  A    between atoms: C7_9  and  O1_10 
REMARK    5  A    between atoms: O1_10  and  C8_11 
REMARK    6  A    between atoms: C8_11  and  C9_12 
REMARK    7  A    between atoms: C9_12  and  O2_13 
REMARK    8  A    between atoms: C11_17  and  C12_18 
REMARK    9  A    between atoms: C18_25  and  N4_26 
REMARK   10  A    between atoms: N4_26  and  C19_28 
REMARK   11  A    between atoms: C19_28  and  O3_29 
REMARK   12  A    between atoms: C19_28  and  C20_31 
REMARK       I    between atoms: N6_37  and  C24_39 
REMARK   13  A    between atoms: C24_39  and  C25_41 
REMARK   14  A    between atoms: C25_41  and  N7_42 
ROOT
HETATM    1  C12 UNL     1      14.045  20.025  18.129  1.00  0.00     0.060 A 
HETATM    2  C13 UNL     1      12.933  19.290  18.474  1.00  0.00    -0.022 A 
HETATM    3  C14 UNL     1      11.897  18.822  17.503  1.00  0.00     0.051 C 
HETATM    4  C15 UNL     1      12.977  19.091  19.816  1.00  0.00     0.016 A 
HETATM    5  C16 UNL     1      11.947  18.331  20.606  1.00  0.00     0.069 C 
HETATM    6  N3  UNL     1      14.097  19.679  20.354  1.00  0.00    -0.340 N 
HETATM    7  C17 UNL     1      14.423  19.580  21.761  1.00  0.00     0.158 C 
HETATM    8  C18 UNL     1      14.759  20.255  19.318  1.00  0.00     0.124 A 
ENDROOT
BRANCH   8   9
HETATM    9  N4  UNL     1      16.039  20.818  19.324  1.00  0.00    -0.322 N 
ATOM     10  H4  UNL     1      16.763  20.100  19.269  1.00  0.00     0.169 HD
BRANCH   9  11
HETATM   11  C19 UNL     1      16.583  22.077  19.386  1.00  0.00     0.152 C 
BRANCH  11  12
HETATM   12  O3  UNL     1      15.745  23.080  19.272  1.00  0.00    -0.345 OA
ATOM     13  H3  UNL     1      15.910  23.833  19.827  1.00  0.00     0.219 HD
ENDBRANCH  11  12
BRANCH  11  14
HETATM   14  C20 UNL     1      17.944  22.536  19.575  1.00  0.00     0.020 A 
HETATM   15  C21 UNL     1      18.968  21.630  19.885  1.00  0.00     0.033 A 
HETATM   16  C22 UNL     1      20.255  22.047  20.126  1.00  0.00     0.090 A 
HETATM   17  N5  UNL     1      20.586  23.352  20.072  1.00  0.00    -0.352 N 
HETATM   18  C23 UNL     1      19.616  24.226  19.773  1.00  0.00     0.108 A 
ATOM     19  H5  UNL     1      21.541  23.664  20.250  1.00  0.00     0.166 HD
HETATM   20  N6  UNL     1      19.932  25.494  19.754  1.00  0.00    -0.312 N 
HETATM   21  C28 UNL     1      18.297  23.863  19.520  1.00  0.00     0.064 A 
HETATM   22  C24 UNL     1      21.257  25.929  20.038  1.00  0.00     0.251 C 
ATOM     23  H6  UNL     1      19.216  26.185  19.531  1.00  0.00     0.170 HD
HETATM   24  O4  UNL     1      21.597  26.034  21.242  1.00  0.00    -0.271 OA
BRANCH  22  25
HETATM   25  C25 UNL     1      22.269  26.265  19.013  1.00  0.00     0.375 C 
BRANCH  25  26
HETATM   26  N7  UNL     1      21.691  27.191  18.063  1.00  0.00     0.100 N 
HETATM   27  C26 UNL     1      21.335  26.719  16.746  1.00  0.00     0.303 A 
HETATM   28  C27 UNL     1      22.510  27.645  16.952  1.00  0.00     0.303 A 
ENDBRANCH  25  26
ENDBRANCH  22  25
ENDBRANCH  11  14
ENDBRANCH   9  11
ENDBRANCH   8   9
BRANCH   1  29
HETATM   29  C11 UNL     1      14.363  20.450  16.763  1.00  0.00     0.123 A 
HETATM   30  N2  UNL     1      13.978  19.813  15.664  1.00  0.00    -0.322 N 
HETATM   31  C7  UNL     1      14.259  20.294  14.408  1.00  0.00     0.147 A 
ATOM     32  H2  UNL     1      13.459  18.940  15.755  1.00  0.00     0.169 HD
HETATM   33  C6  UNL     1      14.950  21.452  14.245  1.00  0.00     0.104 A 
HETATM   34  C5  UNL     1      15.367  22.137  15.409  1.00  0.00     0.106 A 
HETATM   35  N8  UNL     1      15.058  21.611  16.582  1.00  0.00    -0.328 N 
ATOM     36  H8  UNL     1      15.363  22.111  17.417  1.00  0.00     0.169 HD
BRANCH  31  37
HETATM   37  O1  UNL     1      13.813  19.537  13.376  1.00  0.00    -0.334 OA
BRANCH  37  38
HETATM   38  C8  UNL     1      12.625  18.870  13.206  1.00  0.00     0.203 C 
BRANCH  38  39
HETATM   39  C9  UNL     1      11.459  19.819  13.146  1.00  0.00     0.193 C 
BRANCH  39  40
HETATM   40  O2  UNL     1      10.886  20.046  14.418  1.00  0.00    -0.394 OA
HETATM   41  C10 UNL     1      10.877  21.444  14.592  1.00  0.00     0.201 C 
ENDBRANCH  39  40
ENDBRANCH  38  39
ENDBRANCH  37  38
ENDBRANCH  31  37
BRANCH  34  42
HETATM   42  N1  UNL     1      15.978  23.226  15.183  1.00  0.00    -0.372 N 
ATOM     43  H1  UNL     1      15.867  23.610  14.244  1.00  0.00     0.161 HD
BRANCH  42  44
HETATM   44  C4  UNL     1      16.799  23.983  16.066  1.00  0.00     0.154 C 
BRANCH  44  45
HETATM   45  C2  UNL     1      18.190  24.132  15.515  1.00  0.00    -0.075 C 
HETATM   46  C1  UNL     1      19.251  23.556  16.045  1.00  0.00     0.015 C 
HETATM   47  C3  UNL     1      18.386  24.981  14.288  1.00  0.00     0.044 C 
ENDBRANCH  44  45
ENDBRANCH  42  44
ENDBRANCH  34  42
ENDBRANCH   1  29
TORSDOF 14
ENDMDL
MODEL 2
REMARK VINA RESULT: -8.950251640      1.915      9.797
REMARK  14 active torsions:
REMARK  status: ('A' for Active; 'I' for Inactive)
REMARK    1  A    between atoms: C2_2  and  C4_4 
REMARK    2  A    between atoms: C4_4  and  N1_5 
REMARK    3  A    between atoms: N1_5  and  C5_7 
REMARK    4  A    between atoms: C7_9  and  O1_10 
REMARK    5  A    between atoms: O1_10  and  C8_11 
REMARK    6  A    between atoms: C8_11  and  C9_12 
REMARK    7  A    between atoms: C9_12  and  O2_13 
REMARK    8  A    between atoms: C11_17  and  C12_18 
REMARK    9  A    between atoms: C18_25  and  N4_26 
REMARK   10  A    between atoms: N4_26  and  C19_28 
REMARK   11  A    between atoms: C19_28  and  O3_29 
REMARK   12  A    between atoms: C19_28  and  C20_31 
REMARK       I    between atoms: N6_37  and  C24_39 
REMARK   13  A    between atoms: C24_39  and  C25_41 
REMARK   14  A    between atoms: C25_41  and  N7_42 
ROOT
HETATM    1  C12 UNL     1      19.457  25.353  16.742  1.00  0.00     0.060 A 
HETATM    2  C13 UNL     1      20.306  26.422  16.567  1.00  0.00    -0.022 A 
HETATM    3  C14 UNL     1      21.405  26.789  17.512  1.00  0.00     0.051 C 
HETATM    4  C15 UNL     1      19.951  27.040  15.412  1.00  0.00     0.016 A 
HETATM    5  C16 UNL     1      20.625  28.260  14.848  1.00  0.00     0.069 C 
HETATM    6  N3  UNL     1      18.888  26.393  14.827  1.00  0.00    -0.340 N 
HETATM    7  C17 UNL     1      18.333  26.809  13.556  1.00  0.00     0.158 C 
HETATM    8  C18 UNL     1      18.581  25.352  15.643  1.00  0.00     0.124 A 
ENDROOT
BRANCH   8   9
HETATM    9  N4  UNL     1      17.695  24.299  15.393  1.00  0.00    -0.322 N 
ATOM     10  H4  UNL     1      18.060  23.665  14.681  1.00  0.00     0.169 HD
BRANCH   9  11
HETATM   11  C19 UNL     1      16.466  23.890  15.848  1.00  0.00     0.152 C 
BRANCH  11  12
HETATM   12  O3  UNL     1      15.958  24.573  16.847  1.00  0.00    -0.345 OA
ATOM     13  H3  UNL     1      15.654  25.450  16.647  1.00  0.00     0.219 HD
ENDBRANCH  11  12
BRANCH  11  14
HETATM   14  C20 UNL     1      15.579  22.828  15.421  1.00  0.00     0.020 A 
HETATM   15  C21 UNL     1      15.876  22.060  14.286  1.00  0.00     0.033 A 
HETATM   16  C22 UNL     1      15.023  21.086  13.826  1.00  0.00     0.090 A 
HETATM   17  N5  UNL     1      13.859  20.828  14.454  1.00  0.00    -0.352 N 
HETATM   18  C23 UNL     1      13.565  21.554  15.541  1.00  0.00     0.108 A 
ATOM     19  H5  UNL     1      13.223  20.106  14.114  1.00  0.00     0.166 HD
HETATM   20  N6  UNL     1      12.420  21.324  16.128  1.00  0.00    -0.312 N 
HETATM   21  C28 UNL     1      14.389  22.552  16.051  1.00  0.00     0.064 A 
HETATM   22  C24 UNL     1      11.521  20.340  15.631  1.00  0.00     0.251 C 
ATOM     23  H6  UNL     1      12.167  21.861  16.957  1.00  0.00     0.170 HD
HETATM   24  O4  UNL     1      10.775  20.654  14.671  1.00  0.00    -0.271 OA
BRANCH  22  25
HETATM   25  C25 UNL     1      11.400  18.966  16.165  1.00  0.00     0.375 C 
BRANCH  25  26
HETATM   26  N7  UNL     1      10.875  19.026  17.512  1.00  0.00     0.100 N 
HETATM   27  C26 UNL     1      11.770  18.820  18.627  1.00  0.00     0.303 A 
HETATM   28  C27 UNL     1      10.733  17.787  18.256  1.00  0.00     0.303 A 
ENDBRANCH  25  26
ENDBRANCH  22  25
ENDBRANCH  11  14
ENDBRANCH   9  11
ENDBRANCH   8   9
BRANCH   1  29
HETATM   29  C11 UNL     1      19.513  24.429  17.879  1.00  0.00     0.123 A 
HETATM   30  N2  UNL     1      20.631  24.026  18.469  1.00  0.00    -0.322 N 
HETATM   31  C7  UNL     1      20.617  23.204  19.570  1.00  0.00     0.147 A 
ATOM     32  H2  UNL     1      21.528  24.335  18.095  1.00  0.00     0.169 HD
HETATM   33  C6  UNL     1      19.443  22.769  20.099  1.00  0.00     0.104 A 
HETATM   34  C5  UNL     1      18.247  23.191  19.475  1.00  0.00     0.106 A 
HETATM   35  N8  UNL     1      18.343  23.982  18.420  1.00  0.00    -0.328 N 
ATOM     36  H8  UNL     1      17.475  24.282  17.976  1.00  0.00     0.169 HD
BRANCH  31  37
HETATM   37  O1  UNL     1      21.831  22.863  20.066  1.00  0.00    -0.334 OA
BRANCH  37  38
HETATM   38  C8  UNL     1      22.949  23.628  20.293  1.00  0.00     0.203 C 
BRANCH  38  39
HETATM   39  C9  UNL     1      22.697  24.686  21.333  1.00  0.00     0.193 C 
BRANCH  39  40
HETATM   40  O2  UNL     1      22.255  25.902  20.765  1.00  0.00    -0.394 OA
HETATM   41  C10 UNL     1      21.045  26.214  21.416  1.00  0.00     0.201 C 
ENDBRANCH  39  40
ENDBRANCH  38  39
ENDBRANCH  37  38
ENDBRANCH  31  37
BRANCH  34  42
HETATM   42  N1  UNL     1      17.189  22.774  20.040  1.00  0.00    -0.372 N 
ATOM     43  H1  UNL     1      17.240  22.670  21.053  1.00  0.00     0.161 HD
BRANCH  42  44
HETATM   44  C4  UNL     1      15.941  22.433  19.445  1.00  0.00     0.154 C 
BRANCH  44  45
HETATM   45  C2  UNL     1      15.789  20.942  19.330  1.00  0.00    -0.075 C 
HETATM   46  C1  UNL     1      16.306  20.228  18.349  1.00  0.00     0.015 C 
HETATM   47  C3  UNL     1      15.007  20.219  20.393  1.00  0.00     0.044 C 
ENDBRANCH  44  45
ENDBRANCH  42  44
ENDBRANCH  34  42
ENDBRANCH   1  29
TORSDOF 14
ENDMDL
MODEL 3
REMARK VINA RESULT: -8.886552480      0.899      1.223
REMARK  14 active torsions:
REMARK  status: ('A' for Active; 'I' for Inactive)
REMARK    1  A    between atoms: C2_2  and  C4_4 
REMARK    2  A    between atoms: C4_4  and  N1_5 
REMARK    3  A    between atoms: N1_5  and  C5_7 
REMARK    4  A    between atoms: C7_9  and  O1_10 
REMARK    5  A    between atoms: O1_10  and  C8_11 
REMARK    6  A    between atoms: C8_11  and  C9_12 
REMARK    7  A    between atoms: C9_12  and  O2_13 
REMARK    8  A    between atoms: C11_17  and  C12_18 
REMARK    9  A    between atoms: C18_25  and  N4_26 
REMARK   10  A    between atoms: N4_26  and  C19_28 
REMARK   11  A    between atoms: C19_28  and  O3_29 
REMARK   12  A    between atoms: C19_28  and  C20_31 
REMARK       I    between atoms: N6_37  and  C24_39 
REMARK   13  A    between atoms: C24_39  and  C25_41 
REMARK   14  A    between atoms: C25_41  and  N7_42 
ROOT
HETATM    1  C12 UNL     1      14.076  20.029  17.897  1.00  0.00     0.060 A 
HETATM    2  C13 UNL     1      12.951  19.327  18.267  1.00  0.00    -0.022 A 
HETATM    3  C14 UNL     1      11.912  18.836  17.312  1.00  0.00     0.051 C 
HETATM    4  C15 UNL     1      12.986  19.185  19.617  1.00  0.00     0.016 A 
HETATM    5  C16 UNL     1      11.939  18.477  20.432  1.00  0.00     0.069 C 
HETATM    6  N3  UNL     1      14.113  19.777  20.135  1.00  0.00    -0.340 N 
HETATM    7  C17 UNL     1      14.431  19.733  21.547  1.00  0.00     0.158 C 
HETATM    8  C18 UNL     1      14.789  20.298  19.079  1.00  0.00     0.124 A 
ENDROOT
BRANCH   8   9
HETATM    9  N4  UNL     1      16.079  20.839  19.068  1.00  0.00    -0.322 N 
ATOM     10  H4  UNL     1      16.785  20.118  18.917  1.00  0.00     0.169 HD
BRANCH   9  11
HETATM   11  C19 UNL     1      16.648  22.080  19.207  1.00  0.00     0.152 C 
BRANCH  11  12
HETATM   12  O3  UNL     1      15.855  23.109  19.025  1.00  0.00    -0.345 OA
ATOM     13  H3  UNL     1      15.319  23.366  19.767  1.00  0.00     0.219 HD
ENDBRANCH  11  12
BRANCH  11  14
HETATM   14  C20 UNL     1      17.995  22.496  19.541  1.00  0.00     0.020 A 
HETATM   15  C21 UNL     1      18.895  21.598  20.133  1.00  0.00     0.033 A 
HETATM   16  C22 UNL     1      20.158  21.984  20.512  1.00  0.00     0.090 A 
HETATM   17  N5  UNL     1      20.585  23.249  20.328  1.00  0.00    -0.352 N 
HETATM   18  C23 UNL     1      19.734  24.114  19.761  1.00  0.00     0.108 A 
ATOM     19  H5  UNL     1      21.522  23.537  20.609  1.00  0.00     0.166 HD
HETATM   20  N6  UNL     1      20.139  25.348  19.614  1.00  0.00    -0.312 N 
HETATM   21  C28 UNL     1      18.445  23.781  19.357  1.00  0.00     0.064 A 
HETATM   22  C24 UNL     1      21.434  25.756  20.039  1.00  0.00     0.251 C 
ATOM     23  H6  UNL     1      19.515  26.032  19.186  1.00  0.00     0.170 HD
HETATM   24  O4  UNL     1      21.598  26.023  21.255  1.00  0.00    -0.271 OA
BRANCH  22  25
HETATM   25  C25 UNL     1      22.609  25.886  19.149  1.00  0.00     0.375 C 
BRANCH  25  26
HETATM   26  N7  UNL     1      23.785  25.409  19.846  1.00  0.00     0.100 N 
HETATM   27  C26 UNL     1      24.946  25.019  19.082  1.00  0.00     0.303 A 
HETATM   28  C27 UNL     1      24.096  23.991  19.789  1.00  0.00     0.303 A 
ENDBRANCH  25  26
ENDBRANCH  22  25
ENDBRANCH  11  14
ENDBRANCH   9  11
ENDBRANCH   8   9
BRANCH   1  29
HETATM   29  C11 UNL     1      14.408  20.390  16.515  1.00  0.00     0.123 A 
HETATM   30  N2  UNL     1      13.855  19.847  15.439  1.00  0.00    -0.322 N 
HETATM   31  C7  UNL     1      14.165  20.269  14.169  1.00  0.00     0.147 A 
ATOM     32  H2  UNL     1      13.179  19.093  15.558  1.00  0.00     0.169 HD
HETATM   33  C6  UNL     1      15.062  21.270  13.969  1.00  0.00     0.104 A 
HETATM   34  C5  UNL     1      15.659  21.853  15.109  1.00  0.00     0.106 A 
HETATM   35  N8  UNL     1      15.308  21.392  16.297  1.00  0.00    -0.328 N 
ATOM     36  H8  UNL     1      15.745  21.819  17.115  1.00  0.00     0.169 HD
BRANCH  31  37
HETATM   37  O1  UNL     1      13.532  19.621  13.162  1.00  0.00    -0.334 OA
BRANCH  37  38
HETATM   38  C8  UNL     1      12.354  18.915  13.156  1.00  0.00     0.203 C 
BRANCH  38  39
HETATM   39  C9  UNL     1      11.159  19.828  13.107  1.00  0.00     0.193 C 
BRANCH  39  40
HETATM   40  O2  UNL     1      10.738  20.230  14.394  1.00  0.00    -0.394 OA
HETATM   41  C10 UNL     1      10.729  21.639  14.373  1.00  0.00     0.201 C 
ENDBRANCH  39  40
ENDBRANCH  38  39
ENDBRANCH  37  38
ENDBRANCH  31  37
BRANCH  34  42
HETATM   42  N1  UNL     1      16.462  22.803  14.850  1.00  0.00    -0.372 N 
ATOM     43  H1  UNL     1      16.749  22.886  13.875  1.00  0.00     0.161 HD
BRANCH  42  44
HETATM   44  C4  UNL     1      17.015  23.766  15.741  1.00  0.00     0.154 C 
BRANCH  44  45
HETATM   45  C2  UNL     1      18.360  24.235  15.261  1.00  0.00    -0.075 C 
HETATM   46  C1  UNL     1      19.501  23.871  15.814  1.00  0.00     0.015 C 
HETATM   47  C3  UNL     1      18.413  25.168  14.081  1.00  0.00     0.044 C 
ENDBRANCH  44  45
ENDBRANCH  42  44
ENDBRANCH  34  42
ENDBRANCH   1  29
TORSDOF 14
ENDMDL
MODEL 4
REMARK VINA RESULT: -8.751716947      2.529      9.651
REMARK  14 active torsions:
REMARK  status: ('A' for Active; 'I' for Inactive)
REMARK    1  A    between atoms: C2_2  and  C4_4 
REMARK    2  A    between atoms: C4_4  and  N1_5 
REMARK    3  A    between atoms: N1_5  and  C5_7 
REMARK    4  A    between atoms: C7_9  and  O1_10 
REMARK    5  A    between atoms: O1_10  and  C8_11 
REMARK    6  A    between atoms: C8_11  and  C9_12 
REMARK    7  A    between atoms: C9_12  and  O2_13 
REMARK    8  A    between atoms: C11_17  and  C12_18 
REMARK    9  A    between atoms: C18_25  and  N4_26 
REMARK   10  A    between atoms: N4_26  and  C19_28 
REMARK   11  A    between atoms: C19_28  and  O3_29 
REMARK   12  A    between atoms: C19_28  and  C20_31 
REMARK       I    between atoms: N6_37  and  C24_39 
REMARK   13  A    between atoms: C24_39  and  C25_41 
REMARK   14  A    between atoms: C25_41  and  N7_42 
ROOT
HETATM    1  C12 UNL     1      20.096  24.258  18.058  1.00  0.00     0.060 A 
HETATM    2  C13 UNL     1      20.408  23.675  19.265  1.00  0.00    -0.022 A 
HETATM    3  C14 UNL     1      21.447  24.193  20.208  1.00  0.00     0.051 C 
HETATM    4  C15 UNL     1      19.612  22.585  19.410  1.00  0.00     0.016 A 
HETATM    5  C16 UNL     1      19.630  21.660  20.595  1.00  0.00     0.069 C 
HETATM    6  N3  UNL     1      18.783  22.446  18.322  1.00  0.00    -0.340 N 
HETATM    7  C17 UNL     1      17.791  21.396  18.234  1.00  0.00     0.158 C 
HETATM    8  C18 UNL     1      19.077  23.476  17.486  1.00  0.00     0.124 A 
ENDROOT
BRANCH   8   9
HETATM    9  N4  UNL     1      18.385  23.872  16.337  1.00  0.00    -0.322 N 
ATOM     10  H4  UNL     1      19.025  24.092  15.574  1.00  0.00     0.169 HD
BRANCH   9  11
HETATM   11  C19 UNL     1      17.076  24.043  15.962  1.00  0.00     0.152 C 
BRANCH  11  12
HETATM   12  O3  UNL     1      16.587  25.254  16.089  1.00  0.00    -0.345 OA
ATOM     13  H3  UNL     1      15.804  25.447  15.587  1.00  0.00     0.219 HD
ENDBRANCH  11  12
BRANCH  11  14
HETATM   14  C20 UNL     1      16.095  23.125  15.421  1.00  0.00     0.020 A 
HETATM   15  C21 UNL     1      16.331  22.459  14.209  1.00  0.00     0.033 A 
HETATM   16  C22 UNL     1      15.393  21.628  13.645  1.00  0.00     0.090 A 
HETATM   17  N5  UNL     1      14.201  21.418  14.239  1.00  0.00    -0.352 N 
HETATM   18  C23 UNL     1      13.967  22.047  15.399  1.00  0.00     0.108 A 
ATOM     19  H5  UNL     1      13.504  20.802  13.822  1.00  0.00     0.166 HD
HETATM   20  N6  UNL     1      12.798  21.867  15.956  1.00  0.00    -0.312 N 
HETATM   21  C28 UNL     1      14.878  22.898  16.016  1.00  0.00     0.064 A 
HETATM   22  C24 UNL     1      11.814  21.035  15.354  1.00  0.00     0.251 C 
ATOM     23  H6  UNL     1      12.588  22.332  16.839  1.00  0.00     0.170 HD
HETATM   24  O4  UNL     1      11.114  21.522  14.433  1.00  0.00    -0.271 OA
BRANCH  22  25
HETATM   25  C25 UNL     1      11.555  19.629  15.734  1.00  0.00     0.375 C 
BRANCH  25  26
HETATM   26  N7  UNL     1      10.912  19.600  17.031  1.00  0.00     0.100 N 
HETATM   27  C26 UNL     1      11.714  19.375  18.210  1.00  0.00     0.303 A 
HETATM   28  C27 UNL     1      10.762  18.320  17.701  1.00  0.00     0.303 A 
ENDBRANCH  25  26
ENDBRANCH  22  25
ENDBRANCH  11  14
ENDBRANCH   9  11
ENDBRANCH   8   9
BRANCH   1  29
HETATM   29  C11 UNL     1      20.740  25.464  17.530  1.00  0.00     0.123 A 
HETATM   30  N2  UNL     1      21.960  25.873  17.857  1.00  0.00    -0.322 N 
HETATM   31  C7  UNL     1      22.533  26.982  17.284  1.00  0.00     0.147 A 
ATOM     32  H2  UNL     1      22.487  25.348  18.554  1.00  0.00     0.169 HD
HETATM   33  C6  UNL     1      21.862  27.709  16.352  1.00  0.00     0.104 A 
HETATM   34  C5  UNL     1      20.561  27.283  16.000  1.00  0.00     0.106 A 
HETATM   35  N8  UNL     1      20.079  26.206  16.595  1.00  0.00    -0.328 N 
ATOM     36  H8  UNL     1      19.139  25.906  16.335  1.00  0.00     0.169 HD
BRANCH  31  37
HETATM   37  O1  UNL     1      23.780  27.290  17.716  1.00  0.00    -0.334 OA
BRANCH  37  38
HETATM   38  C8  UNL     1      24.902  26.509  17.833  1.00  0.00     0.203 C 
BRANCH  38  39
HETATM   39  C9  UNL     1      25.594  26.329  16.509  1.00  0.00     0.193 C 
BRANCH  39  40
HETATM   40  O2  UNL     1      26.407  25.174  16.480  1.00  0.00    -0.394 OA
HETATM   41  C10 UNL     1      26.302  24.598  17.762  1.00  0.00     0.201 C 
ENDBRANCH  39  40
ENDBRANCH  38  39
ENDBRANCH  37  38
ENDBRANCH  31  37
BRANCH  34  42
HETATM   42  N1  UNL     1      20.006  27.989  15.102  1.00  0.00    -0.372 N 
ATOM     43  H1  UNL     1      20.073  28.999  15.228  1.00  0.00     0.161 HD
BRANCH  42  44
HETATM   44  C4  UNL     1      19.303  27.556  13.942  1.00  0.00     0.154 C 
BRANCH  44  45
HETATM   45  C2  UNL     1      20.241  26.934  12.944  1.00  0.00    -0.075 C 
HETATM   46  C1  UNL     1      21.033  27.632  12.152  1.00  0.00     0.015 C 
HETATM   47  C3  UNL     1      20.284  25.434  12.843  1.00  0.00     0.044 C 
ENDBRANCH  44  45
ENDBRANCH  42  44
ENDBRANCH  34  42
ENDBRANCH   1  29
TORSDOF 14
ENDMDL
MODEL 5
REMARK VINA RESULT: -8.725120198      1.350      4.120
REMARK  14 active torsions:
REMARK  status: ('A' for Active; 'I' for Inactive)
REMARK    1  A    between atoms: C2_2  and  C4_4 
REMARK    2  A    between atoms: C4_4  and  N1_5 
REMARK    3  A    between atoms: N1_5  and  C5_7 
REMARK    4  A    between atoms: C7_9  and  O1_10 
REMARK    5  A    between atoms: O1_10  and  C8_11 
REMARK    6  A    between atoms: C8_11  and  C9_12 
REMARK    7  A    between atoms: C9_12  and  O2_13 
REMARK    8  A    between atoms: C11_17  and  C12_18 
REMARK    9  A    between atoms: C18_25  and  N4_26 
REMARK   10  A    between atoms: N4_26  and  C19_28 
REMARK   11  A    between atoms: C19_28  and  O3_29 
REMARK   12  A    between atoms: C19_28  and  C20_31 
REMARK       I    between atoms: N6_37  and  C24_39 
REMARK   13  A    between atoms: C24_39  and  C25_41 
REMARK   14  A    between atoms: C25_41  and  N7_42 
ROOT
HETATM    1  C12 UNL     1      14.031  20.083  18.107  1.00  0.00     0.060 A 
HETATM    2  C13 UNL     1      12.916  19.346  18.440  1.00  0.00    -0.022 A 
HETATM    3  C14 UNL     1      11.880  18.895  17.460  1.00  0.00     0.051 C 
HETATM    4  C15 UNL     1      12.957  19.127  19.778  1.00  0.00     0.016 A 
HETATM    5  C16 UNL     1      11.923  18.359  20.555  1.00  0.00     0.069 C 
HETATM    6  N3  UNL     1      14.078  19.704  20.327  1.00  0.00    -0.340 N 
HETATM    7  C17 UNL     1      14.401  19.583  21.733  1.00  0.00     0.158 C 
HETATM    8  C18 UNL     1      14.743  20.293  19.300  1.00  0.00     0.124 A 
ENDROOT
BRANCH   8   9
HETATM    9  N4  UNL     1      16.025  20.852  19.318  1.00  0.00    -0.322 N 
ATOM     10  H4  UNL     1      16.746  20.131  19.356  1.00  0.00     0.169 HD
BRANCH   9  11
HETATM   11  C19 UNL     1      16.573  22.110  19.298  1.00  0.00     0.152 C 
BRANCH  11  12
HETATM   12  O3  UNL     1      15.740  23.106  19.104  1.00  0.00    -0.345 OA
ATOM     13  H3  UNL     1      15.778  23.528  18.253  1.00  0.00     0.219 HD
ENDBRANCH  11  12
BRANCH  11  14
HETATM   14  C20 UNL     1      17.933  22.578  19.469  1.00  0.00     0.020 A 
HETATM   15  C21 UNL     1      18.925  21.723  19.970  1.00  0.00     0.033 A 
HETATM   16  C22 UNL     1      20.210  22.157  20.197  1.00  0.00     0.090 A 
HETATM   17  N5  UNL     1      20.568  23.432  19.944  1.00  0.00    -0.352 N 
HETATM   18  C23 UNL     1      19.628  24.257  19.464  1.00  0.00     0.108 A 
ATOM     19  H5  UNL     1      21.520  23.757  20.112  1.00  0.00     0.166 HD
HETATM   20  N6  UNL     1      19.970  25.501  19.251  1.00  0.00    -0.312 N 
HETATM   21  C28 UNL     1      18.314  23.873  19.215  1.00  0.00     0.064 A 
HETATM   22  C24 UNL     1      21.289  25.959  19.519  1.00  0.00     0.251 C 
ATOM     23  H6  UNL     1      19.277  26.154  18.886  1.00  0.00     0.170 HD
HETATM   24  O4  UNL     1      21.580  26.257  20.704  1.00  0.00    -0.271 OA
BRANCH  22  25
HETATM   25  C25 UNL     1      22.350  26.111  18.500  1.00  0.00     0.375 C 
BRANCH  25  26
HETATM   26  N7  UNL     1      22.212  27.402  17.862  1.00  0.00     0.100 N 
HETATM   27  C26 UNL     1      21.546  27.489  16.583  1.00  0.00     0.303 A 
HETATM   28  C27 UNL     1      23.037  27.693  16.702  1.00  0.00     0.303 A 
ENDBRANCH  25  26
ENDBRANCH  22  25
ENDBRANCH  11  14
ENDBRANCH   9  11
ENDBRANCH   8   9
BRANCH   1  29
HETATM   29  C11 UNL     1      14.353  20.527  16.748  1.00  0.00     0.123 A 
HETATM   30  N2  UNL     1      15.133  21.560  16.456  1.00  0.00    -0.322 N 
HETATM   31  C7  UNL     1      15.446  21.893  15.161  1.00  0.00     0.147 A 
ATOM     32  H2  UNL     1      15.511  22.125  17.217  1.00  0.00     0.169 HD
HETATM   33  C6  UNL     1      14.961  21.167  14.119  1.00  0.00     0.104 A 
HETATM   34  C5  UNL     1      14.127  20.067  14.420  1.00  0.00     0.106 A 
HETATM   35  N8  UNL     1      13.872  19.810  15.691  1.00  0.00    -0.328 N 
ATOM     36  H8  UNL     1      13.269  19.014  15.899  1.00  0.00     0.169 HD
BRANCH  31  37
HETATM   37  O1  UNL     1      16.246  22.976  15.008  1.00  0.00    -0.334 OA
BRANCH  37  38
HETATM   38  C8  UNL     1      17.427  23.308  15.625  1.00  0.00     0.203 C 
BRANCH  38  39
HETATM   39  C9  UNL     1      17.683  24.790  15.573  1.00  0.00     0.193 C 
BRANCH  39  40
HETATM   40  O2  UNL     1      18.933  25.138  16.131  1.00  0.00    -0.394 OA
HETATM   41  C10 UNL     1      19.838  24.149  15.696  1.00  0.00     0.201 C 
ENDBRANCH  39  40
ENDBRANCH  38  39
ENDBRANCH  37  38
ENDBRANCH  31  37
BRANCH  34  42
HETATM   42  N1  UNL     1      13.736  19.415  13.402  1.00  0.00    -0.372 N 
ATOM     43  H1  UNL     1      14.372  19.416  12.605  1.00  0.00     0.161 HD
BRANCH  42  44
HETATM   44  C4  UNL     1      12.528  18.683  13.228  1.00  0.00     0.154 C 
BRANCH  44  45
HETATM   45  C2  UNL     1      11.428  19.572  12.717  1.00  0.00    -0.075 C 
HETATM   46  C1  UNL     1      10.855  19.422  11.538  1.00  0.00     0.015 C 
HETATM   47  C3  UNL     1      10.948  20.693  13.598  1.00  0.00     0.044 C 
ENDBRANCH  44  45
ENDBRANCH  42  44
ENDBRANCH  34  42
ENDBRANCH   1  29
TORSDOF 14
ENDMDL
