MODEL 1
REMARK VINA RESULT: -9.371823425      0.000      0.000
REMARK  13 active torsions:
REMARK  status: ('A' for Active; 'I' for Inactive)
REMARK    1  A    between atoms: C2_2  and  N1_3 
REMARK    2  A    between atoms: C2_2  and  O4_39 
REMARK    3  A    between atoms: C5_9  and  N3_10 
REMARK    4  A    between atoms: C8_13  and  C9_14 
REMARK    5  A    between atoms: N6_24  and  C14_25 
REMARK    6  A    between atoms: C14_25  and  C15_26 
REMARK    7  A    between atoms: C15_26  and  C16_27 
REMARK    8  A    between atoms: N7_30  and  C19_31 
REMARK    9  A    between atoms: C19_31  and  C20_32 
REMARK   10  A    between atoms: C20_32  and  C21_33 
REMARK   11  A    between atoms: C21_33  and  O2_34 
REMARK   12  A    between atoms: O4_39  and  C24_40 
REMARK   13  A    between atoms: C24_40  and  C25_41 
ROOT
HETATM    1  N1  UNL     1      13.002  19.549  17.560  1.00  0.00    -0.346 N 
ATOM      2  H1  UNL     1      13.378  18.724  18.027  1.00  0.00     0.163 HD
HETATM    3  C3  UNL     1      13.847  20.482  17.340  1.00  0.00     0.172 A 
HETATM    4  N2  UNL     1      13.535  21.631  16.741  1.00  0.00    -0.344 N 
ATOM      5  H2  UNL     1      12.577  21.799  16.434  1.00  0.00     0.167 HD
HETATM    6  C4  UNL     1      14.473  22.567  16.539  1.00  0.00     0.139 A 
HETATM    7  C5  UNL     1      15.809  22.393  16.941  1.00  0.00     0.131 A 
HETATM    8  N6  UNL     1      16.133  21.239  17.546  1.00  0.00    -0.296 N 
HETATM    9  C23 UNL     1      15.180  20.317  17.738  1.00  0.00     0.293 A 
HETATM   10  O3  UNL     1      15.456  19.233  18.300  1.00  0.00    -0.264 OA
ENDROOT
BRANCH   7  11
HETATM   11  N3  UNL     1      16.730  23.447  16.696  1.00  0.00    -0.292 N 
HETATM   12  C6  UNL     1      17.542  23.517  15.500  1.00  0.00     0.177 A 
HETATM   13  C7  UNL     1      18.387  24.729  15.640  1.00  0.00     0.018 A 
HETATM   14  C8  UNL     1      19.349  25.439  14.996  1.00  0.00     0.039 A 
HETATM   15  C12 UNL     1      18.072  25.336  16.836  1.00  0.00     0.126 A 
HETATM   16  N4  UNL     1      19.633  26.502  15.807  1.00  0.00    -0.303 N 
HETATM   17  N5  UNL     1      18.879  26.437  16.888  1.00  0.00    -0.295 N 
ATOM     18  H4  UNL     1      20.320  27.229  15.609  1.00  0.00     0.186 HD
ATOM     19  H5  UNL     1      18.897  27.112  17.653  1.00  0.00     0.187 HD
HETATM   20  C13 UNL     1      17.047  24.566  17.514  1.00  0.00     0.278 A 
HETATM   21  O1  UNL     1      16.533  24.855  18.644  1.00  0.00    -0.265 OA
BRANCH  14  22
HETATM   22  C9  UNL     1      20.013  25.193  13.688  1.00  0.00     0.029 C 
HETATM   23  C10 UNL     1      20.319  26.491  12.991  1.00  0.00     0.016 C 
HETATM   24  C11 UNL     1      21.355  24.479  13.896  1.00  0.00     0.016 C 
ENDBRANCH  14  22
ENDBRANCH   7  11
BRANCH   8  25
HETATM   25  C14 UNL     1      17.482  20.930  17.997  1.00  0.00     0.134 C 
BRANCH  25  26
HETATM   26  C15 UNL     1      17.774  21.431  19.380  1.00  0.00     0.027 C 
BRANCH  26  27
HETATM   27  C16 UNL     1      19.222  21.786  19.584  1.00  0.00     0.017 C 
HETATM   28  C17 UNL     1      19.382  22.339  20.998  1.00  0.00     0.036 C 
HETATM   29  C18 UNL     1      19.271  23.828  20.730  1.00  0.00     0.273 C 
HETATM   30  N7  UNL     1      19.962  23.996  19.519  1.00  0.00     0.088 N 
HETATM   31  C22 UNL     1      19.715  22.860  18.699  1.00  0.00     0.277 C 
BRANCH  30  32
HETATM   32  C19 UNL     1      21.294  24.486  19.566  1.00  0.00     0.274 C 
BRANCH  32  33
HETATM   33  C20 UNL     1      21.216  25.918  20.117  1.00  0.00     0.056 C 
BRANCH  33  34
HETATM   34  C21 UNL     1      21.689  26.835  19.020  1.00  0.00     0.165 C 
BRANCH  34  35
HETATM   35  O2  UNL     1      20.653  27.681  18.687  1.00  0.00    -0.401 OA
ATOM     36  H2  UNL     1      20.051  27.208  18.126  1.00  0.00     0.209 HD
ENDBRANCH  34  35
ENDBRANCH  33  34
ENDBRANCH  32  33
ENDBRANCH  30  32
ENDBRANCH  26  27
ENDBRANCH  25  26
ENDBRANCH   8  25
BRANCH   1  37
HETATM   37  C2  UNL     1      11.618  19.488  17.251  1.00  0.00     0.218 C 
HETATM   38  C1  UNL     1      11.292  18.353  16.295  1.00  0.00     0.063 C 
BRANCH  37  39
HETATM   39  O4  UNL     1      10.951  19.277  18.486  1.00  0.00    -0.363 OA
BRANCH  39  40
HETATM   40  C24 UNL     1      11.176  18.013  18.967  1.00  0.00     0.204 C 
BRANCH  40  41
HETATM   41  C25 UNL     1      12.093  18.032  20.135  1.00  0.00    -0.060 C 
HETATM   42  C26 UNL     1      12.536  16.916  20.746  1.00  0.00    -0.022 C 
HETATM   43  C27 UNL     1      13.442  17.296  21.884  1.00  0.00     0.028 C 
HETATM   44  C28 UNL     1      13.923  18.683  21.441  1.00  0.00     0.008 C 
HETATM   45  C29 UNL     1      12.651  19.220  20.825  1.00  0.00     0.036 C 
ENDBRANCH  40  41
ENDBRANCH  39  40
ENDBRANCH  37  39
ENDBRANCH   1  37
TORSDOF 13
ENDMDL
MODEL 2
REMARK VINA RESULT: -8.882555965      1.771      3.504
REMARK  13 active torsions:
REMARK  status: ('A' for Active; 'I' for Inactive)
REMARK    1  A    between atoms: C2_2  and  N1_3 
REMARK    2  A    between atoms: C2_2  and  O4_39 
REMARK    3  A    between atoms: C5_9  and  N3_10 
REMARK    4  A    between atoms: C8_13  and  C9_14 
REMARK    5  A    between atoms: N6_24  and  C14_25 
REMARK    6  A    between atoms: C14_25  and  C15_26 
REMARK    7  A    between atoms: C15_26  and  C16_27 
REMARK    8  A    between atoms: N7_30  and  C19_31 
REMARK    9  A    between atoms: C19_31  and  C20_32 
REMARK   10  A    between atoms: C20_32  and  C21_33 
REMARK   11  A    between atoms: C21_33  and  O2_34 
REMARK   12  A    between atoms: O4_39  and  C24_40 
REMARK   13  A    between atoms: C24_40  and  C25_41 
ROOT
HETATM    1  N1  UNL     1      12.905  19.186  17.056  1.00  0.00    -0.346 N 
ATOM      2  H1  UNL     1      13.266  18.380  17.565  1.00  0.00     0.163 HD
HETATM    3  C3  UNL     1      13.731  20.149  16.905  1.00  0.00     0.172 A 
HETATM    4  N2  UNL     1      13.435  21.281  16.266  1.00  0.00    -0.344 N 
ATOM      5  H2  UNL     1      12.504  21.410  15.870  1.00  0.00     0.167 HD
HETATM    6  C4  UNL     1      14.352  22.250  16.143  1.00  0.00     0.139 A 
HETATM    7  C5  UNL     1      15.650  22.129  16.669  1.00  0.00     0.131 A 
HETATM    8  N6  UNL     1      15.959  20.993  17.314  1.00  0.00    -0.296 N 
HETATM    9  C23 UNL     1      15.027  20.037  17.427  1.00  0.00     0.293 A 
HETATM   10  O3  UNL     1      15.289  18.968  18.023  1.00  0.00    -0.264 OA
ENDROOT
BRANCH   7  11
HETATM   11  N3  UNL     1      16.551  23.216  16.499  1.00  0.00    -0.292 N 
HETATM   12  C6  UNL     1      17.426  23.336  15.353  1.00  0.00     0.177 A 
HETATM   13  C7  UNL     1      18.224  24.570  15.566  1.00  0.00     0.018 A 
HETATM   14  C8  UNL     1      19.199  25.322  14.992  1.00  0.00     0.039 A 
HETATM   15  C12 UNL     1      17.824  25.139  16.754  1.00  0.00     0.126 A 
HETATM   16  N4  UNL     1      19.404  26.374  15.841  1.00  0.00    -0.303 N 
HETATM   17  N5  UNL     1      18.593  26.262  16.876  1.00  0.00    -0.295 N 
ATOM     18  H4  UNL     1      20.078  27.126  15.697  1.00  0.00     0.186 HD
ATOM     19  H5  UNL     1      18.547  26.920  17.655  1.00  0.00     0.187 HD
HETATM   20  C13 UNL     1      16.787  24.324  17.357  1.00  0.00     0.278 A 
HETATM   21  O1  UNL     1      16.202  24.572  18.462  1.00  0.00    -0.265 OA
BRANCH  14  22
HETATM   22  C9  UNL     1      19.943  25.126  13.720  1.00  0.00     0.029 C 
HETATM   23  C10 UNL     1      20.175  26.442  13.028  1.00  0.00     0.016 C 
HETATM   24  C11 UNL     1      21.327  24.525  13.997  1.00  0.00     0.016 C 
ENDBRANCH  14  22
ENDBRANCH   7  11
BRANCH   8  25
HETATM   25  C14 UNL     1      17.270  20.739  17.891  1.00  0.00     0.134 C 
BRANCH  25  26
HETATM   26  C15 UNL     1      17.472  21.404  19.220  1.00  0.00     0.027 C 
BRANCH  26  27
HETATM   27  C16 UNL     1      18.916  21.713  19.511  1.00  0.00     0.017 C 
HETATM   28  C17 UNL     1      18.997  22.352  20.895  1.00  0.00     0.036 C 
HETATM   29  C18 UNL     1      18.972  23.823  20.526  1.00  0.00     0.273 C 
HETATM   30  N7  UNL     1      19.757  23.883  19.363  1.00  0.00     0.088 N 
HETATM   31  C22 UNL     1      19.520  22.705  18.599  1.00  0.00     0.277 C 
BRANCH  30  32
HETATM   32  C19 UNL     1      21.102  24.322  19.480  1.00  0.00     0.274 C 
BRANCH  32  33
HETATM   33  C20 UNL     1      21.052  25.748  20.048  1.00  0.00     0.056 C 
BRANCH  33  34
HETATM   34  C21 UNL     1      21.588  26.663  18.980  1.00  0.00     0.165 C 
BRANCH  34  35
HETATM   35  O2  UNL     1      20.578  27.520  18.598  1.00  0.00    -0.401 OA
ATOM     36  H2  UNL     1      19.974  27.611  19.326  1.00  0.00     0.209 HD
ENDBRANCH  34  35
ENDBRANCH  33  34
ENDBRANCH  32  33
ENDBRANCH  30  32
ENDBRANCH  26  27
ENDBRANCH  25  26
ENDBRANCH   8  25
BRANCH   1  37
HETATM   37  C2  UNL     1      11.559  19.071  16.620  1.00  0.00     0.218 C 
HETATM   38  C1  UNL     1      10.641  20.059  17.321  1.00  0.00     0.063 C 
BRANCH  37  39
HETATM   39  O4  UNL     1      11.574  19.342  15.227  1.00  0.00    -0.363 OA
BRANCH  39  40
HETATM   40  C24 UNL     1      11.514  18.188  14.491  1.00  0.00     0.204 C 
BRANCH  40  41
HETATM   41  C25 UNL     1      11.245  18.471  13.058  1.00  0.00    -0.060 C 
HETATM   42  C26 UNL     1      11.168  17.512  12.116  1.00  0.00    -0.022 C 
HETATM   43  C27 UNL     1      10.885  18.143  10.780  1.00  0.00     0.028 C 
HETATM   44  C28 UNL     1      10.215  19.457  11.201  1.00  0.00     0.008 C 
HETATM   45  C29 UNL     1      11.039  19.796  12.423  1.00  0.00     0.036 C 
ENDBRANCH  40  41
ENDBRANCH  39  40
ENDBRANCH  37  39
ENDBRANCH   1  37
TORSDOF 13
ENDMDL
MODEL 3
REMARK VINA RESULT: -8.863278750      1.304      1.945
REMARK  13 active torsions:
REMARK  status: ('A' for Active; 'I' for Inactive)
REMARK    1  A    between atoms: C2_2  and  N1_3 
REMARK    2  A    between atoms: C2_2  and  O4_39 
REMARK    3  A    between atoms: C5_9  and  N3_10 
REMARK    4  A    between atoms: C8_13  and  C9_14 
REMARK    5  A    between atoms: N6_24  and  C14_25 
REMARK    6  A    between atoms: C14_25  and  C15_26 
REMARK    7  A    between atoms: C15_26  and  C16_27 
REMARK    8  A    between atoms: N7_30  and  C19_31 
REMARK    9  A    between atoms: C19_31  and  C20_32 
REMARK   10  A    between atoms: C20_32  and  C21_33 
REMARK   11  A    between atoms: C21_33  and  O2_34 
REMARK   12  A    between atoms: O4_39  and  C24_40 
REMARK   13  A    between atoms: C24_40  and  C25_41 
ROOT
HETATM    1  N1  UNL     1      12.912  19.618  17.303  1.00  0.00    -0.346 N 
ATOM      2  H1  UNL     1      13.252  18.807  17.819  1.00  0.00     0.163 HD
HETATM    3  C3  UNL     1      13.773  20.543  17.114  1.00  0.00     0.172 A 
HETATM    4  N2  UNL     1      13.508  21.674  16.461  1.00  0.00    -0.344 N 
ATOM      5  H2  UNL     1      12.573  21.835  16.084  1.00  0.00     0.167 HD
HETATM    6  C4  UNL     1      14.460  22.602  16.298  1.00  0.00     0.139 A 
HETATM    7  C5  UNL     1      15.765  22.438  16.796  1.00  0.00     0.131 A 
HETATM    8  N6  UNL     1      16.042  21.302  17.455  1.00  0.00    -0.296 N 
HETATM    9  C23 UNL     1      15.076  20.387  17.608  1.00  0.00     0.293 A 
HETATM   10  O3  UNL     1      15.308  19.320  18.219  1.00  0.00    -0.264 OA
ENDROOT
BRANCH   7  11
HETATM   11  N3  UNL     1      16.704  23.483  16.584  1.00  0.00    -0.292 N 
HETATM   12  C6  UNL     1      17.545  23.556  15.408  1.00  0.00     0.177 A 
HETATM   13  C7  UNL     1      18.401  24.756  15.581  1.00  0.00     0.018 A 
HETATM   14  C8  UNL     1      19.386  25.461  14.967  1.00  0.00     0.039 A 
HETATM   15  C12 UNL     1      18.066  25.353  16.776  1.00  0.00     0.126 A 
HETATM   16  N4  UNL     1      19.665  26.510  15.797  1.00  0.00    -0.303 N 
HETATM   17  N5  UNL     1      18.886  26.443  16.860  1.00  0.00    -0.295 N 
ATOM     18  H4  UNL     1      20.365  27.231  15.623  1.00  0.00     0.186 HD
ATOM     19  H5  UNL     1      18.895  27.109  17.633  1.00  0.00     0.187 HD
HETATM   20  C13 UNL     1      17.017  24.588  17.422  1.00  0.00     0.278 A 
HETATM   21  O1  UNL     1      16.480  24.871  18.543  1.00  0.00    -0.265 OA
BRANCH  14  22
HETATM   22  C9  UNL     1      20.077  25.221  13.672  1.00  0.00     0.029 C 
HETATM   23  C10 UNL     1      20.404  26.523  12.992  1.00  0.00     0.016 C 
HETATM   24  C11 UNL     1      21.411  24.500  13.904  1.00  0.00     0.016 C 
ENDBRANCH  14  22
ENDBRANCH   7  11
BRANCH   8  25
HETATM   25  C14 UNL     1      17.356  21.004  18.006  1.00  0.00     0.134 C 
BRANCH  25  26
HETATM   26  C15 UNL     1      17.575  21.594  19.368  1.00  0.00     0.027 C 
BRANCH  26  27
HETATM   27  C16 UNL     1      19.025  21.867  19.666  1.00  0.00     0.017 C 
HETATM   28  C17 UNL     1      19.109  22.577  21.014  1.00  0.00     0.036 C 
HETATM   29  C18 UNL     1      19.143  24.026  20.566  1.00  0.00     0.273 C 
HETATM   30  N7  UNL     1      19.947  23.993  19.414  1.00  0.00     0.088 N 
HETATM   31  C22 UNL     1      19.678  22.785  18.712  1.00  0.00     0.277 C 
BRANCH  30  32
HETATM   32  C19 UNL     1      21.306  24.389  19.530  1.00  0.00     0.274 C 
BRANCH  32  33
HETATM   33  C20 UNL     1      21.302  25.811  20.111  1.00  0.00     0.056 C 
BRANCH  33  34
HETATM   34  C21 UNL     1      21.677  26.743  18.990  1.00  0.00     0.165 C 
BRANCH  34  35
HETATM   35  O2  UNL     1      20.616  27.593  18.761  1.00  0.00    -0.401 OA
ATOM     36  H2  UNL     1      20.660  27.887  17.859  1.00  0.00     0.209 HD
ENDBRANCH  34  35
ENDBRANCH  33  34
ENDBRANCH  32  33
ENDBRANCH  30  32
ENDBRANCH  26  27
ENDBRANCH  25  26
ENDBRANCH   8  25
BRANCH   1  37
HETATM   37  C2  UNL     1      11.553  19.550  16.901  1.00  0.00     0.218 C 
HETATM   38  C1  UNL     1      11.400  19.066  15.468  1.00  0.00     0.063 C 
BRANCH  37  39
HETATM   39  O4  UNL     1      10.930  18.629  17.783  1.00  0.00    -0.363 OA
BRANCH  39  40
HETATM   40  C24 UNL     1      11.692  17.503  17.952  1.00  0.00     0.204 C 
BRANCH  40  41
HETATM   41  C25 UNL     1      10.895  16.270  17.729  1.00  0.00    -0.060 C 
HETATM   42  C26 UNL     1      11.212  15.076  18.266  1.00  0.00    -0.022 C 
HETATM   43  C27 UNL     1      10.199  14.050  17.839  1.00  0.00     0.028 C 
HETATM   44  C28 UNL     1       8.983  14.932  17.532  1.00  0.00     0.008 C 
HETATM   45  C29 UNL     1       9.672  16.122  16.902  1.00  0.00     0.036 C 
ENDBRANCH  40  41
ENDBRANCH  39  40
ENDBRANCH  37  39
ENDBRANCH   1  37
TORSDOF 13
ENDMDL
MODEL 4
REMARK VINA RESULT: -8.804066447      2.381      9.054
REMARK  13 active torsions:
REMARK  status: ('A' for Active; 'I' for Inactive)
REMARK    1  A    between atoms: C2_2  and  N1_3 
REMARK    2  A    between atoms: C2_2  and  O4_39 
REMARK    3  A    between atoms: C5_9  and  N3_10 
REMARK    4  A    between atoms: C8_13  and  C9_14 
REMARK    5  A    between atoms: N6_24  and  C14_25 
REMARK    6  A    between atoms: C14_25  and  C15_26 
REMARK    7  A    between atoms: C15_26  and  C16_27 
REMARK    8  A    between atoms: N7_30  and  C19_31 
REMARK    9  A    between atoms: C19_31  and  C20_32 
REMARK   10  A    between atoms: C20_32  and  C21_33 
REMARK   11  A    between atoms: C21_33  and  O2_34 
REMARK   12  A    between atoms: O4_39  and  C24_40 
REMARK   13  A    between atoms: C24_40  and  C25_41 
ROOT
HETATM    1  N1  UNL     1      20.046  23.977  15.916  1.00  0.00    -0.346 N 
ATOM      2  H1  UNL     1      20.552  23.468  16.641  1.00  0.00     0.163 HD
HETATM    3  C3  UNL     1      18.851  23.576  15.704  1.00  0.00     0.172 A 
HETATM    4  N2  UNL     1      18.042  24.121  14.796  1.00  0.00    -0.344 N 
ATOM      5  H2  UNL     1      18.371  24.900  14.226  1.00  0.00     0.167 HD
HETATM    6  C4  UNL     1      16.798  23.651  14.628  1.00  0.00     0.139 A 
HETATM    7  C5  UNL     1      16.288  22.580  15.383  1.00  0.00     0.131 A 
HETATM    8  N6  UNL     1      17.096  22.024  16.300  1.00  0.00    -0.296 N 
HETATM    9  C23 UNL     1      18.336  22.508  16.452  1.00  0.00     0.293 A 
HETATM   10  O3  UNL     1      19.109  22.008  17.300  1.00  0.00    -0.264 OA
ENDROOT
BRANCH   7  11
HETATM   11  N3  UNL     1      14.961  22.144  15.125  1.00  0.00    -0.292 N 
HETATM   12  C6  UNL     1      14.658  21.034  14.247  1.00  0.00     0.177 A 
HETATM   13  C7  UNL     1      13.178  20.922  14.213  1.00  0.00     0.018 A 
HETATM   14  C8  UNL     1      12.176  20.191  13.659  1.00  0.00     0.039 A 
HETATM   15  C12 UNL     1      12.655  21.896  15.034  1.00  0.00     0.126 A 
HETATM   16  N4  UNL     1      11.015  20.724  14.145  1.00  0.00    -0.303 N 
HETATM   17  N5  UNL     1      11.301  21.726  14.954  1.00  0.00    -0.295 N 
ATOM     18  H4  UNL     1      10.075  20.398  13.919  1.00  0.00     0.186 HD
ATOM     19  H5  UNL     1      10.612  22.293  15.449  1.00  0.00     0.187 HD
HETATM   20  C13 UNL     1      13.735  22.671  15.615  1.00  0.00     0.278 A 
HETATM   21  O1  UNL     1      13.592  23.648  16.421  1.00  0.00    -0.265 OA
BRANCH  14  22
HETATM   22  C9  UNL     1      12.230  19.043  12.715  1.00  0.00     0.029 C 
HETATM   23  C10 UNL     1      11.782  17.775  13.389  1.00  0.00     0.016 C 
HETATM   24  C11 UNL     1      11.276  19.275  11.536  1.00  0.00     0.016 C 
ENDBRANCH  14  22
ENDBRANCH   7  11
BRANCH   8  25
HETATM   25  C14 UNL     1      16.685  20.920  17.155  1.00  0.00     0.134 C 
BRANCH  25  26
HETATM   26  C15 UNL     1      16.115  21.368  18.468  1.00  0.00     0.027 C 
BRANCH  26  27
HETATM   27  C16 UNL     1      14.664  21.002  18.635  1.00  0.00     0.017 C 
HETATM   28  C17 UNL     1      14.473  20.443  20.042  1.00  0.00     0.036 C 
HETATM   29  C18 UNL     1      14.601  18.956  19.773  1.00  0.00     0.273 C 
HETATM   30  N7  UNL     1      13.941  18.788  18.545  1.00  0.00     0.088 N 
HETATM   31  C22 UNL     1      14.201  19.928  17.734  1.00  0.00     0.277 C 
BRANCH  30  32
HETATM   32  C19 UNL     1      12.612  18.288  18.557  1.00  0.00     0.274 C 
BRANCH  32  33
HETATM   33  C20 UNL     1      11.944  18.784  17.266  1.00  0.00     0.056 C 
BRANCH  33  34
HETATM   34  C21 UNL     1      10.482  18.972  17.575  1.00  0.00     0.165 C 
BRANCH  34  35
HETATM   35  O2  UNL     1      10.133  20.264  17.247  1.00  0.00    -0.401 OA
ATOM     36  H2  UNL     1       9.282  20.447  17.626  1.00  0.00     0.209 HD
ENDBRANCH  34  35
ENDBRANCH  33  34
ENDBRANCH  32  33
ENDBRANCH  30  32
ENDBRANCH  26  27
ENDBRANCH  25  26
ENDBRANCH   8  25
BRANCH   1  37
HETATM   37  C2  UNL     1      20.773  25.024  15.294  1.00  0.00     0.218 C 
HETATM   38  C1  UNL     1      21.201  24.667  13.880  1.00  0.00     0.063 C 
BRANCH  37  39
HETATM   39  O4  UNL     1      19.898  26.140  15.258  1.00  0.00    -0.363 OA
BRANCH  39  40
HETATM   40  C24 UNL     1      20.570  27.312  15.489  1.00  0.00     0.204 C 
BRANCH  40  41
HETATM   41  C25 UNL     1      21.306  27.272  16.778  1.00  0.00    -0.060 C 
HETATM   42  C26 UNL     1      20.706  27.068  17.967  1.00  0.00    -0.022 C 
HETATM   43  C27 UNL     1      21.739  27.087  19.059  1.00  0.00     0.028 C 
HETATM   44  C28 UNL     1      23.007  26.708  18.285  1.00  0.00     0.008 C 
HETATM   45  C29 UNL     1      22.762  27.456  16.993  1.00  0.00     0.036 C 
ENDBRANCH  40  41
ENDBRANCH  39  40
ENDBRANCH  37  39
ENDBRANCH   1  37
TORSDOF 13
ENDMDL
MODEL 5
REMARK VINA RESULT: -8.784361908      2.961      9.157
REMARK  13 active torsions:
REMARK  status: ('A' for Active; 'I' for Inactive)
REMARK    1  A    between atoms: C2_2  and  N1_3 
REMARK    2  A    between atoms: C2_2  and  O4_39 
REMARK    3  A    between atoms: C5_9  and  N3_10 
REMARK    4  A    between atoms: C8_13  and  C9_14 
REMARK    5  A    between atoms: N6_24  and  C14_25 
REMARK    6  A    between atoms: C14_25  and  C15_26 
REMARK    7  A    between atoms: C15_26  and  C16_27 
REMARK    8  A    between atoms: N7_30  and  C19_31 
REMARK    9  A    between atoms: C19_31  and  C20_32 
REMARK   10  A    between atoms: C20_32  and  C21_33 
REMARK   11  A    between atoms: C21_33  and  O2_34 
REMARK   12  A    between atoms: O4_39  and  C24_40 
REMARK   13  A    between atoms: C24_40  and  C25_41 
ROOT
HETATM    1  N1  UNL     1      22.149  24.710  20.018  1.00  0.00    -0.346 N 
ATOM      2  H1  UNL     1      22.046  25.679  19.718  1.00  0.00     0.163 HD
HETATM    3  C3  UNL     1      21.152  23.953  19.764  1.00  0.00     0.172 A 
HETATM    4  N2  UNL     1      21.109  22.660  20.083  1.00  0.00    -0.344 N 
ATOM      5  H2  UNL     1      21.902  22.228  20.558  1.00  0.00     0.167 HD
HETATM    6  C4  UNL     1      20.031  21.923  19.783  1.00  0.00     0.139 A 
HETATM    7  C5  UNL     1      18.908  22.461  19.131  1.00  0.00     0.131 A 
HETATM    8  N6  UNL     1      18.942  23.763  18.805  1.00  0.00    -0.296 N 
HETATM    9  C23 UNL     1      20.029  24.482  19.114  1.00  0.00     0.293 A 
HETATM   10  O3  UNL     1      20.085  25.698  18.822  1.00  0.00    -0.264 OA
ENDROOT
BRANCH   7  11
HETATM   11  N3  UNL     1      17.806  21.604  18.866  1.00  0.00    -0.292 N 
HETATM   12  C6  UNL     1      16.718  21.415  19.801  1.00  0.00     0.177 A 
HETATM   13  C7  UNL     1      15.799  20.429  19.178  1.00  0.00     0.018 A 
HETATM   14  C8  UNL     1      14.635  19.766  19.402  1.00  0.00     0.039 A 
HETATM   15  C12 UNL     1      16.315  20.080  17.950  1.00  0.00     0.126 A 
HETATM   16  N4  UNL     1      14.428  18.994  18.293  1.00  0.00    -0.303 N 
HETATM   17  N5  UNL     1      15.419  19.182  17.441  1.00  0.00    -0.295 N 
ATOM     18  H4  UNL     1      13.634  18.371  18.147  1.00  0.00     0.186 HD
ATOM     19  H5  UNL     1      15.503  18.723  16.534  1.00  0.00     0.187 HD
HETATM   20  C13 UNL     1      17.559  20.792  17.726  1.00  0.00     0.278 A 
HETATM   21  O1  UNL     1      18.288  20.695  16.685  1.00  0.00    -0.265 OA
BRANCH  14  22
HETATM   22  C9  UNL     1      13.715  19.805  20.569  1.00  0.00     0.029 C 
HETATM   23  C10 UNL     1      12.639  18.761  20.436  1.00  0.00     0.016 C 
HETATM   24  C11 UNL     1      14.477  19.487  21.861  1.00  0.00     0.016 C 
ENDBRANCH  14  22
ENDBRANCH   7  11
BRANCH   8  25
HETATM   25  C14 UNL     1      17.851  24.438  18.116  1.00  0.00     0.134 C 
BRANCH  25  26
HETATM   26  C15 UNL     1      17.888  24.256  16.628  1.00  0.00     0.027 C 
BRANCH  26  27
HETATM   27  C16 UNL     1      18.638  25.352  15.918  1.00  0.00     0.017 C 
HETATM   28  C17 UNL     1      17.804  25.802  14.722  1.00  0.00     0.036 C 
HETATM   29  C18 UNL     1      18.416  24.956  13.621  1.00  0.00     0.273 C 
HETATM   30  N7  UNL     1      19.787  24.960  13.929  1.00  0.00     0.088 N 
HETATM   31  C22 UNL     1      19.931  24.930  15.344  1.00  0.00     0.277 C 
BRANCH  30  32
HETATM   32  C19 UNL     1      20.636  25.841  13.208  1.00  0.00     0.274 C 
BRANCH  32  33
HETATM   33  C20 UNL     1      21.283  26.774  14.243  1.00  0.00     0.056 C 
BRANCH  33  34
HETATM   34  C21 UNL     1      20.660  28.132  14.057  1.00  0.00     0.165 C 
BRANCH  34  35
HETATM   35  O2  UNL     1      20.286  28.609  15.294  1.00  0.00    -0.401 OA
ATOM     36  H2  UNL     1      20.046  29.524  15.200  1.00  0.00     0.209 HD
ENDBRANCH  34  35
ENDBRANCH  33  34
ENDBRANCH  32  33
ENDBRANCH  30  32
ENDBRANCH  26  27
ENDBRANCH  25  26
ENDBRANCH   8  25
BRANCH   1  37
HETATM   37  C2  UNL     1      23.380  24.404  20.656  1.00  0.00     0.218 C 
HETATM   38  C1  UNL     1      23.210  24.158  22.146  1.00  0.00     0.063 C 
BRANCH  37  39
HETATM   39  O4  UNL     1      23.861  23.225  20.031  1.00  0.00    -0.363 OA
BRANCH  39  40
HETATM   40  C24 UNL     1      25.038  23.453  19.368  1.00  0.00     0.204 C 
BRANCH  40  41
HETATM   41  C25 UNL     1      25.896  22.241  19.350  1.00  0.00    -0.060 C 
HETATM   42  C26 UNL     1      27.049  22.140  20.039  1.00  0.00    -0.022 C 
HETATM   43  C27 UNL     1      27.659  20.787  19.798  1.00  0.00     0.028 C 
HETATM   44  C28 UNL     1      26.426  19.962  19.412  1.00  0.00     0.008 C 
HETATM   45  C29 UNL     1      25.668  20.985  18.596  1.00  0.00     0.036 C 
ENDBRANCH  40  41
ENDBRANCH  39  40
ENDBRANCH  37  39
ENDBRANCH   1  37
TORSDOF 13
ENDMDL
