MODEL 1
REMARK VINA RESULT: -8.571053742      0.000      0.000
REMARK  15 active torsions:
REMARK  status: ('A' for Active; 'I' for Inactive)
REMARK    1  A    between atoms: C3_3  and  C4_4 
REMARK    2  A    between atoms: C5_5  and  C6_6 
REMARK       I    between atoms: C6_6  and  N1_8 
REMARK    3  A    between atoms: C7_10  and  C8_11 
REMARK    4  A    between atoms: C12_15  and  O2_16 
REMARK    5  A    between atoms: C17_23  and  C18_24 
REMARK    6  A    between atoms: C22_29  and  C23_30 
REMARK    7  A    between atoms: C23_30  and  O5_31 
REMARK    8  A    between atoms: O5_31  and  C24_32 
REMARK    9  A    between atoms: C24_32  and  C25_34 
REMARK   10  A    between atoms: C25_34  and  N2_35 
REMARK   11  A    between atoms: C25_34  and  C26_39 
REMARK   12  A    between atoms: C26_39  and  C27_40 
REMARK   13  A    between atoms: C27_40  and  C28_41 
REMARK   14  A    between atoms: C28_41  and  C29_42 
REMARK   15  A    between atoms: C29_42  and  N3_43 
ROOT
HETATM    1  C4  UNL     1      16.877  22.074  16.898  1.00  0.00     0.030 C 
HETATM    2  C5  UNL     1      16.083  23.169  16.233  1.00  0.00     0.091 C 
HETATM    3  C15 UNL     1      14.585  22.997  16.540  1.00  0.00     0.007 C 
HETATM    4  C16 UNL     1      13.700  23.593  15.510  1.00  0.00     0.011 C 
HETATM    5  C17 UNL     1      14.264  21.489  16.795  1.00  0.00     0.072 C 
HETATM    6  C20 UNL     1      14.850  21.217  18.104  1.00  0.00    -0.001 A 
HETATM    7  C21 UNL     1      14.057  22.066  19.156  1.00  0.00     0.021 C 
HETATM    8  C22 UNL     1      15.257  19.940  18.634  1.00  0.00    -0.049 A 
HETATM    9  C30 UNL     1      16.553  20.341  18.675  1.00  0.00    -0.014 A 
HETATM   10  C31 UNL     1      16.302  21.669  18.187  1.00  0.00     0.030 A 
ENDROOT
BRANCH   8  11
HETATM   11  C23 UNL     1      14.680  18.684  19.125  1.00  0.00     0.213 C 
BRANCH  11  12
HETATM   12  O5  UNL     1      13.819  18.830  20.173  1.00  0.00    -0.316 OA
BRANCH  12  13
HETATM   13  C24 UNL     1      12.460  18.620  19.937  1.00  0.00     0.289 C 
HETATM   14  O6  UNL     1      11.637  18.740  20.877  1.00  0.00    -0.263 OA
BRANCH  13  15
HETATM   15  C25 UNL     1      11.936  18.252  18.593  1.00  0.00     0.282 C 
BRANCH  15  16
HETATM   16  N2  UNL     1      10.893  17.284  18.745  1.00  0.00    -0.066 N 
ATOM     17  H23 UNL     1      10.059  17.679  19.178  1.00  0.00     0.275 HD
ATOM     18  H22 UNL     1      10.479  17.017  17.852  1.00  0.00     0.275 HD
ATOM     19  H21 UNL     1      11.254  16.481  19.260  1.00  0.00     0.275 HD
ENDBRANCH  15  16
BRANCH  15  20
HETATM   20  C26 UNL     1      11.396  19.512  17.975  1.00  0.00     0.043 C 
BRANCH  20  21
HETATM   21  C27 UNL     1      11.050  19.466  16.541  1.00  0.00     0.004 C 
BRANCH  21  22
HETATM   22  C28 UNL     1      10.871  20.774  15.827  1.00  0.00     0.027 C 
BRANCH  22  23
HETATM   23  C29 UNL     1      11.155  20.682  14.343  1.00  0.00     0.229 C 
BRANCH  23  24
HETATM   24  N3  UNL     1      11.542  19.364  13.943  1.00  0.00    -0.079 N 
ATOM     25  H33 UNL     1      10.927  18.660  14.352  1.00  0.00     0.274 HD
ATOM     26  H32 UNL     1      11.338  19.205  12.957  1.00  0.00     0.274 HD
ATOM     27  H31 UNL     1      12.520  19.166  14.154  1.00  0.00     0.274 HD
ENDBRANCH  23  24
ENDBRANCH  22  23
ENDBRANCH  21  22
ENDBRANCH  20  21
ENDBRANCH  15  20
ENDBRANCH  13  15
ENDBRANCH  12  13
ENDBRANCH  11  12
ENDBRANCH   8  11
BRANCH   5  28
HETATM   28  C18 UNL     1      14.494  20.787  15.573  1.00  0.00     0.128 C 
HETATM   29  C19 UNL     1      14.993  21.210  14.260  1.00  0.00     0.091 C 
HETATM   30  O4  UNL     1      14.235  19.540  15.571  1.00  0.00    -0.298 OA
ENDBRANCH   5  28
BRANCH   1  31
HETATM   31  C3  UNL     1      18.284  22.497  17.057  1.00  0.00    -0.025 C 
HETATM   32  C2  UNL     1      18.800  22.866  18.211  1.00  0.00    -0.035 C 
HETATM   33  C1  UNL     1      20.244  23.273  18.241  1.00  0.00     0.036 C 
ENDBRANCH   1  31
BRANCH   2  34
HETATM   34  C6  UNL     1      16.499  24.535  16.624  1.00  0.00     0.226 C 
HETATM   35  O1  UNL     1      16.454  24.996  17.770  1.00  0.00    -0.273 OA
HETATM   36  N1  UNL     1      17.009  25.456  15.624  1.00  0.00    -0.340 N 
HETATM   37  C7  UNL     1      18.294  25.610  15.496  1.00  0.00     0.069 C 
ATOM     38  H1  UNL     1      16.366  25.977  15.028  1.00  0.00     0.167 HD
BRANCH  37  39
HETATM   39  C8  UNL     1      18.874  26.524  14.504  1.00  0.00     0.038 C 
HETATM   40  C9  UNL     1      18.945  25.832  13.139  1.00  0.00     0.023 C 
HETATM   41  C10 UNL     1      20.416  25.804  12.776  1.00  0.00     0.059 C 
HETATM   42  C11 UNL     1      21.055  24.802  13.710  1.00  0.00     0.044 C 
HETATM   43  C14 UNL     1      20.837  27.084  13.410  1.00  0.00     0.138 C 
HETATM   44  C12 UNL     1      20.996  25.511  15.063  1.00  0.00     0.131 C 
HETATM   45  C13 UNL     1      20.325  26.843  14.788  1.00  0.00     0.093 C 
HETATM   46  O3  UNL     1      21.414  28.042  12.978  1.00  0.00    -0.297 OA
BRANCH  44  47
HETATM   47  O2  UNL     1      22.283  25.768  15.530  1.00  0.00    -0.395 OA
ATOM     48  H2  UNL     1      22.247  26.242  16.353  1.00  0.00     0.210 HD
ENDBRANCH  44  47
ENDBRANCH  37  39
ENDBRANCH   2  34
TORSDOF 15
ENDMDL
MODEL 2
REMARK VINA RESULT: -8.486385701      1.420      2.126
REMARK  15 active torsions:
REMARK  status: ('A' for Active; 'I' for Inactive)
REMARK    1  A    between atoms: C3_3  and  C4_4 
REMARK    2  A    between atoms: C5_5  and  C6_6 
REMARK       I    between atoms: C6_6  and  N1_8 
REMARK    3  A    between atoms: C7_10  and  C8_11 
REMARK    4  A    between atoms: C12_15  and  O2_16 
REMARK    5  A    between atoms: C17_23  and  C18_24 
REMARK    6  A    between atoms: C22_29  and  C23_30 
REMARK    7  A    between atoms: C23_30  and  O5_31 
REMARK    8  A    between atoms: O5_31  and  C24_32 
REMARK    9  A    between atoms: C24_32  and  C25_34 
REMARK   10  A    between atoms: C25_34  and  N2_35 
REMARK   11  A    between atoms: C25_34  and  C26_39 
REMARK   12  A    between atoms: C26_39  and  C27_40 
REMARK   13  A    between atoms: C27_40  and  C28_41 
REMARK   14  A    between atoms: C28_41  and  C29_42 
REMARK   15  A    between atoms: C29_42  and  N3_43 
ROOT
HETATM    1  C4  UNL     1      16.701  21.982  16.704  1.00  0.00     0.030 C 
HETATM    2  C5  UNL     1      15.903  23.122  16.125  1.00  0.00     0.091 C 
HETATM    3  C15 UNL     1      14.420  22.979  16.509  1.00  0.00     0.007 C 
HETATM    4  C16 UNL     1      13.498  23.638  15.553  1.00  0.00     0.011 C 
HETATM    5  C17 UNL     1      14.071  21.471  16.726  1.00  0.00     0.072 C 
HETATM    6  C20 UNL     1      14.720  21.133  17.989  1.00  0.00    -0.001 A 
HETATM    7  C21 UNL     1      14.011  21.963  19.114  1.00  0.00     0.021 C 
HETATM    8  C22 UNL     1      15.117  19.827  18.448  1.00  0.00    -0.049 A 
HETATM    9  C30 UNL     1      16.426  20.191  18.431  1.00  0.00    -0.014 A 
HETATM   10  C31 UNL     1      16.187  21.543  18.007  1.00  0.00     0.030 A 
ENDROOT
BRANCH   8  11
HETATM   11  C23 UNL     1      14.533  18.568  18.924  1.00  0.00     0.213 C 
BRANCH  11  12
HETATM   12  O5  UNL     1      13.365  18.222  18.312  1.00  0.00    -0.316 OA
BRANCH  12  13
HETATM   13  C24 UNL     1      12.172  18.689  18.863  1.00  0.00     0.289 C 
HETATM   14  O6  UNL     1      12.122  18.992  20.081  1.00  0.00    -0.263 OA
BRANCH  13  15
HETATM   15  C25 UNL     1      10.932  18.846  18.054  1.00  0.00     0.282 C 
BRANCH  15  16
HETATM   16  N2  UNL     1      10.987  20.088  17.347  1.00  0.00    -0.066 N 
ATOM     17  H23 UNL     1      10.974  20.892  17.975  1.00  0.00     0.275 HD
ATOM     18  H22 UNL     1      11.899  20.253  16.922  1.00  0.00     0.275 HD
ATOM     19  H21 UNL     1      10.230  20.119  16.664  1.00  0.00     0.275 HD
ENDBRANCH  15  16
BRANCH  15  20
HETATM   20  C26 UNL     1      10.893  17.694  17.088  1.00  0.00     0.043 C 
BRANCH  20  21
HETATM   21  C27 UNL     1      10.264  16.443  17.553  1.00  0.00     0.004 C 
BRANCH  21  22
HETATM   22  C28 UNL     1      11.154  15.254  17.766  1.00  0.00     0.027 C 
BRANCH  22  23
HETATM   23  C29 UNL     1      10.390  14.000  18.131  1.00  0.00     0.229 C 
BRANCH  23  24
HETATM   24  N3  UNL     1      10.528  12.972  17.145  1.00  0.00    -0.079 N 
ATOM     25  H33 UNL     1       9.701  12.376  17.116  1.00  0.00     0.274 HD
ATOM     26  H32 UNL     1      10.483  13.358  16.202  1.00  0.00     0.274 HD
ATOM     27  H31 UNL     1      11.376  12.419  17.276  1.00  0.00     0.274 HD
ENDBRANCH  23  24
ENDBRANCH  22  23
ENDBRANCH  21  22
ENDBRANCH  20  21
ENDBRANCH  15  20
ENDBRANCH  13  15
ENDBRANCH  12  13
ENDBRANCH  11  12
ENDBRANCH   8  11
BRANCH   5  28
HETATM   28  C18 UNL     1      14.213  20.811  15.467  1.00  0.00     0.128 C 
HETATM   29  C19 UNL     1      15.039  21.084  14.287  1.00  0.00     0.091 C 
HETATM   30  O4  UNL     1      13.507  19.766  15.286  1.00  0.00    -0.298 OA
ENDBRANCH   5  28
BRANCH   1  31
HETATM   31  C3  UNL     1      18.126  22.361  16.799  1.00  0.00    -0.025 C 
HETATM   32  C2  UNL     1      18.690  22.774  17.916  1.00  0.00    -0.035 C 
HETATM   33  C1  UNL     1      20.148  23.129  17.883  1.00  0.00     0.036 C 
ENDBRANCH   1  31
BRANCH   2  34
HETATM   34  C6  UNL     1      16.380  24.461  16.543  1.00  0.00     0.226 C 
HETATM   35  O1  UNL     1      16.378  24.892  17.701  1.00  0.00    -0.273 OA
HETATM   36  N1  UNL     1      16.902  25.390  15.555  1.00  0.00    -0.340 N 
HETATM   37  C7  UNL     1      18.189  25.499  15.401  1.00  0.00     0.069 C 
ATOM     38  H1  UNL     1      16.266  25.950  14.988  1.00  0.00     0.167 HD
BRANCH  37  39
HETATM   39  C8  UNL     1      18.780  26.417  14.421  1.00  0.00     0.038 C 
HETATM   40  C9  UNL     1      18.947  25.704  13.076  1.00  0.00     0.023 C 
HETATM   41  C10 UNL     1      20.434  25.730  12.786  1.00  0.00     0.059 C 
HETATM   42  C11 UNL     1      21.066  24.771  13.770  1.00  0.00     0.044 C 
HETATM   43  C14 UNL     1      20.771  27.037  13.414  1.00  0.00     0.138 C 
HETATM   44  C12 UNL     1      20.911  25.502  15.105  1.00  0.00     0.131 C 
HETATM   45  C13 UNL     1      20.202  26.801  14.769  1.00  0.00     0.093 C 
HETATM   46  O3  UNL     1      21.331  28.009  12.991  1.00  0.00    -0.297 OA
BRANCH  44  47
HETATM   47  O2  UNL     1      22.161  25.820  15.628  1.00  0.00    -0.395 OA
ATOM     48  H2  UNL     1      22.201  26.743  15.850  1.00  0.00     0.210 HD
ENDBRANCH  44  47
ENDBRANCH  37  39
ENDBRANCH   2  34
TORSDOF 15
ENDMDL
MODEL 3
REMARK VINA RESULT: -8.246021790      1.331      1.534
REMARK  15 active torsions:
REMARK  status: ('A' for Active; 'I' for Inactive)
REMARK    1  A    between atoms: C3_3  and  C4_4 
REMARK    2  A    between atoms: C5_5  and  C6_6 
REMARK       I    between atoms: C6_6  and  N1_8 
REMARK    3  A    between atoms: C7_10  and  C8_11 
REMARK    4  A    between atoms: C12_15  and  O2_16 
REMARK    5  A    between atoms: C17_23  and  C18_24 
REMARK    6  A    between atoms: C22_29  and  C23_30 
REMARK    7  A    between atoms: C23_30  and  O5_31 
REMARK    8  A    between atoms: O5_31  and  C24_32 
REMARK    9  A    between atoms: C24_32  and  C25_34 
REMARK   10  A    between atoms: C25_34  and  N2_35 
REMARK   11  A    between atoms: C25_34  and  C26_39 
REMARK   12  A    between atoms: C26_39  and  C27_40 
REMARK   13  A    between atoms: C27_40  and  C28_41 
REMARK   14  A    between atoms: C28_41  and  C29_42 
REMARK   15  A    between atoms: C29_42  and  N3_43 
ROOT
HETATM    1  C4  UNL     1      16.728  22.034  16.727  1.00  0.00     0.030 C 
HETATM    2  C5  UNL     1      15.926  23.165  16.136  1.00  0.00     0.091 C 
HETATM    3  C15 UNL     1      14.443  23.019  16.518  1.00  0.00     0.007 C 
HETATM    4  C16 UNL     1      13.521  23.666  15.554  1.00  0.00     0.011 C 
HETATM    5  C17 UNL     1      14.099  21.512  16.748  1.00  0.00     0.072 C 
HETATM    6  C20 UNL     1      14.747  21.188  18.016  1.00  0.00    -0.001 A 
HETATM    7  C21 UNL     1      14.032  22.025  19.131  1.00  0.00     0.021 C 
HETATM    8  C22 UNL     1      15.149  19.888  18.486  1.00  0.00    -0.049 A 
HETATM    9  C30 UNL     1      16.456  20.257  18.469  1.00  0.00    -0.014 A 
HETATM   10  C31 UNL     1      16.212  21.605  18.033  1.00  0.00     0.030 A 
ENDROOT
BRANCH   8  11
HETATM   11  C23 UNL     1      14.569  18.631  18.973  1.00  0.00     0.213 C 
BRANCH  11  12
HETATM   12  O5  UNL     1      13.428  18.250  18.329  1.00  0.00    -0.316 OA
BRANCH  12  13
HETATM   13  C24 UNL     1      12.207  18.681  18.848  1.00  0.00     0.289 C 
HETATM   14  O6  UNL     1      12.103  18.932  20.074  1.00  0.00    -0.263 OA
BRANCH  13  15
HETATM   15  C25 UNL     1      11.001  18.858  17.994  1.00  0.00     0.282 C 
BRANCH  15  16
HETATM   16  N2  UNL     1      11.002  20.179  17.447  1.00  0.00    -0.066 N 
ATOM     17  H23 UNL     1      10.900  20.896  18.165  1.00  0.00     0.275 HD
ATOM     18  H22 UNL     1      11.920  20.454  17.100  1.00  0.00     0.275 HD
ATOM     19  H21 UNL     1      10.281  20.245  16.729  1.00  0.00     0.275 HD
ENDBRANCH  15  16
BRANCH  15  20
HETATM   20  C26 UNL     1      11.091  17.835  16.895  1.00  0.00     0.043 C 
BRANCH  20  21
HETATM   21  C27 UNL     1      10.557  16.489  17.180  1.00  0.00     0.004 C 
BRANCH  21  22
HETATM   22  C28 UNL     1      10.330  15.570  16.016  1.00  0.00     0.027 C 
BRANCH  22  23
HETATM   23  C29 UNL     1      10.515  16.251  14.677  1.00  0.00     0.229 C 
BRANCH  23  24
HETATM   24  N3  UNL     1      11.564  15.657  13.905  1.00  0.00    -0.079 N 
ATOM     25  H33 UNL     1      12.128  16.370  13.442  1.00  0.00     0.274 HD
ATOM     26  H32 UNL     1      12.278  15.249  14.507  1.00  0.00     0.274 HD
ATOM     27  H31 UNL     1      11.212  14.973  13.235  1.00  0.00     0.274 HD
ENDBRANCH  23  24
ENDBRANCH  22  23
ENDBRANCH  21  22
ENDBRANCH  20  21
ENDBRANCH  15  20
ENDBRANCH  13  15
ENDBRANCH  12  13
ENDBRANCH  11  12
ENDBRANCH   8  11
BRANCH   5  28
HETATM   28  C18 UNL     1      14.247  20.841  15.495  1.00  0.00     0.128 C 
HETATM   29  C19 UNL     1      15.075  21.107  14.315  1.00  0.00     0.091 C 
HETATM   30  O4  UNL     1      13.546  19.792  15.321  1.00  0.00    -0.298 OA
ENDBRANCH   5  28
BRANCH   1  31
HETATM   31  C3  UNL     1      18.151  22.419  16.822  1.00  0.00    -0.025 C 
HETATM   32  C2  UNL     1      18.716  22.821  17.942  1.00  0.00    -0.035 C 
HETATM   33  C1  UNL     1      20.172  23.184  17.908  1.00  0.00     0.036 C 
ENDBRANCH   1  31
BRANCH   2  34
HETATM   34  C6  UNL     1      16.397  24.509  16.543  1.00  0.00     0.226 C 
HETATM   35  O1  UNL     1      16.383  24.954  17.696  1.00  0.00    -0.273 OA
HETATM   36  N1  UNL     1      16.926  25.428  15.550  1.00  0.00    -0.340 N 
HETATM   37  C7  UNL     1      18.214  25.538  15.407  1.00  0.00     0.069 C 
ATOM     38  H1  UNL     1      16.294  25.981  14.970  1.00  0.00     0.167 HD
BRANCH  37  39
HETATM   39  C8  UNL     1      18.813  26.446  14.422  1.00  0.00     0.038 C 
HETATM   40  C9  UNL     1      18.965  25.727  13.077  1.00  0.00     0.023 C 
HETATM   41  C10 UNL     1      20.452  25.734  12.781  1.00  0.00     0.059 C 
HETATM   42  C11 UNL     1      21.075  24.770  13.766  1.00  0.00     0.044 C 
HETATM   43  C14 UNL     1      20.808  27.038  13.405  1.00  0.00     0.138 C 
HETATM   44  C12 UNL     1      20.935  25.506  15.099  1.00  0.00     0.131 C 
HETATM   45  C13 UNL     1      20.241  26.813  14.763  1.00  0.00     0.093 C 
HETATM   46  O3  UNL     1      21.378  28.002  12.977  1.00  0.00    -0.297 OA
BRANCH  44  47
HETATM   47  O2  UNL     1      22.191  25.809  15.617  1.00  0.00    -0.395 OA
ATOM     48  H2  UNL     1      22.113  26.117  16.512  1.00  0.00     0.210 HD
ENDBRANCH  44  47
ENDBRANCH  37  39
ENDBRANCH   2  34
TORSDOF 15
ENDMDL
MODEL 4
REMARK VINA RESULT: -8.150675596      1.478      2.226
REMARK  15 active torsions:
REMARK  status: ('A' for Active; 'I' for Inactive)
REMARK    1  A    between atoms: C3_3  and  C4_4 
REMARK    2  A    between atoms: C5_5  and  C6_6 
REMARK       I    between atoms: C6_6  and  N1_8 
REMARK    3  A    between atoms: C7_10  and  C8_11 
REMARK    4  A    between atoms: C12_15  and  O2_16 
REMARK    5  A    between atoms: C17_23  and  C18_24 
REMARK    6  A    between atoms: C22_29  and  C23_30 
REMARK    7  A    between atoms: C23_30  and  O5_31 
REMARK    8  A    between atoms: O5_31  and  C24_32 
REMARK    9  A    between atoms: C24_32  and  C25_34 
REMARK   10  A    between atoms: C25_34  and  N2_35 
REMARK   11  A    between atoms: C25_34  and  C26_39 
REMARK   12  A    between atoms: C26_39  and  C27_40 
REMARK   13  A    between atoms: C27_40  and  C28_41 
REMARK   14  A    between atoms: C28_41  and  C29_42 
REMARK   15  A    between atoms: C29_42  and  N3_43 
ROOT
HETATM    1  C4  UNL     1      16.774  22.051  16.517  1.00  0.00     0.030 C 
HETATM    2  C5  UNL     1      15.938  23.114  15.853  1.00  0.00     0.091 C 
HETATM    3  C15 UNL     1      14.482  23.026  16.343  1.00  0.00     0.007 C 
HETATM    4  C16 UNL     1      13.500  23.567  15.373  1.00  0.00     0.011 C 
HETATM    5  C17 UNL     1      14.151  21.558  16.765  1.00  0.00     0.072 C 
HETATM    6  C20 UNL     1      14.879  21.375  18.017  1.00  0.00    -0.001 A 
HETATM    7  C21 UNL     1      14.239  22.339  19.074  1.00  0.00     0.021 C 
HETATM    8  C22 UNL     1      15.309  20.133  18.607  1.00  0.00    -0.049 A 
HETATM    9  C30 UNL     1      16.612  20.486  18.464  1.00  0.00    -0.014 A 
HETATM   10  C31 UNL     1      16.343  21.777  17.893  1.00  0.00     0.030 A 
ENDROOT
BRANCH   8  11
HETATM   11  C23 UNL     1      14.759  18.945  19.270  1.00  0.00     0.213 C 
BRANCH  11  12
HETATM   12  O5  UNL     1      13.668  18.408  18.652  1.00  0.00    -0.316 OA
BRANCH  12  13
HETATM   13  C24 UNL     1      12.412  18.664  19.202  1.00  0.00     0.289 C 
HETATM   14  O6  UNL     1      12.300  18.878  20.434  1.00  0.00    -0.263 OA
BRANCH  13  15
HETATM   15  C25 UNL     1      11.175  18.694  18.373  1.00  0.00     0.282 C 
BRANCH  15  16
HETATM   16  N2  UNL     1      11.162  19.892  17.592  1.00  0.00    -0.066 N 
ATOM     17  H23 UNL     1      11.916  20.529  17.848  1.00  0.00     0.275 HD
ATOM     18  H22 UNL     1      11.436  19.726  16.624  1.00  0.00     0.275 HD
ATOM     19  H21 UNL     1      10.244  20.330  17.665  1.00  0.00     0.275 HD
ENDBRANCH  15  16
BRANCH  15  20
HETATM   20  C26 UNL     1      11.219  17.485  17.479  1.00  0.00     0.043 C 
BRANCH  20  21
HETATM   21  C27 UNL     1      11.044  16.166  18.118  1.00  0.00     0.004 C 
BRANCH  21  22
HETATM   22  C28 UNL     1      10.414  15.076  17.302  1.00  0.00     0.027 C 
BRANCH  22  23
HETATM   23  C29 UNL     1       9.175  14.494  17.946  1.00  0.00     0.229 C 
BRANCH  23  24
HETATM   24  N3  UNL     1       8.366  15.494  18.573  1.00  0.00    -0.079 N 
ATOM     25  H33 UNL     1       7.589  15.073  19.082  1.00  0.00     0.274 HD
ATOM     26  H32 UNL     1       8.857  15.927  19.355  1.00  0.00     0.274 HD
ATOM     27  H31 UNL     1       8.035  16.196  17.911  1.00  0.00     0.274 HD
ENDBRANCH  23  24
ENDBRANCH  22  23
ENDBRANCH  21  22
ENDBRANCH  20  21
ENDBRANCH  15  20
ENDBRANCH  13  15
ENDBRANCH  12  13
ENDBRANCH  11  12
ENDBRANCH   8  11
BRANCH   5  28
HETATM   28  C18 UNL     1      14.216  20.747  15.590  1.00  0.00     0.128 C 
HETATM   29  C19 UNL     1      14.920  20.900  14.313  1.00  0.00     0.091 C 
HETATM   30  O4  UNL     1      13.553  19.660  15.607  1.00  0.00    -0.298 OA
ENDBRANCH   5  28
BRANCH   1  31
HETATM   31  C3  UNL     1      18.201  22.431  16.475  1.00  0.00    -0.025 C 
HETATM   32  C2  UNL     1      18.807  23.061  17.461  1.00  0.00    -0.035 C 
HETATM   33  C1  UNL     1      20.262  23.392  17.298  1.00  0.00     0.036 C 
ENDBRANCH   1  31
BRANCH   2  34
HETATM   34  C6  UNL     1      16.435  24.492  16.073  1.00  0.00     0.226 C 
HETATM   35  O1  UNL     1      16.514  25.058  17.169  1.00  0.00    -0.273 OA
HETATM   36  N1  UNL     1      16.879  25.295  14.947  1.00  0.00    -0.340 N 
HETATM   37  C7  UNL     1      18.151  25.381  14.689  1.00  0.00     0.069 C 
ATOM     38  H1  UNL     1      16.201  25.786  14.364  1.00  0.00     0.167 HD
BRANCH  37  39
HETATM   39  C8  UNL     1      18.665  26.174  13.566  1.00  0.00     0.038 C 
HETATM   40  C9  UNL     1      19.889  25.482  12.957  1.00  0.00     0.023 C 
HETATM   41  C10 UNL     1      21.032  26.465  13.118  1.00  0.00     0.059 C 
HETATM   42  C11 UNL     1      21.347  26.497  14.596  1.00  0.00     0.044 C 
HETATM   43  C14 UNL     1      20.269  27.735  12.968  1.00  0.00     0.138 C 
HETATM   44  C12 UNL     1      20.130  27.207  15.189  1.00  0.00     0.131 C 
HETATM   45  C13 UNL     1      19.228  27.508  14.007  1.00  0.00     0.093 C 
HETATM   46  O3  UNL     1      20.417  28.678  12.243  1.00  0.00    -0.297 OA
BRANCH  44  47
HETATM   47  O2  UNL     1      20.509  28.419  15.759  1.00  0.00    -0.395 OA
ATOM     48  H2  UNL     1      20.640  28.317  16.695  1.00  0.00     0.210 HD
ENDBRANCH  44  47
ENDBRANCH  37  39
ENDBRANCH   2  34
TORSDOF 15
ENDMDL
MODEL 5
REMARK VINA RESULT: -7.963133085      1.789      2.267
REMARK  15 active torsions:
REMARK  status: ('A' for Active; 'I' for Inactive)
REMARK    1  A    between atoms: C3_3  and  C4_4 
REMARK    2  A    between atoms: C5_5  and  C6_6 
REMARK       I    between atoms: C6_6  and  N1_8 
REMARK    3  A    between atoms: C7_10  and  C8_11 
REMARK    4  A    between atoms: C12_15  and  O2_16 
REMARK    5  A    between atoms: C17_23  and  C18_24 
REMARK    6  A    between atoms: C22_29  and  C23_30 
REMARK    7  A    between atoms: C23_30  and  O5_31 
REMARK    8  A    between atoms: O5_31  and  C24_32 
REMARK    9  A    between atoms: C24_32  and  C25_34 
REMARK   10  A    between atoms: C25_34  and  N2_35 
REMARK   11  A    between atoms: C25_34  and  C26_39 
REMARK   12  A    between atoms: C26_39  and  C27_40 
REMARK   13  A    between atoms: C27_40  and  C28_41 
REMARK   14  A    between atoms: C28_41  and  C29_42 
REMARK   15  A    between atoms: C29_42  and  N3_43 
ROOT
HETATM    1  C4  UNL     1      17.686  22.321  18.992  1.00  0.00     0.030 C 
HETATM    2  C5  UNL     1      17.811  23.281  17.837  1.00  0.00     0.091 C 
HETATM    3  C15 UNL     1      16.473  23.381  17.085  1.00  0.00     0.007 C 
HETATM    4  C16 UNL     1      16.624  23.778  15.664  1.00  0.00     0.011 C 
HETATM    5  C17 UNL     1      15.671  22.049  17.246  1.00  0.00     0.072 C 
HETATM    6  C20 UNL     1      15.215  22.074  18.633  1.00  0.00    -0.001 A 
HETATM    7  C21 UNL     1      14.207  23.266  18.770  1.00  0.00     0.021 C 
HETATM    8  C22 UNL     1      14.840  20.950  19.451  1.00  0.00    -0.049 A 
HETATM    9  C30 UNL     1      15.876  21.187  20.297  1.00  0.00    -0.014 A 
HETATM   10  C31 UNL     1      16.353  22.353  19.605  1.00  0.00     0.030 A 
ENDROOT
BRANCH   8  11
HETATM   11  C23 UNL     1      13.771  19.953  19.585  1.00  0.00     0.213 C 
BRANCH  11  12
HETATM   12  O5  UNL     1      13.281  19.490  18.399  1.00  0.00    -0.316 OA
BRANCH  12  13
HETATM   13  C24 UNL     1      11.907  19.278  18.296  1.00  0.00     0.289 C 
HETATM   14  O6  UNL     1      11.259  18.882  19.296  1.00  0.00    -0.263 OA
BRANCH  13  15
HETATM   15  C25 UNL     1      11.162  19.505  17.027  1.00  0.00     0.282 C 
BRANCH  15  16
HETATM   16  N2  UNL     1      10.168  20.511  17.240  1.00  0.00    -0.066 N 
ATOM     17  H23 UNL     1      10.504  21.267  17.836  1.00  0.00     0.275 HD
ATOM     18  H22 UNL     1       9.987  21.060  16.400  1.00  0.00     0.275 HD
ATOM     19  H21 UNL     1       9.322  20.074  17.607  1.00  0.00     0.275 HD
ENDBRANCH  15  16
BRANCH  15  20
HETATM   20  C26 UNL     1      12.167  19.967  16.008  1.00  0.00     0.043 C 
BRANCH  20  21
HETATM   21  C27 UNL     1      11.645  20.455  14.717  1.00  0.00     0.004 C 
BRANCH  21  22
HETATM   22  C28 UNL     1      11.722  21.929  14.448  1.00  0.00     0.027 C 
BRANCH  22  23
HETATM   23  C29 UNL     1      13.100  22.505  14.693  1.00  0.00     0.229 C 
BRANCH  23  24
HETATM   24  N3  UNL     1      13.064  23.666  15.529  1.00  0.00    -0.079 N 
ATOM     25  H33 UNL     1      12.196  24.186  15.398  1.00  0.00     0.274 HD
ATOM     26  H32 UNL     1      12.954  23.410  16.510  1.00  0.00     0.274 HD
ATOM     27  H31 UNL     1      13.878  24.267  15.394  1.00  0.00     0.274 HD
ENDBRANCH  23  24
ENDBRANCH  22  23
ENDBRANCH  21  22
ENDBRANCH  20  21
ENDBRANCH  15  20
ENDBRANCH  13  15
ENDBRANCH  12  13
ENDBRANCH  11  12
ENDBRANCH   8  11
BRANCH   5  28
HETATM   28  C18 UNL     1      16.411  21.019  16.589  1.00  0.00     0.128 C 
HETATM   29  C19 UNL     1      17.393  20.040  17.065  1.00  0.00     0.091 C 
HETATM   30  O4  UNL     1      16.209  20.877  15.339  1.00  0.00    -0.298 OA
ENDBRANCH   5  28
BRANCH   1  31
HETATM   31  C3  UNL     1      18.736  22.597  19.994  1.00  0.00    -0.025 C 
HETATM   32  C2  UNL     1      19.667  21.725  20.323  1.00  0.00    -0.035 C 
HETATM   33  C1  UNL     1      20.679  22.127  21.355  1.00  0.00     0.036 C 
ENDBRANCH   1  31
BRANCH   2  34
HETATM   34  C6  UNL     1      18.243  24.641  18.232  1.00  0.00     0.226 C 
HETATM   35  O1  UNL     1      18.340  25.052  19.394  1.00  0.00    -0.273 OA
HETATM   36  N1  UNL     1      18.591  25.619  17.216  1.00  0.00    -0.340 N 
HETATM   37  C7  UNL     1      19.844  25.817  16.926  1.00  0.00     0.069 C 
ATOM     38  H1  UNL     1      17.862  26.145  16.735  1.00  0.00     0.167 HD
BRANCH  37  39
HETATM   39  C8  UNL     1      20.263  26.790  15.910  1.00  0.00     0.038 C 
HETATM   40  C9  UNL     1      19.094  27.090  14.966  1.00  0.00     0.023 C 
HETATM   41  C10 UNL     1      19.568  26.668  13.589  1.00  0.00     0.059 C 
HETATM   42  C11 UNL     1      19.620  25.157  13.613  1.00  0.00     0.044 C 
HETATM   43  C14 UNL     1      21.013  26.998  13.729  1.00  0.00     0.138 C 
HETATM   44  C12 UNL     1      20.801  24.871  14.542  1.00  0.00     0.131 C 
HETATM   45  C13 UNL     1      21.311  26.233  14.971  1.00  0.00     0.093 C 
HETATM   46  O3  UNL     1      21.750  27.671  13.065  1.00  0.00    -0.297 OA
BRANCH  44  47
HETATM   47  O2  UNL     1      21.821  24.232  13.842  1.00  0.00    -0.395 OA
ATOM     48  H2  UNL     1      22.147  24.795  13.149  1.00  0.00     0.210 HD
ENDBRANCH  44  47
ENDBRANCH  37  39
ENDBRANCH   2  34
TORSDOF 15
ENDMDL
