MODEL 1
REMARK VINA RESULT: -5.549345579      0.000      0.000
REMARK  2 active torsions:
REMARK  status: ('A' for Active; 'I' for Inactive)
REMARK    1  A    between atoms: N1_1  and  N2_4 
REMARK       I    between atoms: N2_4  and  C1_6 
REMARK       I    between atoms: C1_6  and  N3_8 
REMARK    2  A    between atoms: N3_8  and  C2_10 
ROOT
HETATM    1  C2  UNL     1      38.980  16.324  31.223  1.00  0.00     0.193 A 
HETATM    2  N4  UNL     1      39.210  16.644  29.971  1.00  0.00    -0.290 N 
ATOM      3  H4  UNL     1      39.935  17.298  29.675  1.00  0.00     0.172 HD
HETATM    4  C3  UNL     1      38.344  15.985  29.090  1.00  0.00     0.316 A 
HETATM    5  O2  UNL     1      38.308  16.078  27.810  1.00  0.00    -0.262 OA
HETATM    6  C4  UNL     1      37.467  15.150  29.896  1.00  0.00     0.316 A 
HETATM    7  O3  UNL     1      36.544  14.391  29.516  1.00  0.00    -0.262 OA
HETATM    8  N5  UNL     1      37.910  15.400  31.244  1.00  0.00    -0.290 N 
ATOM      9  H5  UNL     1      37.514  14.976  32.083  1.00  0.00     0.172 HD
ENDROOT
BRANCH   1  10
HETATM   10  N3  UNL     1      39.724  16.857  32.321  1.00  0.00    -0.279 N 
HETATM   11  C1  UNL     1      39.164  17.192  33.574  1.00  0.00     0.341 C 
HETATM   12  N2  UNL     1      39.992  17.725  34.625  1.00  0.00    -0.258 N 
HETATM   13  O1  UNL     1      37.935  17.028  33.782  1.00  0.00    -0.245 OA
ATOM     14  H2  UNL     1      40.992  17.871  34.488  1.00  0.00     0.191 HD
ATOM     15  H3  UNL     1      40.725  17.006  32.192  1.00  0.00     0.173 HD
BRANCH  12  16
HETATM   16  N1  UNL     1      39.374  18.035  35.836  1.00  0.00    -0.341 N 
ATOM     17  H12 UNL     1      38.526  17.546  36.121  1.00  0.00     0.177 HD
ATOM     18  H11 UNL     1      39.803  18.760  36.412  1.00  0.00     0.177 HD
ENDBRANCH  12  16
ENDBRANCH   1  10
TORSDOF 2
ENDMDL
MODEL 2
REMARK VINA RESULT: -5.479699835      1.532      2.148
REMARK  2 active torsions:
REMARK  status: ('A' for Active; 'I' for Inactive)
REMARK    1  A    between atoms: N1_1  and  N2_4 
REMARK       I    between atoms: N2_4  and  C1_6 
REMARK       I    between atoms: C1_6  and  N3_8 
REMARK    2  A    between atoms: N3_8  and  C2_10 
ROOT
HETATM    1  C2  UNL     1      40.123  16.657  31.359  1.00  0.00     0.193 A 
HETATM    2  N4  UNL     1      38.898  16.348  31.715  1.00  0.00    -0.290 N 
ATOM      3  H4  UNL     1      38.545  16.427  32.668  1.00  0.00     0.172 HD
HETATM    4  C3  UNL     1      38.132  15.896  30.633  1.00  0.00     0.316 A 
HETATM    5  O2  UNL     1      36.905  15.519  30.644  1.00  0.00    -0.262 OA
HETATM    6  C4  UNL     1      38.989  15.929  29.458  1.00  0.00     0.316 A 
HETATM    7  O3  UNL     1      38.711  15.611  28.278  1.00  0.00    -0.262 OA
HETATM    8  N5  UNL     1      40.244  16.420  29.971  1.00  0.00    -0.290 N 
ATOM      9  H5  UNL     1      41.088  16.572  29.418  1.00  0.00     0.172 HD
ENDROOT
BRANCH   1  10
HETATM   10  N3  UNL     1      41.109  17.143  32.274  1.00  0.00    -0.279 N 
HETATM   11  C1  UNL     1      40.815  17.873  33.446  1.00  0.00     0.341 C 
HETATM   12  N2  UNL     1      41.875  18.324  34.311  1.00  0.00    -0.258 N 
HETATM   13  O1  UNL     1      39.623  18.136  33.746  1.00  0.00    -0.245 OA
ATOM     14  H2  UNL     1      42.853  18.127  34.096  1.00  0.00     0.191 HD
ATOM     15  H3  UNL     1      42.089  16.950  32.065  1.00  0.00     0.173 HD
BRANCH  12  16
HETATM   16  N1  UNL     1      41.514  19.039  35.452  1.00  0.00    -0.341 N 
ATOM     17  H12 UNL     1      40.991  18.585  36.200  1.00  0.00     0.177 HD
ATOM     18  H11 UNL     1      41.794  20.019  35.502  1.00  0.00     0.177 HD
ENDBRANCH  12  16
ENDBRANCH   1  10
TORSDOF 2
ENDMDL
MODEL 3
REMARK VINA RESULT: -5.459711945      0.133      1.627
REMARK  2 active torsions:
REMARK  status: ('A' for Active; 'I' for Inactive)
REMARK    1  A    between atoms: N1_1  and  N2_4 
REMARK       I    between atoms: N2_4  and  C1_6 
REMARK       I    between atoms: C1_6  and  N3_8 
REMARK    2  A    between atoms: N3_8  and  C2_10 
ROOT
HETATM    1  C2  UNL     1      39.063  16.361  31.185  1.00  0.00     0.193 A 
HETATM    2  N4  UNL     1      38.061  15.514  31.229  1.00  0.00    -0.290 N 
ATOM      3  H4  UNL     1      37.692  15.113  32.091  1.00  0.00     0.172 HD
HETATM    4  C3  UNL     1      37.557  15.226  29.954  1.00  0.00     0.316 A 
HETATM    5  O2  UNL     1      36.586  14.443  29.653  1.00  0.00    -0.262 OA
HETATM    6  C4  UNL     1      38.346  15.990  28.999  1.00  0.00     0.316 A 
HETATM    7  O3  UNL     1      38.236  16.031  27.751  1.00  0.00    -0.262 OA
HETATM    8  N5  UNL     1      39.289  16.695  29.830  1.00  0.00    -0.290 N 
ATOM      9  H5  UNL     1      40.008  17.335  29.493  1.00  0.00     0.172 HD
ENDROOT
BRANCH   1  10
HETATM   10  N3  UNL     1      39.756  16.820  32.348  1.00  0.00    -0.279 N 
HETATM   11  C1  UNL     1      39.125  17.194  33.554  1.00  0.00     0.341 C 
HETATM   12  N2  UNL     1      39.905  17.646  34.678  1.00  0.00    -0.258 N 
HETATM   13  O1  UNL     1      37.873  17.137  33.658  1.00  0.00    -0.245 OA
ATOM     14  H2  UNL     1      40.922  17.704  34.626  1.00  0.00     0.191 HD
ATOM     15  H3  UNL     1      40.774  16.881  32.303  1.00  0.00     0.173 HD
BRANCH  12  16
HETATM   16  N1  UNL     1      39.218  18.001  35.838  1.00  0.00    -0.341 N 
ATOM     17  H12 UNL     1      39.306  18.942  36.220  1.00  0.00     0.177 HD
ATOM     18  H11 UNL     1      38.635  17.288  36.277  1.00  0.00     0.177 HD
ENDBRANCH  12  16
ENDBRANCH   1  10
TORSDOF 2
ENDMDL
MODEL 4
REMARK VINA RESULT: -5.422594928      2.343      5.478
REMARK  2 active torsions:
REMARK  status: ('A' for Active; 'I' for Inactive)
REMARK    1  A    between atoms: N1_1  and  N2_4 
REMARK       I    between atoms: N2_4  and  C1_6 
REMARK       I    between atoms: C1_6  and  N3_8 
REMARK    2  A    between atoms: N3_8  and  C2_10 
ROOT
HETATM    1  C2  UNL     1      40.505  17.282  32.565  1.00  0.00     0.193 A 
HETATM    2  N4  UNL     1      41.508  17.965  33.066  1.00  0.00    -0.290 N 
ATOM      3  H4  UNL     1      42.422  18.043  32.620  1.00  0.00     0.172 HD
HETATM    4  C3  UNL     1      41.176  18.575  34.282  1.00  0.00     0.316 A 
HETATM    5  O2  UNL     1      41.927  19.308  35.022  1.00  0.00    -0.262 OA
HETATM    6  C4  UNL     1      39.794  18.226  34.573  1.00  0.00     0.316 A 
HETATM    7  O3  UNL     1      39.096  18.559  35.560  1.00  0.00    -0.262 OA
HETATM    8  N5  UNL     1      39.411  17.404  33.453  1.00  0.00    -0.290 N 
ATOM      9  H5  UNL     1      38.495  16.976  33.321  1.00  0.00     0.172 HD
ENDROOT
BRANCH   1  10
HETATM   10  N3  UNL     1      40.581  16.564  31.331  1.00  0.00    -0.279 N 
HETATM   11  C1  UNL     1      39.475  15.962  30.692  1.00  0.00     0.341 C 
HETATM   12  N2  UNL     1      39.644  15.257  29.448  1.00  0.00    -0.258 N 
HETATM   13  O1  UNL     1      38.329  16.036  31.206  1.00  0.00    -0.245 OA
ATOM     14  H2  UNL     1      40.560  15.178  29.005  1.00  0.00     0.191 HD
ATOM     15  H3  UNL     1      41.493  16.481  30.883  1.00  0.00     0.173 HD
BRANCH  12  16
HETATM   16  N1  UNL     1      38.510  14.686  28.872  1.00  0.00    -0.341 N 
ATOM     17  H12 UNL     1      38.038  13.905  29.328  1.00  0.00     0.177 HD
ATOM     18  H11 UNL     1      38.182  15.078  27.989  1.00  0.00     0.177 HD
ENDBRANCH  12  16
ENDBRANCH   1  10
TORSDOF 2
ENDMDL
MODEL 5
REMARK VINA RESULT: -5.410782118      1.073      1.077
REMARK  2 active torsions:
REMARK  status: ('A' for Active; 'I' for Inactive)
REMARK    1  A    between atoms: N1_1  and  N2_4 
REMARK       I    between atoms: N2_4  and  C1_6 
REMARK       I    between atoms: C1_6  and  N3_8 
REMARK    2  A    between atoms: N3_8  and  C2_10 
ROOT
HETATM    1  C2  UNL     1      39.685  16.456  31.084  1.00  0.00     0.193 A 
HETATM    2  N4  UNL     1      39.698  16.669  29.789  1.00  0.00    -0.290 N 
ATOM      3  H4  UNL     1      40.423  17.200  29.307  1.00  0.00     0.172 HD
HETATM    4  C3  UNL     1      38.601  16.082  29.146  1.00  0.00     0.316 A 
HETATM    5  O2  UNL     1      38.323  16.104  27.893  1.00  0.00    -0.262 OA
HETATM    6  C4  UNL     1      37.807  15.421  30.171  1.00  0.00     0.316 A 
HETATM    7  O3  UNL     1      36.743  14.773  30.037  1.00  0.00    -0.262 OA
HETATM    8  N5  UNL     1      38.537  15.687  31.385  1.00  0.00    -0.290 N 
ATOM      9  H5  UNL     1      38.267  15.370  32.316  1.00  0.00     0.172 HD
ENDROOT
BRANCH   1  10
HETATM   10  N3  UNL     1      40.691  16.948  31.973  1.00  0.00    -0.279 N 
HETATM   11  C1  UNL     1      40.423  17.575  33.209  1.00  0.00     0.341 C 
HETATM   12  N2  UNL     1      41.502  18.040  34.042  1.00  0.00    -0.258 N 
HETATM   13  O1  UNL     1      39.237  17.733  33.595  1.00  0.00    -0.245 OA
ATOM     14  H2  UNL     1      42.476  17.927  33.758  1.00  0.00     0.191 HD
ATOM     15  H3  UNL     1      41.667  16.839  31.695  1.00  0.00     0.173 HD
BRANCH  12  16
HETATM   16  N1  UNL     1      41.166  18.650  35.250  1.00  0.00    -0.341 N 
ATOM     17  H12 UNL     1      40.448  18.244  35.850  1.00  0.00     0.177 HD
ATOM     18  H11 UNL     1      41.663  19.505  35.500  1.00  0.00     0.177 HD
ENDBRANCH  12  16
ENDBRANCH   1  10
TORSDOF 2
ENDMDL
