MODEL 1
REMARK VINA RESULT: -5.745415790      0.000      0.000
REMARK  1 active torsions:
REMARK  status: ('A' for Active; 'I' for Inactive)
REMARK       I    between atoms: C1_4  and  N3_6 
REMARK    1  A    between atoms: N3_6  and  N4_8 
ROOT
HETATM    1  N4  UNL     1      38.638  16.061  31.525  1.00  0.00    -0.150 N 
HETATM    2  C2  UNL     1      37.345  16.061  31.890  1.00  0.00     0.353 A 
HETATM    3  O1  UNL     1      36.504  15.508  31.142  1.00  0.00    -0.244 OA
HETATM    4  N5  UNL     1      36.975  16.657  33.057  1.00  0.00    -0.259 N 
ATOM      5  H5  UNL     1      35.990  16.648  33.320  1.00  0.00     0.175 HD
HETATM    6  C3  UNL     1      37.852  17.257  33.877  1.00  0.00     0.332 A 
HETATM    7  O2  UNL     1      37.444  17.791  34.944  1.00  0.00    -0.246 OA
HETATM    8  N6  UNL     1      39.146  17.255  33.511  1.00  0.00    -0.259 N 
ATOM      9  H6  UNL     1      39.847  17.699  34.104  1.00  0.00     0.175 HD
HETATM   10  C4  UNL     1      39.509  16.665  32.358  1.00  0.00     0.353 A 
HETATM   11  O3  UNL     1      40.736  16.661  32.004  1.00  0.00    -0.244 OA
ENDROOT
BRANCH   1  12
HETATM   12  N3  UNL     1      39.086  15.459  30.328  1.00  0.00    -0.259 N 
HETATM   13  C1  UNL     1      38.872  15.969  29.049  1.00  0.00     0.201 C 
HETATM   14  N1  UNL     1      37.841  15.591  28.381  1.00  0.00    -0.372 N 
HETATM   15  N2  UNL     1      39.757  16.897  28.446  1.00  0.00    -0.062 NA
ATOM     16  H12 UNL     1      37.685  15.963  27.445  1.00  0.00     0.158 HD
ATOM     17  H11 UNL     1      37.204  14.923  28.815  1.00  0.00     0.158 HD
ATOM     18  H3  UNL     1      39.605  14.585  30.406  1.00  0.00     0.190 HD
ENDBRANCH   1  12
TORSDOF 1
ENDMDL
MODEL 2
REMARK VINA RESULT: -5.697458823      2.050      3.113
REMARK  1 active torsions:
REMARK  status: ('A' for Active; 'I' for Inactive)
REMARK       I    between atoms: C1_4  and  N3_6 
REMARK    1  A    between atoms: N3_6  and  N4_8 
ROOT
HETATM    1  N4  UNL     1      38.268  16.063  30.832  1.00  0.00    -0.150 N 
HETATM    2  C2  UNL     1      38.222  16.570  32.075  1.00  0.00     0.353 A 
HETATM    3  O1  UNL     1      37.117  16.636  32.663  1.00  0.00    -0.244 OA
HETATM    4  N5  UNL     1      39.370  16.999  32.670  1.00  0.00    -0.259 N 
ATOM      5  H5  UNL     1      39.318  17.381  33.614  1.00  0.00     0.175 HD
HETATM    6  C3  UNL     1      40.567  16.942  32.066  1.00  0.00     0.332 A 
HETATM    7  O2  UNL     1      41.592  17.357  32.673  1.00  0.00    -0.246 OA
HETATM    8  N6  UNL     1      40.612  16.434  30.822  1.00  0.00    -0.259 N 
ATOM      9  H6  UNL     1      41.500  16.370  30.326  1.00  0.00     0.175 HD
HETATM   10  C4  UNL     1      39.477  16.010  30.237  1.00  0.00     0.353 A 
HETATM   11  O3  UNL     1      39.513  15.527  29.056  1.00  0.00    -0.244 OA
ENDROOT
BRANCH   1  12
HETATM   12  N3  UNL     1      37.114  15.601  30.161  1.00  0.00    -0.259 N 
HETATM   13  C1  UNL     1      36.541  14.343  30.331  1.00  0.00     0.201 C 
HETATM   14  N1  UNL     1      36.888  13.378  29.556  1.00  0.00    -0.372 N 
HETATM   15  N2  UNL     1      35.576  14.081  31.336  1.00  0.00    -0.062 NA
ATOM     16  H12 UNL     1      36.468  12.457  29.681  1.00  0.00     0.158 HD
ATOM     17  H11 UNL     1      37.583  13.567  28.833  1.00  0.00     0.158 HD
ATOM     18  H3  UNL     1      36.667  16.237  29.501  1.00  0.00     0.190 HD
ENDBRANCH   1  12
TORSDOF 1
ENDMDL
MODEL 3
REMARK VINA RESULT: -5.647383831      1.524      4.701
REMARK  1 active torsions:
REMARK  status: ('A' for Active; 'I' for Inactive)
REMARK       I    between atoms: C1_4  and  N3_6 
REMARK    1  A    between atoms: N3_6  and  N4_8 
ROOT
HETATM    1  N4  UNL     1      38.794  16.326  32.107  1.00  0.00    -0.150 N 
HETATM    2  C2  UNL     1      39.867  16.281  31.300  1.00  0.00     0.353 A 
HETATM    3  O1  UNL     1      41.005  16.457  31.794  1.00  0.00    -0.244 OA
HETATM    4  N5  UNL     1      39.699  16.046  29.969  1.00  0.00    -0.259 N 
ATOM      5  H5  UNL     1      40.524  16.014  29.370  1.00  0.00     0.175 HD
HETATM    6  C3  UNL     1      38.493  15.854  29.411  1.00  0.00     0.332 A 
HETATM    7  O2  UNL     1      38.407  15.642  28.171  1.00  0.00    -0.246 OA
HETATM    8  N6  UNL     1      37.421  15.899  30.220  1.00  0.00    -0.259 N 
ATOM      9  H6  UNL     1      36.485  15.758  29.839  1.00  0.00     0.175 HD
HETATM   10  C4  UNL     1      37.589  16.130  31.534  1.00  0.00     0.353 A 
HETATM   11  O3  UNL     1      36.574  16.175  32.307  1.00  0.00    -0.244 OA
ENDROOT
BRANCH   1  12
HETATM   12  N3  UNL     1      38.901  16.565  33.495  1.00  0.00    -0.259 N 
HETATM   13  C1  UNL     1      39.212  17.794  34.073  1.00  0.00     0.201 C 
HETATM   14  N1  UNL     1      40.438  18.078  34.337  1.00  0.00    -0.372 N 
HETATM   15  N2  UNL     1      38.219  18.755  34.387  1.00  0.00    -0.062 NA
ATOM     16  H12 UNL     1      40.665  18.977  34.760  1.00  0.00     0.158 HD
ATOM     17  H11 UNL     1      41.152  17.387  34.110  1.00  0.00     0.158 HD
ATOM     18  H3  UNL     1      38.739  15.777  34.122  1.00  0.00     0.190 HD
ENDBRANCH   1  12
TORSDOF 1
ENDMDL
MODEL 4
REMARK VINA RESULT: -5.634103146      0.068      2.167
REMARK  1 active torsions:
REMARK  status: ('A' for Active; 'I' for Inactive)
REMARK       I    between atoms: C1_4  and  N3_6 
REMARK    1  A    between atoms: N3_6  and  N4_8 
ROOT
HETATM    1  N4  UNL     1      38.666  16.069  31.542  1.00  0.00    -0.150 N 
HETATM    2  C2  UNL     1      39.521  16.699  32.364  1.00  0.00     0.353 A 
HETATM    3  O1  UNL     1      40.735  16.743  32.057  1.00  0.00    -0.244 OA
HETATM    4  N5  UNL     1      39.055  17.274  33.508  1.00  0.00    -0.259 N 
ATOM      5  H5  UNL     1      39.717  17.749  34.120  1.00  0.00     0.175 HD
HETATM    6  C3  UNL     1      37.761  17.242  33.863  1.00  0.00     0.332 A 
HETATM    7  O2  UNL     1      37.395  17.794  34.935  1.00  0.00    -0.246 OA
HETATM    8  N6  UNL     1      36.906  16.612  33.038  1.00  0.00    -0.259 N 
ATOM      9  H6  UNL     1      35.914  16.564  33.268  1.00  0.00     0.175 HD
HETATM   10  C4  UNL     1      37.368  16.045  31.909  1.00  0.00     0.353 A 
HETATM   11  O3  UNL     1      36.562  15.444  31.123  1.00  0.00    -0.244 OA
ENDROOT
BRANCH   1  12
HETATM   12  N3  UNL     1      39.085  15.453  30.342  1.00  0.00    -0.259 N 
HETATM   13  C1  UNL     1      38.898  15.979  29.066  1.00  0.00     0.201 C 
HETATM   14  N1  UNL     1      37.851  15.655  28.394  1.00  0.00    -0.372 N 
HETATM   15  N2  UNL     1      39.828  16.866  28.469  1.00  0.00    -0.062 NA
ATOM     16  H12 UNL     1      37.714  16.041  27.460  1.00  0.00     0.158 HD
ATOM     17  H11 UNL     1      37.181  15.017  28.824  1.00  0.00     0.158 HD
ATOM     18  H3  UNL     1      39.561  14.554  30.415  1.00  0.00     0.190 HD
ENDBRANCH   1  12
TORSDOF 1
ENDMDL
MODEL 5
REMARK VINA RESULT: -5.579062587      1.509      4.218
REMARK  1 active torsions:
REMARK  status: ('A' for Active; 'I' for Inactive)
REMARK       I    between atoms: C1_4  and  N3_6 
REMARK    1  A    between atoms: N3_6  and  N4_8 
ROOT
HETATM    1  N4  UNL     1      38.789  16.348  32.140  1.00  0.00    -0.150 N 
HETATM    2  C2  UNL     1      37.593  16.104  31.581  1.00  0.00     0.353 A 
HETATM    3  O1  UNL     1      36.569  16.137  32.303  1.00  0.00    -0.244 OA
HETATM    4  N5  UNL     1      37.515  15.828  30.249  1.00  0.00    -0.259 N 
ATOM      5  H5  UNL     1      36.599  15.646  29.841  1.00  0.00     0.175 HD
HETATM    6  C3  UNL     1      38.594  15.785  29.452  1.00  0.00     0.332 A 
HETATM    7  O2  UNL     1      38.453  15.523  28.227  1.00  0.00    -0.246 OA
HETATM    8  N6  UNL     1      39.791  16.030  30.013  1.00  0.00    -0.259 N 
ATOM      9  H6  UNL     1      40.637  16.009  29.444  1.00  0.00     0.175 HD
HETATM   10  C4  UNL     1      39.865  16.303  31.327  1.00  0.00     0.353 A 
HETATM   11  O3  UNL     1      40.999  16.535  31.866  1.00  0.00    -0.244 OA
ENDROOT
BRANCH   1  12
HETATM   12  N3  UNL     1      38.937  16.640  33.514  1.00  0.00    -0.259 N 
HETATM   13  C1  UNL     1      38.995  17.922  34.057  1.00  0.00     0.201 C 
HETATM   14  N1  UNL     1      40.137  18.487  34.225  1.00  0.00    -0.372 N 
HETATM   15  N2  UNL     1      37.831  18.636  34.437  1.00  0.00    -0.062 NA
ATOM     16  H12 UNL     1      40.179  19.425  34.623  1.00  0.00     0.158 HD
ATOM     17  H11 UNL     1      40.975  17.973  33.951  1.00  0.00     0.158 HD
ATOM     18  H3  UNL     1      39.007  15.853  34.158  1.00  0.00     0.190 HD
ENDBRANCH   1  12
TORSDOF 1
ENDMDL
