MODEL 1
REMARK VINA RESULT: -5.660263605      0.000      0.000
REMARK  3 active torsions:
REMARK  status: ('A' for Active; 'I' for Inactive)
REMARK    1  A    between atoms: C3_7  and  N3_8 
REMARK    2  A    between atoms: N4_11  and  N5_12 
REMARK       I    between atoms: N5_12  and  C4_14 
REMARK    3  A    between atoms: N7_16  and  N8_18 
ROOT
HETATM    1  C1  UNL     1      35.637  14.152  31.070  1.00  0.00     0.093 C 
HETATM    2  C2  UNL     1      36.832  14.681  30.366  1.00  0.00     0.133 A 
HETATM    3  N1  UNL     1      37.452  14.036  29.325  1.00  0.00    -0.273 N 
ATOM      4  H1  UNL     1      37.169  13.142  28.925  1.00  0.00     0.189 HD
HETATM    5  N2  UNL     1      38.474  14.765  28.929  1.00  0.00    -0.129 N 
ATOM      6  H2  UNL     1      39.105  14.515  28.168  1.00  0.00     0.205 HD
HETATM    7  C3  UNL     1      38.569  15.874  29.660  1.00  0.00     0.713 A 
HETATM    8  N4  UNL     1      37.527  15.806  30.562  1.00  0.00    -0.070 N 
ENDROOT
BRANCH   8   9
HETATM    9  N5  UNL     1      37.327  16.805  31.484  1.00  0.00    -0.250 N 
HETATM   10  C4  UNL     1      37.731  16.755  32.828  1.00  0.00     0.222 C 
HETATM   11  N6  UNL     1      36.829  16.499  33.902  1.00  0.00    -0.061 NA
HETATM   12  N7  UNL     1      38.969  16.977  33.144  1.00  0.00    -0.279 N 
ATOM     13  H7  UNL     1      39.657  17.190  32.421  1.00  0.00     0.189 HD
ATOM     14  H5  UNL     1      36.847  17.648  31.168  1.00  0.00     0.191 HD
BRANCH  12  15
HETATM   15  N8  UNL     1      39.345  16.921  34.475  1.00  0.00    -0.343 N 
ATOM     16  H82 UNL     1      38.944  16.205  35.081  1.00  0.00     0.176 HD
ATOM     17  H81 UNL     1      40.020  17.599  34.830  1.00  0.00     0.176 HD
ENDBRANCH  12  15
ENDBRANCH   8   9
BRANCH   7  18
HETATM   18  N3  UNL     1      39.437  16.818  29.562  1.00  0.00    -0.232 N 
ATOM     19  H32 UNL     1      39.939  17.097  28.719  1.00  0.00     0.174 HD
ATOM     20  H31 UNL     1      39.771  17.445  30.293  1.00  0.00     0.174 HD
ENDBRANCH   7  18
TORSDOF 3
ENDMDL
MODEL 2
REMARK VINA RESULT: -5.626031585      0.887      2.280
REMARK  3 active torsions:
REMARK  status: ('A' for Active; 'I' for Inactive)
REMARK    1  A    between atoms: C3_7  and  N3_8 
REMARK    2  A    between atoms: N4_11  and  N5_12 
REMARK       I    between atoms: N5_12  and  C4_14 
REMARK    3  A    between atoms: N7_16  and  N8_18 
ROOT
HETATM    1  C1  UNL     1      39.354  16.692  29.106  1.00  0.00     0.093 C 
HETATM    2  C2  UNL     1      38.343  15.663  29.455  1.00  0.00     0.133 A 
HETATM    3  N1  UNL     1      38.242  14.449  28.823  1.00  0.00    -0.273 N 
ATOM      4  H1  UNL     1      38.836  14.123  28.061  1.00  0.00     0.189 HD
HETATM    5  N2  UNL     1      37.249  13.775  29.365  1.00  0.00    -0.129 N 
ATOM      6  H2  UNL     1      36.959  12.840  29.081  1.00  0.00     0.205 HD
HETATM    7  C3  UNL     1      36.677  14.485  30.335  1.00  0.00     0.713 A 
HETATM    8  N4  UNL     1      37.377  15.673  30.379  1.00  0.00    -0.070 N 
ENDROOT
BRANCH   8   9
HETATM    9  N5  UNL     1      37.044  16.654  31.282  1.00  0.00    -0.250 N 
HETATM   10  C4  UNL     1      37.380  16.644  32.645  1.00  0.00     0.222 C 
HETATM   11  N6  UNL     1      36.449  16.316  33.672  1.00  0.00    -0.061 NA
HETATM   12  N7  UNL     1      38.576  16.973  33.023  1.00  0.00    -0.279 N 
ATOM     13  H7  UNL     1      39.280  17.242  32.335  1.00  0.00     0.189 HD
ATOM     14  H5  UNL     1      36.512  17.451  30.934  1.00  0.00     0.191 HD
BRANCH  12  15
HETATM   15  N8  UNL     1      38.886  16.955  34.372  1.00  0.00    -0.343 N 
ATOM     16  H82 UNL     1      38.227  17.350  35.043  1.00  0.00     0.176 HD
ATOM     17  H81 UNL     1      39.771  16.547  34.674  1.00  0.00     0.176 HD
ENDBRANCH  12  15
ENDBRANCH   8   9
BRANCH   7  18
HETATM   18  N3  UNL     1      35.685  14.152  31.083  1.00  0.00    -0.232 N 
ATOM     19  H32 UNL     1      35.688  13.446  31.818  1.00  0.00     0.174 HD
ATOM     20  H31 UNL     1      34.736  14.527  31.074  1.00  0.00     0.174 HD
ENDBRANCH   7  18
TORSDOF 3
ENDMDL
MODEL 3
REMARK VINA RESULT: -5.538686488      1.788      2.368
REMARK  3 active torsions:
REMARK  status: ('A' for Active; 'I' for Inactive)
REMARK    1  A    between atoms: C3_7  and  N3_8 
REMARK    2  A    between atoms: N4_11  and  N5_12 
REMARK       I    between atoms: N5_12  and  C4_14 
REMARK    3  A    between atoms: N7_16  and  N8_18 
ROOT
HETATM    1  C1  UNL     1      36.651  15.331  31.081  1.00  0.00     0.093 C 
HETATM    2  C2  UNL     1      38.084  15.694  30.952  1.00  0.00     0.133 A 
HETATM    3  N1  UNL     1      38.784  15.631  29.773  1.00  0.00    -0.273 N 
ATOM      4  H1  UNL     1      38.408  15.335  28.872  1.00  0.00     0.189 HD
HETATM    5  N2  UNL     1      40.022  16.017  29.998  1.00  0.00    -0.129 N 
ATOM      6  H2  UNL     1      40.754  16.064  29.290  1.00  0.00     0.205 HD
HETATM    7  C3  UNL     1      40.186  16.337  31.280  1.00  0.00     0.713 A 
HETATM    8  N4  UNL     1      38.955  16.128  31.868  1.00  0.00    -0.070 N 
ENDROOT
BRANCH   8   9
HETATM    9  N5  UNL     1      38.766  16.362  33.209  1.00  0.00    -0.250 N 
HETATM   10  C4  UNL     1      38.938  17.603  33.843  1.00  0.00     0.222 C 
HETATM   11  N6  UNL     1      40.082  17.921  34.632  1.00  0.00    -0.061 NA
HETATM   12  N7  UNL     1      38.019  18.513  33.752  1.00  0.00    -0.279 N 
ATOM     13  H7  UNL     1      37.166  18.335  33.222  1.00  0.00     0.189 HD
ATOM     14  H5  UNL     1      38.479  15.573  33.788  1.00  0.00     0.191 HD
BRANCH  12  15
HETATM   15  N8  UNL     1      38.210  19.730  34.385  1.00  0.00    -0.343 N 
ATOM     16  H82 UNL     1      39.062  19.887  34.924  1.00  0.00     0.176 HD
ATOM     17  H81 UNL     1      37.494  20.452  34.301  1.00  0.00     0.176 HD
ENDBRANCH  12  15
ENDBRANCH   8   9
BRANCH   7  18
HETATM   18  N3  UNL     1      41.253  16.754  31.864  1.00  0.00    -0.232 N 
ATOM     19  H32 UNL     1      42.193  16.777  31.468  1.00  0.00     0.174 HD
ATOM     20  H31 UNL     1      41.350  17.128  32.808  1.00  0.00     0.174 HD
ENDBRANCH   7  18
TORSDOF 3
ENDMDL
MODEL 4
REMARK VINA RESULT: -5.460152622      1.272      1.669
REMARK  3 active torsions:
REMARK  status: ('A' for Active; 'I' for Inactive)
REMARK    1  A    between atoms: C3_7  and  N3_8 
REMARK    2  A    between atoms: N4_11  and  N5_12 
REMARK       I    between atoms: N5_12  and  C4_14 
REMARK    3  A    between atoms: N7_16  and  N8_18 
ROOT
HETATM    1  C1  UNL     1      36.328  14.482  30.498  1.00  0.00     0.093 C 
HETATM    2  C2  UNL     1      37.538  15.188  30.008  1.00  0.00     0.133 A 
HETATM    3  N1  UNL     1      37.783  15.452  28.684  1.00  0.00    -0.273 N 
ATOM      4  H1  UNL     1      37.177  15.199  27.904  1.00  0.00     0.189 HD
HETATM    5  N2  UNL     1      38.933  16.085  28.588  1.00  0.00    -0.129 N 
ATOM      6  H2  UNL     1      39.353  16.399  27.713  1.00  0.00     0.205 HD
HETATM    7  C3  UNL     1      39.473  16.260  29.793  1.00  0.00     0.713 A 
HETATM    8  N4  UNL     1      38.581  15.688  30.678  1.00  0.00    -0.070 N 
ENDROOT
BRANCH   8   9
HETATM    9  N5  UNL     1      38.831  15.688  32.029  1.00  0.00    -0.250 N 
HETATM   10  C4  UNL     1      38.813  16.826  32.852  1.00  0.00     0.222 C 
HETATM   11  N6  UNL     1      39.997  17.473  33.310  1.00  0.00    -0.061 NA
HETATM   12  N7  UNL     1      37.684  17.318  33.257  1.00  0.00    -0.279 N 
ATOM     13  H7  UNL     1      36.802  16.884  32.982  1.00  0.00     0.189 HD
ATOM     14  H5  UNL     1      39.047  14.793  32.468  1.00  0.00     0.191 HD
BRANCH  12  15
HETATM   15  N8  UNL     1      37.689  18.440  34.068  1.00  0.00    -0.343 N 
ATOM     16  H82 UNL     1      38.363  18.505  34.831  1.00  0.00     0.176 HD
ATOM     17  H81 UNL     1      37.017  19.186  33.889  1.00  0.00     0.176 HD
ENDBRANCH  12  15
ENDBRANCH   8   9
BRANCH   7  18
HETATM   18  N3  UNL     1      40.585  16.835  30.090  1.00  0.00    -0.232 N 
ATOM     19  H32 UNL     1      41.101  17.495  29.509  1.00  0.00     0.174 HD
ATOM     20  H31 UNL     1      41.137  16.736  30.941  1.00  0.00     0.174 HD
ENDBRANCH   7  18
TORSDOF 3
ENDMDL
MODEL 5
REMARK VINA RESULT: -5.400394879      1.569      2.052
REMARK  3 active torsions:
REMARK  status: ('A' for Active; 'I' for Inactive)
REMARK    1  A    between atoms: C3_7  and  N3_8 
REMARK    2  A    between atoms: N4_11  and  N5_12 
REMARK       I    between atoms: N5_12  and  C4_14 
REMARK    3  A    between atoms: N7_16  and  N8_18 
ROOT
HETATM    1  C1  UNL     1      36.671  15.494  31.005  1.00  0.00     0.093 C 
HETATM    2  C2  UNL     1      38.122  15.804  31.018  1.00  0.00     0.133 A 
HETATM    3  N1  UNL     1      39.019  15.290  30.114  1.00  0.00    -0.273 N 
ATOM      4  H1  UNL     1      38.797  14.654  29.349  1.00  0.00     0.189 HD
HETATM    5  N2  UNL     1      40.216  15.757  30.401  1.00  0.00    -0.129 N 
ATOM      6  H2  UNL     1      41.066  15.533  29.884  1.00  0.00     0.205 HD
HETATM    7  C3  UNL     1      40.163  16.563  31.459  1.00  0.00     0.713 A 
HETATM    8  N4  UNL     1      38.836  16.582  31.837  1.00  0.00    -0.070 N 
ENDROOT
BRANCH   8   9
HETATM    9  N5  UNL     1      38.421  17.326  32.915  1.00  0.00    -0.250 N 
HETATM   10  C4  UNL     1      38.439  16.891  34.250  1.00  0.00     0.222 C 
HETATM   11  N6  UNL     1      37.270  16.462  34.944  1.00  0.00    -0.061 NA
HETATM   12  N7  UNL     1      39.549  16.896  34.921  1.00  0.00    -0.279 N 
ATOM     13  H7  UNL     1      40.415  17.215  34.485  1.00  0.00     0.189 HD
ATOM     14  H5  UNL     1      38.071  18.266  32.731  1.00  0.00     0.191 HD
BRANCH  12  15
HETATM   15  N8  UNL     1      39.544  16.462  36.236  1.00  0.00    -0.343 N 
ATOM     16  H82 UNL     1      38.676  16.118  36.647  1.00  0.00     0.176 HD
ATOM     17  H81 UNL     1      40.411  16.494  36.773  1.00  0.00     0.176 HD
ENDBRANCH  12  15
ENDBRANCH   8   9
BRANCH   7  18
HETATM   18  N3  UNL     1      41.129  17.198  32.023  1.00  0.00    -0.232 N 
ATOM     19  H32 UNL     1      42.074  17.318  31.657  1.00  0.00     0.174 HD
ATOM     20  H31 UNL     1      41.125  17.685  32.919  1.00  0.00     0.174 HD
ENDBRANCH   7  18
TORSDOF 3
ENDMDL
