MODEL 1
REMARK VINA RESULT: -5.585748376      0.000      0.000
REMARK  2 active torsions:
REMARK  status: ('A' for Active; 'I' for Inactive)
REMARK    1  A    between atoms: N1_1  and  N2_4 
REMARK       I    between atoms: C1_6  and  N4_8 
REMARK    2  A    between atoms: N4_8  and  C2_10 
ROOT
HETATM    1  C2  UNL     1      37.831  15.993  30.702  1.00  0.00     0.181 A 
HETATM    2  N5  UNL     1      38.691  16.803  30.180  1.00  0.00    -0.290 N 
ATOM      3  H5  UNL     1      39.217  17.504  30.702  1.00  0.00     0.172 HD
HETATM    4  C3  UNL     1      38.807  16.589  28.785  1.00  0.00     0.328 A 
HETATM    5  O1  UNL     1      39.538  17.181  27.945  1.00  0.00    -0.247 OA
HETATM    6  N6  UNL     1      37.918  15.538  28.440  1.00  0.00    -0.272 N 
ATOM      7  H6  UNL     1      37.762  15.145  27.511  1.00  0.00     0.174 HD
HETATM    8  C4  UNL     1      37.286  15.145  29.659  1.00  0.00     0.293 A 
HETATM    9  O2  UNL     1      36.433  14.230  29.707  1.00  0.00    -0.264 OA
ENDROOT
BRANCH   1  10
HETATM   10  N4  UNL     1      37.435  15.895  32.070  1.00  0.00    -0.311 N 
HETATM   11  C1  UNL     1      37.717  16.874  33.044  1.00  0.00     0.208 C 
HETATM   12  N2  UNL     1      36.939  17.869  33.201  1.00  0.00    -0.280 N 
HETATM   13  N3  UNL     1      38.868  16.741  33.843  1.00  0.00    -0.062 NA
ATOM     14  H2  UNL     1      36.106  17.961  32.620  1.00  0.00     0.189 HD
ATOM     15  H4  UNL     1      36.917  15.065  32.360  1.00  0.00     0.170 HD
BRANCH  12  16
HETATM   16  N1  UNL     1      37.223  18.831  34.164  1.00  0.00    -0.343 N 
ATOM     17  H12 UNL     1      38.070  18.735  34.723  1.00  0.00     0.176 HD
ATOM     18  H11 UNL     1      36.590  19.618  34.303  1.00  0.00     0.176 HD
ENDBRANCH  12  16
ENDBRANCH   1  10
TORSDOF 2
ENDMDL
MODEL 2
REMARK VINA RESULT: -5.450264181      2.432      4.107
REMARK  2 active torsions:
REMARK  status: ('A' for Active; 'I' for Inactive)
REMARK    1  A    between atoms: N1_1  and  N2_4 
REMARK       I    between atoms: C1_6  and  N4_8 
REMARK    2  A    between atoms: N4_8  and  C2_10 
ROOT
HETATM    1  C2  UNL     1      36.206  15.833  31.752  1.00  0.00     0.181 A 
HETATM    2  N5  UNL     1      35.213  15.844  32.578  1.00  0.00    -0.290 N 
ATOM      3  H5  UNL     1      35.036  16.584  33.258  1.00  0.00     0.172 HD
HETATM    4  C3  UNL     1      34.405  14.693  32.416  1.00  0.00     0.328 A 
HETATM    5  O1  UNL     1      33.360  14.359  33.037  1.00  0.00    -0.247 OA
HETATM    6  N6  UNL     1      34.980  13.911  31.381  1.00  0.00    -0.272 N 
ATOM      7  H6  UNL     1      34.638  13.019  31.023  1.00  0.00     0.174 HD
HETATM    8  C4  UNL     1      36.135  14.628  30.945  1.00  0.00     0.293 A 
HETATM    9  O2  UNL     1      36.879  14.208  30.030  1.00  0.00    -0.264 OA
ENDROOT
BRANCH   1  10
HETATM   10  N4  UNL     1      37.238  16.808  31.603  1.00  0.00    -0.311 N 
HETATM   11  C1  UNL     1      38.602  16.553  31.846  1.00  0.00     0.208 C 
HETATM   12  N2  UNL     1      39.340  16.069  30.929  1.00  0.00    -0.280 N 
HETATM   13  N3  UNL     1      39.143  16.840  33.113  1.00  0.00    -0.062 NA
ATOM     14  H2  UNL     1      38.944  15.863  30.012  1.00  0.00     0.189 HD
ATOM     15  H4  UNL     1      36.971  17.745  31.304  1.00  0.00     0.170 HD
BRANCH  12  16
HETATM   16  N1  UNL     1      40.686  15.820  31.175  1.00  0.00    -0.343 N 
ATOM     17  H12 UNL     1      41.343  16.600  31.163  1.00  0.00     0.176 HD
ATOM     18  H11 UNL     1      41.005  14.869  31.364  1.00  0.00     0.176 HD
ENDBRANCH  12  16
ENDBRANCH   1  10
TORSDOF 2
ENDMDL
MODEL 3
REMARK VINA RESULT: -5.436625732      1.540      1.766
REMARK  2 active torsions:
REMARK  status: ('A' for Active; 'I' for Inactive)
REMARK    1  A    between atoms: N1_1  and  N2_4 
REMARK       I    between atoms: C1_6  and  N4_8 
REMARK    2  A    between atoms: N4_8  and  C2_10 
ROOT
HETATM    1  C2  UNL     1      38.993  16.401  31.795  1.00  0.00     0.181 A 
HETATM    2  N5  UNL     1      39.950  16.667  30.969  1.00  0.00    -0.290 N 
ATOM      3  H5  UNL     1      40.860  17.041  31.240  1.00  0.00     0.172 HD
HETATM    4  C3  UNL     1      39.569  16.371  29.638  1.00  0.00     0.328 A 
HETATM    5  O1  UNL     1      40.231  16.498  28.572  1.00  0.00    -0.247 OA
HETATM    6  N6  UNL     1      38.240  15.876  29.675  1.00  0.00    -0.272 N 
ATOM      7  H6  UNL     1      37.674  15.573  28.882  1.00  0.00     0.174 HD
HETATM    8  C4  UNL     1      37.857  15.888  31.051  1.00  0.00     0.293 A 
HETATM    9  O2  UNL     1      36.728  15.508  31.436  1.00  0.00    -0.264 OA
ENDROOT
BRANCH   1  10
HETATM   10  N4  UNL     1      38.985  16.561  33.213  1.00  0.00    -0.311 N 
HETATM   11  C1  UNL     1      39.326  17.759  33.872  1.00  0.00     0.208 C 
HETATM   12  N2  UNL     1      38.449  18.659  34.065  1.00  0.00    -0.280 N 
HETATM   13  N3  UNL     1      40.648  17.950  34.315  1.00  0.00    -0.062 NA
ATOM     14  H2  UNL     1      37.492  18.516  33.742  1.00  0.00     0.189 HD
ATOM     15  H4  UNL     1      38.717  15.759  33.784  1.00  0.00     0.170 HD
BRANCH  12  16
HETATM   16  N1  UNL     1      38.792  19.840  34.716  1.00  0.00    -0.343 N 
ATOM     17  H12 UNL     1      39.055  19.802  35.701  1.00  0.00     0.176 HD
ATOM     18  H11 UNL     1      38.778  20.725  34.211  1.00  0.00     0.176 HD
ENDBRANCH  12  16
ENDBRANCH   1  10
TORSDOF 2
ENDMDL
MODEL 4
REMARK VINA RESULT: -5.332606514      1.650      2.879
REMARK  2 active torsions:
REMARK  status: ('A' for Active; 'I' for Inactive)
REMARK    1  A    between atoms: N1_1  and  N2_4 
REMARK       I    between atoms: C1_6  and  N4_8 
REMARK    2  A    between atoms: N4_8  and  C2_10 
ROOT
HETATM    1  C2  UNL     1      37.732  16.296  31.790  1.00  0.00     0.181 A 
HETATM    2  N5  UNL     1      36.682  15.621  31.456  1.00  0.00    -0.290 N 
ATOM      3  H5  UNL     1      35.779  15.684  31.928  1.00  0.00     0.172 HD
HETATM    4  C3  UNL     1      36.950  14.782  30.347  1.00  0.00     0.328 A 
HETATM    5  O1  UNL     1      36.179  13.985  29.745  1.00  0.00    -0.247 OA
HETATM    6  N6  UNL     1      38.307  14.978  29.982  1.00  0.00    -0.272 N 
ATOM      7  H6  UNL     1      38.812  14.520  29.222  1.00  0.00     0.174 HD
HETATM    8  C4  UNL     1      38.822  15.946  30.897  1.00  0.00     0.293 A 
HETATM    9  O2  UNL     1      40.006  16.348  30.853  1.00  0.00    -0.264 OA
ENDROOT
BRANCH   1  10
HETATM   10  N4  UNL     1      37.867  17.243  32.849  1.00  0.00    -0.311 N 
HETATM   11  C1  UNL     1      38.984  17.310  33.706  1.00  0.00     0.208 C 
HETATM   12  N2  UNL     1      40.011  17.983  33.374  1.00  0.00    -0.280 N 
HETATM   13  N3  UNL     1      38.951  16.626  34.936  1.00  0.00    -0.062 NA
ATOM     14  H2  UNL     1      40.030  18.477  32.482  1.00  0.00     0.189 HD
ATOM     15  H4  UNL     1      37.111  17.911  32.993  1.00  0.00     0.170 HD
BRANCH  12  16
HETATM   16  N1  UNL     1      41.110  18.045  34.225  1.00  0.00    -0.343 N 
ATOM     17  H12 UNL     1      41.230  18.867  34.817  1.00  0.00     0.176 HD
ATOM     18  H11 UNL     1      41.781  17.278  34.252  1.00  0.00     0.176 HD
ENDBRANCH  12  16
ENDBRANCH   1  10
TORSDOF 2
ENDMDL
MODEL 5
REMARK VINA RESULT: -5.278265032      3.722      5.669
REMARK  2 active torsions:
REMARK  status: ('A' for Active; 'I' for Inactive)
REMARK    1  A    between atoms: N1_1  and  N2_4 
REMARK       I    between atoms: C1_6  and  N4_8 
REMARK    2  A    between atoms: N4_8  and  C2_10 
ROOT
HETATM    1  C2  UNL     1      39.372  17.987  33.860  1.00  0.00     0.181 A 
HETATM    2  N5  UNL     1      38.434  18.856  34.044  1.00  0.00    -0.290 N 
ATOM      3  H5  UNL     1      37.442  18.680  33.876  1.00  0.00     0.172 HD
HETATM    4  C3  UNL     1      38.963  20.084  34.509  1.00  0.00     0.328 A 
HETATM    5  O1  UNL     1      38.360  21.154  34.796  1.00  0.00    -0.247 OA
HETATM    6  N6  UNL     1      40.370  19.930  34.612  1.00  0.00    -0.272 N 
ATOM      7  H6  UNL     1      41.044  20.632  34.918  1.00  0.00     0.174 HD
HETATM    8  C4  UNL     1      40.647  18.591  34.201  1.00  0.00     0.293 A 
HETATM    9  O2  UNL     1      41.809  18.125  34.174  1.00  0.00    -0.264 OA
ENDROOT
BRANCH   1  10
HETATM   10  N4  UNL     1      39.247  16.642  33.401  1.00  0.00    -0.311 N 
HETATM   11  C1  UNL     1      39.212  16.274  32.041  1.00  0.00     0.208 C 
HETATM   12  N2  UNL     1      40.293  16.077  31.399  1.00  0.00    -0.280 N 
HETATM   13  N3  UNL     1      37.969  16.127  31.398  1.00  0.00    -0.062 NA
ATOM     14  H2  UNL     1      41.192  16.185  31.869  1.00  0.00     0.189 HD
ATOM     15  H4  UNL     1      39.179  15.902  34.100  1.00  0.00     0.170 HD
BRANCH  12  16
HETATM   16  N1  UNL     1      40.251  15.715  30.057  1.00  0.00    -0.343 N 
ATOM     17  H12 UNL     1      40.062  14.742  29.814  1.00  0.00     0.176 HD
ATOM     18  H11 UNL     1      40.408  16.415  29.333  1.00  0.00     0.176 HD
ENDBRANCH  12  16
ENDBRANCH   1  10
TORSDOF 2
ENDMDL
