MODEL 1
REMARK VINA RESULT: -8.894056070      0.000      0.000
REMARK  8 active torsions:
REMARK  status: ('A' for Active; 'I' for Inactive)
REMARK    1  A    between atoms: N1_1  and  C1_4 
REMARK    2  A    between atoms: C2_8  and  N3_9 
REMARK    3  A    between atoms: N3_9  and  C3_11 
REMARK    4  A    between atoms: C3_11  and  C4_12 
REMARK    5  A    between atoms: C4_12  and  N4_13 
REMARK    6  A    between atoms: N4_13  and  C5_15 
REMARK    7  A    between atoms: C6_18  and  N6_19 
REMARK    8  A    between atoms: N6_19  and  C7_21 
ROOT
HETATM    1  C5  UNL     1      40.936   1.349  15.092  1.00  0.00     0.152 A 
HETATM    2  N5  UNL     1      41.349   0.160  14.570  1.00  0.00    -0.174 N 
ATOM      3  H5  UNL     1      42.014  -0.415  15.088  1.00  0.00     0.186 HD
HETATM    4  C6  UNL     1      40.890  -0.262  13.383  1.00  0.00     0.681 A 
HETATM    5  N7  UNL     1      40.019   0.513  12.728  1.00  0.00    -0.174 N 
ATOM      6  H7  UNL     1      39.670   0.190  11.826  1.00  0.00     0.186 HD
HETATM    7  C11 UNL     1      39.569   1.719  13.206  1.00  0.00     0.159 A 
HETATM    8  N8  UNL     1      38.694   2.511  12.562  1.00  0.00    -0.296 N 
ATOM      9  H8  UNL     1      38.246   2.351  11.659  1.00  0.00     0.177 HD
HETATM   10  S1  UNL     1      38.512   3.822  13.589  1.00  0.00     0.069 SA
HETATM   11  N9  UNL     1      39.548   3.339  14.812  1.00  0.00    -0.306 N 
ATOM     12  H9  UNL     1      39.770   3.831  15.678  1.00  0.00     0.176 HD
HETATM   13  C12 UNL     1      40.016   2.157  14.389  1.00  0.00     0.130 A 
ENDROOT
BRANCH   1  14
HETATM   14  N4  UNL     1      41.425   1.652  16.207  1.00  0.00    -0.352 N 
ATOM     15  H4  UNL     1      42.433   1.804  16.173  1.00  0.00     0.166 HD
BRANCH  14  16
HETATM   16  C4  UNL     1      40.885   1.829  17.495  1.00  0.00     0.082 C 
BRANCH  16  17
HETATM   17  C3  UNL     1      41.825   2.524  18.463  1.00  0.00     0.167 C 
BRANCH  17  18
HETATM   18  N3  UNL     1      43.205   2.407  18.036  1.00  0.00    -0.349 N 
ATOM     19  H3  UNL     1      43.455   2.740  17.105  1.00  0.00     0.163 HD
BRANCH  18  20
HETATM   20  C2  UNL     1      44.128   1.905  18.772  1.00  0.00     0.258 A 
HETATM   21  O1  UNL     1      45.321   1.494  18.393  1.00  0.00    -0.186 OA
HETATM   22  N2  UNL     1      45.951   1.054  19.442  1.00  0.00    -0.088 N 
HETATM   23  C1  UNL     1      45.157   1.184  20.519  1.00  0.00     0.699 A 
ATOM     24  H2  UNL     1      46.897   0.673  19.447  1.00  0.00     0.214 HD
HETATM   25  N10 UNL     1      43.996   1.725  20.097  1.00  0.00    -0.152 N 
ATOM     26  H10 UNL     1      43.181   1.950  20.668  1.00  0.00     0.188 HD
BRANCH  23  27
HETATM   27  N1  UNL     1      45.485   0.839  21.713  1.00  0.00    -0.233 N 
ATOM     28  H12 UNL     1      45.230  -0.010  22.217  1.00  0.00     0.174 HD
ATOM     29  H11 UNL     1      46.071   1.396  22.336  1.00  0.00     0.174 HD
ENDBRANCH  23  27
ENDBRANCH  18  20
ENDBRANCH  17  18
ENDBRANCH  16  17
ENDBRANCH  14  16
ENDBRANCH   1  14
BRANCH   4  30
HETATM   30  N6  UNL     1      41.295  -1.401  12.897  1.00  0.00    -0.221 N 
ATOM     31  H6  UNL     1      42.077  -1.898  13.323  1.00  0.00     0.178 HD
BRANCH  30  32
HETATM   32  C7  UNL     1      40.626  -1.940  11.762  1.00  0.00     0.099 C 
HETATM   33  C8  UNL     1      41.566  -2.330  10.610  1.00  0.00     0.026 C 
HETATM   34  C9  UNL     1      40.618  -3.480  10.344  1.00  0.00     0.004 C 
HETATM   35  C10 UNL     1      40.246  -3.405  11.831  1.00  0.00     0.026 C 
ENDBRANCH  30  32
ENDBRANCH   4  30
TORSDOF 8
ENDMDL
MODEL 2
REMARK VINA RESULT: -8.610232576      5.383      9.613
REMARK  8 active torsions:
REMARK  status: ('A' for Active; 'I' for Inactive)
REMARK    1  A    between atoms: N1_1  and  C1_4 
REMARK    2  A    between atoms: C2_8  and  N3_9 
REMARK    3  A    between atoms: N3_9  and  C3_11 
REMARK    4  A    between atoms: C3_11  and  C4_12 
REMARK    5  A    between atoms: C4_12  and  N4_13 
REMARK    6  A    between atoms: N4_13  and  C5_15 
REMARK    7  A    between atoms: C6_18  and  N6_19 
REMARK    8  A    between atoms: N6_19  and  C7_21 
ROOT
HETATM    1  C5  UNL     1      40.572  -0.364  10.617  1.00  0.00     0.152 A 
HETATM    2  N5  UNL     1      40.998   0.319  11.717  1.00  0.00    -0.174 N 
ATOM      3  H5  UNL     1      41.071   1.336  11.682  1.00  0.00     0.186 HD
HETATM    4  C6  UNL     1      41.322  -0.332  12.844  1.00  0.00     0.681 A 
HETATM    5  N7  UNL     1      41.214  -1.665  12.859  1.00  0.00    -0.174 N 
ATOM      6  H7  UNL     1      41.459  -2.159  13.716  1.00  0.00     0.186 HD
HETATM    7  C11 UNL     1      40.792  -2.403  11.781  1.00  0.00     0.159 A 
HETATM    8  N8  UNL     1      40.678  -3.743  11.778  1.00  0.00    -0.296 N 
ATOM      9  H8  UNL     1      40.878  -4.394  12.538  1.00  0.00     0.177 HD
HETATM   10  S1  UNL     1      40.131  -4.093  10.233  1.00  0.00     0.069 SA
HETATM   11  N9  UNL     1      40.058  -2.536   9.625  1.00  0.00    -0.306 N 
ATOM     12  H9  UNL     1      39.770  -2.238   8.692  1.00  0.00     0.176 HD
HETATM   13  C12 UNL     1      40.465  -1.771  10.647  1.00  0.00     0.130 A 
ENDROOT
BRANCH   1  14
HETATM   14  N4  UNL     1      40.295   0.338   9.614  1.00  0.00    -0.352 N 
ATOM     15  H4  UNL     1      41.122   0.646   9.102  1.00  0.00     0.166 HD
BRANCH  14  16
HETATM   16  C4  UNL     1      39.092   0.793   9.044  1.00  0.00     0.082 C 
BRANCH  16  17
HETATM   17  C3  UNL     1      39.151   2.229   8.555  1.00  0.00     0.167 C 
BRANCH  17  18
HETATM   18  N3  UNL     1      38.847   2.320   7.141  1.00  0.00    -0.349 N 
ATOM     19  H3  UNL     1      37.997   1.872   6.799  1.00  0.00     0.163 HD
BRANCH  18  20
HETATM   20  C2  UNL     1      39.592   2.937   6.299  1.00  0.00     0.258 A 
HETATM   21  O1  UNL     1      39.896   2.563   5.073  1.00  0.00    -0.186 OA
HETATM   22  N2  UNL     1      40.676   3.465   4.555  1.00  0.00    -0.088 N 
HETATM   23  C1  UNL     1      40.881   4.441   5.458  1.00  0.00     0.699 A 
ATOM     24  H2  UNL     1      41.069   3.437   3.614  1.00  0.00     0.214 HD
HETATM   25  N10 UNL     1      40.193   4.107   6.569  1.00  0.00    -0.152 N 
ATOM     26  H10 UNL     1      40.141   4.637   7.439  1.00  0.00     0.188 HD
BRANCH  23  27
HETATM   27  N1  UNL     1      41.609   5.480   5.255  1.00  0.00    -0.233 N 
ATOM     28  H12 UNL     1      42.602   5.604   5.455  1.00  0.00     0.174 HD
ATOM     29  H11 UNL     1      41.272   6.353   4.849  1.00  0.00     0.174 HD
ENDBRANCH  23  27
ENDBRANCH  18  20
ENDBRANCH  17  18
ENDBRANCH  16  17
ENDBRANCH  14  16
ENDBRANCH   1  14
BRANCH   4  30
HETATM   30  N6  UNL     1      41.727   0.335  13.886  1.00  0.00    -0.221 N 
ATOM     31  H6  UNL     1      42.719   0.380  14.119  1.00  0.00     0.178 HD
BRANCH  30  32
HETATM   32  C7  UNL     1      40.763   1.000  14.695  1.00  0.00     0.099 C 
HETATM   33  C8  UNL     1      41.279   1.390  16.089  1.00  0.00     0.026 C 
HETATM   34  C9  UNL     1      40.412   2.626  15.965  1.00  0.00     0.004 C 
HETATM   35  C10 UNL     1      40.573   2.481  14.445  1.00  0.00     0.026 C 
ENDBRANCH  30  32
ENDBRANCH   4  30
TORSDOF 8
ENDMDL
MODEL 3
REMARK VINA RESULT: -8.579741315      4.822      8.500
REMARK  8 active torsions:
REMARK  status: ('A' for Active; 'I' for Inactive)
REMARK    1  A    between atoms: N1_1  and  C1_4 
REMARK    2  A    between atoms: C2_8  and  N3_9 
REMARK    3  A    between atoms: N3_9  and  C3_11 
REMARK    4  A    between atoms: C3_11  and  C4_12 
REMARK    5  A    between atoms: C4_12  and  N4_13 
REMARK    6  A    between atoms: N4_13  and  C5_15 
REMARK    7  A    between atoms: C6_18  and  N6_19 
REMARK    8  A    between atoms: N6_19  and  C7_21 
ROOT
HETATM    1  C5  UNL     1      39.928  -0.087  11.931  1.00  0.00     0.152 A 
HETATM    2  N5  UNL     1      39.829  -1.388  11.537  1.00  0.00    -0.174 N 
ATOM      3  H5  UNL     1      39.473  -1.607  10.606  1.00  0.00     0.186 HD
HETATM    4  C6  UNL     1      40.193  -2.382  12.359  1.00  0.00     0.681 A 
HETATM    5  N7  UNL     1      40.656  -2.062  13.573  1.00  0.00    -0.174 N 
ATOM      6  H7  UNL     1      40.935  -2.819  14.197  1.00  0.00     0.186 HD
HETATM    7  C11 UNL     1      40.778  -0.770  14.022  1.00  0.00     0.159 A 
HETATM    8  N8  UNL     1      41.241  -0.431  15.238  1.00  0.00    -0.296 N 
ATOM      9  H8  UNL     1      41.560  -1.048  15.984  1.00  0.00     0.177 HD
HETATM   10  S1  UNL     1      41.170   1.243  15.238  1.00  0.00     0.069 SA
HETATM   11  N9  UNL     1      40.556   1.477  13.699  1.00  0.00    -0.306 N 
ATOM     12  H9  UNL     1      40.338   2.360  13.237  1.00  0.00     0.176 HD
HETATM   13  C12 UNL     1      40.418   0.235  13.215  1.00  0.00     0.130 A 
ENDROOT
BRANCH   1  14
HETATM   14  N4  UNL     1      39.561   0.766  11.087  1.00  0.00    -0.352 N 
ATOM     15  H4  UNL     1      40.168   1.585  11.057  1.00  0.00     0.166 HD
BRANCH  14  16
HETATM   16  C4  UNL     1      38.493   0.838  10.173  1.00  0.00     0.082 C 
BRANCH  16  17
HETATM   17  C3  UNL     1      38.929   1.092   8.742  1.00  0.00     0.167 C 
BRANCH  17  18
HETATM   18  N3  UNL     1      39.427   2.443   8.571  1.00  0.00    -0.349 N 
ATOM     19  H3  UNL     1      39.542   3.025   9.401  1.00  0.00     0.163 HD
BRANCH  18  20
HETATM   20  C2  UNL     1      39.730   2.942   7.429  1.00  0.00     0.258 A 
HETATM   21  O1  UNL     1      39.314   2.544   6.245  1.00  0.00    -0.186 OA
HETATM   22  N2  UNL     1      39.853   3.314   5.346  1.00  0.00    -0.088 N 
HETATM   23  C1  UNL     1      40.631   4.226   5.956  1.00  0.00     0.699 A 
ATOM     24  H2  UNL     1      39.709   3.238   4.339  1.00  0.00     0.214 HD
HETATM   25  N10 UNL     1      40.555   3.991   7.282  1.00  0.00    -0.152 N 
ATOM     26  H10 UNL     1      41.030   4.507   8.023  1.00  0.00     0.188 HD
BRANCH  23  27
HETATM   27  N1  UNL     1      41.306   5.133   5.346  1.00  0.00    -0.233 N 
ATOM     28  H12 UNL     1      41.083   5.602   4.468  1.00  0.00     0.174 HD
ATOM     29  H11 UNL     1      42.189   5.520   5.679  1.00  0.00     0.174 HD
ENDBRANCH  23  27
ENDBRANCH  18  20
ENDBRANCH  17  18
ENDBRANCH  16  17
ENDBRANCH  14  16
ENDBRANCH   1  14
BRANCH   4  30
HETATM   30  N6  UNL     1      40.092  -3.620  11.968  1.00  0.00    -0.221 N 
ATOM     31  H6  UNL     1      39.580  -4.301  12.530  1.00  0.00     0.178 HD
BRANCH  30  32
HETATM   32  C7  UNL     1      40.707  -4.007  10.745  1.00  0.00     0.099 C 
HETATM   33  C8  UNL     1      40.856  -5.527  10.573  1.00  0.00     0.026 C 
HETATM   34  C9  UNL     1      40.599  -5.296   9.099  1.00  0.00     0.004 C 
HETATM   35  C10 UNL     1      39.817  -4.043   9.520  1.00  0.00     0.026 C 
ENDBRANCH  30  32
ENDBRANCH   4  30
TORSDOF 8
ENDMDL
MODEL 4
REMARK VINA RESULT: -8.450112208      4.143      7.642
REMARK  8 active torsions:
REMARK  status: ('A' for Active; 'I' for Inactive)
REMARK    1  A    between atoms: N1_1  and  C1_4 
REMARK    2  A    between atoms: C2_8  and  N3_9 
REMARK    3  A    between atoms: N3_9  and  C3_11 
REMARK    4  A    between atoms: C3_11  and  C4_12 
REMARK    5  A    between atoms: C4_12  and  N4_13 
REMARK    6  A    between atoms: N4_13  and  C5_15 
REMARK    7  A    between atoms: C6_18  and  N6_19 
REMARK    8  A    between atoms: N6_19  and  C7_21 
ROOT
HETATM    1  C5  UNL     1      39.619   2.661  13.987  1.00  0.00     0.152 A 
HETATM    2  N5  UNL     1      39.442   3.687  14.866  1.00  0.00    -0.174 N 
ATOM      3  H5  UNL     1      40.148   3.868  15.579  1.00  0.00     0.186 HD
HETATM    4  C6  UNL     1      38.349   4.461  14.802  1.00  0.00     0.681 A 
HETATM    5  N7  UNL     1      37.442   4.200  13.855  1.00  0.00    -0.174 N 
ATOM      6  H7  UNL     1      36.611   4.789  13.806  1.00  0.00     0.186 HD
HETATM    7  C11 UNL     1      37.569   3.180  12.944  1.00  0.00     0.159 A 
HETATM    8  N8  UNL     1      36.667   2.902  11.986  1.00  0.00    -0.296 N 
ATOM      9  H8  UNL     1      35.788   3.381  11.791  1.00  0.00     0.177 HD
HETATM   10  S1  UNL     1      37.328   1.587  11.186  1.00  0.00     0.069 SA
HETATM   11  N9  UNL     1      38.731   1.416  12.082  1.00  0.00    -0.306 N 
ATOM     12  H9  UNL     1      39.473   0.726  11.963  1.00  0.00     0.176 HD
HETATM   13  C12 UNL     1      38.653   2.397  12.992  1.00  0.00     0.130 A 
ENDROOT
BRANCH   1  14
HETATM   14  N4  UNL     1      40.675   1.997  14.132  1.00  0.00    -0.352 N 
ATOM     15  H4  UNL     1      41.439   2.329  13.543  1.00  0.00     0.166 HD
BRANCH  14  16
HETATM   16  C4  UNL     1      41.033   0.896  14.931  1.00  0.00     0.082 C 
BRANCH  16  17
HETATM   17  C3  UNL     1      41.350  -0.358  14.137  1.00  0.00     0.167 C 
BRANCH  17  18
HETATM   18  N3  UNL     1      42.113  -0.051  12.944  1.00  0.00    -0.349 N 
ATOM     19  H3  UNL     1      42.710   0.776  12.951  1.00  0.00     0.163 HD
BRANCH  18  20
HETATM   20  C2  UNL     1      42.075  -0.767  11.880  1.00  0.00     0.258 A 
HETATM   21  O1  UNL     1      42.740  -0.573  10.760  1.00  0.00    -0.186 OA
HETATM   22  N2  UNL     1      42.421  -1.522   9.930  1.00  0.00    -0.088 N 
HETATM   23  C1  UNL     1      41.536  -2.344  10.520  1.00  0.00     0.699 A 
ATOM     24  H2  UNL     1      42.784  -1.625   8.982  1.00  0.00     0.214 HD
HETATM   25  N10 UNL     1      41.314  -1.866  11.761  1.00  0.00    -0.152 N 
ATOM     26  H10 UNL     1      40.692  -2.261  12.467  1.00  0.00     0.188 HD
BRANCH  23  27
HETATM   27  N1  UNL     1      41.022  -3.382   9.964  1.00  0.00    -0.233 N 
ATOM     28  H12 UNL     1      40.485  -4.132  10.401  1.00  0.00     0.174 HD
ATOM     29  H11 UNL     1      41.087  -3.598   8.969  1.00  0.00     0.174 HD
ENDBRANCH  23  27
ENDBRANCH  18  20
ENDBRANCH  17  18
ENDBRANCH  16  17
ENDBRANCH  14  16
ENDBRANCH   1  14
BRANCH   4  30
HETATM   30  N6  UNL     1      38.193   5.438  15.649  1.00  0.00    -0.221 N 
ATOM     31  H6  UNL     1      38.464   6.389  15.400  1.00  0.00     0.178 HD
BRANCH  30  32
HETATM   32  C7  UNL     1      37.638   5.155  16.929  1.00  0.00     0.099 C 
HETATM   33  C8  UNL     1      38.093   6.122  18.035  1.00  0.00     0.026 C 
HETATM   34  C9  UNL     1      36.702   5.971  18.615  1.00  0.00     0.004 C 
HETATM   35  C10 UNL     1      36.234   5.660  17.186  1.00  0.00     0.026 C 
ENDBRANCH  30  32
ENDBRANCH   4  30
TORSDOF 8
ENDMDL
MODEL 5
REMARK VINA RESULT: -8.414383409      3.272      5.552
REMARK  8 active torsions:
REMARK  status: ('A' for Active; 'I' for Inactive)
REMARK    1  A    between atoms: N1_1  and  C1_4 
REMARK    2  A    between atoms: C2_8  and  N3_9 
REMARK    3  A    between atoms: N3_9  and  C3_11 
REMARK    4  A    between atoms: C3_11  and  C4_12 
REMARK    5  A    between atoms: C4_12  and  N4_13 
REMARK    6  A    between atoms: N4_13  and  C5_15 
REMARK    7  A    between atoms: C6_18  and  N6_19 
REMARK    8  A    between atoms: N6_19  and  C7_21 
ROOT
HETATM    1  C5  UNL     1      40.240   2.319  14.233  1.00  0.00     0.152 A 
HETATM    2  N5  UNL     1      40.684   1.371  13.362  1.00  0.00    -0.174 N 
ATOM      3  H5  UNL     1      40.444   1.442  12.373  1.00  0.00     0.186 HD
HETATM    4  C6  UNL     1      41.434   0.345  13.789  1.00  0.00     0.681 A 
HETATM    5  N7  UNL     1      41.734   0.279  15.091  1.00  0.00    -0.174 N 
ATOM      6  H7  UNL     1      42.306  -0.500  15.416  1.00  0.00     0.186 HD
HETATM    7  C11 UNL     1      41.314   1.206  16.014  1.00  0.00     0.159 A 
HETATM    8  N8  UNL     1      41.605   1.155  17.325  1.00  0.00    -0.296 N 
ATOM      9  H8  UNL     1      42.158   0.455  17.821  1.00  0.00     0.177 HD
HETATM   10  S1  UNL     1      40.848   2.511  17.953  1.00  0.00     0.069 SA
HETATM   11  N9  UNL     1      40.179   3.113  16.543  1.00  0.00    -0.306 N 
ATOM     12  H9  UNL     1      39.611   3.952  16.424  1.00  0.00     0.176 HD
HETATM   13  C12 UNL     1      40.564   2.236  15.605  1.00  0.00     0.130 A 
ENDROOT
BRANCH   1  14
HETATM   14  N4  UNL     1      39.545   3.236  13.732  1.00  0.00    -0.352 N 
ATOM     15  H4  UNL     1      40.062   4.107  13.609  1.00  0.00     0.166 HD
BRANCH  14  16
HETATM   16  C4  UNL     1      38.208   3.323  13.301  1.00  0.00     0.082 C 
BRANCH  16  17
HETATM   17  C3  UNL     1      37.222   3.599  14.422  1.00  0.00     0.167 C 
BRANCH  17  18
HETATM   18  N3  UNL     1      37.330   4.964  14.898  1.00  0.00    -0.349 N 
ATOM     19  H3  UNL     1      37.355   5.717  14.210  1.00  0.00     0.163 HD
BRANCH  18  20
HETATM   20  C2  UNL     1      37.396   5.272  16.142  1.00  0.00     0.258 A 
HETATM   21  O1  UNL     1      38.481   5.420  16.874  1.00  0.00    -0.186 OA
HETATM   22  N2  UNL     1      38.115   5.733  18.082  1.00  0.00    -0.088 N 
HETATM   23  C1  UNL     1      36.773   5.790  18.135  1.00  0.00     0.699 A 
ATOM     24  H2  UNL     1      38.746   5.908  18.864  1.00  0.00     0.214 HD
HETATM   25  N10 UNL     1      36.312   5.496  16.902  1.00  0.00    -0.152 N 
ATOM     26  H10 UNL     1      35.337   5.453  16.606  1.00  0.00     0.188 HD
BRANCH  23  27
HETATM   27  N1  UNL     1      36.096   6.073  19.190  1.00  0.00    -0.233 N 
ATOM     28  H12 UNL     1      36.226   5.719  20.137  1.00  0.00     0.174 HD
ATOM     29  H11 UNL     1      35.307   6.720  19.215  1.00  0.00     0.174 HD
ENDBRANCH  23  27
ENDBRANCH  18  20
ENDBRANCH  17  18
ENDBRANCH  16  17
ENDBRANCH  14  16
ENDBRANCH   1  14
BRANCH   4  30
HETATM   30  N6  UNL     1      41.851  -0.553  12.943  1.00  0.00    -0.221 N 
ATOM     31  H6  UNL     1      42.849  -0.726  12.820  1.00  0.00     0.178 HD
BRANCH  30  32
HETATM   32  C7  UNL     1      40.891  -1.290  12.194  1.00  0.00     0.099 C 
HETATM   33  C8  UNL     1      41.496  -2.132  11.059  1.00  0.00     0.026 C 
HETATM   34  C9  UNL     1      40.421  -3.154  11.365  1.00  0.00     0.004 C 
HETATM   35  C10 UNL     1      40.420  -2.597  12.796  1.00  0.00     0.026 C 
ENDBRANCH  30  32
ENDBRANCH   4  30
TORSDOF 8
ENDMDL
