MODEL 1
REMARK VINA RESULT: -8.803364617      0.000      0.000
REMARK  5 active torsions:
REMARK  status: ('A' for Active; 'I' for Inactive)
REMARK    1  A    between atoms: C2_2  and  N1_4 
REMARK    2  A    between atoms: N2_7  and  C6_8 
REMARK    3  A    between atoms: C7_11  and  N4_12 
REMARK    4  A    between atoms: C8_15  and  C9_16 
REMARK    5  A    between atoms: C11_25  and  N10_26 
ROOT
HETATM    1  N4  UNL     1      39.256   0.050  11.439  1.00  0.00    -0.069 N 
HETATM    2  N5  UNL     1      39.509   0.973  12.343  1.00  0.00    -0.272 N 
ATOM      3  H5  UNL     1      39.214   1.933  12.168  1.00  0.00     0.188 HD
HETATM    4  C8  UNL     1      40.148   0.683  13.494  1.00  0.00     0.131 A 
HETATM    5  C10 UNL     1      40.541  -0.619  13.717  1.00  0.00     0.163 A 
HETATM    6  N8  UNL     1      41.213  -0.976  14.910  1.00  0.00    -0.080 NA
HETATM    7  N9  UNL     1      40.292  -1.595  12.799  1.00  0.00    -0.175 N 
ATOM      8  H9  UNL     1      40.578  -2.562  12.952  1.00  0.00     0.185 HD
HETATM    9  C11 UNL     1      39.651  -1.215  11.682  1.00  0.00     0.700 A 
ENDROOT
BRANCH   1  10
HETATM   10  C7  UNL     1      38.564   0.387  10.200  1.00  0.00     0.154 A 
HETATM   11  N3  UNL     1      39.092   1.145   9.293  1.00  0.00    -0.320 N 
HETATM   12  C6  UNL     1      38.428   1.424   8.187  1.00  0.00     0.148 A 
ATOM     13  H3  UNL     1      40.027   1.527   9.433  1.00  0.00     0.169 HD
HETATM   14  S1  UNL     1      36.964   0.572   8.423  1.00  0.00    -0.062 SA
HETATM   15  C12 UNL     1      37.300  -0.102   9.955  1.00  0.00     0.104 A 
BRANCH  12  16
HETATM   16  N2  UNL     1      38.870   2.236   7.081  1.00  0.00    -0.358 N 
HETATM   17  C5  UNL     1      39.878   3.214   7.382  1.00  0.00     0.155 C 
HETATM   18  C4  UNL     1      40.264   4.055   6.209  1.00  0.00     0.292 C 
HETATM   19  N1  UNL     1      40.153   3.213   5.030  1.00  0.00     0.095 N 
HETATM   20  C14 UNL     1      38.788   2.916   4.708  1.00  0.00     0.292 C 
HETATM   21  C13 UNL     1      38.271   2.001   5.814  1.00  0.00     0.155 C 
BRANCH  19  22
HETATM   22  C2  UNL     1      40.984   3.656   3.958  1.00  0.00     0.215 C 
HETATM   23  C1  UNL     1      41.973   4.716   4.284  1.00  0.00     0.042 C 
HETATM   24  C3  UNL     1      40.124   4.094   2.806  1.00  0.00     0.042 C 
ENDBRANCH  19  22
ENDBRANCH  12  16
ENDBRANCH   1  10
BRANCH   9  25
HETATM   25  N10 UNL     1      39.377  -2.109  10.760  1.00  0.00    -0.233 N 
ATOM     26 2H10 UNL     1      40.130  -2.682  10.379  1.00  0.00     0.174 HD
ATOM     27 1H10 UNL     1      38.401  -2.186  10.470  1.00  0.00     0.174 HD
ENDBRANCH   9  25
BRANCH   4  28
HETATM   28  C9  UNL     1      40.423   1.705  14.486  1.00  0.00     0.141 C 
HETATM   29  N6  UNL     1      41.303   1.501  15.386  1.00  0.00    -0.386 N 
ATOM     30  H62 UNL     1      41.818   0.620  15.418  1.00  0.00     0.157 HD
ATOM     31  H61 UNL     1      41.497   2.220  16.083  1.00  0.00     0.157 HD
HETATM   32  N7  UNL     1      39.710   2.924  14.441  1.00  0.00    -0.081 NA
ENDBRANCH   4  28
TORSDOF 5
ENDMDL
MODEL 2
REMARK VINA RESULT: -8.497046997      1.435      2.274
REMARK  5 active torsions:
REMARK  status: ('A' for Active; 'I' for Inactive)
REMARK    1  A    between atoms: C2_2  and  N1_4 
REMARK    2  A    between atoms: N2_7  and  C6_8 
REMARK    3  A    between atoms: C7_11  and  N4_12 
REMARK    4  A    between atoms: C8_15  and  C9_16 
REMARK    5  A    between atoms: C11_25  and  N10_26 
ROOT
HETATM    1  N4  UNL     1      39.491   1.235  12.818  1.00  0.00    -0.069 N 
HETATM    2  N5  UNL     1      39.005   2.310  13.402  1.00  0.00    -0.272 N 
ATOM      3  H5  UNL     1      38.234   2.809  12.959  1.00  0.00     0.188 HD
HETATM    4  C8  UNL     1      39.501   2.771  14.568  1.00  0.00     0.131 A 
HETATM    5  C10 UNL     1      40.544   2.087  15.154  1.00  0.00     0.163 A 
HETATM    6  N8  UNL     1      41.099   2.528  16.379  1.00  0.00    -0.080 NA
HETATM    7  N9  UNL     1      41.067   0.971  14.573  1.00  0.00    -0.175 N 
ATOM      8  H9  UNL     1      41.839   0.456  14.997  1.00  0.00     0.185 HD
HETATM    9  C11 UNL     1      40.511   0.586  13.413  1.00  0.00     0.700 A 
ENDROOT
BRANCH   1  10
HETATM   10  C7  UNL     1      38.941   0.756  11.556  1.00  0.00     0.154 A 
HETATM   11  N3  UNL     1      39.013   1.442  10.461  1.00  0.00    -0.320 N 
HETATM   12  C6  UNL     1      38.498   0.968   9.342  1.00  0.00     0.148 A 
ATOM     13  H3  UNL     1      39.470   2.354  10.463  1.00  0.00     0.169 HD
HETATM   14  S1  UNL     1      37.870  -0.540   9.846  1.00  0.00    -0.062 SA
HETATM   15  C12 UNL     1      38.313  -0.469  11.493  1.00  0.00     0.104 A 
BRANCH  12  16
HETATM   16  N2  UNL     1      38.501   1.593   8.043  1.00  0.00    -0.358 N 
HETATM   17  C5  UNL     1      39.497   2.607   7.835  1.00  0.00     0.155 C 
HETATM   18  C4  UNL     1      39.424   3.251   6.489  1.00  0.00     0.292 C 
HETATM   19  N1  UNL     1      38.971   2.232   5.557  1.00  0.00     0.095 N 
HETATM   20  C14 UNL     1      37.595   1.887   5.764  1.00  0.00     0.292 C 
HETATM   21  C13 UNL     1      37.527   1.161   7.104  1.00  0.00     0.155 C 
BRANCH  19  22
HETATM   22  C2  UNL     1      39.371   2.498   4.214  1.00  0.00     0.215 C 
HETATM   23  C1  UNL     1      40.568   3.362   4.041  1.00  0.00     0.042 C 
HETATM   24  C3  UNL     1      38.211   3.072   3.450  1.00  0.00     0.042 C 
ENDBRANCH  19  22
ENDBRANCH  12  16
ENDBRANCH   1  10
BRANCH   9  25
HETATM   25  N10 UNL     1      40.967  -0.485  12.804  1.00  0.00    -0.233 N 
ATOM     26 2H10 UNL     1      41.788  -0.409  12.204  1.00  0.00     0.174 HD
ATOM     27 1H10 UNL     1      40.465  -1.358  12.972  1.00  0.00     0.174 HD
ENDBRANCH   9  25
BRANCH   4  28
HETATM   28  C9  UNL     1      38.960   3.956  15.206  1.00  0.00     0.141 C 
HETATM   29  N6  UNL     1      38.548   3.901  16.412  1.00  0.00    -0.386 N 
ATOM     30  H62 UNL     1      38.594   3.027  16.937  1.00  0.00     0.157 HD
ATOM     31  H61 UNL     1      38.168   4.735  16.860  1.00  0.00     0.157 HD
HETATM   32  N7  UNL     1      38.896   5.166  14.479  1.00  0.00    -0.081 NA
ENDBRANCH   4  28
TORSDOF 5
ENDMDL
MODEL 3
REMARK VINA RESULT: -8.264190242      2.916      8.009
REMARK  5 active torsions:
REMARK  status: ('A' for Active; 'I' for Inactive)
REMARK    1  A    between atoms: C2_2  and  N1_4 
REMARK    2  A    between atoms: N2_7  and  C6_8 
REMARK    3  A    between atoms: C7_11  and  N4_12 
REMARK    4  A    between atoms: C8_15  and  C9_16 
REMARK    5  A    between atoms: C11_25  and  N10_26 
ROOT
HETATM    1  N4  UNL     1      39.123   2.165   7.528  1.00  0.00    -0.069 N 
HETATM    2  N5  UNL     1      40.116   3.008   7.332  1.00  0.00    -0.272 N 
ATOM      3  H5  UNL     1      40.701   3.277   8.123  1.00  0.00     0.188 HD
HETATM    4  C8  UNL     1      40.380   3.525   6.115  1.00  0.00     0.131 A 
HETATM    5  C10 UNL     1      39.580   3.152   5.057  1.00  0.00     0.163 A 
HETATM    6  N8  UNL     1      39.816   3.665   3.759  1.00  0.00    -0.080 NA
HETATM    7  N9  UNL     1      38.546   2.283   5.229  1.00  0.00    -0.175 N 
ATOM      8  H9  UNL     1      37.947   1.999   4.453  1.00  0.00     0.185 HD
HETATM    9  C11 UNL     1      38.358   1.818   6.475  1.00  0.00     0.700 A 
ENDROOT
BRANCH   1  10
HETATM   10  C7  UNL     1      38.856   1.620   8.853  1.00  0.00     0.154 A 
HETATM   11  N3  UNL     1      38.413   2.347   9.828  1.00  0.00    -0.320 N 
HETATM   12  C6  UNL     1      38.186   1.809  11.012  1.00  0.00     0.148 A 
ATOM     13  H3  UNL     1      38.237   3.341   9.680  1.00  0.00     0.169 HD
HETATM   14  S1  UNL     1      38.618   0.175  10.753  1.00  0.00    -0.062 SA
HETATM   15  C12 UNL     1      39.073   0.284   9.111  1.00  0.00     0.104 A 
BRANCH  12  16
HETATM   16  N2  UNL     1      37.688   2.469  12.192  1.00  0.00    -0.358 N 
HETATM   17  C5  UNL     1      38.673   2.843  13.167  1.00  0.00     0.155 C 
HETATM   18  C4  UNL     1      38.095   3.482  14.389  1.00  0.00     0.292 C 
HETATM   19  N1  UNL     1      36.925   4.231  13.960  1.00  0.00     0.095 N 
HETATM   20  C14 UNL     1      35.848   3.369  13.573  1.00  0.00     0.292 C 
HETATM   21  C13 UNL     1      36.285   2.679  12.285  1.00  0.00     0.155 C 
BRANCH  19  22
HETATM   22  C2  UNL     1      36.605   5.302  14.845  1.00  0.00     0.215 C 
HETATM   23  C1  UNL     1      35.657   6.324  14.330  1.00  0.00     0.042 C 
HETATM   24  C3  UNL     1      37.872   5.966  15.307  1.00  0.00     0.042 C 
ENDBRANCH  19  22
ENDBRANCH  12  16
ENDBRANCH   1  10
BRANCH   9  25
HETATM   25  N10 UNL     1      37.380   0.972   6.707  1.00  0.00    -0.233 N 
ATOM     26 2H10 UNL     1      37.489   0.269   7.439  1.00  0.00     0.174 HD
ATOM     27 1H10 UNL     1      36.543   1.069   6.132  1.00  0.00     0.174 HD
ENDBRANCH   9  25
BRANCH   4  28
HETATM   28  C9  UNL     1      41.476   4.452   5.908  1.00  0.00     0.141 C 
HETATM   29  N6  UNL     1      41.260   5.582   5.356  1.00  0.00    -0.386 N 
ATOM     30  H62 UNL     1      40.321   5.842   5.056  1.00  0.00     0.157 HD
ATOM     31  H61 UNL     1      42.031   6.234   5.211  1.00  0.00     0.157 HD
HETATM   32  N7  UNL     1      42.777   4.092   6.325  1.00  0.00    -0.081 NA
ENDBRANCH   4  28
TORSDOF 5
ENDMDL
MODEL 4
REMARK VINA RESULT: -8.245383742      2.204      8.208
REMARK  5 active torsions:
REMARK  status: ('A' for Active; 'I' for Inactive)
REMARK    1  A    between atoms: C2_2  and  N1_4 
REMARK    2  A    between atoms: N2_7  and  C6_8 
REMARK    3  A    between atoms: C7_11  and  N4_12 
REMARK    4  A    between atoms: C8_15  and  C9_16 
REMARK    5  A    between atoms: C11_25  and  N10_26 
ROOT
HETATM    1  N4  UNL     1      38.695   2.580   5.477  1.00  0.00    -0.069 N 
HETATM    2  N5  UNL     1      39.877   3.095   5.746  1.00  0.00    -0.272 N 
ATOM      3  H5  UNL     1      40.328   2.865   6.631  1.00  0.00     0.188 HD
HETATM    4  C8  UNL     1      40.506   3.918   4.884  1.00  0.00     0.131 A 
HETATM    5  C10 UNL     1      39.883   4.220   3.692  1.00  0.00     0.163 A 
HETATM    6  N8  UNL     1      40.502   5.079   2.752  1.00  0.00    -0.080 NA
HETATM    7  N9  UNL     1      38.661   3.703   3.387  1.00  0.00    -0.175 N 
ATOM      8  H9  UNL     1      38.190   3.919   2.508  1.00  0.00     0.185 HD
HETATM    9  C11 UNL     1      38.109   2.892   4.305  1.00  0.00     0.700 A 
ENDROOT
BRANCH   1  10
HETATM   10  C7  UNL     1      38.032   1.692   6.426  1.00  0.00     0.154 A 
HETATM   11  N3  UNL     1      38.655   1.151   7.423  1.00  0.00    -0.320 N 
HETATM   12  C6  UNL     1      38.014   0.352   8.255  1.00  0.00     0.148 A 
ATOM     13  H3  UNL     1      39.646   1.343   7.566  1.00  0.00     0.169 HD
HETATM   14  S1  UNL     1      36.431   0.353   7.607  1.00  0.00    -0.062 SA
HETATM   15  C12 UNL     1      36.695   1.398   6.282  1.00  0.00     0.104 A 
BRANCH  12  16
HETATM   16  N2  UNL     1      38.550  -0.319   9.413  1.00  0.00    -0.358 N 
HETATM   17  C5  UNL     1      39.192  -1.580   9.167  1.00  0.00     0.155 C 
HETATM   18  C4  UNL     1      39.688  -2.251  10.407  1.00  0.00     0.292 C 
HETATM   19  N1  UNL     1      40.096  -1.198  11.323  1.00  0.00     0.095 N 
HETATM   20  C14 UNL     1      38.974  -0.472  11.841  1.00  0.00     0.292 C 
HETATM   21  C13 UNL     1      38.390   0.317  10.673  1.00  0.00     0.155 C 
BRANCH  19  22
HETATM   22  C2  UNL     1      41.069  -1.639  12.268  1.00  0.00     0.215 C 
HETATM   23  C1  UNL     1      40.591  -1.845  13.660  1.00  0.00     0.042 C 
HETATM   24  C3  UNL     1      42.237  -0.693  12.262  1.00  0.00     0.042 C 
ENDBRANCH  19  22
ENDBRANCH  12  16
ENDBRANCH   1  10
BRANCH   9  25
HETATM   25  N10 UNL     1      36.934   2.356   4.069  1.00  0.00    -0.233 N 
ATOM     26 2H10 UNL     1      36.274   2.843   3.462  1.00  0.00     0.174 HD
ATOM     27 1H10 UNL     1      36.741   1.458   4.512  1.00  0.00     0.174 HD
ENDBRANCH   9  25
BRANCH   4  28
HETATM   28  C9  UNL     1      41.808   4.481   5.187  1.00  0.00     0.141 C 
HETATM   29  N6  UNL     1      42.377   5.260   4.352  1.00  0.00    -0.386 N 
ATOM     30  H62 UNL     1      41.925   5.492   3.467  1.00  0.00     0.157 HD
ATOM     31  H61 UNL     1      43.292   5.657   4.566  1.00  0.00     0.157 HD
HETATM   32  N7  UNL     1      42.433   4.160   6.413  1.00  0.00    -0.081 NA
ENDBRANCH   4  28
TORSDOF 5
ENDMDL
MODEL 5
REMARK VINA RESULT: -8.042608469      1.662      8.214
REMARK  5 active torsions:
REMARK  status: ('A' for Active; 'I' for Inactive)
REMARK    1  A    between atoms: C2_2  and  N1_4 
REMARK    2  A    between atoms: N2_7  and  C6_8 
REMARK    3  A    between atoms: C7_11  and  N4_12 
REMARK    4  A    between atoms: C8_15  and  C9_16 
REMARK    5  A    between atoms: C11_25  and  N10_26 
ROOT
HETATM    1  N4  UNL     1      38.891   2.564   5.740  1.00  0.00    -0.069 N 
HETATM    2  N5  UNL     1      40.073   3.122   5.905  1.00  0.00    -0.272 N 
ATOM      3  H5  UNL     1      40.577   2.966   6.778  1.00  0.00     0.188 HD
HETATM    4  C8  UNL     1      40.633   3.893   4.952  1.00  0.00     0.131 A 
HETATM    5  C10 UNL     1      39.940   4.094   3.778  1.00  0.00     0.163 A 
HETATM    6  N8  UNL     1      40.486   4.894   2.746  1.00  0.00    -0.080 NA
HETATM    7  N9  UNL     1      38.717   3.530   3.579  1.00  0.00    -0.175 N 
ATOM      8  H9  UNL     1      38.193   3.671   2.715  1.00  0.00     0.185 HD
HETATM    9  C11 UNL     1      38.235   2.777   4.583  1.00  0.00     0.700 A 
ENDROOT
BRANCH   1  10
HETATM   10  C7  UNL     1      38.303   1.735   6.786  1.00  0.00     0.154 A 
HETATM   11  N3  UNL     1      38.940   1.428   7.870  1.00  0.00    -0.320 N 
HETATM   12  C6  UNL     1      38.367   0.673   8.789  1.00  0.00     0.148 A 
ATOM     13  H3  UNL     1      39.889   1.772   8.016  1.00  0.00     0.169 HD
HETATM   14  S1  UNL     1      36.833   0.367   8.097  1.00  0.00    -0.062 SA
HETATM   15  C12 UNL     1      37.025   1.242   6.644  1.00  0.00     0.104 A 
BRANCH  12  16
HETATM   16  N2  UNL     1      38.927   0.249  10.048  1.00  0.00    -0.358 N 
HETATM   17  C5  UNL     1      40.255  -0.295   9.994  1.00  0.00     0.155 C 
HETATM   18  C4  UNL     1      40.766  -0.758  11.320  1.00  0.00     0.292 C 
HETATM   19  N1  UNL     1      40.196   0.125  12.324  1.00  0.00     0.095 N 
HETATM   20  C14 UNL     1      38.789  -0.088  12.490  1.00  0.00     0.292 C 
HETATM   21  C13 UNL     1      38.121   0.400  11.208  1.00  0.00     0.155 C 
BRANCH  19  22
HETATM   22  C2  UNL     1      40.982   0.183  13.513  1.00  0.00     0.215 C 
HETATM   23  C1  UNL     1      40.990  -1.037  14.361  1.00  0.00     0.042 C 
HETATM   24  C3  UNL     1      40.563   1.372  14.332  1.00  0.00     0.042 C 
ENDBRANCH  19  22
ENDBRANCH  12  16
ENDBRANCH   1  10
BRANCH   9  25
HETATM   25  N10 UNL     1      37.063   2.201   4.452  1.00  0.00    -0.233 N 
ATOM     26 2H10 UNL     1      36.240   2.640   4.867  1.00  0.00     0.174 HD
ATOM     27 1H10 UNL     1      37.036   1.327   3.927  1.00  0.00     0.174 HD
ENDBRANCH   9  25
BRANCH   4  28
HETATM   28  C9  UNL     1      41.936   4.503   5.141  1.00  0.00     0.141 C 
HETATM   29  N6  UNL     1      42.432   5.244   4.228  1.00  0.00    -0.386 N 
ATOM     30  H62 UNL     1      41.922   5.411   3.361  1.00  0.00     0.157 HD
ATOM     31  H61 UNL     1      43.348   5.674   4.362  1.00  0.00     0.157 HD
HETATM   32  N7  UNL     1      42.642   4.271   6.342  1.00  0.00    -0.081 NA
ENDBRANCH   4  28
TORSDOF 5
ENDMDL
