MODEL 1
REMARK VINA RESULT: -9.055544434      0.000      0.000
REMARK  6 active torsions:
REMARK  status: ('A' for Active; 'I' for Inactive)
REMARK    1  A    between atoms: N1_2  and  C2_3 
REMARK    2  A    between atoms: N1_2  and  C5_7 
REMARK    3  A    between atoms: C2_3  and  C3_4 
REMARK    4  A    between atoms: C7_11  and  C8_12 
REMARK    5  A    between atoms: C10_16  and  N5_17 
REMARK    6  A    between atoms: C11_22  and  N7_23 
ROOT
HETATM    1  C3  UNL     1      41.046   4.602   4.410  1.00  0.00     0.144 C 
HETATM    2  C4  UNL     1      42.121   4.414   5.395  1.00  0.00     0.060 C 
HETATM    3  N2  UNL     1      42.987   4.267   6.160  1.00  0.00    -0.197 NA
ENDROOT
BRANCH   1   4
HETATM    4  C2  UNL     1      40.547   3.262   3.905  1.00  0.00     0.155 C 
BRANCH   4   5
HETATM    5  N1  UNL     1      39.227   2.963   4.375  1.00  0.00    -0.221 N 
HETATM    6  C1  UNL     1      38.111   3.396   3.554  1.00  0.00     0.168 C 
BRANCH   5   7
HETATM    7  C5  UNL     1      38.951   2.288   5.587  1.00  0.00     0.682 A 
HETATM    8  N3  UNL     1      38.398   1.031   5.561  1.00  0.00    -0.201 N 
HETATM    9  C6  UNL     1      38.114   0.322   6.639  1.00  0.00     0.121 A 
ATOM     10  H3  UNL     1      38.192   0.618   4.651  1.00  0.00     0.183 HD
HETATM   11  C7  UNL     1      38.377   0.840   7.888  1.00  0.00     0.056 A 
HETATM   12  C15 UNL     1      38.931   2.091   7.926  1.00  0.00     0.269 A 
HETATM   13  O1  UNL     1      39.195   2.620   9.036  1.00  0.00    -0.267 OA
HETATM   14  N10 UNL     1      39.214   2.807   6.793  1.00  0.00    -0.155 N 
ATOM     15  H10 UNL     1      39.626   3.737   6.868  1.00  0.00     0.187 HD
BRANCH  11  16
HETATM   16  C8  UNL     1      38.059   0.033   9.094  1.00  0.00     0.186 C 
HETATM   17  C9  UNL     1      39.312  -0.412   9.799  1.00  0.00     0.066 A 
HETATM   18  N4  UNL     1      40.202   0.274  10.562  1.00  0.00    -0.193 N 
HETATM   19  C12 UNL     1      39.485  -1.750   9.561  1.00  0.00     0.030 A 
HETATM   20  C10 UNL     1      41.260  -0.366  11.088  1.00  0.00     0.677 A 
ATOM     21  H4  UNL     1      40.068   1.270  10.735  1.00  0.00     0.184 HD
HETATM   22  N6  UNL     1      41.435  -1.680  10.857  1.00  0.00    -0.177 N 
HETATM   23  C11 UNL     1      40.579  -2.383  10.111  1.00  0.00     0.124 A 
ATOM     24  H6  UNL     1      42.243  -2.152  11.263  1.00  0.00     0.185 HD
HETATM   25  C13 UNL     1      38.387  -2.284   8.709  1.00  0.00     0.180 C 
HETATM   26  N8  UNL     1      37.395  -1.209   8.751  1.00  0.00    -0.300 N 
HETATM   27  C14 UNL     1      36.019  -1.374   8.498  1.00  0.00     0.181 C 
HETATM   28  N9  UNL     1      34.885  -1.510   8.269  1.00  0.00    -0.172 NA
BRANCH  20  29
HETATM   29  N5  UNL     1      42.084   0.325  11.807  1.00  0.00    -0.234 N 
ATOM     30  H52 UNL     1      41.788   1.142  12.342  1.00  0.00     0.174 HD
ATOM     31  H51 UNL     1      43.060   0.027  11.828  1.00  0.00     0.174 HD
ENDBRANCH  20  29
BRANCH  23  32
HETATM   32  N7  UNL     1      40.747  -3.644   9.888  1.00  0.00    -0.385 N 
ATOM     33  H72 UNL     1      41.594  -3.951   9.410  1.00  0.00     0.157 HD
ATOM     34  H71 UNL     1      40.058  -4.338  10.178  1.00  0.00     0.157 HD
ENDBRANCH  23  32
ENDBRANCH  11  16
ENDBRANCH   5   7
ENDBRANCH   4   5
ENDBRANCH   1   4
TORSDOF 6
ENDMDL
MODEL 2
REMARK VINA RESULT: -8.196887964      2.095      2.856
REMARK  6 active torsions:
REMARK  status: ('A' for Active; 'I' for Inactive)
REMARK    1  A    between atoms: N1_2  and  C2_3 
REMARK    2  A    between atoms: N1_2  and  C5_7 
REMARK    3  A    between atoms: C2_3  and  C3_4 
REMARK    4  A    between atoms: C7_11  and  C8_12 
REMARK    5  A    between atoms: C10_16  and  N5_17 
REMARK    6  A    between atoms: C11_22  and  N7_23 
ROOT
HETATM    1  C3  UNL     1      42.414   4.431   5.246  1.00  0.00     0.144 C 
HETATM    2  C4  UNL     1      42.971   4.356   6.605  1.00  0.00     0.060 C 
HETATM    3  N2  UNL     1      43.406   4.276   7.682  1.00  0.00    -0.197 NA
ENDROOT
BRANCH   1   4
HETATM    4  C2  UNL     1      40.968   4.883   5.288  1.00  0.00     0.155 C 
BRANCH   4   5
HETATM    5  N1  UNL     1      40.061   3.828   4.946  1.00  0.00    -0.221 N 
HETATM    6  C1  UNL     1      39.802   3.598   3.537  1.00  0.00     0.168 C 
BRANCH   5   7
HETATM    7  C5  UNL     1      39.399   3.013   5.896  1.00  0.00     0.682 A 
HETATM    8  N3  UNL     1      39.828   2.995   7.200  1.00  0.00    -0.201 N 
HETATM    9  C6  UNL     1      39.269   2.274   8.156  1.00  0.00     0.121 A 
ATOM     10  H3  UNL     1      40.629   3.576   7.448  1.00  0.00     0.183 HD
HETATM   11  C7  UNL     1      38.183   1.478   7.866  1.00  0.00     0.056 A 
HETATM   12  C15 UNL     1      37.746   1.489   6.569  1.00  0.00     0.269 A 
HETATM   13  O1  UNL     1      36.758   0.784   6.239  1.00  0.00    -0.267 OA
HETATM   14  N10 UNL     1      38.344   2.245   5.595  1.00  0.00    -0.155 N 
ATOM     15  H10 UNL     1      37.986   2.223   4.641  1.00  0.00     0.187 HD
BRANCH  11  16
HETATM   16  C8  UNL     1      37.559   0.674   8.948  1.00  0.00     0.186 C 
HETATM   17  C9  UNL     1      37.895   1.232  10.305  1.00  0.00     0.066 A 
HETATM   18  N4  UNL     1      37.454   2.342  10.951  1.00  0.00    -0.193 N 
HETATM   19  C12 UNL     1      38.809   0.400  10.895  1.00  0.00     0.030 A 
HETATM   20  C10 UNL     1      37.918   2.625  12.180  1.00  0.00     0.677 A 
ATOM     21  H4  UNL     1      36.774   2.958  10.505  1.00  0.00     0.184 HD
HETATM   22  N6  UNL     1      38.816   1.811  12.765  1.00  0.00    -0.177 N 
HETATM   23  C11 UNL     1      39.269   0.713  12.157  1.00  0.00     0.124 A 
ATOM     24  H6  UNL     1      39.158   2.039  13.698  1.00  0.00     0.185 HD
HETATM   25  C13 UNL     1      39.135  -0.748  10.005  1.00  0.00     0.180 C 
HETATM   26  N8  UNL     1      38.084  -0.676   8.988  1.00  0.00    -0.300 N 
HETATM   27  C14 UNL     1      37.663  -1.757   8.189  1.00  0.00     0.181 C 
HETATM   28  N9  UNL     1      37.331  -2.647   7.517  1.00  0.00    -0.172 NA
BRANCH  20  29
HETATM   29  N5  UNL     1      37.473   3.693  12.760  1.00  0.00    -0.234 N 
ATOM     30  H52 UNL     1      36.642   4.186  12.431  1.00  0.00     0.174 HD
ATOM     31  H51 UNL     1      37.983   4.039  13.572  1.00  0.00     0.174 HD
ENDBRANCH  20  29
BRANCH  23  32
HETATM   32  N7  UNL     1      40.132  -0.068  12.717  1.00  0.00    -0.385 N 
ATOM     33  H72 UNL     1      39.893  -0.509  13.605  1.00  0.00     0.157 HD
ATOM     34  H71 UNL     1      41.042  -0.255  12.296  1.00  0.00     0.157 HD
ENDBRANCH  23  32
ENDBRANCH  11  16
ENDBRANCH   5   7
ENDBRANCH   4   5
ENDBRANCH   1   4
TORSDOF 6
ENDMDL
MODEL 3
REMARK VINA RESULT: -8.007969316      2.459      3.630
REMARK  6 active torsions:
REMARK  status: ('A' for Active; 'I' for Inactive)
REMARK    1  A    between atoms: N1_2  and  C2_3 
REMARK    2  A    between atoms: N1_2  and  C5_7 
REMARK    3  A    between atoms: C2_3  and  C3_4 
REMARK    4  A    between atoms: C7_11  and  C8_12 
REMARK    5  A    between atoms: C10_16  and  N5_17 
REMARK    6  A    between atoms: C11_22  and  N7_23 
ROOT
HETATM    1  C3  UNL     1      40.719   4.335   4.928  1.00  0.00     0.144 C 
HETATM    2  C4  UNL     1      41.949   4.304   5.732  1.00  0.00     0.060 C 
HETATM    3  N2  UNL     1      42.936   4.283   6.352  1.00  0.00    -0.197 NA
ENDROOT
BRANCH   1   4
HETATM    4  C2  UNL     1      40.334   2.935   4.491  1.00  0.00     0.155 C 
BRANCH   4   5
HETATM    5  N1  UNL     1      38.997   2.595   4.877  1.00  0.00    -0.221 N 
HETATM    6  C1  UNL     1      37.919   3.028   4.007  1.00  0.00     0.168 C 
BRANCH   5   7
HETATM    7  C5  UNL     1      38.669   1.879   6.052  1.00  0.00     0.682 A 
HETATM    8  N3  UNL     1      39.002   2.391   7.282  1.00  0.00    -0.201 N 
HETATM    9  C6  UNL     1      38.731   1.799   8.432  1.00  0.00     0.121 A 
ATOM     10  H3  UNL     1      39.491   3.286   7.311  1.00  0.00     0.183 HD
HETATM   11  C7  UNL     1      38.070   0.590   8.440  1.00  0.00     0.056 A 
HETATM   12  C15 UNL     1      37.732   0.071   7.220  1.00  0.00     0.269 A 
HETATM   13  O1  UNL     1      37.127  -1.030   7.158  1.00  0.00    -0.267 OA
HETATM   14  N10 UNL     1      38.026   0.704   6.041  1.00  0.00    -0.155 N 
ATOM     15  H10 UNL     1      37.756   0.281   5.154  1.00  0.00     0.187 HD
BRANCH  11  16
HETATM   16  C8  UNL     1      37.766  -0.066   9.737  1.00  0.00     0.186 C 
HETATM   17  C9  UNL     1      37.483   0.952  10.809  1.00  0.00     0.066 A 
HETATM   18  N4  UNL     1      36.406   1.751  11.024  1.00  0.00    -0.193 N 
HETATM   19  C12 UNL     1      38.562   0.996  11.653  1.00  0.00     0.030 A 
HETATM   20  C10 UNL     1      36.399   2.591  12.073  1.00  0.00     0.677 A 
ATOM     21  H4  UNL     1      35.607   1.714  10.391  1.00  0.00     0.184 HD
HETATM   22  N6  UNL     1      37.455   2.638  12.905  1.00  0.00    -0.177 N 
HETATM   23  C11 UNL     1      38.529   1.866  12.722  1.00  0.00     0.124 A 
ATOM     24  H6  UNL     1      37.435   3.280  13.697  1.00  0.00     0.185 HD
HETATM   25  C13 UNL     1      39.612   0.032  11.223  1.00  0.00     0.180 C 
HETATM   26  N8  UNL     1      38.905  -0.802  10.249  1.00  0.00    -0.300 N 
HETATM   27  C14 UNL     1      39.284  -2.108   9.884  1.00  0.00     0.181 C 
HETATM   28  N9  UNL     1      39.611  -3.181   9.569  1.00  0.00    -0.172 NA
BRANCH  20  29
HETATM   29  N5  UNL     1      35.354   3.336  12.240  1.00  0.00    -0.234 N 
ATOM     30  H52 UNL     1      35.093   3.711  13.152  1.00  0.00     0.174 HD
ATOM     31  H51 UNL     1      34.785   3.545  11.420  1.00  0.00     0.174 HD
ENDBRANCH  20  29
BRANCH  23  32
HETATM   32  N7  UNL     1      39.544   1.912  13.519  1.00  0.00    -0.385 N 
ATOM     33  H72 UNL     1      39.675   2.737  14.103  1.00  0.00     0.157 HD
ATOM     34  H71 UNL     1      40.216   1.147  13.580  1.00  0.00     0.157 HD
ENDBRANCH  23  32
ENDBRANCH  11  16
ENDBRANCH   5   7
ENDBRANCH   4   5
ENDBRANCH   1   4
TORSDOF 6
ENDMDL
MODEL 4
REMARK VINA RESULT: -7.927388520      3.620      7.584
REMARK  6 active torsions:
REMARK  status: ('A' for Active; 'I' for Inactive)
REMARK    1  A    between atoms: N1_2  and  C2_3 
REMARK    2  A    between atoms: N1_2  and  C5_7 
REMARK    3  A    between atoms: C2_3  and  C3_4 
REMARK    4  A    between atoms: C7_11  and  C8_12 
REMARK    5  A    between atoms: C10_16  and  N5_17 
REMARK    6  A    between atoms: C11_22  and  N7_23 
ROOT
HETATM    1  C3  UNL     1      41.604   2.452  17.562  1.00  0.00     0.144 C 
HETATM    2  C4  UNL     1      42.912   2.252  18.205  1.00  0.00     0.060 C 
HETATM    3  N2  UNL     1      43.956   2.107  18.699  1.00  0.00    -0.197 NA
ENDROOT
BRANCH   1   4
HETATM    4  C2  UNL     1      41.344   1.367  16.536  1.00  0.00     0.155 C 
BRANCH   4   5
HETATM    5  N1  UNL     1      40.689   1.872  15.366  1.00  0.00    -0.221 N 
HETATM    6  C1  UNL     1      40.042   3.167  15.468  1.00  0.00     0.168 C 
BRANCH   5   7
HETATM    7  C5  UNL     1      40.627   1.182  14.132  1.00  0.00     0.682 A 
HETATM    8  N3  UNL     1      39.503   1.279  13.348  1.00  0.00    -0.201 N 
HETATM    9  C6  UNL     1      39.358   0.678  12.181  1.00  0.00     0.121 A 
ATOM     10  H3  UNL     1      38.731   1.851  13.690  1.00  0.00     0.183 HD
HETATM   11  C7  UNL     1      40.378  -0.103  11.681  1.00  0.00     0.056 A 
HETATM   12  C15 UNL     1      41.503  -0.205  12.453  1.00  0.00     0.269 A 
HETATM   13  O1  UNL     1      42.470  -0.903  12.053  1.00  0.00    -0.267 OA
HETATM   14  N10 UNL     1      41.628   0.427  13.662  1.00  0.00    -0.155 N 
ATOM     15  H10 UNL     1      42.485   0.322  14.205  1.00  0.00     0.187 HD
BRANCH  11  16
HETATM   16  C8  UNL     1      40.206  -0.770  10.365  1.00  0.00     0.186 C 
HETATM   17  C9  UNL     1      39.431   0.098   9.411  1.00  0.00     0.066 A 
HETATM   18  N4  UNL     1      39.783   1.220   8.733  1.00  0.00    -0.193 N 
HETATM   19  C12 UNL     1      38.172  -0.428   9.281  1.00  0.00     0.030 A 
HETATM   20  C10 UNL     1      38.890   1.820   7.927  1.00  0.00     0.677 A 
ATOM     21  H4  UNL     1      40.721   1.607   8.835  1.00  0.00     0.184 HD
HETATM   22  N6  UNL     1      37.652   1.307   7.795  1.00  0.00    -0.177 N 
HETATM   23  C11 UNL     1      37.274   0.206   8.448  1.00  0.00     0.124 A 
ATOM     24  H6  UNL     1      36.985   1.773   7.181  1.00  0.00     0.185 HD
HETATM   25  C13 UNL     1      38.021  -1.656  10.109  1.00  0.00     0.180 C 
HETATM   26  N8  UNL     1      39.404  -1.972  10.471  1.00  0.00    -0.300 N 
HETATM   27  C14 UNL     1      39.863  -3.247  10.855  1.00  0.00     0.181 C 
HETATM   28  N9  UNL     1      40.236  -4.298  11.191  1.00  0.00    -0.172 NA
BRANCH  20  29
HETATM   29  N5  UNL     1      39.265   2.888   7.301  1.00  0.00    -0.234 N 
ATOM     30  H52 UNL     1      39.158   3.820   7.701  1.00  0.00     0.174 HD
ATOM     31  H51 UNL     1      39.683   2.774   6.378  1.00  0.00     0.174 HD
ENDBRANCH  20  29
BRANCH  23  32
HETATM   32  N7  UNL     1      36.087  -0.286   8.323  1.00  0.00    -0.385 N 
ATOM     33  H72 UNL     1      35.427   0.174   7.696  1.00  0.00     0.157 HD
ATOM     34  H71 UNL     1      35.793  -1.119   8.833  1.00  0.00     0.157 HD
ENDBRANCH  23  32
ENDBRANCH  11  16
ENDBRANCH   5   7
ENDBRANCH   4   5
ENDBRANCH   1   4
TORSDOF 6
ENDMDL
MODEL 5
REMARK VINA RESULT: -7.820498195      0.978      2.409
REMARK  6 active torsions:
REMARK  status: ('A' for Active; 'I' for Inactive)
REMARK    1  A    between atoms: N1_2  and  C2_3 
REMARK    2  A    between atoms: N1_2  and  C5_7 
REMARK    3  A    between atoms: C2_3  and  C3_4 
REMARK    4  A    between atoms: C7_11  and  C8_12 
REMARK    5  A    between atoms: C10_16  and  N5_17 
REMARK    6  A    between atoms: C11_22  and  N7_23 
ROOT
HETATM    1  C3  UNL     1      36.895   3.530   3.818  1.00  0.00     0.144 C 
HETATM    2  C4  UNL     1      35.868   2.478   3.864  1.00  0.00     0.060 C 
HETATM    3  N2  UNL     1      35.060   1.641   3.921  1.00  0.00    -0.197 NA
ENDROOT
BRANCH   1   4
HETATM    4  C2  UNL     1      38.224   2.957   3.366  1.00  0.00     0.155 C 
BRANCH   4   5
HETATM    5  N1  UNL     1      39.167   2.863   4.440  1.00  0.00    -0.221 N 
HETATM    6  C1  UNL     1      40.462   3.489   4.250  1.00  0.00     0.168 C 
BRANCH   5   7
HETATM    7  C5  UNL     1      38.914   2.191   5.660  1.00  0.00     0.682 A 
HETATM    8  N3  UNL     1      38.408   0.914   5.648  1.00  0.00    -0.201 N 
HETATM    9  C6  UNL     1      38.148   0.208   6.733  1.00  0.00     0.121 A 
ATOM     10  H3  UNL     1      38.221   0.484   4.742  1.00  0.00     0.183 HD
HETATM   11  C7  UNL     1      38.389   0.750   7.977  1.00  0.00     0.056 A 
HETATM   12  C15 UNL     1      38.895   2.021   8.001  1.00  0.00     0.269 A 
HETATM   13  O1  UNL     1      39.137   2.573   9.105  1.00  0.00    -0.267 OA
HETATM   14  N10 UNL     1      39.154   2.735   6.861  1.00  0.00    -0.155 N 
ATOM     15  H10 UNL     1      39.530   3.680   6.926  1.00  0.00     0.187 HD
BRANCH  11  16
HETATM   16  C8  UNL     1      38.099  -0.054   9.191  1.00  0.00     0.186 C 
HETATM   17  C9  UNL     1      39.367  -0.469   9.887  1.00  0.00     0.066 A 
HETATM   18  N4  UNL     1      40.250   0.240  10.636  1.00  0.00    -0.193 N 
HETATM   19  C12 UNL     1      39.565  -1.805   9.657  1.00  0.00     0.030 A 
HETATM   20  C10 UNL     1      41.326  -0.375  11.157  1.00  0.00     0.677 A 
ATOM     21  H4  UNL     1      40.098   1.235  10.804  1.00  0.00     0.184 HD
HETATM   22  N6  UNL     1      41.525  -1.687  10.934  1.00  0.00    -0.177 N 
HETATM   23  C11 UNL     1      40.677  -2.412  10.202  1.00  0.00     0.124 A 
ATOM     24  H6  UNL     1      42.346  -2.139  11.335  1.00  0.00     0.185 HD
HETATM   25  C13 UNL     1      38.469  -2.368   8.820  1.00  0.00     0.180 C 
HETATM   26  N8  UNL     1      37.456  -1.312   8.863  1.00  0.00    -0.300 N 
HETATM   27  C14 UNL     1      36.082  -1.507   8.625  1.00  0.00     0.181 C 
HETATM   28  N9  UNL     1      34.949  -1.667   8.408  1.00  0.00    -0.172 NA
BRANCH  20  29
HETATM   29  N5  UNL     1      42.143   0.338  11.863  1.00  0.00    -0.234 N 
ATOM     30  H52 UNL     1      42.031   1.346  11.974  1.00  0.00     0.174 HD
ATOM     31  H51 UNL     1      42.919  -0.142  12.319  1.00  0.00     0.174 HD
ENDBRANCH  20  29
BRANCH  23  32
HETATM   32  N7  UNL     1      40.868  -3.671   9.986  1.00  0.00    -0.385 N 
ATOM     33  H72 UNL     1      41.632  -3.955   9.373  1.00  0.00     0.157 HD
ATOM     34  H71 UNL     1      40.278  -4.385  10.412  1.00  0.00     0.157 HD
ENDBRANCH  23  32
ENDBRANCH  11  16
ENDBRANCH   5   7
ENDBRANCH   4   5
ENDBRANCH   1   4
TORSDOF 6
ENDMDL
