MODEL 1
REMARK VINA RESULT: -6.109093167      0.000      0.000
REMARK  1 active torsions:
REMARK  status: ('A' for Active; 'I' for Inactive)
REMARK    1  A    between atoms: C2_2  and  C3_3 
ROOT
HETATM    1  C3  UNL     1      16.387   1.474  13.713  1.00  0.00     0.238 C 
HETATM    2  N1  UNL     1      17.251   2.390  13.042  1.00  0.00    -0.065 N 
ATOM      3  H11 UNL     1      17.533   2.063  12.118  1.00  0.00     0.277 HD
ATOM      4  H12 UNL     1      18.180   2.436  13.460  1.00  0.00     0.277 HD
HETATM    5  C4  UNL     1      16.586   3.683  13.003  1.00  0.00     0.269 C 
HETATM    6  C5  UNL     1      16.092   4.127  14.352  1.00  0.00     0.254 C 
HETATM    7  C6  UNL     1      17.236   4.147  15.341  1.00  0.00     0.020 C 
HETATM    8  C7  UNL     1      18.484   4.750  14.759  1.00  0.00     0.012 C 
HETATM    9  C8  UNL     1      17.444   2.665  15.586  1.00  0.00     0.066 C 
HETATM   10  C9  UNL     1      16.141   2.014  15.103  1.00  0.00     0.274 C 
HETATM   11  C10 UNL     1      15.647   1.035  16.031  1.00  0.00     0.104 C 
HETATM   12  N2  UNL     1      15.265   0.244  16.769  1.00  0.00    -0.194 NA
HETATM   13  N3  UNL     1      15.220   3.141  14.916  1.00  0.00     0.116 N 
HETATM   14  C11 UNL     1      14.572   3.526  16.117  1.00  0.00     0.312 C 
ENDROOT
BRANCH   1  15
HETATM   15  C2  UNL     1      16.821   0.052  13.684  1.00  0.00     0.032 C 
HETATM   16  C1  UNL     1      16.931  -0.558  12.338  1.00  0.00     0.007 C 
ENDBRANCH   1  15
TORSDOF 1
ENDMDL
MODEL 2
REMARK VINA RESULT: -5.790741325      1.164      1.194
REMARK  1 active torsions:
REMARK  status: ('A' for Active; 'I' for Inactive)
REMARK    1  A    between atoms: C2_2  and  C3_3 
ROOT
HETATM    1  C3  UNL     1      16.265   2.584  13.021  1.00  0.00     0.238 C 
HETATM    2  N1  UNL     1      16.787   3.820  12.534  1.00  0.00    -0.065 N 
ATOM      3  H11 UNL     1      16.929   3.818  11.525  1.00  0.00     0.277 HD
ATOM      4  H12 UNL     1      17.757   3.975  12.809  1.00  0.00     0.277 HD
HETATM    5  C4  UNL     1      15.899   4.883  12.977  1.00  0.00     0.269 C 
HETATM    6  C5  UNL     1      15.618   4.835  14.453  1.00  0.00     0.254 C 
HETATM    7  C6  UNL     1      16.917   4.869  15.227  1.00  0.00     0.020 C 
HETATM    8  C7  UNL     1      17.884   5.880  14.677  1.00  0.00     0.012 C 
HETATM    9  C8  UNL     1      17.444   3.467  14.989  1.00  0.00     0.066 C 
HETATM   10  C9  UNL     1      16.214   2.673  14.529  1.00  0.00     0.274 C 
HETATM   11  C10 UNL     1      16.113   1.400  15.186  1.00  0.00     0.104 C 
HETATM   12  N2  UNL     1      16.045   0.378  15.704  1.00  0.00    -0.194 NA
HETATM   13  N3  UNL     1      15.080   3.558  14.819  1.00  0.00     0.116 N 
HETATM   14  C11 UNL     1      14.633   3.457  16.161  1.00  0.00     0.312 C 
ENDROOT
BRANCH   1  15
HETATM   15  C2  UNL     1      16.942   1.362  12.510  1.00  0.00     0.032 C 
HETATM   16  C1  UNL     1      16.264   0.677  11.384  1.00  0.00     0.007 C 
ENDBRANCH   1  15
TORSDOF 1
ENDMDL
MODEL 3
REMARK VINA RESULT: -5.501644091      1.414      3.276
REMARK  1 active torsions:
REMARK  status: ('A' for Active; 'I' for Inactive)
REMARK    1  A    between atoms: C2_2  and  C3_3 
ROOT
HETATM    1  C3  UNL     1      16.903   1.604  13.691  1.00  0.00     0.238 C 
HETATM    2  N1  UNL     1      16.377   0.893  14.812  1.00  0.00    -0.065 N 
ATOM      3  H11 UNL     1      16.574  -0.107  14.774  1.00  0.00     0.277 HD
ATOM      4  H12 UNL     1      15.359   0.832  14.799  1.00  0.00     0.277 HD
HETATM    5  C4  UNL     1      16.889   1.523  16.019  1.00  0.00     0.269 C 
HETATM    6  C5  UNL     1      16.676   3.012  16.038  1.00  0.00     0.254 C 
HETATM    7  C6  UNL     1      15.209   3.326  15.855  1.00  0.00     0.020 C 
HETATM    8  C7  UNL     1      14.325   2.428  16.675  1.00  0.00     0.012 C 
HETATM    9  C8  UNL     1      15.021   3.028  14.380  1.00  0.00     0.066 C 
HETATM   10  C9  UNL     1      16.444   3.039  13.806  1.00  0.00     0.274 C 
HETATM   11  C10 UNL     1      16.529   3.779  12.578  1.00  0.00     0.104 C 
HETATM   12  N2  UNL     1      16.587   4.359  11.590  1.00  0.00    -0.194 NA
HETATM   13  N3  UNL     1      17.264   3.616  14.879  1.00  0.00     0.116 N 
HETATM   14  C11 UNL     1      17.258   5.033  14.872  1.00  0.00     0.312 C 
ENDROOT
BRANCH   1  15
HETATM   15  C2  UNL     1      16.636   0.987  12.364  1.00  0.00     0.032 C 
HETATM   16  C1  UNL     1      16.887  -0.470  12.273  1.00  0.00     0.007 C 
ENDBRANCH   1  15
TORSDOF 1
ENDMDL
MODEL 4
REMARK VINA RESULT: -5.357089587      2.523      4.380
REMARK  1 active torsions:
REMARK  status: ('A' for Active; 'I' for Inactive)
REMARK    1  A    between atoms: C2_2  and  C3_3 
ROOT
HETATM    1  C3  UNL     1      17.170   3.535  14.001  1.00  0.00     0.238 C 
HETATM    2  N1  UNL     1      17.588   4.348  15.098  1.00  0.00    -0.065 N 
ATOM      3  H11 UNL     1      17.324   3.957  16.002  1.00  0.00     0.277 HD
ATOM      4  H12 UNL     1      17.061   5.219  15.167  1.00  0.00     0.277 HD
HETATM    5  C4  UNL     1      19.021   4.564  14.972  1.00  0.00     0.269 C 
HETATM    6  C5  UNL     1      19.421   5.058  13.610  1.00  0.00     0.254 C 
HETATM    7  C6  UNL     1      18.661   6.322  13.275  1.00  0.00     0.020 C 
HETATM    8  C7  UNL     1      18.599   7.277  14.435  1.00  0.00     0.012 C 
HETATM    9  C8  UNL     1      17.278   5.771  12.986  1.00  0.00     0.066 C 
HETATM   10  C9  UNL     1      17.511   4.276  12.729  1.00  0.00     0.274 C 
HETATM   11  C10 UNL     1      16.802   3.807  11.572  1.00  0.00     0.104 C 
HETATM   12  N2  UNL     1      16.222   3.435  10.655  1.00  0.00    -0.194 NA
HETATM   13  N3  UNL     1      18.968   4.154  12.596  1.00  0.00     0.116 N 
HETATM   14  C11 UNL     1      19.426   4.441  11.285  1.00  0.00     0.312 C 
ENDROOT
BRANCH   1  15
HETATM   15  C2  UNL     1      15.764   3.055  14.063  1.00  0.00     0.032 C 
HETATM   16  C1  UNL     1      14.904   3.718  15.072  1.00  0.00     0.007 C 
ENDBRANCH   1  15
TORSDOF 1
ENDMDL
MODEL 5
REMARK VINA RESULT: -5.331831661      1.926      3.973
REMARK  1 active torsions:
REMARK  status: ('A' for Active; 'I' for Inactive)
REMARK    1  A    between atoms: C2_2  and  C3_3 
ROOT
HETATM    1  C3  UNL     1      16.928   2.820  12.681  1.00  0.00     0.238 C 
HETATM    2  N1  UNL     1      15.943   2.685  13.704  1.00  0.00    -0.065 N 
ATOM      3  H11 UNL     1      15.468   1.782  13.679  1.00  0.00     0.277 HD
ATOM      4  H12 UNL     1      15.125   3.274  13.546  1.00  0.00     0.277 HD
HETATM    5  C4  UNL     1      16.588   2.946  14.981  1.00  0.00     0.269 C 
HETATM    6  C5  UNL     1      17.361   4.236  14.993  1.00  0.00     0.254 C 
HETATM    7  C6  UNL     1      16.456   5.384  14.608  1.00  0.00     0.020 C 
HETATM    8  C7  UNL     1      15.114   5.305  15.281  1.00  0.00     0.012 C 
HETATM    9  C8  UNL     1      16.301   5.156  13.117  1.00  0.00     0.066 C 
HETATM   10  C9  UNL     1      17.468   4.230  12.751  1.00  0.00     0.274 C 
HETATM   11  C10 UNL     1      18.147   4.655  11.559  1.00  0.00     0.104 C 
HETATM   12  N2  UNL     1      18.676   4.992  10.599  1.00  0.00    -0.194 NA
HETATM   13  N3  UNL     1      18.331   4.247  13.939  1.00  0.00     0.116 N 
HETATM   14  C11 UNL     1      19.222   5.350  13.954  1.00  0.00     0.312 C 
ENDROOT
BRANCH   1  15
HETATM   15  C2  UNL     1      16.494   2.406  11.320  1.00  0.00     0.032 C 
HETATM   16  C1  UNL     1      16.131   0.977  11.170  1.00  0.00     0.007 C 
ENDBRANCH   1  15
TORSDOF 1
ENDMDL
