MODEL 1
REMARK VINA RESULT: -5.508744334      0.000      0.000
REMARK  2 active torsions:
REMARK  status: ('A' for Active; 'I' for Inactive)
REMARK    1  A    between atoms: C2_2  and  C3_3 
REMARK    2  A    between atoms: C9_13  and  O1_14 
ROOT
HETATM    1  C3  UNL     1      16.603   3.158  13.344  1.00  0.00     0.022 A 
HETATM    2  C4  UNL     1      16.815   4.305  12.412  1.00  0.00     0.287 C 
HETATM    3  N1  UNL     1      18.104   4.922  12.459  1.00  0.00     0.114 N 
HETATM    4  C5  UNL     1      17.964   6.219  13.106  1.00  0.00     0.277 C 
HETATM    5  C6  UNL     1      17.284   5.892  14.444  1.00  0.00     0.066 C 
HETATM    6  C7  UNL     1      17.826   4.602  15.001  1.00  0.00     0.224 C 
HETATM    7  N2  UNL     1      19.154   4.317  14.486  1.00  0.00    -0.042 N 
ATOM      8  H21 UNL     1      19.562   3.504  14.947  1.00  0.00     0.279 HD
ATOM      9  H22 UNL     1      19.826   5.026  14.782  1.00  0.00     0.279 HD
HETATM   10  C8  UNL     1      19.158   4.161  13.055  1.00  0.00     0.503 C 
HETATM   11  C9  UNL     1      17.015   3.385  14.746  1.00  0.00     0.099 A 
HETATM   12  C11 UNL     1      15.569   3.437  14.452  1.00  0.00     0.055 A 
ENDROOT
BRANCH   1  13
HETATM   13  C2  UNL     1      16.530   1.804  12.709  1.00  0.00     0.010 C 
HETATM   14  C1  UNL     1      16.112   1.751  11.291  1.00  0.00     0.006 C 
ENDBRANCH   1  13
BRANCH  11  15
HETATM   15  O1  UNL     1      17.415   2.257  15.446  1.00  0.00    -0.382 OA
HETATM   16  C10 UNL     1      16.551   1.914  16.439  1.00  0.00     0.202 C 
ENDBRANCH  11  15
TORSDOF 2
ENDMDL
MODEL 2
REMARK VINA RESULT: -4.915697770      1.565      2.991
REMARK  2 active torsions:
REMARK  status: ('A' for Active; 'I' for Inactive)
REMARK    1  A    between atoms: C2_2  and  C3_3 
REMARK    2  A    between atoms: C9_13  and  O1_14 
ROOT
HETATM    1  C3  UNL     1      18.357   4.373  12.220  1.00  0.00     0.022 A 
HETATM    2  C4  UNL     1      18.292   5.653  12.986  1.00  0.00     0.287 C 
HETATM    3  N1  UNL     1      18.278   5.532  14.411  1.00  0.00     0.114 N 
HETATM    4  C5  UNL     1      16.937   5.849  14.882  1.00  0.00     0.277 C 
HETATM    5  C6  UNL     1      16.032   4.901  14.081  1.00  0.00     0.066 C 
HETATM    6  C7  UNL     1      16.695   3.558  13.923  1.00  0.00     0.224 C 
HETATM    7  N2  UNL     1      17.670   3.320  14.973  1.00  0.00    -0.042 N 
ATOM      8  H21 UNL     1      18.036   2.369  14.928  1.00  0.00     0.279 HD
ATOM      9  H22 UNL     1      17.224   3.279  15.889  1.00  0.00     0.279 HD
HETATM   10  C8  UNL     1      18.734   4.290  14.953  1.00  0.00     0.503 C 
HETATM   11  C9  UNL     1      17.404   3.323  12.641  1.00  0.00     0.099 A 
HETATM   12  C11 UNL     1      17.086   4.067  11.405  1.00  0.00     0.055 A 
ENDROOT
BRANCH   1  13
HETATM   13  C2  UNL     1      19.657   4.087  11.535  1.00  0.00     0.010 C 
HETATM   14  C1  UNL     1      20.693   5.140  11.599  1.00  0.00     0.006 C 
ENDBRANCH   1  13
BRANCH  11  15
HETATM   15  O1  UNL     1      17.816   2.016  12.429  1.00  0.00    -0.382 OA
HETATM   16  C10 UNL     1      16.780   1.156  12.236  1.00  0.00     0.202 C 
ENDBRANCH  11  15
TORSDOF 2
ENDMDL
MODEL 3
REMARK VINA RESULT: -4.752110740      2.072      3.474
REMARK  2 active torsions:
REMARK  status: ('A' for Active; 'I' for Inactive)
REMARK    1  A    between atoms: C2_2  and  C3_3 
REMARK    2  A    between atoms: C9_13  and  O1_14 
ROOT
HETATM    1  C3  UNL     1      16.804   2.757  12.650  1.00  0.00     0.022 A 
HETATM    2  C4  UNL     1      16.893   1.809  13.800  1.00  0.00     0.287 C 
HETATM    3  N1  UNL     1      16.047   2.095  14.916  1.00  0.00     0.114 N 
HETATM    4  C5  UNL     1      16.879   2.590  16.003  1.00  0.00     0.277 C 
HETATM    5  C6  UNL     1      17.646   3.764  15.375  1.00  0.00     0.066 C 
HETATM    6  C7  UNL     1      16.749   4.528  14.436  1.00  0.00     0.224 C 
HETATM    7  N2  UNL     1      15.349   4.347  14.774  1.00  0.00    -0.042 N 
ATOM      8  H21 UNL     1      14.752   4.950  14.208  1.00  0.00     0.279 HD
ATOM      9  H22 UNL     1      15.138   4.729  15.696  1.00  0.00     0.279 HD
HETATM   10  C8  UNL     1      14.941   2.969  14.675  1.00  0.00     0.503 C 
HETATM   11  C9  UNL     1      16.873   4.194  12.995  1.00  0.00     0.099 A 
HETATM   12  C11 UNL     1      18.086   3.581  12.419  1.00  0.00     0.055 A 
ENDROOT
BRANCH   1  13
HETATM   13  C2  UNL     1      16.136   2.231  11.418  1.00  0.00     0.010 C 
HETATM   14  C1  UNL     1      16.144   0.764  11.227  1.00  0.00     0.006 C 
ENDBRANCH   1  13
BRANCH  11  15
HETATM   15  O1  UNL     1      16.204   5.052  12.135  1.00  0.00    -0.382 OA
HETATM   16  C10 UNL     1      16.770   6.287  12.070  1.00  0.00     0.202 C 
ENDBRANCH  11  15
TORSDOF 2
ENDMDL
MODEL 4
REMARK VINA RESULT: -4.709299484      1.456      3.025
REMARK  2 active torsions:
REMARK  status: ('A' for Active; 'I' for Inactive)
REMARK    1  A    between atoms: C2_2  and  C3_3 
REMARK    2  A    between atoms: C9_13  and  O1_14 
ROOT
HETATM    1  C3  UNL     1      16.183   4.062  14.623  1.00  0.00     0.022 A 
HETATM    2  C4  UNL     1      16.910   5.305  15.019  1.00  0.00     0.287 C 
HETATM    3  N1  UNL     1      17.248   6.200  13.955  1.00  0.00     0.114 N 
HETATM    4  C5  UNL     1      18.685   6.118  13.732  1.00  0.00     0.277 C 
HETATM    5  C6  UNL     1      18.938   4.620  13.506  1.00  0.00     0.066 C 
HETATM    6  C7  UNL     1      17.813   4.017  12.707  1.00  0.00     0.224 C 
HETATM    7  N2  UNL     1      17.127   5.021  11.913  1.00  0.00    -0.042 N 
ATOM      8  H21 UNL     1      16.440   4.595  11.291  1.00  0.00     0.279 HD
ATOM      9  H22 UNL     1      17.749   5.427  11.213  1.00  0.00     0.279 HD
HETATM   10  C8  UNL     1      16.527   6.043  12.731  1.00  0.00     0.503 C 
HETATM   11  C9  UNL     1      16.760   3.316  13.483  1.00  0.00     0.099 A 
HETATM   12  C11 UNL     1      16.995   2.770  14.835  1.00  0.00     0.055 A 
ENDROOT
BRANCH   1  13
HETATM   13  C2  UNL     1      14.739   3.997  15.012  1.00  0.00     0.010 C 
HETATM   14  C1  UNL     1      14.441   3.695  16.429  1.00  0.00     0.006 C 
ENDBRANCH   1  13
BRANCH  11  15
HETATM   15  O1  UNL     1      15.858   2.588  12.723  1.00  0.00    -0.382 OA
HETATM   16  C10 UNL     1      16.426   1.520  12.102  1.00  0.00     0.202 C 
ENDBRANCH  11  15
TORSDOF 2
ENDMDL
MODEL 5
REMARK VINA RESULT: -4.592977020      2.233      4.656
REMARK  2 active torsions:
REMARK  status: ('A' for Active; 'I' for Inactive)
REMARK    1  A    between atoms: C2_2  and  C3_3 
REMARK    2  A    between atoms: C9_13  and  O1_14 
ROOT
HETATM    1  C3  UNL     1      18.293   6.768  13.520  1.00  0.00     0.022 A 
HETATM    2  C4  UNL     1      17.405   6.159  14.554  1.00  0.00     0.287 C 
HETATM    3  N1  UNL     1      17.817   4.889  15.067  1.00  0.00     0.114 N 
HETATM    4  C5  UNL     1      16.926   3.871  14.528  1.00  0.00     0.277 C 
HETATM    5  C6  UNL     1      17.003   4.081  13.008  1.00  0.00     0.066 C 
HETATM    6  C7  UNL     1      18.411   4.429  12.601  1.00  0.00     0.224 C 
HETATM    7  N2  UNL     1      19.379   3.944  13.569  1.00  0.00    -0.042 N 
ATOM      8  H21 UNL     1      20.333   4.083  13.238  1.00  0.00     0.279 HD
ATOM      9  H22 UNL     1      19.372   2.925  13.620  1.00  0.00     0.279 HD
HETATM   10  C8  UNL     1      19.187   4.532  14.869  1.00  0.00     0.503 C 
HETATM   11  C9  UNL     1      18.701   5.873  12.416  1.00  0.00     0.099 A 
HETATM   12  C11 UNL     1      17.651   6.868  12.124  1.00  0.00     0.055 A 
ENDROOT
BRANCH   1  13
HETATM   13  C2  UNL     1      19.088   7.959  13.960  1.00  0.00     0.010 C 
HETATM   14  C1  UNL     1      19.063   8.284  15.402  1.00  0.00     0.006 C 
ENDBRANCH   1  13
BRANCH  11  15
HETATM   15  O1  UNL     1      19.929   6.154  11.836  1.00  0.00    -0.382 OA
HETATM   16  C10 UNL     1      19.954   5.910  10.498  1.00  0.00     0.202 C 
ENDBRANCH  11  15
TORSDOF 2
ENDMDL
