MODEL 1
REMARK VINA RESULT: -6.697883131      0.000      0.000
REMARK  2 active torsions:
REMARK  status: ('A' for Active; 'I' for Inactive)
REMARK    1  A    between atoms: C4_5  and  O1_6 
REMARK    2  A    between atoms: C6_9  and  N2_10 
ROOT
HETATM    1  N1  UNL     1      16.328   0.807  10.531  1.00  0.00    -0.197 NA
HETATM    2  C1  UNL     1      16.276   1.565  11.419  1.00  0.00     0.064 C 
HETATM    3  C2  UNL     1      16.189   2.501  12.504  1.00  0.00     0.097 C 
HETATM    4  C3  UNL     1      17.267   3.576  12.420  1.00  0.00     0.051 C 
HETATM    5  C4  UNL     1      17.101   4.552  13.553  1.00  0.00     0.121 C 
HETATM    6  C5  UNL     1      17.132   3.816  14.880  1.00  0.00     0.067 C 
HETATM    7  C6  UNL     1      16.000   2.853  14.884  1.00  0.00     0.226 C 
HETATM    8  C11 UNL     1      16.310   1.796  13.863  1.00  0.00     0.055 C 
ENDROOT
BRANCH   5   9
HETATM    9  O1  UNL     1      15.864   5.193  13.379  1.00  0.00    -0.395 OA
ATOM     10  H1  UNL     1      15.210   4.679  13.837  1.00  0.00     0.210 HD
ENDBRANCH   5   9
BRANCH   7  11
HETATM   11  N2  UNL     1      15.689   2.355  16.181  1.00  0.00     0.093 N 
HETATM   12  C7  UNL     1      15.958   0.972  16.386  1.00  0.00     0.273 C 
HETATM   13  C8  UNL     1      15.014   0.604  17.539  1.00  0.00     0.032 C 
HETATM   14  C9  UNL     1      13.755   1.350  17.070  1.00  0.00     0.032 C 
HETATM   15  C10 UNL     1      14.374   2.666  16.643  1.00  0.00     0.273 C 
ENDBRANCH   7  11
TORSDOF 2
ENDMDL
MODEL 2
REMARK VINA RESULT: -6.270578468      1.230      1.703
REMARK  2 active torsions:
REMARK  status: ('A' for Active; 'I' for Inactive)
REMARK    1  A    between atoms: C4_5  and  O1_6 
REMARK    2  A    between atoms: C6_9  and  N2_10 
ROOT
HETATM    1  N1  UNL     1      17.193   3.356  10.108  1.00  0.00    -0.197 NA
HETATM    2  C1  UNL     1      17.049   3.571  11.247  1.00  0.00     0.064 C 
HETATM    3  C2  UNL     1      16.855   3.849  12.642  1.00  0.00     0.097 C 
HETATM    4  C3  UNL     1      18.142   4.311  13.317  1.00  0.00     0.051 C 
HETATM    5  C4  UNL     1      17.871   4.631  14.763  1.00  0.00     0.121 C 
HETATM    6  C5  UNL     1      17.264   3.424  15.456  1.00  0.00     0.067 C 
HETATM    7  C6  UNL     1      15.985   3.110  14.768  1.00  0.00     0.226 C 
HETATM    8  C11 UNL     1      16.328   2.617  13.391  1.00  0.00     0.055 C 
ENDROOT
BRANCH   5   9
HETATM    9  O1  UNL     1      16.977   5.713  14.794  1.00  0.00    -0.395 OA
ATOM     10  H1  UNL     1      16.505   5.669  15.617  1.00  0.00     0.210 HD
ENDBRANCH   5   9
BRANCH   7  11
HETATM   11  N2  UNL     1      15.141   2.243  15.518  1.00  0.00     0.093 N 
HETATM   12  C7  UNL     1      14.379   2.869  16.545  1.00  0.00     0.273 C 
HETATM   13  C8  UNL     1      14.090   1.714  17.514  1.00  0.00     0.032 C 
HETATM   14  C9  UNL     1      15.475   1.049  17.519  1.00  0.00     0.032 C 
HETATM   15  C10 UNL     1      15.786   1.079  16.036  1.00  0.00     0.273 C 
ENDBRANCH   7  11
TORSDOF 2
ENDMDL
MODEL 3
REMARK VINA RESULT: -5.948100443      2.060      2.976
REMARK  2 active torsions:
REMARK  status: ('A' for Active; 'I' for Inactive)
REMARK    1  A    between atoms: C4_5  and  O1_6 
REMARK    2  A    between atoms: C6_9  and  N2_10 
ROOT
HETATM    1  N1  UNL     1      19.150   6.737  13.802  1.00  0.00    -0.197 NA
HETATM    2  C1  UNL     1      18.627   5.691  13.804  1.00  0.00     0.064 C 
HETATM    3  C2  UNL     1      18.005   4.398  13.809  1.00  0.00     0.097 C 
HETATM    4  C3  UNL     1      17.230   4.130  12.523  1.00  0.00     0.051 C 
HETATM    5  C4  UNL     1      16.639   2.746  12.565  1.00  0.00     0.121 C 
HETATM    6  C5  UNL     1      15.769   2.592  13.799  1.00  0.00     0.067 C 
HETATM    7  C6  UNL     1      16.637   2.797  14.987  1.00  0.00     0.226 C 
HETATM    8  C11 UNL     1      17.046   4.242  14.997  1.00  0.00     0.055 C 
ENDROOT
BRANCH   5   9
HETATM    9  O1  UNL     1      17.706   1.834  12.602  1.00  0.00    -0.395 OA
ATOM     10  H1  UNL     1      18.330   2.100  11.937  1.00  0.00     0.210 HD
ENDBRANCH   5   9
BRANCH   7  11
HETATM   11  N2  UNL     1      16.050   2.336  16.199  1.00  0.00     0.093 N 
HETATM   12  C7  UNL     1      16.126   0.931  16.420  1.00  0.00     0.273 C 
HETATM   13  C8  UNL     1      14.959   0.669  17.382  1.00  0.00     0.032 C 
HETATM   14  C9  UNL     1      13.891   1.551  16.715  1.00  0.00     0.032 C 
HETATM   15  C10 UNL     1      14.716   2.791  16.431  1.00  0.00     0.273 C 
ENDBRANCH   7  11
TORSDOF 2
ENDMDL
MODEL 4
REMARK VINA RESULT: -5.932757764      2.570      4.650
REMARK  2 active torsions:
REMARK  status: ('A' for Active; 'I' for Inactive)
REMARK    1  A    between atoms: C4_5  and  O1_6 
REMARK    2  A    between atoms: C6_9  and  N2_10 
ROOT
HETATM    1  N1  UNL     1      16.682   0.014  15.776  1.00  0.00    -0.197 NA
HETATM    2  C1  UNL     1      16.519   0.715  14.855  1.00  0.00     0.064 C 
HETATM    3  C2  UNL     1      16.296   1.577  13.728  1.00  0.00     0.097 C 
HETATM    4  C3  UNL     1      16.830   0.974  12.434  1.00  0.00     0.051 C 
HETATM    5  C4  UNL     1      16.529   1.896  11.282  1.00  0.00     0.121 C 
HETATM    6  C5  UNL     1      17.111   3.271  11.554  1.00  0.00     0.067 C 
HETATM    7  C6  UNL     1      16.469   3.792  12.789  1.00  0.00     0.226 C 
HETATM    8  C11 UNL     1      16.953   2.949  13.933  1.00  0.00     0.055 C 
ENDROOT
BRANCH   5   9
HETATM    9  O1  UNL     1      15.133   1.972  11.158  1.00  0.00    -0.395 OA
ATOM     10  H1  UNL     1      14.939   2.183  10.252  1.00  0.00     0.210 HD
ENDBRANCH   5   9
BRANCH   7  11
HETATM   11  N2  UNL     1      16.645   5.194  12.966  1.00  0.00     0.093 N 
HETATM   12  C7  UNL     1      17.680   5.784  12.186  1.00  0.00     0.273 C 
HETATM   13  C8  UNL     1      18.038   7.045  12.984  1.00  0.00     0.032 C 
HETATM   14  C9  UNL     1      18.028   6.448  14.400  1.00  0.00     0.032 C 
HETATM   15  C10 UNL     1      16.763   5.616  14.325  1.00  0.00     0.273 C 
ENDBRANCH   7  11
TORSDOF 2
ENDMDL
MODEL 5
REMARK VINA RESULT: -5.902870672      2.214      4.233
REMARK  2 active torsions:
REMARK  status: ('A' for Active; 'I' for Inactive)
REMARK    1  A    between atoms: C4_5  and  O1_6 
REMARK    2  A    between atoms: C6_9  and  N2_10 
ROOT
HETATM    1  N1  UNL     1      16.760  -0.846  11.991  1.00  0.00    -0.197 NA
HETATM    2  C1  UNL     1      16.832  -0.013  12.807  1.00  0.00     0.064 C 
HETATM    3  C2  UNL     1      16.942   1.011  13.808  1.00  0.00     0.097 C 
HETATM    4  C3  UNL     1      16.329   0.581  15.136  1.00  0.00     0.051 C 
HETATM    5  C4  UNL     1      16.513   1.672  16.157  1.00  0.00     0.121 C 
HETATM    6  C5  UNL     1      15.914   2.968  15.644  1.00  0.00     0.067 C 
HETATM    7  C6  UNL     1      16.633   3.331  14.395  1.00  0.00     0.226 C 
HETATM    8  C11 UNL     1      16.263   2.311  13.356  1.00  0.00     0.055 C 
ENDROOT
BRANCH   5   9
HETATM    9  O1  UNL     1      17.893   1.821  16.369  1.00  0.00    -0.395 OA
ATOM     10  H1  UNL     1      18.223   0.990  16.690  1.00  0.00     0.210 HD
ENDBRANCH   5   9
BRANCH   7  11
HETATM   11  N2  UNL     1      16.430   4.683  14.002  1.00  0.00     0.093 N 
HETATM   12  C7  UNL     1      16.823   4.998  12.670  1.00  0.00     0.273 C 
HETATM   13  C8  UNL     1      17.073   6.511  12.732  1.00  0.00     0.032 C 
HETATM   14  C9  UNL     1      17.825   6.579  14.070  1.00  0.00     0.032 C 
HETATM   15  C10 UNL     1      16.959   5.656  14.904  1.00  0.00     0.273 C 
ENDBRANCH   7  11
TORSDOF 2
ENDMDL
