MODEL 1
REMARK VINA RESULT: -4.353264092      0.000      0.000
REMARK  2 active torsions:
REMARK  status: ('A' for Active; 'I' for Inactive)
REMARK    1  A    between atoms: S1_2  and  C2_3 
REMARK    2  A    between atoms: C3_4  and  O1_5 
ROOT
HETATM    1  C2  UNL     1      16.178   2.957  15.421  1.00  0.00     0.091 C 
HETATM    2  C3  UNL     1      16.201   2.059  14.252  1.00  0.00     0.135 C 
HETATM    3  C4  UNL     1      16.511   2.574  12.915  1.00  0.00     0.077 C 
HETATM    4  C5  UNL     1      17.307   3.833  12.820  1.00  0.00     0.249 C 
HETATM    5  N1  UNL     1      18.464   3.895  13.627  1.00  0.00    -0.061 N 
ATOM      6  H11 UNL     1      19.128   4.571  13.249  1.00  0.00     0.278 HD
ATOM      7  H12 UNL     1      19.013   3.041  13.531  1.00  0.00     0.278 HD
HETATM    8  C6  UNL     1      18.208   4.164  14.979  1.00  0.00     0.250 C 
HETATM    9  C7  UNL     1      16.741   4.333  15.242  1.00  0.00     0.091 C 
HETATM   10  S2  UNL     1      16.244   5.080  13.646  1.00  0.00    -0.128 SA
ENDROOT
BRANCH   1  11
HETATM   11  S1  UNL     1      14.561   2.978  16.275  1.00  0.00    -0.165 SA
HETATM   12  C1  UNL     1      14.105   1.386  16.947  1.00  0.00     0.090 C 
ENDBRANCH   1  11
BRANCH   2  13
HETATM   13  O1  UNL     1      17.008   0.923  14.475  1.00  0.00    -0.394 OA
ATOM     14  H1  UNL     1      16.708   0.414  15.218  1.00  0.00     0.210 HD
ENDBRANCH   2  13
TORSDOF 2
ENDMDL
MODEL 2
REMARK VINA RESULT: -4.329306839      2.012      2.611
REMARK  2 active torsions:
REMARK  status: ('A' for Active; 'I' for Inactive)
REMARK    1  A    between atoms: S1_2  and  C2_3 
REMARK    2  A    between atoms: C3_4  and  O1_5 
ROOT
HETATM    1  C2  UNL     1      14.989   3.310  15.222  1.00  0.00     0.091 C 
HETATM    2  C3  UNL     1      15.291   4.738  15.015  1.00  0.00     0.135 C 
HETATM    3  C4  UNL     1      16.675   5.200  14.871  1.00  0.00     0.077 C 
HETATM    4  C5  UNL     1      17.694   4.215  14.400  1.00  0.00     0.249 C 
HETATM    5  N1  UNL     1      17.334   3.446  13.271  1.00  0.00    -0.061 N 
ATOM      6  H11 UNL     1      18.167   3.097  12.797  1.00  0.00     0.278 HD
ATOM      7  H12 UNL     1      16.955   4.045  12.537  1.00  0.00     0.278 HD
HETATM    8  C6  UNL     1      16.451   2.394  13.550  1.00  0.00     0.250 C 
HETATM    9  C7  UNL     1      16.104   2.333  15.008  1.00  0.00     0.091 C 
HETATM   10  S2  UNL     1      17.687   2.928  15.708  1.00  0.00    -0.128 SA
ENDROOT
BRANCH   1  11
HETATM   11  S1  UNL     1      14.079   2.989  16.775  1.00  0.00    -0.165 SA
HETATM   12  C1  UNL     1      13.842   1.247  17.099  1.00  0.00     0.090 C 
ENDBRANCH   1  11
BRANCH   2  13
HETATM   13  O1  UNL     1      14.540   5.289  13.956  1.00  0.00    -0.394 OA
ATOM     14  H1  UNL     1      14.536   6.238  13.978  1.00  0.00     0.210 HD
ENDBRANCH   2  13
TORSDOF 2
ENDMDL
MODEL 3
REMARK VINA RESULT: -4.261150067      1.244      1.399
REMARK  2 active torsions:
REMARK  status: ('A' for Active; 'I' for Inactive)
REMARK    1  A    between atoms: S1_2  and  C2_3 
REMARK    2  A    between atoms: C3_4  and  O1_5 
ROOT
HETATM    1  C2  UNL     1      16.672   3.610  14.583  1.00  0.00     0.091 C 
HETATM    2  C3  UNL     1      16.790   3.035  13.230  1.00  0.00     0.135 C 
HETATM    3  C4  UNL     1      17.521   3.743  12.174  1.00  0.00     0.077 C 
HETATM    4  C5  UNL     1      18.565   4.726  12.588  1.00  0.00     0.249 C 
HETATM    5  N1  UNL     1      19.475   4.283  13.574  1.00  0.00    -0.061 N 
ATOM      6  H11 UNL     1      20.339   4.822  13.530  1.00  0.00     0.278 HD
ATOM      7  H12 UNL     1      19.835   3.358  13.338  1.00  0.00     0.278 HD
HETATM    8  C6  UNL     1      18.957   4.290  14.877  1.00  0.00     0.250 C 
HETATM    9  C7  UNL     1      17.542   4.785  14.909  1.00  0.00     0.091 C 
HETATM   10  S2  UNL     1      17.623   5.987  13.530  1.00  0.00    -0.128 SA
ENDROOT
BRANCH   1  11
HETATM   11  S1  UNL     1      14.938   3.869  15.101  1.00  0.00    -0.165 SA
HETATM   12  C1  UNL     1      14.474   2.872  16.511  1.00  0.00     0.090 C 
ENDBRANCH   1  11
BRANCH   2  13
HETATM   13  O1  UNL     1      17.256   1.704  13.260  1.00  0.00    -0.394 OA
ATOM     14  H1  UNL     1      16.925   1.195  12.530  1.00  0.00     0.210 HD
ENDBRANCH   2  13
TORSDOF 2
ENDMDL
MODEL 4
REMARK VINA RESULT: -4.184413101      2.740      4.392
REMARK  2 active torsions:
REMARK  status: ('A' for Active; 'I' for Inactive)
REMARK    1  A    between atoms: S1_2  and  C2_3 
REMARK    2  A    between atoms: C3_4  and  O1_5 
ROOT
HETATM    1  C2  UNL     1      19.180   5.531  13.336  1.00  0.00     0.091 C 
HETATM    2  C3  UNL     1      18.691   4.975  14.611  1.00  0.00     0.135 C 
HETATM    3  C4  UNL     1      17.389   4.306  14.688  1.00  0.00     0.077 C 
HETATM    4  C5  UNL     1      16.828   3.724  13.434  1.00  0.00     0.249 C 
HETATM    5  N1  UNL     1      17.716   2.936  12.667  1.00  0.00    -0.061 N 
ATOM      6  H11 UNL     1      17.197   2.293  12.070  1.00  0.00     0.278 HD
ATOM      7  H12 UNL     1      18.204   2.267  13.262  1.00  0.00     0.278 HD
HETATM    8  C6  UNL     1      18.632   3.678  11.909  1.00  0.00     0.250 C 
HETATM    9  C7  UNL     1      18.437   5.154  12.091  1.00  0.00     0.091 C 
HETATM   10  S2  UNL     1      16.623   5.179  12.335  1.00  0.00    -0.128 SA
ENDROOT
BRANCH   1  11
HETATM   11  S1  UNL     1      19.516   7.327  13.421  1.00  0.00    -0.165 SA
HETATM   12  C1  UNL     1      19.068   8.047  14.995  1.00  0.00     0.090 C 
ENDBRANCH   1  11
BRANCH   2  13
HETATM   13  O1  UNL     1      19.645   4.133  15.220  1.00  0.00    -0.394 OA
ATOM     14  H1  UNL     1      20.422   4.610  15.485  1.00  0.00     0.210 HD
ENDBRANCH   2  13
TORSDOF 2
ENDMDL
MODEL 5
REMARK VINA RESULT: -4.153967836      2.817      4.699
REMARK  2 active torsions:
REMARK  status: ('A' for Active; 'I' for Inactive)
REMARK    1  A    between atoms: S1_2  and  C2_3 
REMARK    2  A    between atoms: C3_4  and  O1_5 
ROOT
HETATM    1  C2  UNL     1      18.827   4.206  12.832  1.00  0.00     0.091 C 
HETATM    2  C3  UNL     1      19.086   4.925  14.093  1.00  0.00     0.135 C 
HETATM    3  C4  UNL     1      18.064   5.795  14.684  1.00  0.00     0.077 C 
HETATM    4  C5  UNL     1      16.638   5.536  14.330  1.00  0.00     0.249 C 
HETATM    5  N1  UNL     1      16.215   4.191  14.413  1.00  0.00    -0.061 N 
ATOM      6  H11 UNL     1      15.203   4.142  14.530  1.00  0.00     0.278 HD
ATOM      7  H12 UNL     1      16.513   3.777  15.296  1.00  0.00     0.278 HD
HETATM    8  C6  UNL     1      16.623   3.394  13.335  1.00  0.00     0.250 C 
HETATM    9  C7  UNL     1      17.415   4.179  12.333  1.00  0.00     0.091 C 
HETATM   10  S2  UNL     1      16.587   5.802  12.516  1.00  0.00    -0.128 SA
ENDROOT
BRANCH   1  11
HETATM   11  S1  UNL     1      20.018   4.628  11.511  1.00  0.00    -0.165 SA
HETATM   12  C1  UNL     1      21.006   6.068  11.893  1.00  0.00     0.090 C 
ENDBRANCH   1  11
BRANCH   2  13
HETATM   13  O1  UNL     1      19.558   4.064  15.105  1.00  0.00    -0.394 OA
ATOM     14  H1  UNL     1      19.603   4.497  15.948  1.00  0.00     0.210 HD
ENDBRANCH   2  13
TORSDOF 2
ENDMDL
