MODEL 1
REMARK VINA RESULT: -5.529203506      0.000      0.000
REMARK  4 active torsions:
REMARK  status: ('A' for Active; 'I' for Inactive)
REMARK    1  A    between atoms: C2_2  and  C5_5 
REMARK    2  A    between atoms: N1_6  and  N2_8 
REMARK    3  A    between atoms: N2_8  and  C6_10 
REMARK    4  A    between atoms: C6_10  and  N3_12 
ROOT
HETATM    1  N3  UNL     1      14.597   2.089  16.436  1.00  0.00    -0.269 N 
ATOM      2  H3  UNL     1      13.715   2.548  16.663  1.00  0.00     0.180 HD
HETATM    3  C7  UNL     1      14.899   0.865  17.012  1.00  0.00     0.184 C 
HETATM    4  N4  UNL     1      15.128  -0.172  17.516  1.00  0.00    -0.172 NA
ENDROOT
BRANCH   1   5
HETATM    5  C6  UNL     1      15.493   2.708  15.541  1.00  0.00     0.199 C 
HETATM    6  S1  UNL     1      15.074   4.181  14.890  1.00  0.00    -0.038 SA
BRANCH   5   7
HETATM    7  N2  UNL     1      16.746   2.195  15.127  1.00  0.00    -0.276 N 
ATOM      8  H2  UNL     1      17.485   2.067  15.819  1.00  0.00     0.189 HD
BRANCH   7   9
HETATM    9  N1  UNL     1      16.995   1.862  13.800  1.00  0.00    -0.313 N 
HETATM   10  C5  UNL     1      16.684   0.719  13.295  1.00  0.00     0.088 C 
ATOM     11  H1  UNL     1      17.444   2.554  13.200  1.00  0.00     0.185 HD
BRANCH  10  12
HETATM   12  C2  UNL     1      16.953   0.378  11.887  1.00  0.00    -0.018 C 
HETATM   13  C1  UNL     1      16.930  -1.130  11.711  1.00  0.00     0.020 C 
HETATM   14  C3  UNL     1      18.311   0.910  11.488  1.00  0.00     0.020 C 
HETATM   15  C4  UNL     1      15.915   1.036  10.997  1.00  0.00     0.020 C 
ENDBRANCH  10  12
ENDBRANCH   7   9
ENDBRANCH   5   7
ENDBRANCH   1   5
TORSDOF 4
ENDMDL
MODEL 2
REMARK VINA RESULT: -5.471879497      0.653      1.497
REMARK  4 active torsions:
REMARK  status: ('A' for Active; 'I' for Inactive)
REMARK    1  A    between atoms: C2_2  and  C5_5 
REMARK    2  A    between atoms: N1_6  and  N2_8 
REMARK    3  A    between atoms: N2_8  and  C6_10 
REMARK    4  A    between atoms: C6_10  and  N3_12 
ROOT
HETATM    1  N3  UNL     1      14.611   2.027  16.515  1.00  0.00    -0.269 N 
ATOM      2  H3  UNL     1      13.758   2.522  16.778  1.00  0.00     0.180 HD
HETATM    3  C7  UNL     1      14.901   0.806  17.101  1.00  0.00     0.184 C 
HETATM    4  N4  UNL     1      15.123  -0.228  17.614  1.00  0.00    -0.172 NA
ENDROOT
BRANCH   1   5
HETATM    5  C6  UNL     1      15.476   2.597  15.560  1.00  0.00     0.199 C 
HETATM    6  S1  UNL     1      15.123   4.113  14.971  1.00  0.00    -0.038 SA
BRANCH   5   7
HETATM    7  N2  UNL     1      16.648   1.999  15.034  1.00  0.00    -0.276 N 
ATOM      8  H2  UNL     1      17.300   1.539  15.669  1.00  0.00     0.189 HD
BRANCH   7   9
HETATM    9  N1  UNL     1      16.931   2.024  13.673  1.00  0.00    -0.313 N 
HETATM   10  C5  UNL     1      16.713   1.021  12.894  1.00  0.00     0.088 C 
ATOM     11  H1  UNL     1      17.330   2.874  13.273  1.00  0.00     0.185 HD
BRANCH  10  12
HETATM   12  C2  UNL     1      17.018   1.061  11.453  1.00  0.00    -0.018 C 
HETATM   13  C1  UNL     1      16.623   2.412  10.883  1.00  0.00     0.020 C 
HETATM   14  C3  UNL     1      16.248  -0.029  10.742  1.00  0.00     0.020 C 
HETATM   15  C4  UNL     1      18.498   0.802  11.239  1.00  0.00     0.020 C 
ENDBRANCH  10  12
ENDBRANCH   7   9
ENDBRANCH   5   7
ENDBRANCH   1   5
TORSDOF 4
ENDMDL
MODEL 3
REMARK VINA RESULT: -5.433154333      1.334      1.855
REMARK  4 active torsions:
REMARK  status: ('A' for Active; 'I' for Inactive)
REMARK    1  A    between atoms: C2_2  and  C5_5 
REMARK    2  A    between atoms: N1_6  and  N2_8 
REMARK    3  A    between atoms: N2_8  and  C6_10 
REMARK    4  A    between atoms: C6_10  and  N3_12 
ROOT
HETATM    1  N3  UNL     1      16.920   2.100  15.807  1.00  0.00    -0.269 N 
ATOM      2  H3  UNL     1      17.541   2.435  16.545  1.00  0.00     0.180 HD
HETATM    3  C7  UNL     1      16.469   0.791  15.835  1.00  0.00     0.184 C 
HETATM    4  N4  UNL     1      16.102  -0.325  15.883  1.00  0.00    -0.172 NA
ENDROOT
BRANCH   1   5
HETATM    5  C6  UNL     1      16.533   2.978  14.775  1.00  0.00     0.199 C 
HETATM    6  S1  UNL     1      15.141   3.868  14.969  1.00  0.00    -0.038 SA
BRANCH   5   7
HETATM    7  N2  UNL     1      17.224   3.189  13.557  1.00  0.00    -0.276 N 
ATOM      8  H2  UNL     1      17.455   4.141  13.273  1.00  0.00     0.189 HD
BRANCH   7   9
HETATM    9  N1  UNL     1      17.597   2.129  12.738  1.00  0.00    -0.313 N 
HETATM   10  C5  UNL     1      16.755   1.266  12.283  1.00  0.00     0.088 C 
ATOM     11  H1  UNL     1      18.580   2.029  12.485  1.00  0.00     0.185 HD
BRANCH  10  12
HETATM   12  C2  UNL     1      17.163   0.147  11.416  1.00  0.00    -0.018 C 
HETATM   13  C1  UNL     1      18.609   0.331  10.988  1.00  0.00     0.020 C 
HETATM   14  C3  UNL     1      16.278   0.107  10.190  1.00  0.00     0.020 C 
HETATM   15  C4  UNL     1      16.988  -1.164  12.160  1.00  0.00     0.020 C 
ENDBRANCH  10  12
ENDBRANCH   7   9
ENDBRANCH   5   7
ENDBRANCH   1   5
TORSDOF 4
ENDMDL
MODEL 4
REMARK VINA RESULT: -5.339916358      0.977      1.453
REMARK  4 active torsions:
REMARK  status: ('A' for Active; 'I' for Inactive)
REMARK    1  A    between atoms: C2_2  and  C5_5 
REMARK    2  A    between atoms: N1_6  and  N2_8 
REMARK    3  A    between atoms: N2_8  and  C6_10 
REMARK    4  A    between atoms: C6_10  and  N3_12 
ROOT
HETATM    1  N3  UNL     1      14.914   2.506  16.130  1.00  0.00    -0.269 N 
ATOM      2  H3  UNL     1      14.564   3.414  16.438  1.00  0.00     0.180 HD
HETATM    3  C7  UNL     1      14.428   1.350  16.720  1.00  0.00     0.184 C 
HETATM    4  N4  UNL     1      13.998   0.387  17.238  1.00  0.00    -0.172 NA
ENDROOT
BRANCH   1   5
HETATM    5  C6  UNL     1      15.884   2.446  15.111  1.00  0.00     0.199 C 
HETATM    6  S1  UNL     1      16.264   3.844  14.292  1.00  0.00    -0.038 SA
BRANCH   5   7
HETATM    7  N2  UNL     1      16.591   1.289  14.699  1.00  0.00    -0.276 N 
ATOM      8  H2  UNL     1      16.818   0.573  15.388  1.00  0.00     0.189 HD
BRANCH   7   9
HETATM    9  N1  UNL     1      16.983   1.107  13.378  1.00  0.00    -0.313 N 
HETATM   10  C5  UNL     1      16.971  -0.043  12.796  1.00  0.00     0.088 C 
ATOM     11  H1  UNL     1      17.295   1.919  12.845  1.00  0.00     0.185 HD
BRANCH  10  12
HETATM   12  C2  UNL     1      17.389  -0.222  11.395  1.00  0.00    -0.018 C 
HETATM   13  C1  UNL     1      16.206   0.020  10.472  1.00  0.00     0.020 C 
HETATM   14  C3  UNL     1      17.901  -1.630  11.195  1.00  0.00     0.020 C 
HETATM   15  C4  UNL     1      18.521   0.736  11.075  1.00  0.00     0.020 C 
ENDBRANCH  10  12
ENDBRANCH   7   9
ENDBRANCH   5   7
ENDBRANCH   1   5
TORSDOF 4
ENDMDL
MODEL 5
REMARK VINA RESULT: -5.291212903      2.971      5.344
REMARK  4 active torsions:
REMARK  status: ('A' for Active; 'I' for Inactive)
REMARK    1  A    between atoms: C2_2  and  C5_5 
REMARK    2  A    between atoms: N1_6  and  N2_8 
REMARK    3  A    between atoms: N2_8  and  C6_10 
REMARK    4  A    between atoms: C6_10  and  N3_12 
ROOT
HETATM    1  N3  UNL     1      18.437  -0.851  10.668  1.00  0.00    -0.269 N 
ATOM      2  H3  UNL     1      18.914  -0.779   9.769  1.00  0.00     0.180 HD
HETATM    3  C7  UNL     1      18.216  -2.099  11.227  1.00  0.00     0.184 C 
HETATM    4  N4  UNL     1      18.042  -3.171  11.678  1.00  0.00    -0.172 NA
ENDROOT
BRANCH   1   5
HETATM    5  C6  UNL     1      18.013   0.322  11.325  1.00  0.00     0.199 C 
HETATM    6  S1  UNL     1      18.879   1.723  11.086  1.00  0.00    -0.038 SA
BRANCH   5   7
HETATM    7  N2  UNL     1      16.897   0.437  12.189  1.00  0.00    -0.276 N 
ATOM      8  H2  UNL     1      16.012   0.009  11.918  1.00  0.00     0.189 HD
BRANCH   7   9
HETATM    9  N1  UNL     1      16.979   1.119  13.398  1.00  0.00    -0.313 N 
HETATM   10  C5  UNL     1      16.220   2.118  13.690  1.00  0.00     0.088 C 
ATOM     11  H1  UNL     1      17.670   0.815  14.084  1.00  0.00     0.185 HD
BRANCH  10  12
HETATM   12  C2  UNL     1      16.316   2.832  14.975  1.00  0.00    -0.018 C 
HETATM   13  C1  UNL     1      16.684   1.855  16.078  1.00  0.00     0.020 C 
HETATM   14  C3  UNL     1      14.988   3.477  15.298  1.00  0.00     0.020 C 
HETATM   15  C4  UNL     1      17.356   3.933  14.869  1.00  0.00     0.020 C 
ENDBRANCH  10  12
ENDBRANCH   7   9
ENDBRANCH   5   7
ENDBRANCH   1   5
TORSDOF 4
ENDMDL
