MODEL 1
REMARK VINA RESULT: -5.189691803      0.000      0.000
REMARK  4 active torsions:
REMARK  status: ('A' for Active; 'I' for Inactive)
REMARK    1  A    between atoms: C2_2  and  N1_4 
REMARK    2  A    between atoms: N1_4  and  C4_6 
REMARK    3  A    between atoms: C4_6  and  N2_8 
REMARK    4  A    between atoms: N2_8  and  N3_10 
ROOT
HETATM    1  N2  UNL     1      15.490   2.771  14.881  1.00  0.00    -0.295 N 
ATOM      2  H2  UNL     1      14.595   2.759  14.391  1.00  0.00     0.183 HD
ENDROOT
BRANCH   1   3
HETATM    3  C4  UNL     1      16.676   3.157  14.229  1.00  0.00     0.182 C 
HETATM    4  S1  UNL     1      17.473   4.504  14.680  1.00  0.00    -0.040 SA
BRANCH   3   5
HETATM    5  N1  UNL     1      17.188   2.383  13.176  1.00  0.00    -0.362 N 
ATOM      6  H1  UNL     1      18.187   2.424  12.972  1.00  0.00     0.162 HD
BRANCH   5   7
HETATM    7  C2  UNL     1      16.350   1.536  12.380  1.00  0.00     0.075 C 
HETATM    8  C1  UNL     1      16.799   0.104  12.508  1.00  0.00     0.032 C 
HETATM    9  C3  UNL     1      16.334   1.975  10.917  1.00  0.00     0.032 C 
ENDBRANCH   5   7
ENDBRANCH   3   5
ENDBRANCH   1   3
BRANCH   1  10
HETATM   10  N3  UNL     1      15.589   2.401  16.246  1.00  0.00    -0.225 NA
HETATM   11  C5  UNL     1      14.329   2.638  16.851  1.00  0.00     0.140 C 
HETATM   12  C6  UNL     1      13.432   1.473  16.999  1.00  0.00     0.183 C 
HETATM   13  O1  UNL     1      14.023   0.242  16.836  1.00  0.00    -0.389 OA
HETATM   14  C7  UNL     1      15.305   0.309  17.407  1.00  0.00     0.183 C 
HETATM   15  C8  UNL     1      16.141   1.106  16.417  1.00  0.00     0.140 C 
ENDBRANCH   1  10
TORSDOF 4
ENDMDL
MODEL 2
REMARK VINA RESULT: -5.092212095      2.352      4.943
REMARK  4 active torsions:
REMARK  status: ('A' for Active; 'I' for Inactive)
REMARK    1  A    between atoms: C2_2  and  N1_4 
REMARK    2  A    between atoms: N1_4  and  C4_6 
REMARK    3  A    between atoms: C4_6  and  N2_8 
REMARK    4  A    between atoms: N2_8  and  N3_10 
ROOT
HETATM    1  N2  UNL     1      16.297   2.386  12.830  1.00  0.00    -0.295 N 
ATOM      2  H2  UNL     1      15.629   2.586  12.086  1.00  0.00     0.183 HD
ENDROOT
BRANCH   1   3
HETATM    3  C4  UNL     1      16.212   3.025  14.082  1.00  0.00     0.182 C 
HETATM    4  S1  UNL     1      17.309   4.146  14.521  1.00  0.00    -0.040 SA
BRANCH   3   5
HETATM    5  N1  UNL     1      15.175   2.701  14.971  1.00  0.00    -0.362 N 
ATOM      6  H1  UNL     1      14.210   2.865  14.687  1.00  0.00     0.162 HD
BRANCH   5   7
HETATM    7  C2  UNL     1      15.434   2.147  16.267  1.00  0.00     0.075 C 
HETATM    8  C1  UNL     1      16.228   0.875  16.132  1.00  0.00     0.032 C 
HETATM    9  C3  UNL     1      14.141   1.904  17.043  1.00  0.00     0.032 C 
ENDBRANCH   5   7
ENDBRANCH   3   5
ENDBRANCH   1   3
BRANCH   1  10
HETATM   10  N3  UNL     1      17.349   1.454  12.647  1.00  0.00    -0.225 NA
HETATM   11  C5  UNL     1      16.772   0.161  12.565  1.00  0.00     0.140 C 
HETATM   12  C6  UNL     1      16.566  -0.390  11.210  1.00  0.00     0.183 C 
HETATM   13  O1  UNL     1      17.236   0.253  10.196  1.00  0.00    -0.389 OA
HETATM   14  C7  UNL     1      18.495   0.631  10.693  1.00  0.00     0.183 C 
HETATM   15  C8  UNL     1      18.225   1.825  11.595  1.00  0.00     0.140 C 
ENDBRANCH   1  10
TORSDOF 4
ENDMDL
MODEL 3
REMARK VINA RESULT: -5.021649759      2.366      5.081
REMARK  4 active torsions:
REMARK  status: ('A' for Active; 'I' for Inactive)
REMARK    1  A    between atoms: C2_2  and  N1_4 
REMARK    2  A    between atoms: N1_4  and  C4_6 
REMARK    3  A    between atoms: C4_6  and  N2_8 
REMARK    4  A    between atoms: N2_8  and  N3_10 
ROOT
HETATM    1  N2  UNL     1      16.937   2.239  14.449  1.00  0.00    -0.295 N 
ATOM      2  H2  UNL     1      17.928   2.260  14.688  1.00  0.00     0.183 HD
ENDROOT
BRANCH   1   3
HETATM    3  C4  UNL     1      15.955   2.691  15.351  1.00  0.00     0.182 C 
HETATM    4  S1  UNL     1      15.032   3.985  14.997  1.00  0.00    -0.040 SA
BRANCH   3   5
HETATM    5  N1  UNL     1      15.760   2.029  16.574  1.00  0.00    -0.362 N 
ATOM      6  H1  UNL     1      16.514   1.455  16.951  1.00  0.00     0.162 HD
BRANCH   5   7
HETATM    7  C2  UNL     1      14.534   2.137  17.307  1.00  0.00     0.075 C 
HETATM    8  C1  UNL     1      14.818   2.110  18.787  1.00  0.00     0.032 C 
HETATM    9  C3  UNL     1      13.548   1.037  16.920  1.00  0.00     0.032 C 
ENDBRANCH   5   7
ENDBRANCH   3   5
ENDBRANCH   1   3
BRANCH   1  10
HETATM   10  N3  UNL     1      16.491   1.752  13.194  1.00  0.00    -0.225 NA
HETATM   11  C5  UNL     1      16.983   2.627  12.192  1.00  0.00     0.140 C 
HETATM   12  C6  UNL     1      18.210   2.206  11.486  1.00  0.00     0.183 C 
HETATM   13  O1  UNL     1      18.564   0.886  11.640  1.00  0.00    -0.389 OA
HETATM   14  C7  UNL     1      17.380   0.129  11.651  1.00  0.00     0.183 C 
HETATM   15  C8  UNL     1      16.765   0.372  13.020  1.00  0.00     0.140 C 
ENDBRANCH   1  10
TORSDOF 4
ENDMDL
MODEL 4
REMARK VINA RESULT: -5.019682865      2.044      2.622
REMARK  4 active torsions:
REMARK  status: ('A' for Active; 'I' for Inactive)
REMARK    1  A    between atoms: C2_2  and  N1_4 
REMARK    2  A    between atoms: N1_4  and  C4_6 
REMARK    3  A    between atoms: C4_6  and  N2_8 
REMARK    4  A    between atoms: N2_8  and  N3_10 
ROOT
HETATM    1  N2  UNL     1      16.257   1.583  13.053  1.00  0.00    -0.295 N 
ATOM      2  H2  UNL     1      15.305   1.259  12.882  1.00  0.00     0.183 HD
ENDROOT
BRANCH   1   3
HETATM    3  C4  UNL     1      17.159   1.796  11.993  1.00  0.00     0.182 C 
HETATM    4  S1  UNL     1      17.038   3.119  11.051  1.00  0.00    -0.040 SA
BRANCH   3   5
HETATM    5  N1  UNL     1      18.178   0.867  11.735  1.00  0.00    -0.362 N 
ATOM      6  H1  UNL     1      19.070   0.961  12.222  1.00  0.00     0.162 HD
BRANCH   5   7
HETATM    7  C2  UNL     1      18.004  -0.211  10.808  1.00  0.00     0.075 C 
HETATM    8  C1  UNL     1      17.511  -1.437  11.533  1.00  0.00     0.032 C 
HETATM    9  C3  UNL     1      19.292  -0.511  10.043  1.00  0.00     0.032 C 
ENDBRANCH   5   7
ENDBRANCH   3   5
ENDBRANCH   1   3
BRANCH   1  10
HETATM   10  N3  UNL     1      16.725   1.838  14.367  1.00  0.00    -0.225 NA
HETATM   11  C5  UNL     1      16.265   3.124  14.748  1.00  0.00     0.140 C 
HETATM   12  C6  UNL     1      15.049   3.173  15.586  1.00  0.00     0.183 C 
HETATM   13  O1  UNL     1      14.679   1.985  16.170  1.00  0.00    -0.389 OA
HETATM   14  C7  UNL     1      15.854   1.316  16.552  1.00  0.00     0.183 C 
HETATM   15  C8  UNL     1      16.442   0.773  15.258  1.00  0.00     0.140 C 
ENDBRANCH   1  10
TORSDOF 4
ENDMDL
MODEL 5
REMARK VINA RESULT: -5.019015714      2.905      5.169
REMARK  4 active torsions:
REMARK  status: ('A' for Active; 'I' for Inactive)
REMARK    1  A    between atoms: C2_2  and  N1_4 
REMARK    2  A    between atoms: N1_4  and  C4_6 
REMARK    3  A    between atoms: C4_6  and  N2_8 
REMARK    4  A    between atoms: N2_8  and  N3_10 
ROOT
HETATM    1  N2  UNL     1      17.104   2.554  11.957  1.00  0.00    -0.295 N 
ATOM      2  H2  UNL     1      16.413   2.659  11.215  1.00  0.00     0.183 HD
ENDROOT
BRANCH   1   3
HETATM    3  C4  UNL     1      17.329   3.575  12.899  1.00  0.00     0.182 C 
HETATM    4  S1  UNL     1      17.610   5.105  12.417  1.00  0.00    -0.040 SA
BRANCH   3   5
HETATM    5  N1  UNL     1      17.314   3.286  14.273  1.00  0.00    -0.362 N 
ATOM      6  H1  UNL     1      18.141   3.496  14.831  1.00  0.00     0.162 HD
BRANCH   5   7
HETATM    7  C2  UNL     1      16.172   2.703  14.913  1.00  0.00     0.075 C 
HETATM    8  C1  UNL     1      15.140   3.766  15.186  1.00  0.00     0.032 C 
HETATM    9  C3  UNL     1      16.558   1.974  16.198  1.00  0.00     0.032 C 
ENDBRANCH   5   7
ENDBRANCH   3   5
ENDBRANCH   1   3
BRANCH   1  10
HETATM   10  N3  UNL     1      17.878   1.373  12.082  1.00  0.00    -0.225 NA
HETATM   11  C5  UNL     1      16.983   0.278  12.187  1.00  0.00     0.140 C 
HETATM   12  C6  UNL     1      16.719  -0.487  10.951  1.00  0.00     0.183 C 
HETATM   13  O1  UNL     1      17.597  -0.268   9.916  1.00  0.00    -0.389 OA
HETATM   14  C7  UNL     1      18.878  -0.115  10.472  1.00  0.00     0.183 C 
HETATM   15  C8  UNL     1      18.883   1.276  11.086  1.00  0.00     0.140 C 
ENDBRANCH   1  10
TORSDOF 4
ENDMDL
