MODEL 1
REMARK VINA RESULT: -6.054086274      0.000      0.000
REMARK  3 active torsions:
REMARK  status: ('A' for Active; 'I' for Inactive)
REMARK    1  A    between atoms: O1_1  and  C1_3 
REMARK    2  A    between atoms: C4_6  and  N1_7 
REMARK    3  A    between atoms: C10_13  and  O2_14 
ROOT
HETATM    1  N1  UNL     1      15.942   3.344  15.019  1.00  0.00    -0.407 N 
HETATM    2  C5  UNL     1      15.011   4.319  14.591  1.00  0.00     0.124 C 
HETATM    3  C6  UNL     1      15.688   5.566  14.082  1.00  0.00     0.033 C 
HETATM    4  C7  UNL     1      16.969   5.882  14.837  1.00  0.00     0.017 C 
HETATM    5  C8  UNL     1      17.609   4.804  14.017  1.00  0.00     0.033 C 
HETATM    6  C9  UNL     1      17.248   3.408  14.488  1.00  0.00     0.124 C 
HETATM    7  C10 UNL     1      16.619   5.209  12.928  1.00  0.00     0.129 C 
ENDROOT
BRANCH   1   8
HETATM    8  C4  UNL     1      15.743   2.725  16.265  1.00  0.00     0.081 C 
HETATM    9  C3  UNL     1      14.337   2.891  16.827  1.00  0.00     0.027 C 
HETATM   10  C2  UNL     1      14.233   1.724  17.802  1.00  0.00     0.034 C 
HETATM   11  C1  UNL     1      14.755   0.600  16.912  1.00  0.00     0.120 C 
HETATM   12  C11 UNL     1      15.982   1.250  16.332  1.00  0.00     0.056 C 
BRANCH  11  13
HETATM   13  O1  UNL     1      15.061  -0.536  17.632  1.00  0.00    -0.396 OA
ATOM     14  H1  UNL     1      15.948  -0.518  17.972  1.00  0.00     0.210 HD
ENDBRANCH  11  13
ENDBRANCH   1   8
BRANCH   7  15
HETATM   15  O2  UNL     1      16.186   4.193  12.109  1.00  0.00    -0.395 OA
ATOM     16  H2  UNL     1      15.677   4.464  11.354  1.00  0.00     0.210 HD
ENDBRANCH   7  15
TORSDOF 3
ENDMDL
MODEL 2
REMARK VINA RESULT: -5.949482482      1.184      1.314
REMARK  3 active torsions:
REMARK  status: ('A' for Active; 'I' for Inactive)
REMARK    1  A    between atoms: O1_1  and  C1_3 
REMARK    2  A    between atoms: C4_6  and  N1_7 
REMARK    3  A    between atoms: C10_13  and  O2_14 
ROOT
HETATM    1  N1  UNL     1      16.998   3.207  15.002  1.00  0.00    -0.407 N 
HETATM    2  C5  UNL     1      16.389   3.191  13.726  1.00  0.00     0.124 C 
HETATM    3  C6  UNL     1      16.596   4.485  12.981  1.00  0.00     0.033 C 
HETATM    4  C7  UNL     1      16.608   5.692  13.906  1.00  0.00     0.017 C 
HETATM    5  C8  UNL     1      18.008   5.290  14.260  1.00  0.00     0.033 C 
HETATM    6  C9  UNL     1      18.063   4.108  15.209  1.00  0.00     0.124 C 
HETATM    7  C10 UNL     1      18.089   4.758  12.832  1.00  0.00     0.129 C 
ENDROOT
BRANCH   1   8
HETATM    8  C4  UNL     1      16.248   2.773  16.110  1.00  0.00     0.081 C 
HETATM    9  C3  UNL     1      14.741   2.918  15.939  1.00  0.00     0.027 C 
HETATM   10  C2  UNL     1      14.198   1.909  16.944  1.00  0.00     0.034 C 
HETATM   11  C1  UNL     1      15.065   0.704  16.591  1.00  0.00     0.120 C 
HETATM   12  C11 UNL     1      16.424   1.347  16.526  1.00  0.00     0.056 C 
BRANCH  11  13
HETATM   13  O1  UNL     1      15.003  -0.284  17.552  1.00  0.00    -0.396 OA
ATOM     14  H1  UNL     1      15.510  -1.051  17.312  1.00  0.00     0.210 HD
ENDBRANCH  11  13
ENDBRANCH   1   8
BRANCH   7  15
HETATM   15  O2  UNL     1      18.879   3.647  12.655  1.00  0.00    -0.395 OA
ATOM     16  H2  UNL     1      18.413   2.830  12.515  1.00  0.00     0.210 HD
ENDBRANCH   7  15
TORSDOF 3
ENDMDL
MODEL 3
REMARK VINA RESULT: -5.838182009      1.940      2.328
REMARK  3 active torsions:
REMARK  status: ('A' for Active; 'I' for Inactive)
REMARK    1  A    between atoms: O1_1  and  C1_3 
REMARK    2  A    between atoms: C4_6  and  N1_7 
REMARK    3  A    between atoms: C10_13  and  O2_14 
ROOT
HETATM    1  N1  UNL     1      16.076   2.315  13.780  1.00  0.00    -0.407 N 
HETATM    2  C5  UNL     1      16.064   3.582  13.150  1.00  0.00     0.124 C 
HETATM    3  C6  UNL     1      17.076   3.673  12.037  1.00  0.00     0.033 C 
HETATM    4  C7  UNL     1      18.338   2.878  12.331  1.00  0.00     0.017 C 
HETATM    5  C8  UNL     1      17.547   1.661  11.957  1.00  0.00     0.033 C 
HETATM    6  C9  UNL     1      16.583   1.224  13.044  1.00  0.00     0.124 C 
HETATM    7  C10 UNL     1      16.799   2.587  11.002  1.00  0.00     0.129 C 
ENDROOT
BRANCH   1   8
HETATM    8  C4  UNL     1      16.104   2.263  15.184  1.00  0.00     0.081 C 
HETATM    9  C3  UNL     1      14.902   2.913  15.857  1.00  0.00     0.027 C 
HETATM   10  C2  UNL     1      14.890   2.243  17.227  1.00  0.00     0.034 C 
HETATM   11  C1  UNL     1      15.046   0.787  16.800  1.00  0.00     0.120 C 
HETATM   12  C11 UNL     1      16.169   0.905  15.807  1.00  0.00     0.056 C 
BRANCH  11  13
HETATM   13  O1  UNL     1      15.372  -0.036  17.858  1.00  0.00    -0.396 OA
ATOM     14  H1  UNL     1      15.312  -0.956  17.630  1.00  0.00     0.210 HD
ENDBRANCH  11  13
ENDBRANCH   1   8
BRANCH   7  15
HETATM   15  O2  UNL     1      15.473   2.286  10.799  1.00  0.00    -0.395 OA
ATOM     16  H2  UNL     1      15.203   1.417  11.073  1.00  0.00     0.210 HD
ENDBRANCH   7  15
TORSDOF 3
ENDMDL
MODEL 4
REMARK VINA RESULT: -5.576006139      3.144      4.446
REMARK  3 active torsions:
REMARK  status: ('A' for Active; 'I' for Inactive)
REMARK    1  A    between atoms: O1_1  and  C1_3 
REMARK    2  A    between atoms: C4_6  and  N1_7 
REMARK    3  A    between atoms: C10_13  and  O2_14 
ROOT
HETATM    1  N1  UNL     1      16.481   2.513  13.121  1.00  0.00    -0.407 N 
HETATM    2  C5  UNL     1      16.063   2.358  14.464  1.00  0.00     0.124 C 
HETATM    3  C6  UNL     1      16.432   3.547  15.314  1.00  0.00     0.033 C 
HETATM    4  C7  UNL     1      17.754   4.171  14.900  1.00  0.00     0.017 C 
HETATM    5  C8  UNL     1      16.996   4.799  13.769  1.00  0.00     0.033 C 
HETATM    6  C9  UNL     1      16.689   3.825  12.648  1.00  0.00     0.124 C 
HETATM    7  C10 UNL     1      15.809   4.810  14.728  1.00  0.00     0.129 C 
ENDROOT
BRANCH   1   8
HETATM    8  C4  UNL     1      17.160   1.449  12.502  1.00  0.00     0.081 C 
HETATM    9  C3  UNL     1      16.699   0.068  12.951  1.00  0.00     0.027 C 
HETATM   10  C2  UNL     1      17.136  -0.818  11.790  1.00  0.00     0.034 C 
HETATM   11  C1  UNL     1      16.604   0.010  10.623  1.00  0.00     0.120 C 
HETATM   12  C11 UNL     1      17.088   1.381  11.010  1.00  0.00     0.056 C 
BRANCH  11  13
HETATM   13  O1  UNL     1      17.122  -0.401   9.413  1.00  0.00    -0.396 OA
ATOM     14  H1  UNL     1      17.190  -1.347   9.354  1.00  0.00     0.210 HD
ENDBRANCH  11  13
ENDBRANCH   1   8
BRANCH   7  15
HETATM   15  O2  UNL     1      14.574   4.647  14.148  1.00  0.00    -0.395 OA
ATOM     16  H2  UNL     1      14.581   4.354  13.244  1.00  0.00     0.210 HD
ENDBRANCH   7  15
TORSDOF 3
ENDMDL
MODEL 5
REMARK VINA RESULT: -5.470847537      1.542      1.960
REMARK  3 active torsions:
REMARK  status: ('A' for Active; 'I' for Inactive)
REMARK    1  A    between atoms: O1_1  and  C1_3 
REMARK    2  A    between atoms: C4_6  and  N1_7 
REMARK    3  A    between atoms: C10_13  and  O2_14 
ROOT
HETATM    1  N1  UNL     1      16.235   3.449  13.669  1.00  0.00    -0.407 N 
HETATM    2  C5  UNL     1      16.409   4.786  13.241  1.00  0.00     0.124 C 
HETATM    3  C6  UNL     1      17.559   4.929  12.277  1.00  0.00     0.033 C 
HETATM    4  C7  UNL     1      18.703   3.977  12.592  1.00  0.00     0.017 C 
HETATM    5  C8  UNL     1      17.868   2.910  11.951  1.00  0.00     0.033 C 
HETATM    6  C9  UNL     1      16.740   2.425  12.841  1.00  0.00     0.124 C 
HETATM    7  C10 UNL     1      17.328   4.031  11.066  1.00  0.00     0.129 C 
ENDROOT
BRANCH   1   8
HETATM    8  C4  UNL     1      16.078   3.199  15.044  1.00  0.00     0.081 C 
HETATM    9  C3  UNL     1      14.639   3.290  15.535  1.00  0.00     0.027 C 
HETATM   10  C2  UNL     1      14.673   2.459  16.812  1.00  0.00     0.034 C 
HETATM   11  C1  UNL     1      15.405   1.225  16.293  1.00  0.00     0.120 C 
HETATM   12  C11 UNL     1      16.540   1.867  15.544  1.00  0.00     0.056 C 
BRANCH  11  13
HETATM   13  O1  UNL     1      15.851   0.414  17.316  1.00  0.00    -0.396 OA
ATOM     14  H1  UNL     1      16.005  -0.478  17.027  1.00  0.00     0.210 HD
ENDBRANCH  11  13
ENDBRANCH   1   8
BRANCH   7  15
HETATM   15  O2  UNL     1      16.019   3.897  10.669  1.00  0.00    -0.395 OA
ATOM     16  H2  UNL     1      15.389   3.768  11.370  1.00  0.00     0.210 HD
ENDBRANCH   7  15
TORSDOF 3
ENDMDL
