MODEL 1
REMARK VINA RESULT: -6.183489832      0.000      0.000
REMARK  2 active torsions:
REMARK  status: ('A' for Active; 'I' for Inactive)
REMARK    1  A    between atoms: O1_2  and  C2_3 
REMARK    2  A    between atoms: C11_14  and  O4_15 
ROOT
HETATM    1  C2  UNL     1      16.143   2.223  15.862  1.00  0.00     0.158 C 
HETATM    2  C3  UNL     1      16.851   3.268  15.069  1.00  0.00     0.045 C 
HETATM    3  C4  UNL     1      18.234   3.568  15.534  1.00  0.00     0.015 C 
HETATM    4  C5  UNL     1      16.927   2.662  13.672  1.00  0.00     0.160 C 
HETATM    5  O2  UNL     1      18.142   2.978  13.098  1.00  0.00    -0.370 OA
HETATM    6  C6  UNL     1      18.285   2.369  11.870  1.00  0.00     0.075 C 
HETATM    7  C7  UNL     1      19.777   2.239  11.581  1.00  0.00     0.048 C 
HETATM    8  C8  UNL     1      17.569   3.126  10.800  1.00  0.00     0.048 C 
HETATM    9  C9  UNL     1      17.737   0.944  11.863  1.00  0.00     0.205 C 
HETATM   10  O3  UNL     1      17.802   0.507  13.200  1.00  0.00    -0.378 OA
HETATM   11  C10 UNL     1      16.773   1.160  13.870  1.00  0.00     0.182 C 
HETATM   12  C11 UNL     1      16.807   0.939  15.352  1.00  0.00     0.179 C 
ENDROOT
BRANCH   1  13
HETATM   13  O1  UNL     1      16.238   2.350  17.218  1.00  0.00    -0.388 OA
HETATM   14  C1  UNL     1      15.114   1.709  17.784  1.00  0.00     0.202 C 
ENDBRANCH   1  13
BRANCH  12  15
HETATM   15  O4  UNL     1      18.073   0.784  15.860  1.00  0.00    -0.390 OA
ATOM     16  H4  UNL     1      18.114   1.017  16.780  1.00  0.00     0.210 HD
ENDBRANCH  12  15
TORSDOF 2
ENDMDL
MODEL 2
REMARK VINA RESULT: -5.922012421      2.242      4.679
REMARK  2 active torsions:
REMARK  status: ('A' for Active; 'I' for Inactive)
REMARK    1  A    between atoms: O1_2  and  C2_3 
REMARK    2  A    between atoms: C11_14  and  O4_15 
ROOT
HETATM    1  C2  UNL     1      18.040   1.278  11.543  1.00  0.00     0.158 C 
HETATM    2  C3  UNL     1      18.438   2.714  11.548  1.00  0.00     0.045 C 
HETATM    3  C4  UNL     1      17.821   3.532  10.467  1.00  0.00     0.015 C 
HETATM    4  C5  UNL     1      17.928   3.220  12.893  1.00  0.00     0.160 C 
HETATM    5  O2  UNL     1      17.437   4.502  12.748  1.00  0.00    -0.370 OA
HETATM    6  C6  UNL     1      16.881   4.957  13.924  1.00  0.00     0.075 C 
HETATM    7  C7  UNL     1      15.866   6.040  13.575  1.00  0.00     0.048 C 
HETATM    8  C8  UNL     1      17.929   5.451  14.867  1.00  0.00     0.048 C 
HETATM    9  C9  UNL     1      16.093   3.870  14.651  1.00  0.00     0.205 C 
HETATM   10  O3  UNL     1      15.695   2.960  13.653  1.00  0.00    -0.378 OA
HETATM   11  C10 UNL     1      16.834   2.243  13.307  1.00  0.00     0.182 C 
HETATM   12  C11 UNL     1      16.623   1.344  12.127  1.00  0.00     0.179 C 
ENDROOT
BRANCH   1  13
HETATM   13  O1  UNL     1      18.067   0.665  10.323  1.00  0.00    -0.388 OA
HETATM   14  C1  UNL     1      18.051  -0.729  10.549  1.00  0.00     0.202 C 
ENDBRANCH   1  13
BRANCH  12  15
HETATM   15  O4  UNL     1      15.719   1.828  11.215  1.00  0.00    -0.390 OA
ATOM     16  H4  UNL     1      15.915   2.724  10.967  1.00  0.00     0.210 HD
ENDBRANCH  12  15
TORSDOF 2
ENDMDL
MODEL 3
REMARK VINA RESULT: -5.849049153      1.877      4.827
REMARK  2 active torsions:
REMARK  status: ('A' for Active; 'I' for Inactive)
REMARK    1  A    between atoms: O1_2  and  C2_3 
REMARK    2  A    between atoms: C11_14  and  O4_15 
ROOT
HETATM    1  C2  UNL     1      17.599   4.116  14.160  1.00  0.00     0.158 C 
HETATM    2  C3  UNL     1      16.584   4.420  15.208  1.00  0.00     0.045 C 
HETATM    3  C4  UNL     1      15.211   4.668  14.688  1.00  0.00     0.015 C 
HETATM    4  C5  UNL     1      16.562   3.154  16.058  1.00  0.00     0.160 C 
HETATM    5  O2  UNL     1      15.266   2.885  16.451  1.00  0.00    -0.370 OA
HETATM    6  C6  UNL     1      15.194   1.696  17.144  1.00  0.00     0.075 C 
HETATM    7  C7  UNL     1      13.770   1.164  17.016  1.00  0.00     0.048 C 
HETATM    8  C8  UNL     1      15.603   1.870  18.570  1.00  0.00     0.048 C 
HETATM    9  C9  UNL     1      16.093   0.619  16.541  1.00  0.00     0.205 C 
HETATM   10  O3  UNL     1      16.247   0.969  15.187  1.00  0.00    -0.378 OA
HETATM   11  C10 UNL     1      17.118   2.053  15.164  1.00  0.00     0.182 C 
HETATM   12  C11 UNL     1      17.256   2.664  13.803  1.00  0.00     0.179 C 
ENDROOT
BRANCH   1  13
HETATM   13  O1  UNL     1      17.578   4.935  13.067  1.00  0.00    -0.388 OA
HETATM   14  C1  UNL     1      18.835   4.825  12.432  1.00  0.00     0.202 C 
ENDBRANCH   1  13
BRANCH  12  15
HETATM   15  O4  UNL     1      16.118   2.583  13.040  1.00  0.00    -0.390 OA
ATOM     16  H4  UNL     1      16.317   2.426  12.125  1.00  0.00     0.210 HD
ENDBRANCH  12  15
TORSDOF 2
ENDMDL
MODEL 4
REMARK VINA RESULT: -5.621317554      2.769      4.308
REMARK  2 active torsions:
REMARK  status: ('A' for Active; 'I' for Inactive)
REMARK    1  A    between atoms: O1_2  and  C2_3 
REMARK    2  A    between atoms: C11_14  and  O4_15 
ROOT
HETATM    1  C2  UNL     1      17.366   1.481  12.391  1.00  0.00     0.158 C 
HETATM    2  C3  UNL     1      18.786   1.626  11.963  1.00  0.00     0.045 C 
HETATM    3  C4  UNL     1      19.222   0.655  10.921  1.00  0.00     0.015 C 
HETATM    4  C5  UNL     1      18.837   3.031  11.371  1.00  0.00     0.160 C 
HETATM    5  O2  UNL     1      19.661   3.035  10.263  1.00  0.00    -0.370 OA
HETATM    6  C6  UNL     1      19.658   4.267   9.647  1.00  0.00     0.075 C 
HETATM    7  C7  UNL     1      20.048   4.063   8.186  1.00  0.00     0.048 C 
HETATM    8  C8  UNL     1      20.567   5.228  10.343  1.00  0.00     0.048 C 
HETATM    9  C9  UNL     1      18.267   4.898   9.619  1.00  0.00     0.205 C 
HETATM   10  O3  UNL     1      17.363   3.821   9.687  1.00  0.00    -0.378 OA
HETATM   11  C10 UNL     1      17.398   3.369  11.002  1.00  0.00     0.182 C 
HETATM   12  C11 UNL     1      16.617   2.108  11.208  1.00  0.00     0.179 C 
ENDROOT
BRANCH   1  13
HETATM   13  O1  UNL     1      16.956   0.203  12.642  1.00  0.00    -0.388 OA
HETATM   14  C1  UNL     1      17.093  -0.020  14.030  1.00  0.00     0.202 C 
ENDBRANCH   1  13
BRANCH  12  15
HETATM   15  O4  UNL     1      16.605   1.277  10.115  1.00  0.00    -0.390 OA
ATOM     16  H4  UNL     1      15.833   0.725  10.101  1.00  0.00     0.210 HD
ENDBRANCH  12  15
TORSDOF 2
ENDMDL
MODEL 5
REMARK VINA RESULT: -5.566777663      1.873      5.218
REMARK  2 active torsions:
REMARK  status: ('A' for Active; 'I' for Inactive)
REMARK    1  A    between atoms: O1_2  and  C2_3 
REMARK    2  A    between atoms: C11_14  and  O4_15 
ROOT
HETATM    1  C2  UNL     1      18.718   3.473  10.660  1.00  0.00     0.158 C 
HETATM    2  C3  UNL     1      17.654   2.682  11.341  1.00  0.00     0.045 C 
HETATM    3  C4  UNL     1      18.016   1.263  11.616  1.00  0.00     0.015 C 
HETATM    4  C5  UNL     1      17.471   3.405  12.671  1.00  0.00     0.160 C 
HETATM    5  O2  UNL     1      17.254   2.480  13.673  1.00  0.00    -0.370 OA
HETATM    6  C6  UNL     1      17.177   3.090  14.905  1.00  0.00     0.075 C 
HETATM    7  C7  UNL     1      17.544   2.057  15.966  1.00  0.00     0.048 C 
HETATM    8  C8  UNL     1      15.824   3.679  15.139  1.00  0.00     0.048 C 
HETATM    9  C9  UNL     1      18.195   4.218  15.058  1.00  0.00     0.205 C 
HETATM   10  O3  UNL     1      19.242   3.905  14.170  1.00  0.00    -0.378 OA
HETATM   11  C10 UNL     1      18.763   4.181  12.894  1.00  0.00     0.182 C 
HETATM   12  C11 UNL     1      19.698   3.737  11.810  1.00  0.00     0.179 C 
ENDROOT
BRANCH   1  13
HETATM   13  O1  UNL     1      19.320   2.857   9.600  1.00  0.00    -0.388 OA
HETATM   14  C1  UNL     1      20.045   3.842   8.894  1.00  0.00     0.202 C 
ENDBRANCH   1  13
BRANCH  12  15
HETATM   15  O4  UNL     1      20.423   2.616  12.128  1.00  0.00    -0.390 OA
ATOM     16  H4  UNL     1      21.351   2.807  12.203  1.00  0.00     0.210 HD
ENDBRANCH  12  15
TORSDOF 2
ENDMDL
