MODEL 1
REMARK VINA RESULT: -7.127443760      0.000      0.000
REMARK  4 active torsions:
REMARK  status: ('A' for Active; 'I' for Inactive)
REMARK    1  A    between atoms: C6_6  and  C7_7 
REMARK    2  A    between atoms: C7_7  and  O2_9 
REMARK    3  A    between atoms: O2_9  and  O3_10 
REMARK    4  A    between atoms: N1_15  and  O4_16 
ROOT
HETATM    1  C1  UNL     1      17.476   5.461  12.968  1.00  0.00     0.016 C 
HETATM    2  C2  UNL     1      17.980   4.159  13.464  1.00  0.00    -0.029 C 
HETATM    3  C3  UNL     1      19.505   4.168  13.263  1.00  0.00     0.016 C 
HETATM    4  C4  UNL     1      17.445   2.959  12.762  1.00  0.00     0.013 C 
HETATM    5  C5  UNL     1      16.483   2.142  13.558  1.00  0.00     0.039 C 
HETATM    6  C6  UNL     1      16.883   1.926  14.983  1.00  0.00     0.129 C 
HETATM    7  C8  UNL     1      15.965   2.771  15.874  1.00  0.00     0.040 C 
HETATM    8  C9  UNL     1      16.388   4.167  15.409  1.00  0.00     0.025 C 
HETATM    9  C10 UNL     1      17.797   3.978  14.972  1.00  0.00     0.095 C 
HETATM   10  N1  UNL     1      18.142   2.572  15.212  1.00  0.00    -0.175 NA
ENDROOT
BRANCH   6  11
HETATM   11  C7  UNL     1      16.837   0.532  15.425  1.00  0.00     0.313 C 
HETATM   12  O1  UNL     1      16.825  -0.373  14.560  1.00  0.00    -0.260 OA
BRANCH  11  13
HETATM   13  O2  UNL     1      16.807   0.203  16.772  1.00  0.00    -0.159 OA
BRANCH  13  14
HETATM   14  O3  UNL     1      15.778  -0.485  17.286  1.00  0.00    -0.242 OA
ATOM     15  H3  UNL     1      15.043  -0.033  17.683  1.00  0.00     0.254 HD
ENDBRANCH  13  14
ENDBRANCH  11  13
ENDBRANCH   6  11
BRANCH  10  16
HETATM   16  O4  UNL     1      18.677   2.364  16.405  1.00  0.00    -0.311 OA
ATOM     17  H4  UNL     1      19.211   3.075  16.740  1.00  0.00     0.237 HD
ENDBRANCH  10  16
TORSDOF 4
ENDMDL
MODEL 2
REMARK VINA RESULT: -6.982609869      1.971      4.431
REMARK  4 active torsions:
REMARK  status: ('A' for Active; 'I' for Inactive)
REMARK    1  A    between atoms: C6_6  and  C7_7 
REMARK    2  A    between atoms: C7_7  and  O2_9 
REMARK    3  A    between atoms: O2_9  and  O3_10 
REMARK    4  A    between atoms: N1_15  and  O4_16 
ROOT
HETATM    1  C1  UNL     1      14.171   0.806  17.166  1.00  0.00     0.016 C 
HETATM    2  C2  UNL     1      15.273   1.796  17.148  1.00  0.00    -0.029 C 
HETATM    3  C3  UNL     1      15.657   2.060  18.614  1.00  0.00     0.016 C 
HETATM    4  C4  UNL     1      14.938   3.111  16.533  1.00  0.00     0.013 C 
HETATM    5  C5  UNL     1      15.572   3.364  15.206  1.00  0.00     0.039 C 
HETATM    6  C6  UNL     1      17.011   2.964  15.119  1.00  0.00     0.129 C 
HETATM    7  C8  UNL     1      17.108   1.707  14.246  1.00  0.00     0.040 C 
HETATM    8  C9  UNL     1      16.338   0.729  15.137  1.00  0.00     0.025 C 
HETATM    9  C10 UNL     1      16.555   1.259  16.509  1.00  0.00     0.095 C 
HETATM   10  N1  UNL     1      17.420   2.438  16.388  1.00  0.00    -0.175 NA
ENDROOT
BRANCH   6  11
HETATM   11  C7  UNL     1      17.899   3.995  14.584  1.00  0.00     0.313 C 
HETATM   12  O1  UNL     1      17.437   5.140  14.380  1.00  0.00    -0.260 OA
BRANCH  11  13
HETATM   13  O2  UNL     1      19.230   3.725  14.302  1.00  0.00    -0.159 OA
BRANCH  13  14
HETATM   14  O3  UNL     1      20.188   3.999  15.197  1.00  0.00    -0.242 OA
ATOM     15  H3  UNL     1      20.964   3.454  15.259  1.00  0.00     0.254 HD
ENDBRANCH  13  14
ENDBRANCH  11  13
ENDBRANCH   6  11
BRANCH  10  16
HETATM   16  O4  UNL     1      18.708   2.150  16.493  1.00  0.00    -0.311 OA
ATOM     17  H4  UNL     1      18.913   1.391  17.026  1.00  0.00     0.237 HD
ENDBRANCH  10  16
TORSDOF 4
ENDMDL
MODEL 3
REMARK VINA RESULT: -6.753508662      1.031      1.766
REMARK  4 active torsions:
REMARK  status: ('A' for Active; 'I' for Inactive)
REMARK    1  A    between atoms: C6_6  and  C7_7 
REMARK    2  A    between atoms: C7_7  and  O2_9 
REMARK    3  A    between atoms: O2_9  and  O3_10 
REMARK    4  A    between atoms: N1_15  and  O4_16 
ROOT
HETATM    1  C1  UNL     1      17.431   5.814  14.286  1.00  0.00     0.016 C 
HETATM    2  C2  UNL     1      18.018   4.456  14.373  1.00  0.00    -0.029 C 
HETATM    3  C3  UNL     1      19.533   4.638  14.558  1.00  0.00     0.016 C 
HETATM    4  C4  UNL     1      17.816   3.598  13.172  1.00  0.00     0.013 C 
HETATM    5  C5  UNL     1      16.849   2.475  13.357  1.00  0.00     0.039 C 
HETATM    6  C6  UNL     1      16.990   1.742  14.653  1.00  0.00     0.129 C 
HETATM    7  C8  UNL     1      15.799   2.110  15.546  1.00  0.00     0.040 C 
HETATM    8  C9  UNL     1      16.092   3.600  15.744  1.00  0.00     0.025 C 
HETATM    9  C10 UNL     1      17.571   3.686  15.617  1.00  0.00     0.095 C 
HETATM   10  N1  UNL     1      18.069   2.323  15.397  1.00  0.00    -0.175 NA
ENDROOT
BRANCH   6  11
HETATM   11  C7  UNL     1      17.067   0.287  14.526  1.00  0.00     0.313 C 
HETATM   12  O1  UNL     1      16.584  -0.423  15.437  1.00  0.00    -0.260 OA
BRANCH  11  13
HETATM   13  O2  UNL     1      17.659  -0.311  13.423  1.00  0.00    -0.159 OA
BRANCH  13  14
HETATM   14  O3  UNL     1      16.910  -0.869  12.462  1.00  0.00    -0.242 OA
ATOM     15  H3  UNL     1      16.575  -1.752  12.561  1.00  0.00     0.254 HD
ENDBRANCH  13  14
ENDBRANCH  11  13
ENDBRANCH   6  11
BRANCH  10  16
HETATM   16  O4  UNL     1      18.384   1.697  16.520  1.00  0.00    -0.311 OA
ATOM     17  H4  UNL     1      18.725   0.817  16.412  1.00  0.00     0.237 HD
ENDBRANCH  10  16
TORSDOF 4
ENDMDL
MODEL 4
REMARK VINA RESULT: -6.495296419      1.507      2.291
REMARK  4 active torsions:
REMARK  status: ('A' for Active; 'I' for Inactive)
REMARK    1  A    between atoms: C6_6  and  C7_7 
REMARK    2  A    between atoms: C7_7  and  O2_9 
REMARK    3  A    between atoms: O2_9  and  O3_10 
REMARK    4  A    between atoms: N1_15  and  O4_16 
ROOT
HETATM    1  C1  UNL     1      18.969   5.339  11.070  1.00  0.00     0.016 C 
HETATM    2  C2  UNL     1      19.113   4.290  12.107  1.00  0.00    -0.029 C 
HETATM    3  C3  UNL     1      20.423   3.543  11.804  1.00  0.00     0.016 C 
HETATM    4  C4  UNL     1      18.021   3.278  12.144  1.00  0.00     0.013 C 
HETATM    5  C5  UNL     1      17.105   3.384  13.318  1.00  0.00     0.039 C 
HETATM    6  C6  UNL     1      17.794   3.633  14.622  1.00  0.00     0.129 C 
HETATM    7  C8  UNL     1      17.517   5.081  15.043  1.00  0.00     0.040 C 
HETATM    8  C9  UNL     1      18.245   5.810  13.911  1.00  0.00     0.025 C 
HETATM    9  C10 UNL     1      19.316   4.858  13.513  1.00  0.00     0.095 C 
HETATM   10  N1  UNL     1      19.208   3.689  14.393  1.00  0.00    -0.175 NA
ENDROOT
BRANCH   6  11
HETATM   11  C7  UNL     1      17.398   2.730  15.703  1.00  0.00     0.313 C 
HETATM   12  O1  UNL     1      16.244   2.832  16.179  1.00  0.00    -0.260 OA
BRANCH  11  13
HETATM   13  O2  UNL     1      18.271   1.775  16.202  1.00  0.00    -0.159 OA
BRANCH  13  14
HETATM   14  O3  UNL     1      17.934   0.479  16.211  1.00  0.00    -0.242 OA
ATOM     15  H3  UNL     1      17.640   0.049  15.417  1.00  0.00     0.254 HD
ENDBRANCH  13  14
ENDBRANCH  11  13
ENDBRANCH   6  11
BRANCH  10  16
HETATM   16  O4  UNL     1      19.954   3.789  15.483  1.00  0.00    -0.311 OA
ATOM     17  H4  UNL     1      19.694   4.469  16.092  1.00  0.00     0.237 HD
ENDBRANCH  10  16
TORSDOF 4
ENDMDL
MODEL 5
REMARK VINA RESULT: -6.319077272      2.659      3.275
REMARK  4 active torsions:
REMARK  status: ('A' for Active; 'I' for Inactive)
REMARK    1  A    between atoms: C6_6  and  C7_7 
REMARK    2  A    between atoms: C7_7  and  O2_9 
REMARK    3  A    between atoms: O2_9  and  O3_10 
REMARK    4  A    between atoms: N1_15  and  O4_16 
ROOT
HETATM    1  C1  UNL     1      19.796   3.294   9.560  1.00  0.00     0.016 C 
HETATM    2  C2  UNL     1      19.663   2.613  10.869  1.00  0.00    -0.029 C 
HETATM    3  C3  UNL     1      20.830   3.101  11.744  1.00  0.00     0.016 C 
HETATM    4  C4  UNL     1      19.731   1.126  10.824  1.00  0.00     0.013 C 
HETATM    5  C5  UNL     1      18.435   0.429  11.072  1.00  0.00     0.039 C 
HETATM    6  C6  UNL     1      17.629   1.000  12.195  1.00  0.00     0.129 C 
HETATM    7  C8  UNL     1      16.423   1.734  11.597  1.00  0.00     0.040 C 
HETATM    8  C9  UNL     1      17.160   2.850  10.852  1.00  0.00     0.025 C 
HETATM    9  C10 UNL     1      18.409   3.032  11.639  1.00  0.00     0.095 C 
HETATM   10  N1  UNL     1      18.350   2.097  12.769  1.00  0.00    -0.175 NA
ENDROOT
BRANCH   6  11
HETATM   11  C7  UNL     1      17.160   0.016  13.171  1.00  0.00     0.313 C 
HETATM   12  O1  UNL     1      17.154  -1.194  12.849  1.00  0.00    -0.260 OA
BRANCH  11  13
HETATM   13  O2  UNL     1      16.730   0.399  14.433  1.00  0.00    -0.159 OA
BRANCH  13  14
HETATM   14  O3  UNL     1      16.726  -0.473  15.449  1.00  0.00    -0.242 OA
ATOM     15  H3  UNL     1      17.534  -0.877  15.744  1.00  0.00     0.254 HD
ENDBRANCH  13  14
ENDBRANCH  11  13
ENDBRANCH   6  11
BRANCH  10  16
HETATM   16  O4  UNL     1      17.806   2.627  13.854  1.00  0.00    -0.311 OA
ATOM     17  H4  UNL     1      18.412   2.822  14.559  1.00  0.00     0.237 HD
ENDBRANCH  10  16
TORSDOF 4
ENDMDL
