MODEL 1
REMARK VINA RESULT: -6.707464785      0.000      0.000
REMARK  2 active torsions:
REMARK  status: ('A' for Active; 'I' for Inactive)
REMARK    1  A    between atoms: O1_2  and  C2_3 
REMARK       I    between atoms: C2_3  and  N1_5 
REMARK    2  A    between atoms: C3_6  and  O3_7 
ROOT
HETATM    1  C2  UNL     1      16.687   2.085  11.701  1.00  0.00     0.364 C 
HETATM    2  O2  UNL     1      16.928   2.310  10.489  1.00  0.00    -0.238 OA
HETATM    3  N1  UNL     1      16.796   3.055  12.747  1.00  0.00    -0.296 N 
HETATM    4  C3  UNL     1      17.218   4.324  12.220  1.00  0.00     0.225 C 
HETATM    5  C4  UNL     1      17.106   5.492  13.105  1.00  0.00     0.058 C 
HETATM    6  C5  UNL     1      17.049   5.196  14.570  1.00  0.00    -0.010 C 
HETATM    7  C6  UNL     1      18.072   4.202  15.019  1.00  0.00     0.011 C 
HETATM    8  C7  UNL     1      17.508   2.817  15.101  1.00  0.00     0.010 C 
HETATM    9  C8  UNL     1      16.305   2.790  16.061  1.00  0.00     0.013 C 
HETATM   10  C9  UNL     1      15.500   3.300  14.848  1.00  0.00     0.010 C 
HETATM   11  C10 UNL     1      15.625   4.773  14.875  1.00  0.00     0.011 C 
HETATM   12  C11 UNL     1      16.476   2.562  14.022  1.00  0.00     0.100 C 
ENDROOT
BRANCH   1  13
HETATM   13  O1  UNL     1      16.286   0.760  11.970  1.00  0.00    -0.309 OA
HETATM   14  C1  UNL     1      17.082  -0.349  11.622  1.00  0.00     0.215 C 
ENDBRANCH   1  13
BRANCH   4  15
HETATM   15  O3  UNL     1      16.528   4.591  11.014  1.00  0.00    -0.377 OA
ATOM     16  H3  UNL     1      16.321   5.516  10.962  1.00  0.00     0.212 HD
ENDBRANCH   4  15
TORSDOF 2
ENDMDL
MODEL 2
REMARK VINA RESULT: -6.265948697      1.220      3.043
REMARK  2 active torsions:
REMARK  status: ('A' for Active; 'I' for Inactive)
REMARK    1  A    between atoms: O1_2  and  C2_3 
REMARK       I    between atoms: C2_3  and  N1_5 
REMARK    2  A    between atoms: C3_6  and  O3_7 
ROOT
HETATM    1  C2  UNL     1      16.696   2.225  11.822  1.00  0.00     0.364 C 
HETATM    2  O2  UNL     1      16.666   1.111  11.245  1.00  0.00    -0.238 OA
HETATM    3  N1  UNL     1      16.789   2.408  13.239  1.00  0.00    -0.296 N 
HETATM    4  C3  UNL     1      16.845   1.138  13.910  1.00  0.00     0.225 C 
HETATM    5  C4  UNL     1      17.227   1.143  15.330  1.00  0.00     0.058 C 
HETATM    6  C5  UNL     1      17.034   2.440  16.051  1.00  0.00    -0.010 C 
HETATM    7  C6  UNL     1      15.709   3.080  15.785  1.00  0.00     0.011 C 
HETATM    8  C7  UNL     1      15.797   4.123  14.714  1.00  0.00     0.010 C 
HETATM    9  C8  UNL     1      16.823   5.202  15.106  1.00  0.00     0.013 C 
HETATM   10  C9  UNL     1      17.869   4.211  14.556  1.00  0.00     0.010 C 
HETATM   11  C10 UNL     1      18.213   3.322  15.686  1.00  0.00     0.011 C 
HETATM   12  C11 UNL     1      16.803   3.752  13.644  1.00  0.00     0.100 C 
ENDROOT
BRANCH   1  13
HETATM   13  O1  UNL     1      16.628   3.328  10.945  1.00  0.00    -0.309 OA
HETATM   14  C1  UNL     1      17.770   3.841  10.299  1.00  0.00     0.215 C 
ENDBRANCH   1  13
BRANCH   4  15
HETATM   15  O3  UNL     1      17.706   0.264  13.205  1.00  0.00    -0.377 OA
ATOM     16  H3  UNL     1      18.609   0.517  13.354  1.00  0.00     0.212 HD
ENDBRANCH   4  15
TORSDOF 2
ENDMDL
MODEL 3
REMARK VINA RESULT: -6.173913655      1.661      3.293
REMARK  2 active torsions:
REMARK  status: ('A' for Active; 'I' for Inactive)
REMARK    1  A    between atoms: O1_2  and  C2_3 
REMARK       I    between atoms: C2_3  and  N1_5 
REMARK    2  A    between atoms: C3_6  and  O3_7 
ROOT
HETATM    1  C2  UNL     1      17.132   0.341  13.019  1.00  0.00     0.364 C 
HETATM    2  O2  UNL     1      17.026  -0.861  13.362  1.00  0.00    -0.238 OA
HETATM    3  N1  UNL     1      17.092   1.453  13.920  1.00  0.00    -0.296 N 
HETATM    4  C3  UNL     1      16.916   1.001  15.274  1.00  0.00     0.225 C 
HETATM    5  C4  UNL     1      17.138   1.983  16.345  1.00  0.00     0.058 C 
HETATM    6  C5  UNL     1      17.032   3.420  15.944  1.00  0.00    -0.010 C 
HETATM    7  C6  UNL     1      15.835   3.717  15.099  1.00  0.00     0.011 C 
HETATM    8  C7  UNL     1      16.168   3.726  13.640  1.00  0.00     0.010 C 
HETATM    9  C8  UNL     1      17.272   4.760  13.353  1.00  0.00     0.013 C 
HETATM   10  C9  UNL     1      18.240   3.649  13.809  1.00  0.00     0.010 C 
HETATM   11  C10 UNL     1      18.344   3.785  15.278  1.00  0.00     0.011 C 
HETATM   12  C11 UNL     1      17.230   2.703  13.296  1.00  0.00     0.100 C 
ENDROOT
BRANCH   1  13
HETATM   13  O1  UNL     1      17.299   0.531  11.632  1.00  0.00    -0.309 OA
HETATM   14  C1  UNL     1      17.911  -0.438  10.812  1.00  0.00     0.215 C 
ENDBRANCH   1  13
BRANCH   4  15
HETATM   15  O3  UNL     1      17.732  -0.130  15.508  1.00  0.00    -0.377 OA
ATOM     16  H3  UNL     1      18.511   0.131  15.985  1.00  0.00     0.212 HD
ENDBRANCH   4  15
TORSDOF 2
ENDMDL
MODEL 4
REMARK VINA RESULT: -6.062790824      2.101      3.498
REMARK  2 active torsions:
REMARK  status: ('A' for Active; 'I' for Inactive)
REMARK    1  A    between atoms: O1_2  and  C2_3 
REMARK       I    between atoms: C2_3  and  N1_5 
REMARK    2  A    between atoms: C3_6  and  O3_7 
ROOT
HETATM    1  C2  UNL     1      16.941   0.823  15.544  1.00  0.00     0.364 C 
HETATM    2  O2  UNL     1      16.940  -0.392  15.229  1.00  0.00    -0.238 OA
HETATM    3  N1  UNL     1      17.246   1.897  14.648  1.00  0.00    -0.296 N 
HETATM    4  C3  UNL     1      17.549   1.392  13.337  1.00  0.00     0.225 C 
HETATM    5  C4  UNL     1      17.604   2.365  12.236  1.00  0.00     0.058 C 
HETATM    6  C5  UNL     1      17.836   3.788  12.636  1.00  0.00    -0.010 C 
HETATM    7  C6  UNL     1      18.932   3.956  13.638  1.00  0.00     0.011 C 
HETATM    8  C7  UNL     1      18.404   4.044  15.036  1.00  0.00     0.010 C 
HETATM    9  C8  UNL     1      17.411   5.215  15.156  1.00  0.00     0.013 C 
HETATM   10  C9  UNL     1      16.382   4.221  14.577  1.00  0.00     0.010 C 
HETATM   11  C10 UNL     1      16.501   4.331  13.108  1.00  0.00     0.011 C 
HETATM   12  C11 UNL     1      17.183   3.170  15.236  1.00  0.00     0.100 C 
ENDROOT
BRANCH   1  13
HETATM   13  O1  UNL     1      16.608   1.068  16.892  1.00  0.00    -0.309 OA
HETATM   14  C1  UNL     1      15.412   0.596  17.466  1.00  0.00     0.215 C 
ENDBRANCH   1  13
BRANCH   4  15
HETATM   15  O3  UNL     1      16.636   0.365  12.999  1.00  0.00    -0.377 OA
ATOM     16  H3  UNL     1      15.957   0.715  12.436  1.00  0.00     0.212 HD
ENDBRANCH   4  15
TORSDOF 2
ENDMDL
MODEL 5
REMARK VINA RESULT: -6.008201736      2.501      4.260
REMARK  2 active torsions:
REMARK  status: ('A' for Active; 'I' for Inactive)
REMARK    1  A    between atoms: O1_2  and  C2_3 
REMARK       I    between atoms: C2_3  and  N1_5 
REMARK    2  A    between atoms: C3_6  and  O3_7 
ROOT
HETATM    1  C2  UNL     1      16.944   1.815  14.974  1.00  0.00     0.364 C 
HETATM    2  O2  UNL     1      17.116   2.665  15.882  1.00  0.00    -0.238 OA
HETATM    3  N1  UNL     1      17.354   1.983  13.613  1.00  0.00    -0.296 N 
HETATM    4  C3  UNL     1      17.991   3.258  13.429  1.00  0.00     0.225 C 
HETATM    5  C4  UNL     1      18.720   3.471  12.170  1.00  0.00     0.058 C 
HETATM    6  C5  UNL     1      18.327   2.584  11.031  1.00  0.00    -0.010 C 
HETATM    7  C6  UNL     1      16.848   2.461  10.853  1.00  0.00     0.011 C 
HETATM    8  C7  UNL     1      16.305   1.229  11.507  1.00  0.00     0.010 C 
HETATM    9  C8  UNL     1      16.999  -0.023  10.940  1.00  0.00     0.013 C 
HETATM   10  C9  UNL     1      18.117   0.308  11.950  1.00  0.00     0.010 C 
HETATM   11  C10 UNL     1      19.018   1.253  11.257  1.00  0.00     0.011 C 
HETATM   12  C11 UNL     1      17.048   0.892  12.783  1.00  0.00     0.100 C 
ENDROOT
BRANCH   1  13
HETATM   13  O1  UNL     1      16.294   0.639  15.403  1.00  0.00    -0.309 OA
HETATM   14  C1  UNL     1      15.823   0.482  16.721  1.00  0.00     0.215 C 
ENDBRANCH   1  13
BRANCH   4  15
HETATM   15  O3  UNL     1      18.861   3.516  14.515  1.00  0.00    -0.377 OA
ATOM     16  H3  UNL     1      18.510   4.221  15.045  1.00  0.00     0.212 HD
ENDBRANCH   4  15
TORSDOF 2
ENDMDL
