MODEL 1
REMARK VINA RESULT: -6.272497287      0.000      0.000
REMARK  2 active torsions:
REMARK  status: ('A' for Active; 'I' for Inactive)
REMARK    1  A    between atoms: C4_4  and  O1_6 
REMARK    2  A    between atoms: C6_9  and  O3_10 
ROOT
HETATM    1  C1  UNL     1      17.645   0.914  12.534  1.00  0.00     0.015 C 
HETATM    2  C2  UNL     1      17.088   1.626  13.476  1.00  0.00    -0.075 C 
HETATM    3  C3  UNL     1      16.766   1.035  14.821  1.00  0.00     0.102 C 
HETATM    4  C4  UNL     1      17.130   1.980  15.930  1.00  0.00     0.165 C 
HETATM    5  C5  UNL     1      16.048   1.738  17.016  1.00  0.00     0.079 C 
HETATM    6  O2  UNL     1      17.102   3.301  15.684  1.00  0.00    -0.318 OA
HETATM    7  C6  UNL     1      17.497   3.759  14.479  1.00  0.00     0.177 C 
HETATM    8  C8  UNL     1      17.002   5.174  14.191  1.00  0.00     0.045 C 
HETATM    9  C9  UNL     1      15.688   5.372  14.892  1.00  0.00     0.015 C 
HETATM   10  C10 UNL     1      16.872   5.225  12.681  1.00  0.00     0.010 C 
HETATM   11  C11 UNL     1      17.118   3.797  12.196  1.00  0.00     0.015 C 
HETATM   12  C12 UNL     1      16.700   3.030  13.400  1.00  0.00     0.077 C 
ENDROOT
BRANCH   4  13
HETATM   13  O1  UNL     1      18.315   1.486  16.490  1.00  0.00    -0.365 OA
ATOM     14  H1  UNL     1      18.619   2.153  17.095  1.00  0.00     0.213 HD
ENDBRANCH   4  13
BRANCH   7  15
HETATM   15  O3  UNL     1      18.836   3.628  14.225  1.00  0.00    -0.359 OA
HETATM   16  C7  UNL     1      19.680   4.490  14.861  1.00  0.00     0.205 C 
ENDBRANCH   7  15
TORSDOF 2
ENDMDL
MODEL 2
REMARK VINA RESULT: -5.519214684      2.674      4.313
REMARK  2 active torsions:
REMARK  status: ('A' for Active; 'I' for Inactive)
REMARK    1  A    between atoms: C4_4  and  O1_6 
REMARK    2  A    between atoms: C6_9  and  O3_10 
ROOT
HETATM    1  C1  UNL     1      16.987   3.232  14.572  1.00  0.00     0.015 C 
HETATM    2  C2  UNL     1      17.449   2.745  13.453  1.00  0.00    -0.075 C 
HETATM    3  C3  UNL     1      16.866   1.502  12.837  1.00  0.00     0.102 C 
HETATM    4  C4  UNL     1      16.706   1.656  11.352  1.00  0.00     0.165 C 
HETATM    5  C5  UNL     1      16.980   0.237  10.784  1.00  0.00     0.079 C 
HETATM    6  O2  UNL     1      17.548   2.473  10.696  1.00  0.00    -0.318 OA
HETATM    7  C6  UNL     1      17.950   3.619  11.282  1.00  0.00     0.177 C 
HETATM    8  C8  UNL     1      19.207   4.202  10.643  1.00  0.00     0.045 C 
HETATM    9  C9  UNL     1      20.040   3.071  10.109  1.00  0.00     0.015 C 
HETATM   10  C10 UNL     1      19.890   4.947  11.774  1.00  0.00     0.010 C 
HETATM   11  C11 UNL     1      19.098   4.604  13.034  1.00  0.00     0.015 C 
HETATM   12  C12 UNL     1      18.541   3.279  12.649  1.00  0.00     0.077 C 
ENDROOT
BRANCH   4  13
HETATM   13  O1  UNL     1      15.341   1.872  11.127  1.00  0.00    -0.365 OA
ATOM     14  H1  UNL     1      15.069   1.214  10.498  1.00  0.00     0.213 HD
ENDBRANCH   4  13
BRANCH   7  15
HETATM   15  O3  UNL     1      16.970   4.564  11.431  1.00  0.00    -0.359 OA
HETATM   16  C7  UNL     1      16.757   5.413  10.386  1.00  0.00     0.205 C 
ENDBRANCH   7  15
TORSDOF 2
ENDMDL
MODEL 3
REMARK VINA RESULT: -5.484846212      2.216      3.794
REMARK  2 active torsions:
REMARK  status: ('A' for Active; 'I' for Inactive)
REMARK    1  A    between atoms: C4_4  and  O1_6 
REMARK    2  A    between atoms: C6_9  and  O3_10 
ROOT
HETATM    1  C1  UNL     1      15.292   3.392  15.033  1.00  0.00     0.015 C 
HETATM    2  C2  UNL     1      16.390   3.407  14.328  1.00  0.00    -0.075 C 
HETATM    3  C3  UNL     1      16.716   2.305  13.357  1.00  0.00     0.102 C 
HETATM    4  C4  UNL     1      17.261   2.857  12.072  1.00  0.00     0.165 C 
HETATM    5  C5  UNL     1      18.300   1.802  11.606  1.00  0.00     0.079 C 
HETATM    6  O2  UNL     1      17.926   4.025  12.104  1.00  0.00    -0.318 OA
HETATM    7  C6  UNL     1      17.511   5.000  12.938  1.00  0.00     0.177 C 
HETATM    8  C8  UNL     1      18.583   6.056  13.194  1.00  0.00     0.045 C 
HETATM    9  C9  UNL     1      19.931   5.399  13.106  1.00  0.00     0.015 C 
HETATM   10  C10 UNL     1      18.274   6.571  14.586  1.00  0.00     0.010 C 
HETATM   11  C11 UNL     1      17.168   5.667  15.128  1.00  0.00     0.015 C 
HETATM   12  C12 UNL     1      17.433   4.426  14.351  1.00  0.00     0.077 C 
ENDROOT
BRANCH   4  13
HETATM   13  O1  UNL     1      16.221   2.769  11.137  1.00  0.00    -0.365 OA
ATOM     14  H1  UNL     1      16.264   1.892  10.776  1.00  0.00     0.213 HD
ENDBRANCH   4  13
BRANCH   7  15
HETATM   15  O3  UNL     1      16.308   5.566  12.607  1.00  0.00    -0.359 OA
HETATM   16  C7  UNL     1      16.300   6.458  11.576  1.00  0.00     0.205 C 
ENDBRANCH   7  15
TORSDOF 2
ENDMDL
MODEL 4
REMARK VINA RESULT: -5.336473773      1.506      4.026
REMARK  2 active torsions:
REMARK  status: ('A' for Active; 'I' for Inactive)
REMARK    1  A    between atoms: C4_4  and  O1_6 
REMARK    2  A    between atoms: C6_9  and  O3_10 
ROOT
HETATM    1  C1  UNL     1      19.826   4.575  14.636  1.00  0.00     0.015 C 
HETATM    2  C2  UNL     1      18.526   4.584  14.747  1.00  0.00    -0.075 C 
HETATM    3  C3  UNL     1      17.685   5.619  14.052  1.00  0.00     0.102 C 
HETATM    4  C4  UNL     1      16.464   5.001  13.434  1.00  0.00     0.165 C 
HETATM    5  C5  UNL     1      15.365   6.089  13.574  1.00  0.00     0.079 C 
HETATM    6  O2  UNL     1      15.947   3.895  13.998  1.00  0.00    -0.318 OA
HETATM    7  C6  UNL     1      16.777   2.967  14.516  1.00  0.00     0.177 C 
HETATM    8  C8  UNL     1      16.075   2.024  15.490  1.00  0.00     0.045 C 
HETATM    9  C9  UNL     1      14.958   2.773  16.161  1.00  0.00     0.015 C 
HETATM   10  C10 UNL     1      17.165   1.609  16.459  1.00  0.00     0.010 C 
HETATM   11  C11 UNL     1      18.379   2.469  16.110  1.00  0.00     0.015 C 
HETATM   12  C12 UNL     1      17.705   3.654  15.515  1.00  0.00     0.077 C 
ENDROOT
BRANCH   4  13
HETATM   13  O1  UNL     1      16.717   4.927  12.059  1.00  0.00    -0.365 OA
ATOM     14  H1  UNL     1      16.982   4.030  11.887  1.00  0.00     0.213 HD
ENDBRANCH   4  13
BRANCH   7  15
HETATM   15  O3  UNL     1      17.522   2.283  13.594  1.00  0.00    -0.359 OA
HETATM   16  C7  UNL     1      16.858   1.434  12.759  1.00  0.00     0.205 C 
ENDBRANCH   7  15
TORSDOF 2
ENDMDL
MODEL 5
REMARK VINA RESULT: -5.318972121      1.646      3.049
REMARK  2 active torsions:
REMARK  status: ('A' for Active; 'I' for Inactive)
REMARK    1  A    between atoms: C4_4  and  O1_6 
REMARK    2  A    between atoms: C6_9  and  O3_10 
ROOT
HETATM    1  C1  UNL     1      20.159   4.348  12.570  1.00  0.00     0.015 C 
HETATM    2  C2  UNL     1      18.884   4.073  12.613  1.00  0.00    -0.075 C 
HETATM    3  C3  UNL     1      18.287   2.980  11.771  1.00  0.00     0.102 C 
HETATM    4  C4  UNL     1      17.303   2.163  12.558  1.00  0.00     0.165 C 
HETATM    5  C5  UNL     1      16.213   1.768  11.525  1.00  0.00     0.079 C 
HETATM    6  O2  UNL     1      16.642   2.753  13.569  1.00  0.00    -0.318 OA
HETATM    7  C6  UNL     1      17.280   3.656  14.340  1.00  0.00     0.177 C 
HETATM    8  C8  UNL     1      16.321   4.545  15.127  1.00  0.00     0.045 C 
HETATM    9  C9  UNL     1      15.056   4.707  14.332  1.00  0.00     0.015 C 
HETATM   10  C10 UNL     1      17.075   5.849  15.297  1.00  0.00     0.010 C 
HETATM   11  C11 UNL     1      18.339   5.712  14.449  1.00  0.00     0.015 C 
HETATM   12  C12 UNL     1      17.872   4.732  13.432  1.00  0.00     0.077 C 
ENDROOT
BRANCH   4  13
HETATM   13  O1  UNL     1      17.952   0.961  12.867  1.00  0.00    -0.365 OA
ATOM     14  H1  UNL     1      17.271   0.350  13.120  1.00  0.00     0.213 HD
ENDBRANCH   4  13
BRANCH   7  15
HETATM   15  O3  UNL     1      18.265   3.138  15.138  1.00  0.00    -0.359 OA
HETATM   16  C7  UNL     1      17.878   2.307  16.147  1.00  0.00     0.205 C 
ENDBRANCH   7  15
TORSDOF 2
ENDMDL
