MODEL 1
REMARK VINA RESULT: -6.890584654      0.000      0.000
REMARK  1 active torsions:
REMARK  status: ('A' for Active; 'I' for Inactive)
REMARK    1  A    between atoms: C4_4  and  C5_5 
ROOT
HETATM    1  C5  UNL     1      17.769   4.608  13.741  1.00  0.00     0.205 A 
HETATM    2  O1  UNL     1      18.708   3.637  13.343  1.00  0.00    -0.342 OA
HETATM    3  C6  UNL     1      17.705   3.230  14.353  1.00  0.00     0.179 A 
HETATM    4  C7  UNL     1      16.689   2.262  13.881  1.00  0.00     0.068 C 
HETATM    5  C8  UNL     1      17.045   0.822  14.082  1.00  0.00     0.039 C 
HETATM    6  C9  UNL     1      16.971   0.357  15.495  1.00  0.00     0.156 C 
HETATM    7  C10 UNL     1      15.795   0.900  16.259  1.00  0.00     0.058 C 
HETATM    8  C11 UNL     1      16.368   2.170  16.850  1.00  0.00     0.179 C 
HETATM    9  N1  UNL     1      17.734   2.112  16.447  1.00  0.00    -0.200 N 
HETATM   10  N2  UNL     1      18.195   3.089  15.653  1.00  0.00    -0.277 N 
ATOM     11  H2  UNL     1      18.906   3.733  15.999  1.00  0.00     0.185 HD
HETATM   12  O2  UNL     1      18.070   0.865  16.180  1.00  0.00    -0.258 OA
ENDROOT
BRANCH   1  13
HETATM   13  C4  UNL     1      18.372   5.678  14.593  1.00  0.00     0.012 C 
HETATM   14  C2  UNL     1      18.656   6.869  14.127  1.00  0.00    -0.089 C 
HETATM   15  C1  UNL     1      19.252   7.914  14.988  1.00  0.00     0.042 C 
HETATM   16  C3  UNL     1      18.374   7.184  12.707  1.00  0.00     0.042 C 
ENDBRANCH   1  13
TORSDOF 1
ENDMDL
MODEL 2
REMARK VINA RESULT: -6.765248285      2.326      4.883
REMARK  1 active torsions:
REMARK  status: ('A' for Active; 'I' for Inactive)
REMARK    1  A    between atoms: C4_4  and  C5_5 
ROOT
HETATM    1  C5  UNL     1      16.893   3.103  15.610  1.00  0.00     0.205 A 
HETATM    2  O1  UNL     1      18.272   2.822  15.657  1.00  0.00    -0.342 OA
HETATM    3  C6  UNL     1      17.633   2.834  14.322  1.00  0.00     0.179 A 
HETATM    4  C7  UNL     1      18.019   3.964  13.446  1.00  0.00     0.068 C 
HETATM    5  C8  UNL     1      19.195   3.702  12.557  1.00  0.00     0.039 C 
HETATM    6  C9  UNL     1      18.917   2.787  11.416  1.00  0.00     0.156 C 
HETATM    7  C10 UNL     1      17.581   3.010  10.762  1.00  0.00     0.058 C 
HETATM    8  C11 UNL     1      16.690   2.075  11.551  1.00  0.00     0.179 C 
HETATM    9  N1  UNL     1      17.613   1.420  12.416  1.00  0.00    -0.200 N 
HETATM   10  N2  UNL     1      17.455   1.579  13.738  1.00  0.00    -0.277 N 
ATOM     11  H2  UNL     1      17.203   0.780  14.320  1.00  0.00     0.185 HD
HETATM   12  O2  UNL     1      18.828   1.489  11.909  1.00  0.00    -0.258 OA
ENDROOT
BRANCH   1  13
HETATM   13  C4  UNL     1      16.058   1.980  16.135  1.00  0.00     0.012 C 
HETATM   14  C2  UNL     1      14.943   2.183  16.792  1.00  0.00    -0.089 C 
HETATM   15  C1  UNL     1      14.131   1.056  17.302  1.00  0.00     0.042 C 
HETATM   16  C3  UNL     1      14.477   3.568  17.032  1.00  0.00     0.042 C 
ENDBRANCH   1  13
TORSDOF 1
ENDMDL
MODEL 3
REMARK VINA RESULT: -6.740691256      2.942      4.444
REMARK  1 active torsions:
REMARK  status: ('A' for Active; 'I' for Inactive)
REMARK    1  A    between atoms: C4_4  and  C5_5 
ROOT
HETATM    1  C5  UNL     1      16.768   3.267  13.768  1.00  0.00     0.205 A 
HETATM    2  O1  UNL     1      18.173   3.246  13.875  1.00  0.00    -0.342 OA
HETATM    3  C6  UNL     1      17.555   2.295  12.923  1.00  0.00     0.179 A 
HETATM    4  C7  UNL     1      17.791   2.591  11.491  1.00  0.00     0.068 C 
HETATM    5  C8  UNL     1      19.004   1.938  10.902  1.00  0.00     0.039 C 
HETATM    6  C9  UNL     1      18.870   0.472  10.677  1.00  0.00     0.156 C 
HETATM    7  C10 UNL     1      17.525   0.052  10.152  1.00  0.00     0.058 C 
HETATM    8  C11 UNL     1      16.762  -0.214  11.432  1.00  0.00     0.179 C 
HETATM    9  N1  UNL     1      17.757  -0.019  12.434  1.00  0.00    -0.200 N 
HETATM   10  N2  UNL     1      17.561   0.960  13.330  1.00  0.00    -0.277 N 
ATOM     11  H2  UNL     1      17.415   0.728  14.312  1.00  0.00     0.185 HD
HETATM   12  O2  UNL     1      18.957  -0.169  11.909  1.00  0.00    -0.258 OA
ENDROOT
BRANCH   1  13
HETATM   13  C4  UNL     1      16.091   2.693  14.971  1.00  0.00     0.012 C 
HETATM   14  C2  UNL     1      15.368   3.422  15.784  1.00  0.00    -0.089 C 
HETATM   15  C1  UNL     1      14.706   2.833  16.969  1.00  0.00     0.042 C 
HETATM   16  C3  UNL     1      15.206   4.871  15.518  1.00  0.00     0.042 C 
ENDBRANCH   1  13
TORSDOF 1
ENDMDL
MODEL 4
REMARK VINA RESULT: -6.175398475      2.731      3.894
REMARK  1 active torsions:
REMARK  status: ('A' for Active; 'I' for Inactive)
REMARK    1  A    between atoms: C4_4  and  C5_5 
ROOT
HETATM    1  C5  UNL     1      16.904   3.321  14.491  1.00  0.00     0.205 A 
HETATM    2  O1  UNL     1      15.695   2.918  13.890  1.00  0.00    -0.342 OA
HETATM    3  C6  UNL     1      16.949   2.573  13.182  1.00  0.00     0.179 A 
HETATM    4  C7  UNL     1      17.292   1.132  13.170  1.00  0.00     0.068 C 
HETATM    5  C8  UNL     1      16.763   0.365  11.998  1.00  0.00     0.039 C 
HETATM    6  C9  UNL     1      17.461   0.641  10.711  1.00  0.00     0.156 C 
HETATM    7  C10 UNL     1      18.952   0.781  10.840  1.00  0.00     0.058 C 
HETATM    8  C11 UNL     1      19.104   2.267  11.083  1.00  0.00     0.179 C 
HETATM    9  N1  UNL     1      17.766   2.741  10.960  1.00  0.00    -0.200 N 
HETATM   10  N2  UNL     1      17.205   3.320  12.032  1.00  0.00    -0.277 N 
ATOM     11  H2  UNL     1      16.966   4.311  12.007  1.00  0.00     0.185 HD
HETATM   12  O2  UNL     1      17.053   1.889  10.252  1.00  0.00    -0.258 OA
ENDROOT
BRANCH   1  13
HETATM   13  C4  UNL     1      17.121   4.798  14.412  1.00  0.00     0.012 C 
HETATM   14  C2  UNL     1      18.300   5.344  14.579  1.00  0.00    -0.089 C 
HETATM   15  C1  UNL     1      18.493   6.808  14.496  1.00  0.00     0.042 C 
HETATM   16  C3  UNL     1      19.472   4.481  14.858  1.00  0.00     0.042 C 
ENDBRANCH   1  13
TORSDOF 1
ENDMDL
MODEL 5
REMARK VINA RESULT: -6.171030633      1.730      5.280
REMARK  1 active torsions:
REMARK  status: ('A' for Active; 'I' for Inactive)
REMARK    1  A    between atoms: C4_4  and  C5_5 
ROOT
HETATM    1  C5  UNL     1      17.124   2.347  16.430  1.00  0.00     0.205 A 
HETATM    2  O1  UNL     1      18.091   1.721  15.618  1.00  0.00    -0.342 OA
HETATM    3  C6  UNL     1      17.640   3.071  15.210  1.00  0.00     0.179 A 
HETATM    4  C7  UNL     1      18.645   4.147  15.365  1.00  0.00     0.068 C 
HETATM    5  C8  UNL     1      19.503   4.389  14.161  1.00  0.00     0.039 C 
HETATM    6  C9  UNL     1      18.809   5.068  13.032  1.00  0.00     0.156 C 
HETATM    7  C10 UNL     1      17.874   6.167  13.458  1.00  0.00     0.058 C 
HETATM    8  C11 UNL     1      16.571   5.416  13.629  1.00  0.00     0.179 C 
HETATM    9  N1  UNL     1      16.910   4.101  13.200  1.00  0.00    -0.200 N 
HETATM   10  N2  UNL     1      16.806   3.104  14.091  1.00  0.00    -0.277 N 
ATOM     11  H2  UNL     1      16.115   2.368  13.952  1.00  0.00     0.185 HD
HETATM   12  O2  UNL     1      17.970   4.145  12.417  1.00  0.00    -0.258 OA
ENDROOT
BRANCH   1  13
HETATM   13  C4  UNL     1      15.772   1.722  16.300  1.00  0.00     0.012 C 
HETATM   14  C2  UNL     1      14.937   1.641  17.306  1.00  0.00    -0.089 C 
HETATM   15  C1  UNL     1      13.603   1.019  17.155  1.00  0.00     0.042 C 
HETATM   16  C3  UNL     1      15.330   2.184  18.627  1.00  0.00     0.042 C 
ENDBRANCH   1  13
TORSDOF 1
ENDMDL
