MODEL 1
REMARK VINA RESULT: -4.823012795      0.000      0.000
REMARK  3 active torsions:
REMARK  status: ('A' for Active; 'I' for Inactive)
REMARK    1  A    between atoms: C2_2  and  N1_3 
REMARK    2  A    between atoms: N2_6  and  O1_7 
REMARK    3  A    between atoms: C5_9  and  O2_10 
ROOT
HETATM    1  N1  UNL     1      15.045   3.083  15.389  1.00  0.00    -0.369 N 
HETATM    2  C3  UNL     1      13.924   2.728  16.178  1.00  0.00     0.143 C 
HETATM    3  C4  UNL     1      14.242   2.014  17.464  1.00  0.00     0.144 C 
HETATM    4  N2  UNL     1      15.544   1.407  17.445  1.00  0.00    -0.164 NA
HETATM    5  C5  UNL     1      15.928   0.986  16.122  1.00  0.00     0.257 C 
HETATM    6  C6  UNL     1      16.084   2.200  15.205  1.00  0.00     0.112 C 
ENDROOT
BRANCH   1   7
HETATM    7  C2  UNL     1      15.104   4.400  14.900  1.00  0.00     0.059 C 
HETATM    8  C1  UNL     1      16.495   4.645  14.359  1.00  0.00     0.055 C 
ENDBRANCH   1   7
BRANCH   5   9
HETATM    9  O2  UNL     1      17.127   0.286  16.224  1.00  0.00    -0.374 OA
ATOM     10  H2  UNL     1      17.783   0.878  16.575  1.00  0.00     0.212 HD
ENDBRANCH   5   9
BRANCH   4  11
HETATM   11  O1  UNL     1      15.631   0.353  18.274  1.00  0.00    -0.310 OA
ATOM     12  H1  UNL     1      16.406  -0.172  18.112  1.00  0.00     0.237 HD
ENDBRANCH   4  11
TORSDOF 3
ENDMDL
MODEL 2
REMARK VINA RESULT: -4.781220419      1.914      3.052
REMARK  3 active torsions:
REMARK  status: ('A' for Active; 'I' for Inactive)
REMARK    1  A    between atoms: C2_2  and  N1_3 
REMARK    2  A    between atoms: N2_6  and  O1_7 
REMARK    3  A    between atoms: C5_9  and  O2_10 
ROOT
HETATM    1  N1  UNL     1      15.741   3.127  14.711  1.00  0.00    -0.369 N 
HETATM    2  C3  UNL     1      16.577   3.143  13.569  1.00  0.00     0.143 C 
HETATM    3  C4  UNL     1      16.592   1.872  12.763  1.00  0.00     0.144 C 
HETATM    4  N2  UNL     1      16.148   0.737  13.523  1.00  0.00    -0.164 NA
HETATM    5  C5  UNL     1      16.472   0.860  14.921  1.00  0.00     0.257 C 
HETATM    6  C6  UNL     1      15.706   2.030  15.541  1.00  0.00     0.112 C 
ENDROOT
BRANCH   1   7
HETATM    7  C2  UNL     1      14.875   4.218  14.899  1.00  0.00     0.059 C 
HETATM    8  C1  UNL     1      15.509   5.442  14.278  1.00  0.00     0.055 C 
ENDBRANCH   1   7
BRANCH   5   9
HETATM    9  O2  UNL     1      16.138  -0.337  15.547  1.00  0.00    -0.374 OA
ATOM     10  H2  UNL     1      15.870  -0.139  16.437  1.00  0.00     0.212 HD
ENDBRANCH   5   9
BRANCH   4  11
HETATM   11  O1  UNL     1      16.658  -0.418  13.064  1.00  0.00    -0.310 OA
ATOM     12  H1  UNL     1      16.038  -0.900  12.528  1.00  0.00     0.237 HD
ENDBRANCH   4  11
TORSDOF 3
ENDMDL
MODEL 3
REMARK VINA RESULT: -4.691146297      1.283      2.301
REMARK  3 active torsions:
REMARK  status: ('A' for Active; 'I' for Inactive)
REMARK    1  A    between atoms: C2_2  and  N1_3 
REMARK    2  A    between atoms: N2_6  and  O1_7 
REMARK    3  A    between atoms: C5_9  and  O2_10 
ROOT
HETATM    1  N1  UNL     1      15.220   3.059  15.454  1.00  0.00    -0.369 N 
HETATM    2  C3  UNL     1      16.382   2.791  14.693  1.00  0.00     0.143 C 
HETATM    3  C4  UNL     1      16.576   1.352  14.297  1.00  0.00     0.144 C 
HETATM    4  N2  UNL     1      15.835   0.450  15.134  1.00  0.00    -0.164 NA
HETATM    5  C5  UNL     1      15.691   0.950  16.477  1.00  0.00     0.257 C 
HETATM    6  C6  UNL     1      14.843   2.223  16.480  1.00  0.00     0.112 C 
ENDROOT
BRANCH   1   7
HETATM    7  C2  UNL     1      14.413   4.138  15.052  1.00  0.00     0.059 C 
HETATM    8  C1  UNL     1      15.314   5.260  14.589  1.00  0.00     0.055 C 
ENDBRANCH   1   7
BRANCH   5   9
HETATM    9  O2  UNL     1      15.093  -0.045  17.245  1.00  0.00    -0.374 OA
ATOM     10  H2  UNL     1      15.317   0.112  18.155  1.00  0.00     0.212 HD
ENDBRANCH   5   9
BRANCH   4  11
HETATM   11  O1  UNL     1      16.390  -0.772  15.187  1.00  0.00    -0.310 OA
ATOM     12  H1  UNL     1      17.102  -0.875  14.567  1.00  0.00     0.237 HD
ENDBRANCH   4  11
TORSDOF 3
ENDMDL
MODEL 4
REMARK VINA RESULT: -4.603401904      5.544      6.588
REMARK  3 active torsions:
REMARK  status: ('A' for Active; 'I' for Inactive)
REMARK    1  A    between atoms: C2_2  and  N1_3 
REMARK    2  A    between atoms: N2_6  and  O1_7 
REMARK    3  A    between atoms: C5_9  and  O2_10 
ROOT
HETATM    1  N1  UNL     1      17.331   0.005  11.839  1.00  0.00    -0.369 N 
HETATM    2  C3  UNL     1      16.371   0.937  12.302  1.00  0.00     0.143 C 
HETATM    3  C4  UNL     1      16.107   2.100  11.385  1.00  0.00     0.144 C 
HETATM    4  N2  UNL     1      17.180   2.318  10.456  1.00  0.00    -0.164 NA
HETATM    5  C5  UNL     1      18.458   1.941  11.004  1.00  0.00     0.257 C 
HETATM    6  C6  UNL     1      18.501   0.433  11.255  1.00  0.00     0.112 C 
ENDROOT
BRANCH   1   7
HETATM    7  C2  UNL     1      16.993  -1.359  11.895  1.00  0.00     0.059 C 
HETATM    8  C1  UNL     1      18.172  -2.162  11.393  1.00  0.00     0.055 C 
ENDBRANCH   1   7
BRANCH   5   9
HETATM    9  O2  UNL     1      19.444   2.320  10.097  1.00  0.00    -0.374 OA
ATOM     10  H2  UNL     1      20.206   2.599  10.591  1.00  0.00     0.212 HD
ENDBRANCH   5   9
BRANCH   4  11
HETATM   11  O1  UNL     1      17.250   3.595  10.044  1.00  0.00    -0.310 OA
ATOM     12  H1  UNL     1      16.570   3.811   9.417  1.00  0.00     0.237 HD
ENDBRANCH   4  11
TORSDOF 3
ENDMDL
MODEL 5
REMARK VINA RESULT: -4.550694710      5.382      6.362
REMARK  3 active torsions:
REMARK  status: ('A' for Active; 'I' for Inactive)
REMARK    1  A    between atoms: C2_2  and  N1_3 
REMARK    2  A    between atoms: N2_6  and  O1_7 
REMARK    3  A    between atoms: C5_9  and  O2_10 
ROOT
HETATM    1  N1  UNL     1      18.659   2.087  11.690  1.00  0.00    -0.369 N 
HETATM    2  C3  UNL     1      18.924   0.714  11.468  1.00  0.00     0.143 C 
HETATM    3  C4  UNL     1      18.019   0.035  10.476  1.00  0.00     0.144 C 
HETATM    4  N2  UNL     1      16.783   0.742  10.291  1.00  0.00    -0.164 NA
HETATM    5  C5  UNL     1      16.368   1.433  11.485  1.00  0.00     0.257 C 
HETATM    6  C6  UNL     1      17.367   2.539  11.828  1.00  0.00     0.112 C 
ENDROOT
BRANCH   1   7
HETATM    7  C2  UNL     1      19.748   2.975  11.651  1.00  0.00     0.059 C 
HETATM    8  C1  UNL     1      20.327   2.955  10.255  1.00  0.00     0.055 C 
ENDBRANCH   1   7
BRANCH   5   9
HETATM    9  O2  UNL     1      15.101   1.963  11.257  1.00  0.00    -0.374 OA
ATOM     10  H2  UNL     1      14.878   2.518  11.995  1.00  0.00     0.212 HD
ENDBRANCH   5   9
BRANCH   4  11
HETATM   11  O1  UNL     1      15.785  -0.066   9.894  1.00  0.00    -0.310 OA
ATOM     12  H1  UNL     1      14.929   0.331  10.010  1.00  0.00     0.237 HD
ENDBRANCH   4  11
TORSDOF 3
ENDMDL
