MODEL 1
REMARK VINA RESULT: -4.555445399      0.000      0.000
REMARK  3 active torsions:
REMARK  status: ('A' for Active; 'I' for Inactive)
REMARK    1  A    between atoms: C2_2  and  N1_3 
REMARK    2  A    between atoms: C4_5  and  O1_6 
REMARK    3  A    between atoms: C6_9  and  O2_10 
ROOT
HETATM    1  N1  UNL     1      16.577   1.401  14.002  1.00  0.00    -0.369 N 
HETATM    2  C3  UNL     1      16.379   0.709  15.194  1.00  0.00     0.094 C 
HETATM    3  C4  UNL     1      15.460   1.296  16.208  1.00  0.00     0.159 C 
HETATM    4  C5  UNL     1      14.626   2.441  15.723  1.00  0.00     0.074 C 
HETATM    5  C6  UNL     1      15.486   3.405  14.960  1.00  0.00     0.159 C 
HETATM    6  C7  UNL     1      16.341   2.782  13.915  1.00  0.00     0.094 C 
ENDROOT
BRANCH   1   7
HETATM    7  C2  UNL     1      16.501   0.676  12.775  1.00  0.00     0.122 C 
HETATM    8  C1  UNL     1      16.023   1.566  11.653  1.00  0.00     0.027 C 
ENDBRANCH   1   7
BRANCH   3   9
HETATM    9  O1  UNL     1      14.558   0.343  16.711  1.00  0.00    -0.390 OA
ATOM     10  H1  UNL     1      14.171   0.622  17.533  1.00  0.00     0.210 HD
ENDBRANCH   3   9
BRANCH   5  11
HETATM   11  O2  UNL     1      14.607   4.365  14.429  1.00  0.00    -0.390 OA
ATOM     12  H2  UNL     1      14.648   4.260  13.486  1.00  0.00     0.210 HD
ENDBRANCH   5  11
TORSDOF 3
ENDMDL
MODEL 2
REMARK VINA RESULT: -4.526454228      3.985      4.851
REMARK  3 active torsions:
REMARK  status: ('A' for Active; 'I' for Inactive)
REMARK    1  A    between atoms: C2_2  and  N1_3 
REMARK    2  A    between atoms: C4_5  and  O1_6 
REMARK    3  A    between atoms: C6_9  and  O2_10 
ROOT
HETATM    1  N1  UNL     1      17.668  -0.536  11.134  1.00  0.00    -0.369 N 
HETATM    2  C3  UNL     1      18.845   0.208  11.106  1.00  0.00     0.094 C 
HETATM    3  C4  UNL     1      18.745   1.692  11.178  1.00  0.00     0.159 C 
HETATM    4  C5  UNL     1      17.395   2.221  11.552  1.00  0.00     0.074 C 
HETATM    5  C6  UNL     1      16.337   1.516  10.756  1.00  0.00     0.159 C 
HETATM    6  C7  UNL     1      16.440   0.032  10.764  1.00  0.00     0.094 C 
ENDROOT
BRANCH   1   7
HETATM    7  C2  UNL     1      17.597  -1.660  12.010  1.00  0.00     0.122 C 
HETATM    8  C1  UNL     1      18.076  -2.913  11.317  1.00  0.00     0.027 C 
ENDBRANCH   1   7
BRANCH   3   9
HETATM    9  O1  UNL     1      19.648   2.233  12.109  1.00  0.00    -0.390 OA
ATOM     10  H1  UNL     1      20.243   2.854  11.705  1.00  0.00     0.210 HD
ENDBRANCH   3   9
BRANCH   5  11
HETATM   11  O2  UNL     1      15.108   1.970  11.265  1.00  0.00    -0.390 OA
ATOM     12  H2  UNL     1      14.455   1.359  10.947  1.00  0.00     0.210 HD
ENDBRANCH   5  11
TORSDOF 3
ENDMDL
MODEL 3
REMARK VINA RESULT: -4.291558037      3.584      4.608
REMARK  3 active torsions:
REMARK  status: ('A' for Active; 'I' for Inactive)
REMARK    1  A    between atoms: C2_2  and  N1_3 
REMARK    2  A    between atoms: C4_5  and  O1_6 
REMARK    3  A    between atoms: C6_9  and  O2_10 
ROOT
HETATM    1  N1  UNL     1      18.079   0.213  11.563  1.00  0.00    -0.369 N 
HETATM    2  C3  UNL     1      16.788   0.517  11.989  1.00  0.00     0.094 C 
HETATM    3  C4  UNL     1      16.268   1.890  11.741  1.00  0.00     0.159 C 
HETATM    4  C5  UNL     1      17.091   2.724  10.809  1.00  0.00     0.074 C 
HETATM    5  C6  UNL     1      18.541   2.614  11.179  1.00  0.00     0.159 C 
HETATM    6  C7  UNL     1      19.033   1.221  11.355  1.00  0.00     0.094 C 
ENDROOT
BRANCH   1   7
HETATM    7  C2  UNL     1      18.288  -1.002  10.845  1.00  0.00     0.122 C 
HETATM    8  C1  UNL     1      17.783  -2.187  11.633  1.00  0.00     0.027 C 
ENDBRANCH   1   7
BRANCH   3   9
HETATM    9  O1  UNL     1      14.970   1.869  11.201  1.00  0.00    -0.390 OA
ATOM     10  H1  UNL     1      14.590   2.739  11.161  1.00  0.00     0.210 HD
ENDBRANCH   3   9
BRANCH   5  11
HETATM   11  O2  UNL     1      19.245   3.307  10.180  1.00  0.00    -0.390 OA
ATOM     12  H2  UNL     1      19.734   3.986  10.631  1.00  0.00     0.210 HD
ENDBRANCH   5  11
TORSDOF 3
ENDMDL
MODEL 4
REMARK VINA RESULT: -4.251615705      3.210      4.511
REMARK  3 active torsions:
REMARK  status: ('A' for Active; 'I' for Inactive)
REMARK    1  A    between atoms: C2_2  and  N1_3 
REMARK    2  A    between atoms: C4_5  and  O1_6 
REMARK    3  A    between atoms: C6_9  and  O2_10 
ROOT
HETATM    1  N1  UNL     1      18.226   1.367  11.122  1.00  0.00    -0.369 N 
HETATM    2  C3  UNL     1      17.427   2.091  12.002  1.00  0.00     0.094 C 
HETATM    3  C4  UNL     1      16.523   1.340  12.917  1.00  0.00     0.159 C 
HETATM    4  C5  UNL     1      16.770  -0.135  12.985  1.00  0.00     0.074 C 
HETATM    5  C6  UNL     1      16.930  -0.686  11.599  1.00  0.00     0.159 C 
HETATM    6  C7  UNL     1      17.890   0.059  10.742  1.00  0.00     0.094 C 
ENDROOT
BRANCH   1   7
HETATM    7  C2  UNL     1      19.607   1.711  11.021  1.00  0.00     0.122 C 
HETATM    8  C1  UNL     1      19.908   2.968  11.802  1.00  0.00     0.027 C 
ENDBRANCH   1   7
BRANCH   3   9
HETATM    9  O1  UNL     1      16.605   1.810  14.239  1.00  0.00    -0.390 OA
ATOM     10  H1  UNL     1      17.471   1.677  14.608  1.00  0.00     0.210 HD
ENDBRANCH   3   9
BRANCH   5  11
HETATM   11  O2  UNL     1      17.294  -2.034  11.762  1.00  0.00    -0.390 OA
ATOM     12  H2  UNL     1      18.163  -2.115  11.387  1.00  0.00     0.210 HD
ENDBRANCH   5  11
TORSDOF 3
ENDMDL
MODEL 5
REMARK VINA RESULT: -4.223313762      3.547      4.658
REMARK  3 active torsions:
REMARK  status: ('A' for Active; 'I' for Inactive)
REMARK    1  A    between atoms: C2_2  and  N1_3 
REMARK    2  A    between atoms: C4_5  and  O1_6 
REMARK    3  A    between atoms: C6_9  and  O2_10 
ROOT
HETATM    1  N1  UNL     1      18.768   2.087  11.585  1.00  0.00    -0.369 N 
HETATM    2  C3  UNL     1      18.893   0.843  10.971  1.00  0.00     0.094 C 
HETATM    3  C4  UNL     1      17.668   0.013  10.801  1.00  0.00     0.159 C 
HETATM    4  C5  UNL     1      16.376   0.724  11.062  1.00  0.00     0.074 C 
HETATM    5  C6  UNL     1      16.481   1.511  12.335  1.00  0.00     0.159 C 
HETATM    6  C7  UNL     1      17.688   2.374  12.434  1.00  0.00     0.094 C 
ENDROOT
BRANCH   1   7
HETATM    7  C2  UNL     1      19.396   3.212  10.972  1.00  0.00     0.122 C 
HETATM    8  C1  UNL     1      18.366   4.179  10.439  1.00  0.00     0.027 C 
ENDBRANCH   1   7
BRANCH   3   9
HETATM    9  O1  UNL     1      17.567  -0.512   9.501  1.00  0.00    -0.390 OA
ATOM     10  H1  UNL     1      17.315   0.152   8.870  1.00  0.00     0.210 HD
ENDBRANCH   3   9
BRANCH   5  11
HETATM   11  O2  UNL     1      15.288   2.248  12.429  1.00  0.00    -0.390 OA
ATOM     12  H2  UNL     1      15.250   2.780  11.643  1.00  0.00     0.210 HD
ENDBRANCH   5  11
TORSDOF 3
ENDMDL
