MODEL 1
REMARK VINA RESULT: -5.122958924      0.000      0.000
REMARK  4 active torsions:
REMARK  status: ('A' for Active; 'I' for Inactive)
REMARK    1  A    between atoms: N1_2  and  O1_3 
REMARK    2  A    between atoms: C2_5  and  C3_6 
REMARK    3  A    between atoms: C3_6  and  O2_7 
REMARK    4  A    between atoms: C6_11  and  O3_12 
ROOT
HETATM    1  C3  UNL     1      16.023   1.287  16.092  1.00  0.00     0.117 C 
HETATM    2  C4  UNL     1      15.062   2.419  16.123  1.00  0.00     0.049 C 
HETATM    3  C5  UNL     1      14.030   1.526  16.735  1.00  0.00     0.038 C 
HETATM    4  C6  UNL     1      15.126   0.529  17.045  1.00  0.00     0.158 C 
ENDROOT
BRANCH   1   5
HETATM    5  C2  UNL     1      16.168   0.554  14.830  1.00  0.00     0.129 C 
HETATM    6  N1  UNL     1      16.609   1.163  13.793  1.00  0.00    -0.277 N 
HETATM    7  C1  UNL     1      16.768   0.479  12.525  1.00  0.00     0.184 C 
BRANCH   6   8
HETATM    8  O1  UNL     1      16.962   2.491  13.800  1.00  0.00    -0.289 OA
ATOM      9  H1  UNL     1      17.488   2.772  14.539  1.00  0.00     0.244 HD
ENDBRANCH   6   8
ENDBRANCH   1   5
BRANCH   1  10
HETATM   10  O2  UNL     1      17.265   1.635  16.615  1.00  0.00    -0.382 OA
ATOM     11  H2  UNL     1      17.735   0.867  16.920  1.00  0.00     0.211 HD
ENDBRANCH   1  10
BRANCH   4  12
HETATM   12  O3  UNL     1      15.619   0.538  18.320  1.00  0.00    -0.392 OA
ATOM     13  H3  UNL     1      15.115  -0.024  18.897  1.00  0.00     0.210 HD
ENDBRANCH   4  12
TORSDOF 4
ENDMDL
MODEL 2
REMARK VINA RESULT: -5.040994069      1.339      1.375
REMARK  4 active torsions:
REMARK  status: ('A' for Active; 'I' for Inactive)
REMARK    1  A    between atoms: N1_2  and  O1_3 
REMARK    2  A    between atoms: C2_5  and  C3_6 
REMARK    3  A    between atoms: C3_6  and  O2_7 
REMARK    4  A    between atoms: C6_11  and  O3_12 
ROOT
HETATM    1  C3  UNL     1      15.852   1.633  16.481  1.00  0.00     0.117 C 
HETATM    2  C4  UNL     1      15.271   2.354  17.642  1.00  0.00     0.049 C 
HETATM    3  C5  UNL     1      14.006   1.569  17.495  1.00  0.00     0.038 C 
HETATM    4  C6  UNL     1      14.748   0.606  16.595  1.00  0.00     0.158 C 
ENDROOT
BRANCH   1   5
HETATM    5  C2  UNL     1      15.803   2.297  15.175  1.00  0.00     0.129 C 
HETATM    6  N1  UNL     1      16.169   1.658  14.127  1.00  0.00    -0.277 N 
HETATM    7  C1  UNL     1      16.139   2.274  12.815  1.00  0.00     0.184 C 
BRANCH   6   8
HETATM    8  O1  UNL     1      16.614   0.358  14.162  1.00  0.00    -0.289 OA
ATOM      9  H1  UNL     1      16.199  -0.200  14.809  1.00  0.00     0.244 HD
ENDBRANCH   6   8
ENDBRANCH   1   5
BRANCH   1  10
HETATM   10  O2  UNL     1      17.129   1.146  16.747  1.00  0.00    -0.382 OA
ATOM     11  H2  UNL     1      17.436   1.437  17.598  1.00  0.00     0.211 HD
ENDBRANCH   1  10
BRANCH   4  12
HETATM   12  O3  UNL     1      15.191  -0.552  17.171  1.00  0.00    -0.392 OA
ATOM     13  H3  UNL     1      15.549  -0.401  18.037  1.00  0.00     0.210 HD
ENDBRANCH   4  12
TORSDOF 4
ENDMDL
MODEL 3
REMARK VINA RESULT: -4.904860330      3.158      5.337
REMARK  4 active torsions:
REMARK  status: ('A' for Active; 'I' for Inactive)
REMARK    1  A    between atoms: N1_2  and  O1_3 
REMARK    2  A    between atoms: C2_5  and  C3_6 
REMARK    3  A    between atoms: C3_6  and  O2_7 
REMARK    4  A    between atoms: C6_11  and  O3_12 
ROOT
HETATM    1  C3  UNL     1      16.685   1.804  11.497  1.00  0.00     0.117 C 
HETATM    2  C4  UNL     1      18.115   2.095  11.227  1.00  0.00     0.049 C 
HETATM    3  C5  UNL     1      18.381   0.632  11.062  1.00  0.00     0.038 C 
HETATM    4  C6  UNL     1      16.888   0.409  10.951  1.00  0.00     0.158 C 
ENDROOT
BRANCH   1   5
HETATM    5  C2  UNL     1      16.255   1.750  12.897  1.00  0.00     0.129 C 
HETATM    6  N1  UNL     1      16.041   2.841  13.535  1.00  0.00    -0.277 N 
HETATM    7  C1  UNL     1      15.616   2.837  14.921  1.00  0.00     0.184 C 
BRANCH   6   8
HETATM    8  O1  UNL     1      16.195   4.082  12.965  1.00  0.00    -0.289 OA
ATOM      9  H1  UNL     1      17.077   4.299  12.685  1.00  0.00     0.244 HD
ENDBRANCH   6   8
ENDBRANCH   1   5
BRANCH   1  10
HETATM   10  O2  UNL     1      15.832   2.605  10.741  1.00  0.00    -0.382 OA
ATOM     11  H2  UNL     1      15.556   3.370  11.233  1.00  0.00     0.211 HD
ENDBRANCH   1  10
BRANCH   4  12
HETATM   12  O3  UNL     1      16.381   0.279   9.689  1.00  0.00    -0.392 OA
ATOM     13  H3  UNL     1      15.678  -0.359   9.655  1.00  0.00     0.210 HD
ENDBRANCH   4  12
TORSDOF 4
ENDMDL
MODEL 4
REMARK VINA RESULT: -4.885164301      4.294      5.182
REMARK  4 active torsions:
REMARK  status: ('A' for Active; 'I' for Inactive)
REMARK    1  A    between atoms: N1_2  and  O1_3 
REMARK    2  A    between atoms: C2_5  and  C3_6 
REMARK    3  A    between atoms: C3_6  and  O2_7 
REMARK    4  A    between atoms: C6_11  and  O3_12 
ROOT
HETATM    1  C3  UNL     1      16.375   2.004  11.844  1.00  0.00     0.117 C 
HETATM    2  C4  UNL     1      16.387   2.977  12.966  1.00  0.00     0.049 C 
HETATM    3  C5  UNL     1      17.629   3.599  12.411  1.00  0.00     0.038 C 
HETATM    4  C6  UNL     1      17.372   2.872  11.110  1.00  0.00     0.158 C 
ENDROOT
BRANCH   1   5
HETATM    5  C2  UNL     1      16.938   0.673  12.093  1.00  0.00     0.129 C 
HETATM    6  N1  UNL     1      17.011  -0.171  11.132  1.00  0.00    -0.277 N 
HETATM    7  C1  UNL     1      17.559  -1.499  11.332  1.00  0.00     0.184 C 
BRANCH   6   8
HETATM    8  O1  UNL     1      16.583   0.109   9.857  1.00  0.00    -0.289 OA
ATOM      9  H1  UNL     1      16.975   0.873   9.451  1.00  0.00     0.244 HD
ENDBRANCH   6   8
ENDBRANCH   1   5
BRANCH   1  10
HETATM   10  O2  UNL     1      15.125   1.913  11.237  1.00  0.00    -0.382 OA
ATOM     11  H2  UNL     1      14.429   2.079  11.862  1.00  0.00     0.211 HD
ENDBRANCH   1  10
BRANCH   4  12
HETATM   12  O3  UNL     1      16.778   3.593  10.112  1.00  0.00    -0.392 OA
ATOM     13  H3  UNL     1      17.037   3.286   9.252  1.00  0.00     0.210 HD
ENDBRANCH   4  12
TORSDOF 4
ENDMDL
MODEL 5
REMARK VINA RESULT: -4.697840304      3.885      5.178
REMARK  4 active torsions:
REMARK  status: ('A' for Active; 'I' for Inactive)
REMARK    1  A    between atoms: N1_2  and  O1_3 
REMARK    2  A    between atoms: C2_5  and  C3_6 
REMARK    3  A    between atoms: C3_6  and  O2_7 
REMARK    4  A    between atoms: C6_11  and  O3_12 
ROOT
HETATM    1  C3  UNL     1      16.520   1.978  11.512  1.00  0.00     0.117 C 
HETATM    2  C4  UNL     1      16.817   2.550  12.849  1.00  0.00     0.049 C 
HETATM    3  C5  UNL     1      17.712   3.567  12.214  1.00  0.00     0.038 C 
HETATM    4  C6  UNL     1      17.098   3.222  10.875  1.00  0.00     0.158 C 
ENDROOT
BRANCH   1   5
HETATM    5  C2  UNL     1      17.276   0.791  11.098  1.00  0.00     0.129 C 
HETATM    6  N1  UNL     1      17.186  -0.286  11.785  1.00  0.00    -0.277 N 
HETATM    7  C1  UNL     1      17.916  -1.483  11.415  1.00  0.00     0.184 C 
BRANCH   6   8
HETATM    8  O1  UNL     1      16.403  -0.392  12.910  1.00  0.00    -0.289 OA
ATOM      9  H1  UNL     1      16.003   0.416  13.209  1.00  0.00     0.244 HD
ENDBRANCH   6   8
ENDBRANCH   1   5
BRANCH   1  10
HETATM   10  O2  UNL     1      15.155   1.799  11.305  1.00  0.00    -0.382 OA
ATOM     11  H2  UNL     1      14.719   1.539  12.108  1.00  0.00     0.211 HD
ENDBRANCH   1  10
BRANCH   4  12
HETATM   12  O3  UNL     1      16.118   4.058  10.417  1.00  0.00    -0.392 OA
ATOM     13  H3  UNL     1      15.318   3.974  10.922  1.00  0.00     0.210 HD
ENDBRANCH   4  12
TORSDOF 4
ENDMDL
