MODEL 1
REMARK VINA RESULT: -6.276284255      0.000      0.000
REMARK  1 active torsions:
REMARK  status: ('A' for Active; 'I' for Inactive)
REMARK    1  A    between atoms: C3_4  and  C4_5 
ROOT
HETATM    1  C4  UNL     1      16.344   1.582  14.548  1.00  0.00     0.270 C 
HETATM    2  N1  UNL     1      16.826   0.393  13.923  1.00  0.00    -0.066 NA
HETATM    3  O2  UNL     1      17.210   0.679  12.662  1.00  0.00    -0.282 OA
HETATM    4  C5  UNL     1      16.559   1.799  12.144  1.00  0.00     0.222 C 
HETATM    5  C6  UNL     1      16.875   3.053  12.939  1.00  0.00     0.198 C 
HETATM    6  O3  UNL     1      17.208   2.622  14.240  1.00  0.00    -0.363 OA
ENDROOT
BRANCH   1   7
HETATM    7  C3  UNL     1      16.106   1.461  16.019  1.00  0.00     0.168 C 
HETATM    8  O1  UNL     1      15.659   0.228  16.418  1.00  0.00    -0.382 OA
HETATM    9  C2  UNL     1      15.073   0.367  17.649  1.00  0.00     0.168 C 
HETATM   10  C1  UNL     1      14.683   1.819  17.816  1.00  0.00     0.029 C 
HETATM   11  C7  UNL     1      14.943   2.357  16.403  1.00  0.00     0.038 C 
ENDBRANCH   1   7
TORSDOF 1
ENDMDL
MODEL 2
REMARK VINA RESULT: -6.110539989      2.153      4.329
REMARK  1 active torsions:
REMARK  status: ('A' for Active; 'I' for Inactive)
REMARK    1  A    between atoms: C3_4  and  C4_5 
ROOT
HETATM    1  C4  UNL     1      16.422   2.599  15.979  1.00  0.00     0.270 C 
HETATM    2  N1  UNL     1      17.133   1.398  16.274  1.00  0.00    -0.066 NA
HETATM    3  O2  UNL     1      16.332   0.569  16.974  1.00  0.00    -0.282 OA
HETATM    4  C5  UNL     1      15.334   1.250  17.672  1.00  0.00     0.222 C 
HETATM    5  C6  UNL     1      14.399   1.995  16.737  1.00  0.00     0.198 C 
HETATM    6  O3  UNL     1      15.142   2.263  15.568  1.00  0.00    -0.363 OA
ENDROOT
BRANCH   1   7
HETATM    7  C3  UNL     1      17.108   3.508  15.009  1.00  0.00     0.168 C 
HETATM    8  O1  UNL     1      18.399   3.820  15.346  1.00  0.00    -0.382 OA
HETATM    9  C2  UNL     1      18.752   4.956  14.664  1.00  0.00     0.168 C 
HETATM   10  C1  UNL     1      17.480   5.675  14.271  1.00  0.00     0.029 C 
HETATM   11  C7  UNL     1      16.433   4.866  15.049  1.00  0.00     0.038 C 
ENDBRANCH   1   7
TORSDOF 1
ENDMDL
MODEL 3
REMARK VINA RESULT: -5.895979206      1.452      1.670
REMARK  1 active torsions:
REMARK  status: ('A' for Active; 'I' for Inactive)
REMARK    1  A    between atoms: C3_4  and  C4_5 
ROOT
HETATM    1  C4  UNL     1      16.620   2.874  15.393  1.00  0.00     0.270 C 
HETATM    2  N1  UNL     1      16.700   2.064  14.221  1.00  0.00    -0.066 NA
HETATM    3  O2  UNL     1      17.497   2.670  13.317  1.00  0.00    -0.282 OA
HETATM    4  C5  UNL     1      17.553   4.053  13.492  1.00  0.00     0.222 C 
HETATM    5  C6  UNL     1      18.141   4.428  14.840  1.00  0.00     0.198 C 
HETATM    6  O3  UNL     1      17.891   3.335  15.697  1.00  0.00    -0.363 OA
ENDROOT
BRANCH   1   7
HETATM    7  C3  UNL     1      15.962   2.214  16.563  1.00  0.00     0.168 C 
HETATM    8  O1  UNL     1      16.192   0.867  16.653  1.00  0.00    -0.382 OA
HETATM    9  C2  UNL     1      15.222   0.323  17.454  1.00  0.00     0.168 C 
HETATM   10  C1  UNL     1      14.044   1.271  17.464  1.00  0.00     0.029 C 
HETATM   11  C7  UNL     1      14.457   2.265  16.370  1.00  0.00     0.038 C 
ENDBRANCH   1   7
TORSDOF 1
ENDMDL
MODEL 4
REMARK VINA RESULT: -5.748610054      1.210      1.501
REMARK  1 active torsions:
REMARK  status: ('A' for Active; 'I' for Inactive)
REMARK    1  A    between atoms: C3_4  and  C4_5 
ROOT
HETATM    1  C4  UNL     1      16.476   1.756  14.576  1.00  0.00     0.270 C 
HETATM    2  N1  UNL     1      15.729   2.832  14.009  1.00  0.00    -0.066 NA
HETATM    3  O2  UNL     1      15.850   2.796  12.666  1.00  0.00    -0.282 OA
HETATM    4  C5  UNL     1      17.019   2.160  12.249  1.00  0.00     0.222 C 
HETATM    5  C6  UNL     1      17.055   0.705  12.680  1.00  0.00     0.198 C 
HETATM    6  O3  UNL     1      16.239   0.614  13.828  1.00  0.00    -0.363 OA
ENDROOT
BRANCH   1   7
HETATM    7  C3  UNL     1      16.241   1.536  16.036  1.00  0.00     0.168 C 
HETATM    8  O1  UNL     1      15.713   0.309  16.343  1.00  0.00    -0.382 OA
HETATM    9  C2  UNL     1      15.147   0.391  17.589  1.00  0.00     0.168 C 
HETATM   10  C1  UNL     1      14.861   1.848  17.874  1.00  0.00     0.029 C 
HETATM   11  C7  UNL     1      15.146   2.477  16.503  1.00  0.00     0.038 C 
ENDBRANCH   1   7
TORSDOF 1
ENDMDL
MODEL 5
REMARK VINA RESULT: -5.660764680      2.176      3.985
REMARK  1 active torsions:
REMARK  status: ('A' for Active; 'I' for Inactive)
REMARK    1  A    between atoms: C3_4  and  C4_5 
ROOT
HETATM    1  C4  UNL     1      16.582   2.448  15.034  1.00  0.00     0.270 C 
HETATM    2  N1  UNL     1      17.314   2.034  16.187  1.00  0.00    -0.066 NA
HETATM    3  O2  UNL     1      17.527   0.704  16.122  1.00  0.00    -0.282 OA
HETATM    4  C5  UNL     1      16.576   0.044  15.343  1.00  0.00     0.222 C 
HETATM    5  C6  UNL     1      16.607   0.512  13.899  1.00  0.00     0.198 C 
HETATM    6  O3  UNL     1      17.125   1.824  13.921  1.00  0.00    -0.363 OA
ENDROOT
BRANCH   1   7
HETATM    7  C3  UNL     1      16.480   3.930  14.859  1.00  0.00     0.168 C 
HETATM    8  O1  UNL     1      16.030   4.322  13.626  1.00  0.00    -0.382 OA
HETATM    9  C2  UNL     1      16.392   5.630  13.438  1.00  0.00     0.168 C 
HETATM   10  C1  UNL     1      17.548   5.929  14.368  1.00  0.00     0.029 C 
HETATM   11  C7  UNL     1      17.876   4.524  14.889  1.00  0.00     0.038 C 
ENDBRANCH   1   7
TORSDOF 1
ENDMDL
