MODEL 1
REMARK VINA RESULT: -5.377586768      0.000      0.000
REMARK  2 active torsions:
REMARK  status: ('A' for Active; 'I' for Inactive)
REMARK    1  A    between atoms: O1_2  and  C2_3 
REMARK    2  A    between atoms: C6_9  and  O4_11 
ROOT
HETATM    1  C2  UNL     1      15.694   2.297  16.575  1.00  0.00     0.206 C 
HETATM    2  C3  UNL     1      14.539   2.987  15.875  1.00  0.00     0.205 C 
HETATM    3  O2  UNL     1      14.738   4.337  15.720  1.00  0.00    -0.386 OA
HETATM    4  C4  UNL     1      15.660   4.688  14.777  1.00  0.00     0.194 C 
HETATM    5  C5  UNL     1      17.038   4.112  15.025  1.00  0.00     0.197 C 
HETATM    6  O3  UNL     1      17.031   2.802  14.635  1.00  0.00    -0.351 OA
HETATM    7  C6  UNL     1      16.793   1.902  15.659  1.00  0.00     0.186 C 
HETATM    8  C7  UNL     1      16.576   0.542  15.015  1.00  0.00     0.082 C 
ENDROOT
BRANCH   7   9
HETATM    9  O4  UNL     1      17.970   1.812  16.410  1.00  0.00    -0.363 OA
ATOM     10  H4  UNL     1      18.019   0.935  16.772  1.00  0.00     0.213 HD
ENDBRANCH   7   9
BRANCH   1  11
HETATM   11  O1  UNL     1      15.203   1.223  17.291  1.00  0.00    -0.383 OA
HETATM   12  C1  UNL     1      13.802   1.134  17.166  1.00  0.00     0.202 C 
ENDBRANCH   1  11
TORSDOF 2
ENDMDL
MODEL 2
REMARK VINA RESULT: -5.272879898      1.705      3.165
REMARK  2 active torsions:
REMARK  status: ('A' for Active; 'I' for Inactive)
REMARK    1  A    between atoms: O1_2  and  C2_3 
REMARK    2  A    between atoms: C6_9  and  O4_11 
ROOT
HETATM    1  C2  UNL     1      15.860   1.711  15.297  1.00  0.00     0.206 C 
HETATM    2  C3  UNL     1      16.717   0.460  15.263  1.00  0.00     0.205 C 
HETATM    3  O2  UNL     1      16.493  -0.311  14.149  1.00  0.00    -0.386 OA
HETATM    4  C4  UNL     1      16.990   0.191  12.980  1.00  0.00     0.194 C 
HETATM    5  C5  UNL     1      16.452   1.562  12.626  1.00  0.00     0.197 C 
HETATM    6  O3  UNL     1      17.109   2.488  13.389  1.00  0.00    -0.351 OA
HETATM    7  C6  UNL     1      16.444   2.850  14.546  1.00  0.00     0.186 C 
HETATM    8  C7  UNL     1      17.412   3.680  15.375  1.00  0.00     0.082 C 
ENDROOT
BRANCH   7   9
HETATM    9  O4  UNL     1      15.398   3.702  14.172  1.00  0.00    -0.363 OA
ATOM     10  H4  UNL     1      15.707   4.250  13.461  1.00  0.00     0.213 HD
ENDBRANCH   7   9
BRANCH   1  11
HETATM   11  O1  UNL     1      15.598   2.036  16.614  1.00  0.00    -0.383 OA
HETATM   12  C1  UNL     1      14.608   1.189  17.152  1.00  0.00     0.202 C 
ENDBRANCH   1  11
TORSDOF 2
ENDMDL
MODEL 3
REMARK VINA RESULT: -5.235761919      1.366      3.148
REMARK  2 active torsions:
REMARK  status: ('A' for Active; 'I' for Inactive)
REMARK    1  A    between atoms: O1_2  and  C2_3 
REMARK    2  A    between atoms: C6_9  and  O4_11 
ROOT
HETATM    1  C2  UNL     1      15.609   2.640  16.009  1.00  0.00     0.206 C 
HETATM    2  C3  UNL     1      15.577   2.602  14.493  1.00  0.00     0.205 C 
HETATM    3  O2  UNL     1      16.700   2.032  13.948  1.00  0.00    -0.386 OA
HETATM    4  C4  UNL     1      16.797   0.677  14.087  1.00  0.00     0.194 C 
HETATM    5  C5  UNL     1      16.774   0.207  15.526  1.00  0.00     0.197 C 
HETATM    6  O3  UNL     1      15.479   0.234  15.964  1.00  0.00    -0.351 OA
HETATM    7  C6  UNL     1      15.130   1.387  16.644  1.00  0.00     0.186 C 
HETATM    8  C7  UNL     1      13.622   1.352  16.834  1.00  0.00     0.082 C 
ENDROOT
BRANCH   7   9
HETATM    9  O4  UNL     1      15.701   1.304  17.919  1.00  0.00    -0.363 OA
ATOM     10  H4  UNL     1      15.202   0.671  18.422  1.00  0.00     0.213 HD
ENDBRANCH   7   9
BRANCH   1  11
HETATM   11  O1  UNL     1      14.904   3.745  16.442  1.00  0.00    -0.383 OA
HETATM   12  C1  UNL     1      14.940   4.774  15.478  1.00  0.00     0.202 C 
ENDBRANCH   1  11
TORSDOF 2
ENDMDL
MODEL 4
REMARK VINA RESULT: -4.938336759      1.288      3.109
REMARK  2 active torsions:
REMARK  status: ('A' for Active; 'I' for Inactive)
REMARK    1  A    between atoms: O1_2  and  C2_3 
REMARK    2  A    between atoms: C6_9  and  O4_11 
ROOT
HETATM    1  C2  UNL     1      15.235   2.966  15.160  1.00  0.00     0.206 C 
HETATM    2  C3  UNL     1      14.511   3.386  16.424  1.00  0.00     0.205 C 
HETATM    3  O2  UNL     1      13.828   2.354  17.018  1.00  0.00    -0.386 OA
HETATM    4  C4  UNL     1      14.605   1.422  17.644  1.00  0.00     0.194 C 
HETATM    5  C5  UNL     1      15.615   0.756  16.734  1.00  0.00     0.197 C 
HETATM    6  O3  UNL     1      16.663   1.616  16.555  1.00  0.00    -0.351 OA
HETATM    7  C6  UNL     1      16.579   2.388  15.411  1.00  0.00     0.186 C 
HETATM    8  C7  UNL     1      17.675   3.439  15.501  1.00  0.00     0.082 C 
ENDROOT
BRANCH   7   9
HETATM    9  O4  UNL     1      16.901   1.559  14.330  1.00  0.00    -0.363 OA
ATOM     10  H4  UNL     1      16.093   1.323  13.892  1.00  0.00     0.213 HD
ENDBRANCH   7   9
BRANCH   1  11
HETATM   11  O1  UNL     1      15.286   4.042  14.296  1.00  0.00    -0.383 OA
HETATM   12  C1  UNL     1      14.809   5.212  14.923  1.00  0.00     0.202 C 
ENDBRANCH   1  11
TORSDOF 2
ENDMDL
MODEL 5
REMARK VINA RESULT: -4.866858425      1.235      2.815
REMARK  2 active torsions:
REMARK  status: ('A' for Active; 'I' for Inactive)
REMARK    1  A    between atoms: O1_2  and  C2_3 
REMARK    2  A    between atoms: C6_9  and  O4_11 
ROOT
HETATM    1  C2  UNL     1      15.922   1.911  16.030  1.00  0.00     0.206 C 
HETATM    2  C3  UNL     1      17.062   2.898  15.869  1.00  0.00     0.205 C 
HETATM    3  O2  UNL     1      16.851   3.799  14.855  1.00  0.00    -0.386 OA
HETATM    4  C4  UNL     1      15.914   4.759  15.110  1.00  0.00     0.194 C 
HETATM    5  C5  UNL     1      14.544   4.204  15.437  1.00  0.00     0.197 C 
HETATM    6  O3  UNL     1      14.557   3.768  16.733  1.00  0.00    -0.351 OA
HETATM    7  C6  UNL     1      14.815   2.417  16.879  1.00  0.00     0.186 C 
HETATM    8  C7  UNL     1      15.035   2.163  18.362  1.00  0.00     0.082 C 
ENDROOT
BRANCH   7   9
HETATM    9  O4  UNL     1      13.648   1.733  16.520  1.00  0.00    -0.363 OA
ATOM     10  H4  UNL     1      12.906   2.279  16.749  1.00  0.00     0.213 HD
ENDBRANCH   7   9
BRANCH   1  11
HETATM   11  O1  UNL     1      16.430   0.715  16.496  1.00  0.00    -0.383 OA
HETATM   12  C1  UNL     1      16.842  -0.107  15.427  1.00  0.00     0.202 C 
ENDBRANCH   1  11
TORSDOF 2
ENDMDL
