MODEL 1
REMARK VINA RESULT: -4.635123647      0.000      0.000
REMARK  2 active torsions:
REMARK  status: ('A' for Active; 'I' for Inactive)
REMARK    1  A    between atoms: S1_2  and  C2_3 
REMARK    2  A    between atoms: C2_3  and  O1_4 
ROOT
HETATM    1  C2  UNL     1      16.811   1.913  15.439  1.00  0.00     0.114 C 
HETATM    2  C3  UNL     1      17.517   3.249  15.391  1.00  0.00     0.094 C 
HETATM    3  C4  UNL     1      16.770   4.127  14.433  1.00  0.00     0.066 C 
HETATM    4  N1  UNL     1      16.825   3.577  13.152  1.00  0.00    -0.378 N 
HETATM    5  C5  UNL     1      17.044   4.410  12.041  1.00  0.00     0.154 C 
HETATM    6  C6  UNL     1      16.694   2.204  12.930  1.00  0.00     0.066 C 
HETATM    7  C7  UNL     1      16.627   1.300  14.093  1.00  0.00     0.094 C 
ENDROOT
BRANCH   1   8
HETATM    8  S1  UNL     1      15.202   2.055  16.287  1.00  0.00    -0.135 SA
HETATM    9  C1  UNL     1      15.048   0.603  17.369  1.00  0.00     0.093 C 
ENDBRANCH   1   8
BRANCH   1  10
HETATM   10  O1  UNL     1      17.599   1.087  16.258  1.00  0.00    -0.379 OA
ATOM     11  H1  UNL     1      17.548   1.465  17.128  1.00  0.00     0.211 HD
ENDBRANCH   1  10
TORSDOF 2
ENDMDL
MODEL 2
REMARK VINA RESULT: -4.473016825      3.973      5.124
REMARK  2 active torsions:
REMARK  status: ('A' for Active; 'I' for Inactive)
REMARK    1  A    between atoms: S1_2  and  C2_3 
REMARK    2  A    between atoms: C2_3  and  O1_4 
ROOT
HETATM    1  C2  UNL     1      17.337   2.353  11.073  1.00  0.00     0.114 C 
HETATM    2  C3  UNL     1      16.327   1.242  10.891  1.00  0.00     0.094 C 
HETATM    3  C4  UNL     1      16.734   0.104  11.776  1.00  0.00     0.066 C 
HETATM    4  N1  UNL     1      17.974  -0.388  11.369  1.00  0.00    -0.378 N 
HETATM    5  C5  UNL     1      18.199  -1.775  11.326  1.00  0.00     0.154 C 
HETATM    6  C6  UNL     1      19.013   0.460  10.972  1.00  0.00     0.066 C 
HETATM    7  C7  UNL     1      18.743   1.905  10.856  1.00  0.00     0.094 C 
ENDROOT
BRANCH   1   8
HETATM    8  S1  UNL     1      17.173   3.121  12.718  1.00  0.00    -0.135 SA
HETATM    9  C1  UNL     1      18.585   4.249  12.916  1.00  0.00     0.093 C 
ENDBRANCH   1   8
BRANCH   1  10
HETATM   10  O1  UNL     1      16.986   3.352  10.151  1.00  0.00    -0.379 OA
ATOM     11  H1  UNL     1      16.693   2.891   9.373  1.00  0.00     0.211 HD
ENDBRANCH   1  10
TORSDOF 2
ENDMDL
MODEL 3
REMARK VINA RESULT: -4.442189841      3.338      4.666
REMARK  2 active torsions:
REMARK  status: ('A' for Active; 'I' for Inactive)
REMARK    1  A    between atoms: S1_2  and  C2_3 
REMARK    2  A    between atoms: C2_3  and  O1_4 
ROOT
HETATM    1  C2  UNL     1      16.848   1.759  11.437  1.00  0.00     0.114 C 
HETATM    2  C3  UNL     1      16.073   2.553  12.465  1.00  0.00     0.094 C 
HETATM    3  C4  UNL     1      16.776   2.409  13.780  1.00  0.00     0.066 C 
HETATM    4  N1  UNL     1      16.756   1.073  14.180  1.00  0.00    -0.378 N 
HETATM    5  C5  UNL     1      16.500   0.748  15.524  1.00  0.00     0.154 C 
HETATM    6  C6  UNL     1      16.962   0.027  13.277  1.00  0.00     0.066 C 
HETATM    7  C7  UNL     1      17.070   0.342  11.840  1.00  0.00     0.094 C 
ENDROOT
BRANCH   1   8
HETATM    8  S1  UNL     1      18.443   2.560  11.063  1.00  0.00    -0.135 SA
HETATM    9  C1  UNL     1      19.624   1.230  10.687  1.00  0.00     0.093 C 
ENDBRANCH   1   8
BRANCH   1  10
HETATM   10  O1  UNL     1      16.101   1.827  10.250  1.00  0.00    -0.379 OA
ATOM     11  H1  UNL     1      16.380   2.625   9.816  1.00  0.00     0.211 HD
ENDBRANCH   1  10
TORSDOF 2
ENDMDL
MODEL 4
REMARK VINA RESULT: -4.441527882      2.364      4.135
REMARK  2 active torsions:
REMARK  status: ('A' for Active; 'I' for Inactive)
REMARK    1  A    between atoms: S1_2  and  C2_3 
REMARK    2  A    between atoms: C2_3  and  O1_4 
ROOT
HETATM    1  C2  UNL     1      16.853   3.298  14.921  1.00  0.00     0.114 C 
HETATM    2  C3  UNL     1      17.131   2.175  15.895  1.00  0.00     0.094 C 
HETATM    3  C4  UNL     1      15.958   1.244  15.867  1.00  0.00     0.066 C 
HETATM    4  N1  UNL     1      14.817   1.912  16.312  1.00  0.00    -0.378 N 
HETATM    5  C5  UNL     1      13.918   1.265  17.178  1.00  0.00     0.154 C 
HETATM    6  C6  UNL     1      14.540   3.231  15.942  1.00  0.00     0.066 C 
HETATM    7  C7  UNL     1      15.550   3.977  15.169  1.00  0.00     0.094 C 
ENDROOT
BRANCH   1   8
HETATM    8  S1  UNL     1      16.930   2.701  13.199  1.00  0.00    -0.135 SA
HETATM    9  C1  UNL     1      18.091   3.787  12.318  1.00  0.00     0.093 C 
ENDBRANCH   1   8
BRANCH   1  10
HETATM   10  O1  UNL     1      17.919   4.202  15.057  1.00  0.00    -0.379 OA
ATOM     11  H1  UNL     1      18.633   3.702  15.436  1.00  0.00     0.211 HD
ENDBRANCH   1  10
TORSDOF 2
ENDMDL
MODEL 5
REMARK VINA RESULT: -4.337125066      3.216      4.206
REMARK  2 active torsions:
REMARK  status: ('A' for Active; 'I' for Inactive)
REMARK    1  A    between atoms: S1_2  and  C2_3 
REMARK    2  A    between atoms: C2_3  and  O1_4 
ROOT
HETATM    1  C2  UNL     1      16.505   2.083  11.754  1.00  0.00     0.114 C 
HETATM    2  C3  UNL     1      17.467   2.867  10.889  1.00  0.00     0.094 C 
HETATM    3  C4  UNL     1      18.713   3.102  11.686  1.00  0.00     0.066 C 
HETATM    4  N1  UNL     1      18.417   3.887  12.801  1.00  0.00    -0.378 N 
HETATM    5  C5  UNL     1      19.289   4.922  13.181  1.00  0.00     0.154 C 
HETATM    6  C6  UNL     1      17.255   3.695  13.554  1.00  0.00     0.066 C 
HETATM    7  C7  UNL     1      16.253   2.724  13.076  1.00  0.00     0.094 C 
ENDROOT
BRANCH   1   8
HETATM    8  S1  UNL     1      17.089   0.372  11.991  1.00  0.00    -0.135 SA
HETATM    9  C1  UNL     1      17.702  -0.202  10.378  1.00  0.00     0.093 C 
ENDBRANCH   1   8
BRANCH   1  10
HETATM   10  O1  UNL     1      15.315   1.980  11.016  1.00  0.00    -0.379 OA
ATOM     11  H1  UNL     1      14.626   2.282  11.597  1.00  0.00     0.211 HD
ENDBRANCH   1  10
TORSDOF 2
ENDMDL
