MODEL 1
REMARK VINA RESULT: -4.591964139      0.000      0.000
REMARK  2 active torsions:
REMARK  status: ('A' for Active; 'I' for Inactive)
REMARK    1  A    between atoms: C4_5  and  N2_6 
REMARK    2  A    between atoms: C7_9  and  O1_10 
ROOT
HETATM    1  C1  UNL     1      13.772   1.288  17.031  1.00  0.00     0.310 C 
HETATM    2  N1  UNL     1      14.927   2.171  16.806  1.00  0.00     0.086 N 
HETATM    3  C2  UNL     1      14.534   3.381  16.199  1.00  0.00     0.274 C 
HETATM    4  C3  UNL     1      15.286   3.770  14.955  1.00  0.00     0.068 C 
HETATM    5  C4  UNL     1      16.768   3.577  15.245  1.00  0.00     0.254 C 
HETATM    6  C7  UNL     1      17.027   2.121  15.503  1.00  0.00     0.179 C 
HETATM    7  C8  UNL     1      15.967   1.412  16.248  1.00  0.00     0.305 C 
ENDROOT
BRANCH   5   8
HETATM    8  N2  UNL     1      17.481   3.989  14.055  1.00  0.00     0.087 N 
HETATM    9  C5  UNL     1      16.690   4.865  13.220  1.00  0.00     0.310 C 
HETATM   10  C6  UNL     1      18.727   4.653  14.359  1.00  0.00     0.310 C 
ENDBRANCH   5   8
BRANCH   6  11
HETATM   11  O1  UNL     1      17.153   1.505  14.237  1.00  0.00    -0.392 OA
ATOM     12  H1  UNL     1      16.349   1.691  13.765  1.00  0.00     0.210 HD
ENDBRANCH   6  11
TORSDOF 2
ENDMDL
MODEL 2
REMARK VINA RESULT: -4.559146852      4.382      6.450
REMARK  2 active torsions:
REMARK  status: ('A' for Active; 'I' for Inactive)
REMARK    1  A    between atoms: C4_5  and  N2_6 
REMARK    2  A    between atoms: C7_9  and  O1_10 
ROOT
HETATM    1  C1  UNL     1      19.743   4.504   9.233  1.00  0.00     0.310 C 
HETATM    2  N1  UNL     1      19.294   3.694  10.377  1.00  0.00     0.086 N 
HETATM    3  C2  UNL     1      19.985   2.466  10.435  1.00  0.00     0.274 C 
HETATM    4  C3  UNL     1      19.131   1.232  10.530  1.00  0.00     0.068 C 
HETATM    5  C4  UNL     1      18.073   1.495  11.593  1.00  0.00     0.254 C 
HETATM    6  C7  UNL     1      17.198   2.627  11.138  1.00  0.00     0.179 C 
HETATM    7  C8  UNL     1      17.892   3.710  10.413  1.00  0.00     0.305 C 
ENDROOT
BRANCH   5   8
HETATM    8  N2  UNL     1      17.282   0.288  11.700  1.00  0.00     0.087 N 
HETATM    9  C5  UNL     1      17.948  -0.855  11.119  1.00  0.00     0.310 C 
HETATM   10  C6  UNL     1      16.941  -0.030  13.067  1.00  0.00     0.310 C 
ENDBRANCH   5   8
BRANCH   6  11
HETATM   11  O1  UNL     1      16.238   2.066  10.264  1.00  0.00    -0.392 OA
ATOM     12  H1  UNL     1      15.449   1.939  10.777  1.00  0.00     0.210 HD
ENDBRANCH   6  11
TORSDOF 2
ENDMDL
MODEL 3
REMARK VINA RESULT: -4.499844953      1.637      3.950
REMARK  2 active torsions:
REMARK  status: ('A' for Active; 'I' for Inactive)
REMARK    1  A    between atoms: C4_5  and  N2_6 
REMARK    2  A    between atoms: C7_9  and  O1_10 
ROOT
HETATM    1  C1  UNL     1      17.046   3.345  12.385  1.00  0.00     0.310 C 
HETATM    2  N1  UNL     1      16.187   2.645  13.354  1.00  0.00     0.086 N 
HETATM    3  C2  UNL     1      15.585   3.552  14.251  1.00  0.00     0.274 C 
HETATM    4  C3  UNL     1      15.751   3.241  15.713  1.00  0.00     0.068 C 
HETATM    5  C4  UNL     1      15.445   1.761  15.898  1.00  0.00     0.254 C 
HETATM    6  C7  UNL     1      16.460   0.957  15.138  1.00  0.00     0.179 C 
HETATM    7  C8  UNL     1      16.884   1.532  13.846  1.00  0.00     0.305 C 
ENDROOT
BRANCH   5   8
HETATM    8  N2  UNL     1      15.572   1.484  17.313  1.00  0.00     0.087 N 
HETATM    9  C5  UNL     1      14.954   2.507  18.127  1.00  0.00     0.310 C 
HETATM   10  C6  UNL     1      15.006   0.207  17.680  1.00  0.00     0.310 C 
ENDBRANCH   5   8
BRANCH   6  11
HETATM   11  O1  UNL     1      17.602   0.866  15.968  1.00  0.00    -0.392 OA
ATOM     12  H1  UNL     1      17.965  -0.002  15.831  1.00  0.00     0.210 HD
ENDBRANCH   6  11
TORSDOF 2
ENDMDL
MODEL 4
REMARK VINA RESULT: -4.478555110      3.798      4.870
REMARK  2 active torsions:
REMARK  status: ('A' for Active; 'I' for Inactive)
REMARK    1  A    between atoms: C4_5  and  N2_6 
REMARK    2  A    between atoms: C7_9  and  O1_10 
ROOT
HETATM    1  C1  UNL     1      18.052  -1.932  11.363  1.00  0.00     0.310 C 
HETATM    2  N1  UNL     1      17.600  -0.545  11.169  1.00  0.00     0.086 N 
HETATM    3  C2  UNL     1      18.622   0.252  10.613  1.00  0.00     0.274 C 
HETATM    4  C3  UNL     1      18.932   1.530  11.341  1.00  0.00     0.068 C 
HETATM    5  C4  UNL     1      17.604   2.206  11.653  1.00  0.00     0.254 C 
HETATM    6  C7  UNL     1      16.817   1.327  12.581  1.00  0.00     0.179 C 
HETATM    7  C8  UNL     1      16.938  -0.124  12.332  1.00  0.00     0.305 C 
ENDROOT
BRANCH   5   8
HETATM    8  N2  UNL     1      17.918   3.452  12.321  1.00  0.00     0.087 N 
HETATM    9  C5  UNL     1      19.271   3.887  12.057  1.00  0.00     0.310 C 
HETATM   10  C6  UNL     1      17.017   4.519  11.953  1.00  0.00     0.310 C 
ENDBRANCH   5   8
BRANCH   6  11
HETATM   11  O1  UNL     1      17.300   1.585  13.885  1.00  0.00    -0.392 OA
ATOM     12  H1  UNL     1      16.610   1.325  14.484  1.00  0.00     0.210 HD
ENDBRANCH   6  11
TORSDOF 2
ENDMDL
MODEL 5
REMARK VINA RESULT: -4.444104306      2.547      3.563
REMARK  2 active torsions:
REMARK  status: ('A' for Active; 'I' for Inactive)
REMARK    1  A    between atoms: C4_5  and  N2_6 
REMARK    2  A    between atoms: C7_9  and  O1_10 
ROOT
HETATM    1  C1  UNL     1      17.649  -0.460  11.742  1.00  0.00     0.310 C 
HETATM    2  N1  UNL     1      16.731   0.382  12.527  1.00  0.00     0.086 N 
HETATM    3  C2  UNL     1      16.745   1.716  12.069  1.00  0.00     0.274 C 
HETATM    4  C3  UNL     1      16.980   2.770  13.115  1.00  0.00     0.068 C 
HETATM    5  C4  UNL     1      16.081   2.441  14.299  1.00  0.00     0.254 C 
HETATM    6  C7  UNL     1      16.499   1.119  14.875  1.00  0.00     0.179 C 
HETATM    7  C8  UNL     1      16.927   0.107  13.888  1.00  0.00     0.305 C 
ENDROOT
BRANCH   5   8
HETATM    8  N2  UNL     1      16.289   3.482  15.282  1.00  0.00     0.087 N 
HETATM    9  C5  UNL     1      17.010   4.611  14.738  1.00  0.00     0.310 C 
HETATM   10  C6  UNL     1      15.052   3.964  15.849  1.00  0.00     0.310 C 
ENDBRANCH   5   8
BRANCH   6  11
HETATM   11  O1  UNL     1      17.594   1.382  15.729  1.00  0.00    -0.392 OA
ATOM     12  H1  UNL     1      17.637   2.326  15.830  1.00  0.00     0.210 HD
ENDBRANCH   6  11
TORSDOF 2
ENDMDL
