MODEL 1
REMARK VINA RESULT: -5.167078406      0.000      0.000
REMARK  1 active torsions:
REMARK  status: ('A' for Active; 'I' for Inactive)
REMARK    1  A    between atoms: C2_2  and  N1_4 
ROOT
HETATM    1  N1  UNL     1      15.267   2.877  16.173  1.00  0.00    -0.388 N 
HETATM    2  C4  UNL     1      14.769   3.582  15.058  1.00  0.00     0.058 C 
HETATM    3  C5  UNL     1      15.297   5.004  14.954  1.00  0.00     0.046 C 
HETATM    4  C6  UNL     1      16.234   5.164  13.776  1.00  0.00     0.032 C 
HETATM    5  C7  UNL     1      17.315   4.118  13.874  1.00  0.00     0.232 C 
HETATM    6  N2  UNL     1      17.554   3.918  15.309  1.00  0.00    -0.074 N 
ATOM      7  H21 UNL     1      16.857   4.392  15.882  1.00  0.00     0.277 HD
ATOM      8  H22 UNL     1      18.381   4.421  15.631  1.00  0.00     0.277 HD
HETATM    9  C8  UNL     1      17.630   2.505  15.607  1.00  0.00     0.252 C 
HETATM   10  C9  UNL     1      16.290   1.915  15.943  1.00  0.00     0.149 C 
ENDROOT
BRANCH   1  11
HETATM   11  C2  UNL     1      14.380   2.534  17.208  1.00  0.00     0.075 C 
HETATM   12  C1  UNL     1      14.952   2.528  18.598  1.00  0.00     0.032 C 
HETATM   13  C3  UNL     1      13.674   1.227  16.897  1.00  0.00     0.032 C 
ENDBRANCH   1  11
TORSDOF 1
ENDMDL
MODEL 2
REMARK VINA RESULT: -4.952203318      1.752      3.939
REMARK  1 active torsions:
REMARK  status: ('A' for Active; 'I' for Inactive)
REMARK    1  A    between atoms: C2_2  and  N1_4 
ROOT
HETATM    1  N1  UNL     1      16.178   2.125  14.510  1.00  0.00    -0.388 N 
HETATM    2  C4  UNL     1      16.020   3.397  15.099  1.00  0.00     0.058 C 
HETATM    3  C5  UNL     1      14.581   3.719  15.471  1.00  0.00     0.046 C 
HETATM    4  C6  UNL     1      14.388   3.754  16.972  1.00  0.00     0.032 C 
HETATM    5  C7  UNL     1      14.893   2.458  17.552  1.00  0.00     0.232 C 
HETATM    6  N2  UNL     1      14.615   1.428  16.544  1.00  0.00    -0.074 N 
ATOM      7  H21 UNL     1      14.307   1.833  15.660  1.00  0.00     0.277 HD
ATOM      8  H22 UNL     1      13.776   0.893  16.765  1.00  0.00     0.277 HD
HETATM    9  C8  UNL     1      15.771   0.576  16.374  1.00  0.00     0.252 C 
HETATM   10  C9  UNL     1      16.712   1.085  15.319  1.00  0.00     0.149 C 
ENDROOT
BRANCH   1  11
HETATM   11  C2  UNL     1      16.551   2.048  13.157  1.00  0.00     0.075 C 
HETATM   12  C1  UNL     1      17.035   0.709  12.677  1.00  0.00     0.032 C 
HETATM   13  C3  UNL     1      17.537   3.148  12.810  1.00  0.00     0.032 C 
ENDBRANCH   1  11
TORSDOF 1
ENDMDL
MODEL 3
REMARK VINA RESULT: -4.936500838      1.238      3.815
REMARK  1 active torsions:
REMARK  status: ('A' for Active; 'I' for Inactive)
REMARK    1  A    between atoms: C2_2  and  N1_4 
ROOT
HETATM    1  N1  UNL     1      15.937   3.212  15.462  1.00  0.00    -0.388 N 
HETATM    2  C4  UNL     1      14.933   3.266  16.451  1.00  0.00     0.058 C 
HETATM    3  C5  UNL     1      13.843   2.221  16.267  1.00  0.00     0.046 C 
HETATM    4  C6  UNL     1      13.897   1.164  17.349  1.00  0.00     0.032 C 
HETATM    5  C7  UNL     1      15.290   0.591  17.393  1.00  0.00     0.232 C 
HETATM    6  N2  UNL     1      15.782   0.616  16.010  1.00  0.00    -0.074 N 
ATOM      7  H21 UNL     1      15.160   1.139  15.393  1.00  0.00     0.277 HD
ATOM      8  H22 UNL     1      15.706  -0.296  15.561  1.00  0.00     0.277 HD
HETATM    9  C8  UNL     1      17.134   1.127  15.973  1.00  0.00     0.252 C 
HETATM   10  C9  UNL     1      17.181   2.621  15.816  1.00  0.00     0.149 C 
ENDROOT
BRANCH   1  11
HETATM   11  C2  UNL     1      16.047   4.277  14.552  1.00  0.00     0.075 C 
HETATM   12  C1  UNL     1      17.384   4.960  14.487  1.00  0.00     0.032 C 
HETATM   13  C3  UNL     1      14.926   5.279  14.761  1.00  0.00     0.032 C 
ENDBRANCH   1  11
TORSDOF 1
ENDMDL
MODEL 4
REMARK VINA RESULT: -4.922203387      1.913      3.838
REMARK  1 active torsions:
REMARK  status: ('A' for Active; 'I' for Inactive)
REMARK    1  A    between atoms: C2_2  and  N1_4 
ROOT
HETATM    1  N1  UNL     1      16.364   1.859  14.665  1.00  0.00    -0.388 N 
HETATM    2  C4  UNL     1      16.196   3.191  15.095  1.00  0.00     0.058 C 
HETATM    3  C5  UNL     1      14.739   3.603  15.240  1.00  0.00     0.046 C 
HETATM    4  C6  UNL     1      14.360   3.806  16.692  1.00  0.00     0.032 C 
HETATM    5  C7  UNL     1      14.722   2.563  17.462  1.00  0.00     0.232 C 
HETATM    6  N2  UNL     1      14.524   1.441  16.536  1.00  0.00    -0.074 N 
ATOM      7  H21 UNL     1      14.350   1.759  15.583  1.00  0.00     0.277 HD
ATOM      8  H22 UNL     1      13.637   0.964  16.699  1.00  0.00     0.277 HD
HETATM    9  C8  UNL     1      15.648   0.534  16.607  1.00  0.00     0.252 C 
HETATM   10  C9  UNL     1      16.739   0.892  15.639  1.00  0.00     0.149 C 
ENDROOT
BRANCH   1  11
HETATM   11  C2  UNL     1      16.901   1.623  13.387  1.00  0.00     0.075 C 
HETATM   12  C1  UNL     1      16.292   2.404  12.257  1.00  0.00     0.032 C 
HETATM   13  C3  UNL     1      16.923   0.137  13.082  1.00  0.00     0.032 C 
ENDBRANCH   1  11
TORSDOF 1
ENDMDL
MODEL 5
REMARK VINA RESULT: -4.854760036      1.208      4.261
REMARK  1 active torsions:
REMARK  status: ('A' for Active; 'I' for Inactive)
REMARK    1  A    between atoms: C2_2  and  N1_4 
ROOT
HETATM    1  N1  UNL     1      16.236   3.303  15.202  1.00  0.00    -0.388 N 
HETATM    2  C4  UNL     1      16.182   1.897  15.127  1.00  0.00     0.058 C 
HETATM    3  C5  UNL     1      16.461   1.206  16.453  1.00  0.00     0.046 C 
HETATM    4  C6  UNL     1      15.218   0.543  17.007  1.00  0.00     0.032 C 
HETATM    5  C7  UNL     1      14.114   1.567  17.072  1.00  0.00     0.232 C 
HETATM    6  N2  UNL     1      14.767   2.847  17.369  1.00  0.00    -0.074 N 
ATOM      7  H21 UNL     1      15.783   2.781  17.307  1.00  0.00     0.277 HD
ATOM      8  H22 UNL     1      14.694   3.094  18.356  1.00  0.00     0.277 HD
HETATM    9  C8  UNL     1      14.239   3.885  16.511  1.00  0.00     0.252 C 
HETATM   10  C9  UNL     1      15.003   4.012  15.224  1.00  0.00     0.149 C 
ENDROOT
BRANCH   1  11
HETATM   11  C2  UNL     1      17.273   3.977  14.533  1.00  0.00     0.075 C 
HETATM   12  C1  UNL     1      17.215   5.478  14.560  1.00  0.00     0.032 C 
HETATM   13  C3  UNL     1      17.421   3.457  13.115  1.00  0.00     0.032 C 
ENDBRANCH   1  11
TORSDOF 1
ENDMDL
