MODEL 1
REMARK VINA RESULT: -5.102244162      0.000      0.000
REMARK  1 active torsions:
REMARK  status: ('A' for Active; 'I' for Inactive)
REMARK    1  A    between atoms: O1_2  and  C2_3 
ROOT
HETATM    1  C2  UNL     1      16.498   2.212  13.599  1.00  0.00     0.157 C 
HETATM    2  C3  UNL     1      16.821   3.625  13.160  1.00  0.00     0.038 C 
HETATM    3  C4  UNL     1      17.856   3.052  12.242  1.00  0.00     0.045 C 
HETATM    4  C5  UNL     1      17.057   1.738  12.272  1.00  0.00     0.110 C 
HETATM    5  C6  UNL     1      16.021   1.692  11.236  1.00  0.00     0.273 C 
HETATM    6  N1  UNL     1      16.005   0.584  10.351  1.00  0.00    -0.070 N 
ATOM      7  H11 UNL     1      15.632   0.840   9.437  1.00  0.00     0.277 HD
ATOM      8  H12 UNL     1      15.299  -0.101  10.622  1.00  0.00     0.277 HD
HETATM    9  C7  UNL     1      17.301  -0.012  10.241  1.00  0.00     0.258 C 
HETATM   10  C8  UNL     1      17.671  -0.428  11.672  1.00  0.00     0.196 C 
HETATM   11  O2  UNL     1      17.929   0.707  12.367  1.00  0.00    -0.374 OA
ENDROOT
BRANCH   1  12
HETATM   12  O1  UNL     1      17.232   1.877  14.708  1.00  0.00    -0.388 OA
HETATM   13  C1  UNL     1      16.482   0.975  15.458  1.00  0.00     0.202 C 
ENDBRANCH   1  12
TORSDOF 1
ENDMDL
MODEL 2
REMARK VINA RESULT: -4.952184769      1.596      1.918
REMARK  1 active torsions:
REMARK  status: ('A' for Active; 'I' for Inactive)
REMARK    1  A    between atoms: O1_2  and  C2_3 
ROOT
HETATM    1  C2  UNL     1      17.920   3.791  12.644  1.00  0.00     0.157 C 
HETATM    2  C3  UNL     1      18.818   4.319  11.546  1.00  0.00     0.038 C 
HETATM    3  C4  UNL     1      19.133   2.900  11.186  1.00  0.00     0.045 C 
HETATM    4  C5  UNL     1      17.798   2.509  11.844  1.00  0.00     0.110 C 
HETATM    5  C6  UNL     1      16.675   2.567  10.903  1.00  0.00     0.273 C 
HETATM    6  N1  UNL     1      15.861   1.415  10.759  1.00  0.00    -0.070 N 
ATOM      7  H11 UNL     1      15.467   1.350   9.821  1.00  0.00     0.277 HD
ATOM      8  H12 UNL     1      14.993   1.502  11.288  1.00  0.00     0.277 HD
HETATM    9  C7  UNL     1      16.574   0.226  11.113  1.00  0.00     0.258 C 
HETATM   10  C8  UNL     1      17.009   0.441  12.570  1.00  0.00     0.196 C 
HETATM   11  O2  UNL     1      17.988   1.379  12.563  1.00  0.00    -0.374 OA
ENDROOT
BRANCH   1  12
HETATM   12  O1  UNL     1      18.614   3.693  13.823  1.00  0.00    -0.388 OA
HETATM   13  C1  UNL     1      17.770   4.109  14.850  1.00  0.00     0.202 C 
ENDBRANCH   1  12
TORSDOF 1
ENDMDL
MODEL 3
REMARK VINA RESULT: -4.951305642      2.698      4.044
REMARK  1 active torsions:
REMARK  status: ('A' for Active; 'I' for Inactive)
REMARK    1  A    between atoms: O1_2  and  C2_3 
ROOT
HETATM    1  C2  UNL     1      16.425   4.622  14.195  1.00  0.00     0.157 C 
HETATM    2  C3  UNL     1      15.304   5.051  15.118  1.00  0.00     0.038 C 
HETATM    3  C4  UNL     1      14.700   3.692  14.939  1.00  0.00     0.045 C 
HETATM    4  C5  UNL     1      16.109   3.189  14.578  1.00  0.00     0.110 C 
HETATM    5  C6  UNL     1      16.869   2.766  15.758  1.00  0.00     0.273 C 
HETATM    6  N1  UNL     1      17.429   1.464  15.764  1.00  0.00    -0.070 N 
ATOM      7  H11 UNL     1      17.490   1.087  16.710  1.00  0.00     0.277 HD
ATOM      8  H12 UNL     1      18.424   1.484  15.539  1.00  0.00     0.277 HD
HETATM    9  C7  UNL     1      16.711   0.585  14.893  1.00  0.00     0.258 C 
HETATM   10  C8  UNL     1      16.798   1.239  13.507  1.00  0.00     0.196 C 
HETATM   11  O2  UNL     1      16.006   2.339  13.530  1.00  0.00    -0.374 OA
ENDROOT
BRANCH   1  12
HETATM   12  O1  UNL     1      16.138   4.970  12.900  1.00  0.00    -0.388 OA
HETATM   13  C1  UNL     1      16.977   6.022  12.546  1.00  0.00     0.202 C 
ENDBRANCH   1  12
TORSDOF 1
ENDMDL
MODEL 4
REMARK VINA RESULT: -4.894260630      1.770      3.761
REMARK  1 active torsions:
REMARK  status: ('A' for Active; 'I' for Inactive)
REMARK    1  A    between atoms: O1_2  and  C2_3 
ROOT
HETATM    1  C2  UNL     1      17.971  -0.321  11.454  1.00  0.00     0.157 C 
HETATM    2  C3  UNL     1      17.399  -0.016  10.086  1.00  0.00     0.038 C 
HETATM    3  C4  UNL     1      16.254   0.666  10.769  1.00  0.00     0.045 C 
HETATM    4  C5  UNL     1      17.183   0.863  11.980  1.00  0.00     0.110 C 
HETATM    5  C6  UNL     1      17.956   2.106  11.893  1.00  0.00     0.273 C 
HETATM    6  N1  UNL     1      17.896   3.010  12.984  1.00  0.00    -0.070 N 
ATOM      7  H11 UNL     1      18.020   3.975  12.677  1.00  0.00     0.277 HD
ATOM      8  H12 UNL     1      18.717   2.929  13.583  1.00  0.00     0.277 HD
HETATM    9  C7  UNL     1      16.685   2.847  13.729  1.00  0.00     0.258 C 
HETATM   10  C8  UNL     1      16.699   1.385  14.198  1.00  0.00     0.196 C 
HETATM   11  O2  UNL     1      16.478   0.611  13.107  1.00  0.00    -0.374 OA
ENDROOT
BRANCH   1  12
HETATM   12  O1  UNL     1      17.551  -1.554  11.883  1.00  0.00    -0.388 OA
HETATM   13  C1  UNL     1      18.302  -2.516  11.213  1.00  0.00     0.202 C 
ENDBRANCH   1  12
TORSDOF 1
ENDMDL
MODEL 5
REMARK VINA RESULT: -4.863666840      1.913      2.690
REMARK  1 active torsions:
REMARK  status: ('A' for Active; 'I' for Inactive)
REMARK    1  A    between atoms: O1_2  and  C2_3 
ROOT
HETATM    1  C2  UNL     1      15.328   1.917  15.497  1.00  0.00     0.157 C 
HETATM    2  C3  UNL     1      16.160   2.836  16.366  1.00  0.00     0.038 C 
HETATM    3  C4  UNL     1      17.384   2.244  15.737  1.00  0.00     0.045 C 
HETATM    4  C5  UNL     1      16.500   1.865  14.536  1.00  0.00     0.110 C 
HETATM    5  C6  UNL     1      16.427   2.937  13.538  1.00  0.00     0.273 C 
HETATM    6  N1  UNL     1      16.754   2.625  12.194  1.00  0.00    -0.070 N 
ATOM      7  H11 UNL     1      17.145   3.431  11.707  1.00  0.00     0.277 HD
ATOM      8  H12 UNL     1      15.917   2.489  11.627  1.00  0.00     0.277 HD
HETATM    9  C7  UNL     1      17.628   1.494  12.121  1.00  0.00     0.258 C 
HETATM   10  C8  UNL     1      16.860   0.352  12.802  1.00  0.00     0.196 C 
HETATM   11  O2  UNL     1      16.838   0.619  14.131  1.00  0.00    -0.374 OA
ENDROOT
BRANCH   1  12
HETATM   12  O1  UNL     1      15.051   0.751  16.162  1.00  0.00    -0.388 OA
HETATM   13  C1  UNL     1      14.038   1.014  17.080  1.00  0.00     0.202 C 
ENDBRANCH   1  12
TORSDOF 1
ENDMDL
