MODEL 1
REMARK VINA RESULT: -5.439684857      0.000      0.000
REMARK  3 active torsions:
REMARK  status: ('A' for Active; 'I' for Inactive)
REMARK    1  A    between atoms: O1_2  and  C2_3 
REMARK    2  A    between atoms: C2_3  and  O2_4 
REMARK    3  A    between atoms: C2_3  and  C3_6 
ROOT
HETATM    1  C3  UNL     1      15.528   1.562  15.609  1.00  0.00     0.277 C 
HETATM    2  C4  UNL     1      15.588   2.961  16.172  1.00  0.00     0.047 C 
HETATM    3  C5  UNL     1      14.509   2.955  17.199  1.00  0.00     0.018 C 
HETATM    4  C6  UNL     1      15.079   2.282  18.446  1.00  0.00     0.036 C 
HETATM    5  C7  UNL     1      15.339   0.887  17.917  1.00  0.00     0.273 C 
HETATM    6  N1  UNL     1      14.741   0.823  16.580  1.00  0.00     0.098 N 
HETATM    7  C8  UNL     1      13.628   1.789  16.720  1.00  0.00     0.277 C 
ENDROOT
BRANCH   1   8
HETATM    8  C2  UNL     1      16.897   0.980  15.379  1.00  0.00     0.289 C 
BRANCH   8   9
HETATM    9  O1  UNL     1      17.309   1.175  14.084  1.00  0.00    -0.364 OA
HETATM   10  C1  UNL     1      16.893   0.228  13.180  1.00  0.00     0.204 C 
ENDBRANCH   8   9
BRANCH   8  11
HETATM   11  O2  UNL     1      17.771   1.744  16.189  1.00  0.00    -0.369 OA
ATOM     12  H2  UNL     1      18.259   1.120  16.713  1.00  0.00     0.212 HD
ENDBRANCH   8  11
ENDBRANCH   1   8
TORSDOF 3
ENDMDL
MODEL 2
REMARK VINA RESULT: -5.301210588      2.256      2.964
REMARK  3 active torsions:
REMARK  status: ('A' for Active; 'I' for Inactive)
REMARK    1  A    between atoms: O1_2  and  C2_3 
REMARK    2  A    between atoms: C2_3  and  O2_4 
REMARK    3  A    between atoms: C2_3  and  C3_6 
ROOT
HETATM    1  C3  UNL     1      16.851   2.243  14.460  1.00  0.00     0.277 C 
HETATM    2  C4  UNL     1      17.513   3.325  15.278  1.00  0.00     0.047 C 
HETATM    3  C5  UNL     1      16.922   4.574  14.720  1.00  0.00     0.018 C 
HETATM    4  C6  UNL     1      15.546   4.744  15.359  1.00  0.00     0.036 C 
HETATM    5  C7  UNL     1      14.835   3.518  14.825  1.00  0.00     0.273 C 
HETATM    6  N1  UNL     1      15.726   2.913  13.830  1.00  0.00     0.098 N 
HETATM    7  C8  UNL     1      16.450   4.106  13.334  1.00  0.00     0.277 C 
ENDROOT
BRANCH   1   8
HETATM    8  C2  UNL     1      16.450   1.058  15.297  1.00  0.00     0.289 C 
BRANCH   8   9
HETATM    9  O1  UNL     1      16.435  -0.095  14.552  1.00  0.00    -0.364 OA
HETATM   10  C1  UNL     1      16.935   0.016  13.277  1.00  0.00     0.204 C 
ENDBRANCH   8   9
BRANCH   8  11
HETATM   11  O2  UNL     1      17.489   0.900  16.246  1.00  0.00    -0.369 OA
ATOM     12  H2  UNL     1      17.503   1.700  16.758  1.00  0.00     0.212 HD
ENDBRANCH   8  11
ENDBRANCH   1   8
TORSDOF 3
ENDMDL
MODEL 3
REMARK VINA RESULT: -5.284484608      2.315      3.479
REMARK  3 active torsions:
REMARK  status: ('A' for Active; 'I' for Inactive)
REMARK    1  A    between atoms: O1_2  and  C2_3 
REMARK    2  A    between atoms: C2_3  and  O2_4 
REMARK    3  A    between atoms: C2_3  and  C3_6 
ROOT
HETATM    1  C3  UNL     1      16.808   2.456  14.846  1.00  0.00     0.277 C 
HETATM    2  C4  UNL     1      17.664   3.668  15.125  1.00  0.00     0.047 C 
HETATM    3  C5  UNL     1      17.075   4.706  14.234  1.00  0.00     0.018 C 
HETATM    4  C6  UNL     1      15.835   5.251  14.938  1.00  0.00     0.036 C 
HETATM    5  C7  UNL     1      14.968   4.011  14.979  1.00  0.00     0.273 C 
HETATM    6  N1  UNL     1      15.644   2.995  14.165  1.00  0.00     0.098 N 
HETATM    7  C8  UNL     1      16.354   3.845  13.183  1.00  0.00     0.277 C 
ENDROOT
BRANCH   1   8
HETATM    8  C2  UNL     1      16.471   1.694  16.098  1.00  0.00     0.289 C 
BRANCH   8   9
HETATM    9  O1  UNL     1      15.361   0.907  15.917  1.00  0.00    -0.364 OA
HETATM   10  C1  UNL     1      14.450   0.922  16.945  1.00  0.00     0.204 C 
ENDBRANCH   8   9
BRANCH   8  11
HETATM   11  O2  UNL     1      17.554   0.804  16.300  1.00  0.00    -0.369 OA
ATOM     12  H2  UNL     1      18.140   1.237  16.910  1.00  0.00     0.212 HD
ENDBRANCH   8  11
ENDBRANCH   1   8
TORSDOF 3
ENDMDL
MODEL 4
REMARK VINA RESULT: -5.216903437      1.592      2.572
REMARK  3 active torsions:
REMARK  status: ('A' for Active; 'I' for Inactive)
REMARK    1  A    between atoms: O1_2  and  C2_3 
REMARK    2  A    between atoms: C2_3  and  O2_4 
REMARK    3  A    between atoms: C2_3  and  C3_6 
ROOT
HETATM    1  C3  UNL     1      16.485   2.186  16.399  1.00  0.00     0.277 C 
HETATM    2  C4  UNL     1      15.964   0.770  16.348  1.00  0.00     0.047 C 
HETATM    3  C5  UNL     1      14.853   0.786  17.341  1.00  0.00     0.018 C 
HETATM    4  C6  UNL     1      13.640   1.402  16.648  1.00  0.00     0.036 C 
HETATM    5  C7  UNL     1      14.152   2.802  16.379  1.00  0.00     0.273 C 
HETATM    6  N1  UNL     1      15.435   2.925  17.078  1.00  0.00     0.098 N 
HETATM    7  C8  UNL     1      15.230   1.995  18.212  1.00  0.00     0.277 C 
ENDROOT
BRANCH   1   8
HETATM    8  C2  UNL     1      16.810   2.725  15.033  1.00  0.00     0.289 C 
BRANCH   8   9
HETATM    9  O1  UNL     1      17.986   3.433  15.044  1.00  0.00    -0.364 OA
HETATM   10  C1  UNL     1      17.896   4.739  14.628  1.00  0.00     0.204 C 
ENDBRANCH   8   9
BRANCH   8  11
HETATM   11  O2  UNL     1      17.045   1.586  14.225  1.00  0.00    -0.369 OA
ATOM     12  H2  UNL     1      17.264   1.915  13.361  1.00  0.00     0.212 HD
ENDBRANCH   8  11
ENDBRANCH   1   8
TORSDOF 3
ENDMDL
MODEL 5
REMARK VINA RESULT: -5.182396941      2.284      3.672
REMARK  3 active torsions:
REMARK  status: ('A' for Active; 'I' for Inactive)
REMARK    1  A    between atoms: O1_2  and  C2_3 
REMARK    2  A    between atoms: C2_3  and  O2_4 
REMARK    3  A    between atoms: C2_3  and  C3_6 
ROOT
HETATM    1  C3  UNL     1      16.118   2.056  14.947  1.00  0.00     0.277 C 
HETATM    2  C4  UNL     1      16.500   2.106  13.487  1.00  0.00     0.047 C 
HETATM    3  C5  UNL     1      16.616   3.567  13.221  1.00  0.00     0.018 C 
HETATM    4  C6  UNL     1      17.984   4.010  13.735  1.00  0.00     0.036 C 
HETATM    5  C7  UNL     1      17.830   3.735  15.216  1.00  0.00     0.273 C 
HETATM    6  N1  UNL     1      16.422   3.389  15.438  1.00  0.00     0.098 N 
HETATM    7  C8  UNL     1      15.767   4.161  14.357  1.00  0.00     0.277 C 
ENDROOT
BRANCH   1   8
HETATM    8  C2  UNL     1      16.839   0.965  15.690  1.00  0.00     0.289 C 
BRANCH   8   9
HETATM    9  O1  UNL     1      16.456   0.923  17.007  1.00  0.00    -0.364 OA
HETATM   10  C1  UNL     1      15.126   0.660  17.230  1.00  0.00     0.204 C 
ENDBRANCH   8   9
BRANCH   8  11
HETATM   11  O2  UNL     1      16.387  -0.246  15.111  1.00  0.00    -0.369 OA
ATOM     12  H2  UNL     1      16.279  -0.858  15.830  1.00  0.00     0.212 HD
ENDBRANCH   8  11
ENDBRANCH   1   8
TORSDOF 3
ENDMDL
