MODEL 1
REMARK VINA RESULT: -6.461951847      0.000      0.000
REMARK  3 active torsions:
REMARK  status: ('A' for Active; 'I' for Inactive)
REMARK    1  A    between atoms: S1_2  and  C2_3 
REMARK    2  A    between atoms: N2_6  and  N3_8 
REMARK       I    between atoms: N3_8  and  C4_10 
REMARK    3  A    between atoms: C4_10  and  C5_12 
ROOT
HETATM    1  C2  UNL     1      44.182   6.640  17.228  1.00  0.00     0.166 C 
HETATM    2  C3  UNL     1      44.205   6.630  18.663  1.00  0.00     0.126 C 
HETATM    3  N1  UNL     1      44.241   6.615  19.823  1.00  0.00    -0.189 NA
HETATM    4  N2  UNL     1      45.021   5.985  16.536  1.00  0.00    -0.282 N 
ATOM      5  H2  UNL     1      44.964   6.024  15.519  1.00  0.00     0.188 HD
ENDROOT
BRANCH   1   6
HETATM    6  S1  UNL     1      42.938   7.602  16.408  1.00  0.00    -0.104 SA
HETATM    7  C1  UNL     1      41.454   6.609  16.058  1.00  0.00     0.098 C 
ENDBRANCH   1   6
BRANCH   4   8
HETATM    8  N3  UNL     1      46.032   5.204  17.140  1.00  0.00    -0.264 N 
HETATM    9  C4  UNL     1      45.965   3.788  17.087  1.00  0.00     0.275 C 
HETATM   10  O1  UNL     1      44.962   3.303  16.458  1.00  0.00    -0.266 OA
ATOM     11  H3  UNL     1      46.812   5.659  17.615  1.00  0.00     0.190 HD
BRANCH   9  12
HETATM   12  C5  UNL     1      46.941   2.900  17.678  1.00  0.00     0.099 A 
HETATM   13  C6  UNL     1      48.097   2.630  16.935  1.00  0.00     0.029 A 
HETATM   14  C7  UNL     1      48.229   3.313  15.620  1.00  0.00     0.069 C 
HETATM   15  N4  UNL     1      49.052   1.795  17.394  1.00  0.00    -0.312 N 
HETATM   16  C8  UNL     1      48.904   1.204  18.588  1.00  0.00     0.326 A 
ATOM     17  H4  UNL     1      49.885   1.614  16.835  1.00  0.00     0.170 HD
HETATM   18  O2  UNL     1      49.829   0.418  18.996  1.00  0.00    -0.247 OA
HETATM   19  N5  UNL     1      47.819   1.438  19.317  1.00  0.00    -0.294 N 
HETATM   20  C9  UNL     1      46.808   2.285  18.891  1.00  0.00     0.120 A 
ATOM     21  H5  UNL     1      47.727   0.978  20.223  1.00  0.00     0.172 HD
HETATM   22  N6  UNL     1      45.776   2.373  19.629  1.00  0.00    -0.384 N 
ATOM     23  H62 UNL     1      45.032   2.996  19.316  1.00  0.00     0.157 HD
ATOM     24  H61 UNL     1      45.676   1.913  20.535  1.00  0.00     0.157 HD
ENDBRANCH   9  12
ENDBRANCH   4   8
TORSDOF 3
ENDMDL
MODEL 2
REMARK VINA RESULT: -6.444668190      2.290      3.194
REMARK  3 active torsions:
REMARK  status: ('A' for Active; 'I' for Inactive)
REMARK    1  A    between atoms: S1_2  and  C2_3 
REMARK    2  A    between atoms: N2_6  and  N3_8 
REMARK       I    between atoms: N3_8  and  C4_10 
REMARK    3  A    between atoms: C4_10  and  C5_12 
ROOT
HETATM    1  C2  UNL     1      43.450   7.024  19.428  1.00  0.00     0.166 C 
HETATM    2  C3  UNL     1      43.617   7.232  18.018  1.00  0.00     0.126 C 
HETATM    3  N1  UNL     1      43.758   7.383  16.876  1.00  0.00    -0.189 NA
HETATM    4  N2  UNL     1      43.963   6.029  20.028  1.00  0.00    -0.282 N 
ATOM      5  H2  UNL     1      43.816   5.925  21.032  1.00  0.00     0.188 HD
ENDROOT
BRANCH   1   6
HETATM    6  S1  UNL     1      42.495   8.200  20.350  1.00  0.00    -0.104 SA
HETATM    7  C1  UNL     1      41.949   9.582  19.300  1.00  0.00     0.098 C 
ENDBRANCH   1   6
BRANCH   4   8
HETATM    8  N3  UNL     1      44.732   5.064  19.341  1.00  0.00    -0.264 N 
HETATM    9  C4  UNL     1      46.074   4.816  19.726  1.00  0.00     0.275 C 
HETATM   10  O1  UNL     1      46.502   5.501  20.719  1.00  0.00    -0.266 OA
ATOM     11  H3  UNL     1      44.322   4.544  18.565  1.00  0.00     0.190 HD
BRANCH   9  12
HETATM   12  C5  UNL     1      46.947   3.858  19.084  1.00  0.00     0.099 A 
HETATM   13  C6  UNL     1      46.715   2.502  19.348  1.00  0.00     0.029 A 
HETATM   14  C7  UNL     1      45.568   2.173  20.235  1.00  0.00     0.069 C 
HETATM   15  N4  UNL     1      47.492   1.537  18.813  1.00  0.00    -0.312 N 
HETATM   16  C8  UNL     1      48.512   1.870  18.010  1.00  0.00     0.326 A 
ATOM     17  H4  UNL     1      47.304   0.556  19.020  1.00  0.00     0.170 HD
HETATM   18  O2  UNL     1      49.230   0.930  17.517  1.00  0.00    -0.247 OA
HETATM   19  N5  UNL     1      48.759   3.146  17.741  1.00  0.00    -0.294 N 
HETATM   20  C9  UNL     1      47.993   4.176  18.266  1.00  0.00     0.120 A 
ATOM     21  H5  UNL     1      49.540   3.378  17.127  1.00  0.00     0.172 HD
HETATM   22  N6  UNL     1      48.368   5.365  18.011  1.00  0.00    -0.384 N 
ATOM     23  H62 UNL     1      47.804   6.122  18.396  1.00  0.00     0.157 HD
ATOM     24  H61 UNL     1      49.149   5.603  17.400  1.00  0.00     0.157 HD
ENDBRANCH   9  12
ENDBRANCH   4   8
TORSDOF 3
ENDMDL
MODEL 3
REMARK VINA RESULT: -6.429911922      1.870      1.949
REMARK  3 active torsions:
REMARK  status: ('A' for Active; 'I' for Inactive)
REMARK    1  A    between atoms: S1_2  and  C2_3 
REMARK    2  A    between atoms: N2_6  and  N3_8 
REMARK       I    between atoms: N3_8  and  C4_10 
REMARK    3  A    between atoms: C4_10  and  C5_12 
ROOT
HETATM    1  C2  UNL     1      43.528   6.260  19.530  1.00  0.00     0.166 C 
HETATM    2  C3  UNL     1      44.292   6.686  20.667  1.00  0.00     0.126 C 
HETATM    3  N1  UNL     1      44.924   7.020  21.582  1.00  0.00    -0.189 NA
HETATM    4  N2  UNL     1      43.833   5.224  18.863  1.00  0.00    -0.282 N 
ATOM      5  H2  UNL     1      43.259   4.961  18.062  1.00  0.00     0.188 HD
ENDROOT
BRANCH   1   6
HETATM    6  S1  UNL     1      42.116   7.220  19.051  1.00  0.00    -0.104 SA
HETATM    7  C1  UNL     1      42.331   8.976  19.475  1.00  0.00     0.098 C 
ENDBRANCH   1   6
BRANCH   4   8
HETATM    8  N3  UNL     1      44.948   4.425  19.202  1.00  0.00    -0.264 N 
HETATM    9  C4  UNL     1      45.513   3.546  18.242  1.00  0.00     0.275 C 
HETATM   10  O1  UNL     1      44.959   3.554  17.089  1.00  0.00    -0.266 OA
ATOM     11  H3  UNL     1      45.348   4.479  20.139  1.00  0.00     0.190 HD
BRANCH   9  12
HETATM   12  C5  UNL     1      46.646   2.682  18.491  1.00  0.00     0.099 A 
HETATM   13  C6  UNL     1      47.913   3.170  18.146  1.00  0.00     0.029 A 
HETATM   14  C7  UNL     1      47.977   4.548  17.591  1.00  0.00     0.069 C 
HETATM   15  N4  UNL     1      49.025   2.427  18.319  1.00  0.00    -0.312 N 
HETATM   16  C8  UNL     1      48.931   1.192  18.830  1.00  0.00     0.326 A 
ATOM     17  H4  UNL     1      49.937   2.804  18.060  1.00  0.00     0.170 HD
HETATM   18  O2  UNL     1      50.006   0.512  18.983  1.00  0.00    -0.247 OA
HETATM   19  N5  UNL     1      47.744   0.699  19.166  1.00  0.00    -0.294 N 
HETATM   20  C9  UNL     1      46.570   1.420  19.007  1.00  0.00     0.120 A 
ATOM     21  H5  UNL     1      47.695  -0.243  19.555  1.00  0.00     0.172 HD
HETATM   22  N6  UNL     1      45.482   0.822  19.283  1.00  0.00    -0.384 N 
ATOM     23  H62 UNL     1      44.619   1.352  19.167  1.00  0.00     0.157 HD
ATOM     24  H61 UNL     1      45.425  -0.121  19.669  1.00  0.00     0.157 HD
ENDBRANCH   9  12
ENDBRANCH   4   8
TORSDOF 3
ENDMDL
MODEL 4
REMARK VINA RESULT: -6.427412783      5.036      6.691
REMARK  3 active torsions:
REMARK  status: ('A' for Active; 'I' for Inactive)
REMARK    1  A    between atoms: S1_2  and  C2_3 
REMARK    2  A    between atoms: N2_6  and  N3_8 
REMARK       I    between atoms: N3_8  and  C4_10 
REMARK    3  A    between atoms: C4_10  and  C5_12 
ROOT
HETATM    1  C2  UNL     1      44.796   1.269  24.571  1.00  0.00     0.166 C 
HETATM    2  C3  UNL     1      45.868   1.965  25.224  1.00  0.00     0.126 C 
HETATM    3  N1  UNL     1      46.739   2.536  25.737  1.00  0.00    -0.189 NA
HETATM    4  N2  UNL     1      44.679   1.247  23.307  1.00  0.00    -0.282 N 
ATOM      5  H2  UNL     1      43.900   0.739  22.888  1.00  0.00     0.188 HD
ENDROOT
BRANCH   1   6
HETATM    6  S1  UNL     1      43.604   0.420  25.571  1.00  0.00    -0.104 SA
HETATM    7  C1  UNL     1      43.676   0.971  27.304  1.00  0.00     0.098 C 
ENDBRANCH   1   6
BRANCH   4   8
HETATM    8  N3  UNL     1      45.601   1.908  22.464  1.00  0.00    -0.264 N 
HETATM    9  C4  UNL     1      45.160   2.510  21.258  1.00  0.00     0.275 C 
HETATM   10  O1  UNL     1      43.906   2.421  21.020  1.00  0.00    -0.266 OA
ATOM     11  H3  UNL     1      46.587   1.953  22.724  1.00  0.00     0.190 HD
BRANCH   9  12
HETATM   12  C5  UNL     1      46.022   3.201  20.325  1.00  0.00     0.099 A 
HETATM   13  C6  UNL     1      46.383   4.518  20.639  1.00  0.00     0.029 A 
HETATM   14  C7  UNL     1      45.875   5.069  21.924  1.00  0.00     0.069 C 
HETATM   15  N4  UNL     1      47.163   5.249  19.817  1.00  0.00    -0.312 N 
HETATM   16  C8  UNL     1      47.610   4.717  18.672  1.00  0.00     0.326 A 
ATOM     17  H4  UNL     1      47.413   6.206  20.067  1.00  0.00     0.170 HD
HETATM   18  O2  UNL     1      48.351   5.437  17.914  1.00  0.00    -0.247 OA
HETATM   19  N5  UNL     1      47.285   3.472  18.344  1.00  0.00    -0.294 N 
HETATM   20  C9  UNL     1      46.485   2.678  19.151  1.00  0.00     0.120 A 
ATOM     21  H5  UNL     1      47.637   3.086  17.468  1.00  0.00     0.172 HD
HETATM   22  N6  UNL     1      46.167   1.531  18.703  1.00  0.00    -0.384 N 
ATOM     23  H62 UNL     1      45.579   0.947  19.297  1.00  0.00     0.157 HD
ATOM     24  H61 UNL     1      46.513   1.140  17.826  1.00  0.00     0.157 HD
ENDBRANCH   9  12
ENDBRANCH   4   8
TORSDOF 3
ENDMDL
MODEL 5
REMARK VINA RESULT: -6.419288870      3.784      6.431
REMARK  3 active torsions:
REMARK  status: ('A' for Active; 'I' for Inactive)
REMARK    1  A    between atoms: S1_2  and  C2_3 
REMARK    2  A    between atoms: N2_6  and  N3_8 
REMARK       I    between atoms: N3_8  and  C4_10 
REMARK    3  A    between atoms: C4_10  and  C5_12 
ROOT
HETATM    1  C2  UNL     1      46.251  -0.890  20.990  1.00  0.00     0.166 C 
HETATM    2  C3  UNL     1      47.362  -1.481  20.300  1.00  0.00     0.126 C 
HETATM    3  N1  UNL     1      48.268  -1.942  19.739  1.00  0.00    -0.189 NA
HETATM    4  N2  UNL     1      45.996   0.352  20.917  1.00  0.00    -0.282 N 
ATOM      5  H2  UNL     1      45.195   0.725  21.426  1.00  0.00     0.188 HD
ENDROOT
BRANCH   1   6
HETATM    6  S1  UNL     1      45.211  -1.936  21.973  1.00  0.00    -0.104 SA
HETATM    7  C1  UNL     1      46.021  -3.525  22.337  1.00  0.00     0.098 C 
ENDBRANCH   1   6
BRANCH   4   8
HETATM    8  N3  UNL     1      46.793   1.230  20.148  1.00  0.00    -0.264 N 
HETATM    9  C4  UNL     1      46.346   1.666  18.874  1.00  0.00     0.275 C 
HETATM   10  O1  UNL     1      45.201   1.229  18.508  1.00  0.00    -0.266 OA
ATOM     11  H3  UNL     1      47.692   1.550  20.509  1.00  0.00     0.190 HD
BRANCH   9  12
HETATM   12  C5  UNL     1      47.088   2.555  18.007  1.00  0.00     0.099 A 
HETATM   13  C6  UNL     1      46.536   3.819  17.760  1.00  0.00     0.029 A 
HETATM   14  C7  UNL     1      45.255   4.142  18.443  1.00  0.00     0.069 C 
HETATM   15  N4  UNL     1      47.145   4.706  16.945  1.00  0.00    -0.312 N 
HETATM   16  C8  UNL     1      48.303   4.384  16.354  1.00  0.00     0.326 A 
ATOM     17  H4  UNL     1      46.724   5.620  16.780  1.00  0.00     0.170 HD
HETATM   18  O2  UNL     1      48.856   5.249  15.587  1.00  0.00    -0.247 OA
HETATM   19  N5  UNL     1      48.852   3.194  16.567  1.00  0.00    -0.294 N 
HETATM   20  C9  UNL     1      48.268   2.245  17.392  1.00  0.00     0.120 A 
ATOM     21  H5  UNL     1      49.735   2.970  16.107  1.00  0.00     0.172 HD
HETATM   22  N6  UNL     1      48.835   1.109  17.461  1.00  0.00    -0.384 N 
ATOM     23  H62 UNL     1      48.406   0.411  18.068  1.00  0.00     0.157 HD
ATOM     24  H61 UNL     1      49.716   0.877  17.001  1.00  0.00     0.157 HD
ENDBRANCH   9  12
ENDBRANCH   4   8
TORSDOF 3
ENDMDL
