MODEL 1
REMARK VINA RESULT: -6.771820305      0.000      0.000
REMARK  4 active torsions:
REMARK  status: ('A' for Active; 'I' for Inactive)
REMARK    1  A    between atoms: C4_9  and  C5_10 
REMARK    2  A    between atoms: C5_10  and  N4_11 
REMARK    3  A    between atoms: N4_11  and  O1_13 
REMARK    4  A    between atoms: C7_20  and  N7_21 
ROOT
HETATM    1  N1  UNL     1      46.383   5.414  21.328  1.00  0.00    -0.080 NA
HETATM    2  C1  UNL     1      45.491   5.535  20.217  1.00  0.00     0.145 A 
HETATM    3  N2  UNL     1      45.824   5.135  18.980  1.00  0.00    -0.337 N 
ATOM      4  H2  UNL     1      46.746   4.729  18.823  1.00  0.00     0.167 HD
HETATM    5  C2  UNL     1      44.977   5.254  17.940  1.00  0.00     0.122 A 
HETATM    6  C3  UNL     1      43.722   5.794  18.100  1.00  0.00     0.134 A 
HETATM    7  N3  UNL     1      43.399   6.193  19.352  1.00  0.00    -0.337 N 
ATOM      8  H3  UNL     1      42.476   6.597  19.507  1.00  0.00     0.167 HD
HETATM    9  C4  UNL     1      44.231   6.083  20.401  1.00  0.00     0.092 A 
HETATM   10  N5  UNL     1      42.950   5.891  17.105  1.00  0.00    -0.358 N 
ATOM     11  H5  UNL     1      42.034   6.299  17.291  1.00  0.00     0.162 HD
HETATM   12  C6  UNL     1      43.199   5.500  15.744  1.00  0.00     0.246 A 
HETATM   13  N6  UNL     1      44.513   4.936  15.587  1.00  0.00    -0.358 N 
ATOM     14  H6  UNL     1      44.831   4.611  14.673  1.00  0.00     0.162 HD
HETATM   15  C7  UNL     1      45.360   4.838  16.720  1.00  0.00     0.131 A 
ENDROOT
BRANCH   9  16
HETATM   16  C5  UNL     1      43.820   6.532  21.720  1.00  0.00     0.146 C 
BRANCH  16  17
HETATM   17  N4  UNL     1      44.061   7.751  22.062  1.00  0.00    -0.278 N 
ATOM     18  H4  UNL     1      43.388   8.488  21.847  1.00  0.00     0.193 HD
BRANCH  17  19
HETATM   19  O1  UNL     1      45.227   8.050  22.716  1.00  0.00    -0.290 OA
ATOM     20  H1  UNL     1      45.229   8.729  23.380  1.00  0.00     0.244 HD
ENDBRANCH  17  19
ENDBRANCH  16  17
ENDBRANCH   9  16
BRANCH  15  21
HETATM   21  N7  UNL     1      46.666   4.291  16.627  1.00  0.00    -0.366 N 
HETATM   22  C8  UNL     1      47.856   5.063  16.355  1.00  0.00     0.124 C 
HETATM   23  C9  UNL     1      49.019   4.120  16.678  1.00  0.00     0.021 C 
HETATM   24  C10 UNL     1      48.448   2.773  16.306  1.00  0.00     0.021 C 
HETATM   25  C11 UNL     1      47.003   2.907  16.785  1.00  0.00     0.124 C 
ENDBRANCH  15  21
TORSDOF 4
ENDMDL
MODEL 2
REMARK VINA RESULT: -6.436145658      2.351      3.577
REMARK  4 active torsions:
REMARK  status: ('A' for Active; 'I' for Inactive)
REMARK    1  A    between atoms: C4_9  and  C5_10 
REMARK    2  A    between atoms: C5_10  and  N4_11 
REMARK    3  A    between atoms: N4_11  and  O1_13 
REMARK    4  A    between atoms: C7_20  and  N7_21 
ROOT
HETATM    1  N1  UNL     1      44.358   6.771  18.988  1.00  0.00    -0.080 NA
HETATM    2  C1  UNL     1      44.399   5.607  19.816  1.00  0.00     0.145 A 
HETATM    3  N2  UNL     1      45.095   4.509  19.479  1.00  0.00    -0.337 N 
ATOM      4  H2  UNL     1      45.615   4.503  18.602  1.00  0.00     0.167 HD
HETATM    5  C2  UNL     1      45.128   3.416  20.266  1.00  0.00     0.122 A 
HETATM    6  C3  UNL     1      44.445   3.376  21.459  1.00  0.00     0.134 A 
HETATM    7  N3  UNL     1      43.749   4.488  21.787  1.00  0.00    -0.337 N 
ATOM      8  H3  UNL     1      43.232   4.493  22.666  1.00  0.00     0.167 HD
HETATM    9  C4  UNL     1      43.704   5.587  21.015  1.00  0.00     0.092 A 
HETATM   10  N5  UNL     1      44.496   2.337  22.175  1.00  0.00    -0.358 N 
ATOM     11  H5  UNL     1      43.970   2.371  23.047  1.00  0.00     0.162 HD
HETATM   12  C6  UNL     1      45.203   1.111  21.916  1.00  0.00     0.246 A 
HETATM   13  N6  UNL     1      45.913   1.164  20.666  1.00  0.00    -0.358 N 
ATOM     14  H6  UNL     1      46.463   0.364  20.349  1.00  0.00     0.162 HD
HETATM   15  C7  UNL     1      45.840   2.343  19.881  1.00  0.00     0.131 A 
ENDROOT
BRANCH   9  16
HETATM   16  C5  UNL     1      42.935   6.749  21.427  1.00  0.00     0.146 C 
BRANCH  16  17
HETATM   17  N4  UNL     1      43.555   7.739  21.973  1.00  0.00    -0.278 N 
ATOM     18  H4  UNL     1      43.037   8.561  22.284  1.00  0.00     0.193 HD
BRANCH  17  19
HETATM   19  O1  UNL     1      44.914   7.678  22.131  1.00  0.00    -0.290 OA
ATOM     20  H1  UNL     1      45.355   8.342  22.648  1.00  0.00     0.244 HD
ENDBRANCH  17  19
ENDBRANCH  16  17
ENDBRANCH   9  16
BRANCH  15  21
HETATM   21  N7  UNL     1      46.519   2.453  18.640  1.00  0.00    -0.366 N 
HETATM   22  C8  UNL     1      45.890   2.300  17.350  1.00  0.00     0.124 C 
HETATM   23  C9  UNL     1      46.920   2.825  16.345  1.00  0.00     0.021 C 
HETATM   24  C10 UNL     1      48.226   2.454  17.006  1.00  0.00     0.021 C 
HETATM   25  C11 UNL     1      47.916   2.730  18.477  1.00  0.00     0.124 C 
ENDBRANCH  15  21
TORSDOF 4
ENDMDL
MODEL 3
REMARK VINA RESULT: -6.255999846      3.347      5.355
REMARK  4 active torsions:
REMARK  status: ('A' for Active; 'I' for Inactive)
REMARK    1  A    between atoms: C4_9  and  C5_10 
REMARK    2  A    between atoms: C5_10  and  N4_11 
REMARK    3  A    between atoms: N4_11  and  O1_13 
REMARK    4  A    between atoms: C7_20  and  N7_21 
ROOT
HETATM    1  N1  UNL     1      44.103   2.077  20.340  1.00  0.00    -0.080 NA
HETATM    2  C1  UNL     1      45.124   2.225  19.351  1.00  0.00     0.145 A 
HETATM    3  N2  UNL     1      45.136   3.242  18.475  1.00  0.00    -0.337 N 
ATOM      4  H2  UNL     1      44.390   3.937  18.514  1.00  0.00     0.167 HD
HETATM    5  C2  UNL     1      46.102   3.374  17.547  1.00  0.00     0.122 A 
HETATM    6  C3  UNL     1      47.130   2.464  17.455  1.00  0.00     0.134 A 
HETATM    7  N3  UNL     1      47.108   1.445  18.343  1.00  0.00    -0.337 N 
ATOM      8  H3  UNL     1      47.856   0.753  18.304  1.00  0.00     0.167 HD
HETATM    9  C4  UNL     1      46.152   1.298  19.275  1.00  0.00     0.092 A 
HETATM   10  N5  UNL     1      48.023   2.615  16.573  1.00  0.00    -0.358 N 
ATOM     11  H5  UNL     1      48.757   1.908  16.558  1.00  0.00     0.162 HD
HETATM   12  C6  UNL     1      48.134   3.657  15.589  1.00  0.00     0.246 A 
HETATM   13  N6  UNL     1      47.055   4.603  15.694  1.00  0.00    -0.358 N 
ATOM     14  H6  UNL     1      47.002   5.400  15.059  1.00  0.00     0.162 HD
HETATM   15  C7  UNL     1      46.066   4.411  16.692  1.00  0.00     0.131 A 
ENDROOT
BRANCH   9  16
HETATM   16  C5  UNL     1      46.188   0.178  20.200  1.00  0.00     0.146 C 
BRANCH  16  17
HETATM   17  N4  UNL     1      47.074  -0.741  20.025  1.00  0.00    -0.278 N 
ATOM     18  H4  UNL     1      46.794  -1.676  19.727  1.00  0.00     0.193 HD
BRANCH  17  19
HETATM   19  O1  UNL     1      48.396  -0.453  20.243  1.00  0.00    -0.290 OA
ATOM     20  H1  UNL     1      49.007  -1.161  20.407  1.00  0.00     0.244 HD
ENDBRANCH  17  19
ENDBRANCH  16  17
ENDBRANCH   9  16
BRANCH  15  21
HETATM   21  N7  UNL     1      44.979   5.309  16.843  1.00  0.00    -0.366 N 
HETATM   22  C8  UNL     1      43.814   5.332  15.991  1.00  0.00     0.124 C 
HETATM   23  C9  UNL     1      42.802   6.212  16.729  1.00  0.00     0.021 C 
HETATM   24  C10 UNL     1      43.697   7.206  17.430  1.00  0.00     0.021 C 
HETATM   25  C11 UNL     1      44.869   6.321  17.853  1.00  0.00     0.124 C 
ENDBRANCH  15  21
TORSDOF 4
ENDMDL
MODEL 4
REMARK VINA RESULT: -6.108612351      5.940      7.215
REMARK  4 active torsions:
REMARK  status: ('A' for Active; 'I' for Inactive)
REMARK    1  A    between atoms: C4_9  and  C5_10 
REMARK    2  A    between atoms: C5_10  and  N4_11 
REMARK    3  A    between atoms: N4_11  and  O1_13 
REMARK    4  A    between atoms: C7_20  and  N7_21 
ROOT
HETATM    1  N1  UNL     1      48.510  -2.093  19.574  1.00  0.00    -0.080 NA
HETATM    2  C1  UNL     1      47.512  -1.340  20.267  1.00  0.00     0.145 A 
HETATM    3  N2  UNL     1      47.059  -0.159  19.817  1.00  0.00    -0.337 N 
ATOM      4  H2  UNL     1      47.437   0.217  18.948  1.00  0.00     0.167 HD
HETATM    5  C2  UNL     1      46.119   0.543  20.477  1.00  0.00     0.122 A 
HETATM    6  C3  UNL     1      45.576   0.078  21.652  1.00  0.00     0.134 A 
HETATM    7  N3  UNL     1      46.040  -1.113  22.095  1.00  0.00    -0.337 N 
ATOM      8  H3  UNL     1      45.658  -1.488  22.963  1.00  0.00     0.167 HD
HETATM    9  C4  UNL     1      46.978  -1.827  21.450  1.00  0.00     0.092 A 
HETATM   10  N5  UNL     1      44.695   0.760  22.248  1.00  0.00    -0.358 N 
ATOM     11  H5  UNL     1      44.332   0.359  23.113  1.00  0.00     0.162 HD
HETATM   12  C6  UNL     1      44.139   2.028  21.862  1.00  0.00     0.246 A 
HETATM   13  N6  UNL     1      44.713   2.506  20.633  1.00  0.00    -0.358 N 
ATOM     14  H6  UNL     1      44.415   3.396  20.233  1.00  0.00     0.162 HD
HETATM   15  C7  UNL     1      45.700   1.721  19.983  1.00  0.00     0.131 A 
ENDROOT
BRANCH   9  16
HETATM   16  C5  UNL     1      47.433  -3.100  21.981  1.00  0.00     0.146 C 
BRANCH  16  17
HETATM   17  N4  UNL     1      47.333  -4.151  21.241  1.00  0.00    -0.278 N 
ATOM     18  H4  UNL     1      46.415  -4.526  21.001  1.00  0.00     0.193 HD
BRANCH  17  19
HETATM   19  O1  UNL     1      48.470  -4.759  20.778  1.00  0.00    -0.290 OA
ATOM     20  H1  UNL     1      48.506  -5.061  19.878  1.00  0.00     0.244 HD
ENDBRANCH  17  19
ENDBRANCH  16  17
ENDBRANCH   9  16
BRANCH  15  21
HETATM   21  N7  UNL     1      46.302   2.140  18.769  1.00  0.00    -0.366 N 
HETATM   22  C8  UNL     1      47.654   2.634  18.656  1.00  0.00     0.124 C 
HETATM   23  C9  UNL     1      47.948   2.638  17.153  1.00  0.00     0.021 C 
HETATM   24  C10 UNL     1      46.592   2.942  16.565  1.00  0.00     0.021 C 
HETATM   25  C11 UNL     1      45.670   2.138  17.482  1.00  0.00     0.124 C 
ENDBRANCH  15  21
TORSDOF 4
ENDMDL
MODEL 5
REMARK VINA RESULT: -6.103562018      3.432      4.524
REMARK  4 active torsions:
REMARK  status: ('A' for Active; 'I' for Inactive)
REMARK    1  A    between atoms: C4_9  and  C5_10 
REMARK    2  A    between atoms: C5_10  and  N4_11 
REMARK    3  A    between atoms: N4_11  and  O1_13 
REMARK    4  A    between atoms: C7_20  and  N7_21 
ROOT
HETATM    1  N1  UNL     1      45.686   0.394  22.697  1.00  0.00    -0.080 NA
HETATM    2  C1  UNL     1      45.348   1.774  22.537  1.00  0.00     0.145 A 
HETATM    3  N2  UNL     1      45.551   2.437  21.388  1.00  0.00    -0.337 N 
ATOM      4  H2  UNL     1      45.960   1.940  20.597  1.00  0.00     0.167 HD
HETATM    5  C2  UNL     1      45.229   3.736  21.247  1.00  0.00     0.122 A 
HETATM    6  C3  UNL     1      44.674   4.449  22.284  1.00  0.00     0.134 A 
HETATM    7  N3  UNL     1      44.474   3.771  23.437  1.00  0.00    -0.337 N 
ATOM      8  H3  UNL     1      44.063   4.268  24.226  1.00  0.00     0.167 HD
HETATM    9  C4  UNL     1      44.789   2.474  23.595  1.00  0.00     0.092 A 
HETATM   10  N5  UNL     1      44.382   5.667  22.121  1.00  0.00    -0.358 N 
ATOM     11  H5  UNL     1      43.972   6.139  22.927  1.00  0.00     0.162 HD
HETATM   12  C6  UNL     1      44.555   6.474  20.943  1.00  0.00     0.246 A 
HETATM   13  N6  UNL     1      45.136   5.720  19.865  1.00  0.00    -0.358 N 
ATOM     14  H6  UNL     1      45.317   6.161  18.963  1.00  0.00     0.162 HD
HETATM   15  C7  UNL     1      45.454   4.353  20.074  1.00  0.00     0.131 A 
ENDROOT
BRANCH   9  16
HETATM   16  C5  UNL     1      44.548   1.804  24.862  1.00  0.00     0.146 C 
BRANCH  16  17
HETATM   17  N4  UNL     1      45.419   1.930  25.804  1.00  0.00    -0.278 N 
ATOM     18  H4  UNL     1      45.346   1.365  26.650  1.00  0.00     0.193 HD
BRANCH  17  19
HETATM   19  O1  UNL     1      46.442   2.830  25.660  1.00  0.00    -0.290 OA
ATOM     20  H1  UNL     1      46.701   3.365  26.400  1.00  0.00     0.244 HD
ENDBRANCH  17  19
ENDBRANCH  16  17
ENDBRANCH   9  16
BRANCH  15  21
HETATM   21  N7  UNL     1      46.029   3.559  19.049  1.00  0.00    -0.366 N 
HETATM   22  C8  UNL     1      45.272   2.789  18.091  1.00  0.00     0.124 C 
HETATM   23  C9  UNL     1      46.286   2.389  17.017  1.00  0.00     0.021 C 
HETATM   24  C10 UNL     1      47.557   2.241  17.819  1.00  0.00     0.021 C 
HETATM   25  C11 UNL     1      47.433   3.400  18.808  1.00  0.00     0.124 C 
ENDBRANCH  15  21
TORSDOF 4
ENDMDL
