MODEL 1
REMARK VINA RESULT: -6.720035775      0.000      0.000
REMARK  6 active torsions:
REMARK  status: ('A' for Active; 'I' for Inactive)
REMARK    1  A    between atoms: O1_2  and  C2_3 
REMARK    2  A    between atoms: C2_3  and  C3_5 
REMARK    3  A    between atoms: C5_7  and  O3_8 
REMARK    4  A    between atoms: C7_10  and  O4_11 
REMARK    5  A    between atoms: C9_13  and  O5_14 
REMARK    6  A    between atoms: O5_14  and  C10_15 
ROOT
HETATM    1  C3  UNL     1      25.275   2.096  -2.785  1.00  0.00     0.065 A 
HETATM    2  C4  UNL     1      24.832   2.155  -1.457  1.00  0.00     0.059 A 
HETATM    3  C5  UNL     1      25.342   1.326  -0.496  1.00  0.00     0.105 A 
HETATM    4  C7  UNL     1      26.327   0.414  -0.899  1.00  0.00     0.137 A 
HETATM    5  C9  UNL     1      26.768   0.348  -2.189  1.00  0.00     0.134 A 
HETATM    6  C16 UNL     1      26.233   1.206  -3.174  1.00  0.00     0.097 A 
HETATM    7  C17 UNL     1      26.656   1.096  -4.560  1.00  0.00     0.103 C 
HETATM    8  N1  UNL     1      27.012   0.987  -5.665  1.00  0.00    -0.191 NA
ENDROOT
BRANCH   1   9
HETATM    9  C2  UNL     1      24.675   3.023  -3.746  1.00  0.00     0.294 C 
HETATM   10  O2  UNL     1      25.378   3.960  -4.233  1.00  0.00    -0.259 OA
BRANCH   9  11
HETATM   11  O1  UNL     1      23.368   2.943  -4.162  1.00  0.00    -0.322 OA
HETATM   12  C1  UNL     1      23.005   2.406  -5.399  1.00  0.00     0.213 C 
ENDBRANCH   9  11
ENDBRANCH   1   9
BRANCH   5  13
HETATM   13  O5  UNL     1      27.723  -0.519  -2.623  1.00  0.00    -0.300 OA
BRANCH  13  14
HETATM   14  C10 UNL     1      27.634  -1.807  -3.063  1.00  0.00     0.156 A 
HETATM   15  C11 UNL     1      28.275  -2.073  -4.285  1.00  0.00     0.156 A 
HETATM   16  F1  UNL     1      28.981  -1.109  -4.941  1.00  0.00    -0.203 F 
HETATM   17  C12 UNL     1      28.270  -3.322  -4.866  1.00  0.00     0.090 A 
HETATM   18  C13 UNL     1      27.622  -4.380  -4.261  1.00  0.00     0.161 A 
HETATM   19  F2  UNL     1      27.601  -5.606  -4.807  1.00  0.00    -0.203 F 
HETATM   20  C14 UNL     1      27.000  -4.120  -3.075  1.00  0.00     0.196 A 
HETATM   21  F3  UNL     1      26.344  -5.136  -2.433  1.00  0.00    -0.199 F 
HETATM   22  C15 UNL     1      26.997  -2.858  -2.473  1.00  0.00     0.194 A 
HETATM   23  F4  UNL     1      26.328  -2.700  -1.294  1.00  0.00    -0.200 F 
ENDBRANCH  13  14
ENDBRANCH   5  13
BRANCH   4  24
HETATM   24  O4  UNL     1      26.809  -0.410   0.133  1.00  0.00    -0.351 OA
HETATM   25  C8  UNL     1      27.768   0.158   1.018  1.00  0.00     0.210 C 
ENDBRANCH   4  24
BRANCH   3  26
HETATM   26  O3  UNL     1      24.913   1.374   0.822  1.00  0.00    -0.353 OA
HETATM   27  C6  UNL     1      23.676   0.919   1.267  1.00  0.00     0.210 C 
ENDBRANCH   3  26
TORSDOF 6
ENDMDL
MODEL 2
REMARK VINA RESULT: -6.569881534      1.705      3.722
REMARK  6 active torsions:
REMARK  status: ('A' for Active; 'I' for Inactive)
REMARK    1  A    between atoms: O1_2  and  C2_3 
REMARK    2  A    between atoms: C2_3  and  C3_5 
REMARK    3  A    between atoms: C5_7  and  O3_8 
REMARK    4  A    between atoms: C7_10  and  O4_11 
REMARK    5  A    between atoms: C9_13  and  O5_14 
REMARK    6  A    between atoms: O5_14  and  C10_15 
ROOT
HETATM    1  C3  UNL     1      25.897   2.048  -1.136  1.00  0.00     0.065 A 
HETATM    2  C4  UNL     1      25.272   2.688  -2.214  1.00  0.00     0.059 A 
HETATM    3  C5  UNL     1      25.424   2.239  -3.498  1.00  0.00     0.105 A 
HETATM    4  C7  UNL     1      26.233   1.110  -3.685  1.00  0.00     0.137 A 
HETATM    5  C9  UNL     1      26.846   0.476  -2.643  1.00  0.00     0.134 A 
HETATM    6  C16 UNL     1      26.684   0.949  -1.323  1.00  0.00     0.097 A 
HETATM    7  C17 UNL     1      27.385   0.314  -0.219  1.00  0.00     0.103 C 
HETATM    8  N1  UNL     1      27.958  -0.214   0.649  1.00  0.00    -0.191 NA
ENDROOT
BRANCH   1   9
HETATM    9  C2  UNL     1      25.676   2.596   0.203  1.00  0.00     0.294 C 
HETATM   10  O2  UNL     1      26.428   3.525   0.631  1.00  0.00    -0.259 OA
BRANCH   9  11
HETATM   11  O1  UNL     1      24.684   2.157   1.047  1.00  0.00    -0.322 OA
HETATM   12  C1  UNL     1      24.954   1.595   2.296  1.00  0.00     0.213 C 
ENDBRANCH   9  11
ENDBRANCH   1   9
BRANCH   5  13
HETATM   13  O5  UNL     1      27.636  -0.623  -2.780  1.00  0.00    -0.300 OA
BRANCH  13  14
HETATM   14  C10 UNL     1      27.348  -1.891  -3.191  1.00  0.00     0.156 A 
HETATM   15  C11 UNL     1      28.089  -2.352  -4.292  1.00  0.00     0.156 A 
HETATM   16  F1  UNL     1      29.064  -1.588  -4.861  1.00  0.00    -0.203 F 
HETATM   17  C12 UNL     1      27.910  -3.607  -4.831  1.00  0.00     0.090 A 
HETATM   18  C13 UNL     1      26.979  -4.477  -4.301  1.00  0.00     0.161 A 
HETATM   19  F2  UNL     1      26.784  -5.705  -4.808  1.00  0.00    -0.203 F 
HETATM   20  C14 UNL     1      26.260  -4.028  -3.233  1.00  0.00     0.196 A 
HETATM   21  F3  UNL     1      25.324  -4.853  -2.668  1.00  0.00    -0.199 F 
HETATM   22  C15 UNL     1      26.430  -2.758  -2.674  1.00  0.00     0.194 A 
HETATM   23  F4  UNL     1      25.647  -2.400  -1.616  1.00  0.00    -0.200 F 
ENDBRANCH  13  14
ENDBRANCH   5  13
BRANCH   4  24
HETATM   24  O4  UNL     1      26.350   0.700  -5.025  1.00  0.00    -0.351 OA
HETATM   25  C8  UNL     1      27.587   0.968  -5.676  1.00  0.00     0.210 C 
ENDBRANCH   4  24
BRANCH   3  26
HETATM   26  O3  UNL     1      24.812   2.864  -4.574  1.00  0.00    -0.353 OA
HETATM   27  C6  UNL     1      23.466   2.737  -4.899  1.00  0.00     0.210 C 
ENDBRANCH   3  26
TORSDOF 6
ENDMDL
MODEL 3
REMARK VINA RESULT: -6.566308636      1.811      4.099
REMARK  6 active torsions:
REMARK  status: ('A' for Active; 'I' for Inactive)
REMARK    1  A    between atoms: O1_2  and  C2_3 
REMARK    2  A    between atoms: C2_3  and  C3_5 
REMARK    3  A    between atoms: C5_7  and  O3_8 
REMARK    4  A    between atoms: C7_10  and  O4_11 
REMARK    5  A    between atoms: C9_13  and  O5_14 
REMARK    6  A    between atoms: O5_14  and  C10_15 
ROOT
HETATM    1  C3  UNL     1      26.009   2.060  -1.032  1.00  0.00     0.065 A 
HETATM    2  C4  UNL     1      25.475   2.660  -2.180  1.00  0.00     0.059 A 
HETATM    3  C5  UNL     1      25.671   2.126  -3.424  1.00  0.00     0.105 A 
HETATM    4  C7  UNL     1      26.432   0.951  -3.498  1.00  0.00     0.137 A 
HETATM    5  C9  UNL     1      26.956   0.355  -2.388  1.00  0.00     0.134 A 
HETATM    6  C16 UNL     1      26.749   0.916  -1.109  1.00  0.00     0.097 A 
HETATM    7  C17 UNL     1      27.358   0.319   0.067  1.00  0.00     0.103 C 
HETATM    8  N1  UNL     1      27.858  -0.180   0.996  1.00  0.00    -0.191 NA
ENDROOT
BRANCH   1   9
HETATM    9  C2  UNL     1      25.746   2.700   0.258  1.00  0.00     0.294 C 
HETATM   10  O2  UNL     1      26.512   3.627   0.664  1.00  0.00    -0.259 OA
BRANCH   9  11
HETATM   11  O1  UNL     1      24.699   2.352   1.077  1.00  0.00    -0.322 OA
HETATM   12  C1  UNL     1      24.887   1.877   2.376  1.00  0.00     0.213 C 
ENDBRANCH   9  11
ENDBRANCH   1   9
BRANCH   5  13
HETATM   13  O5  UNL     1      27.697  -0.786  -2.415  1.00  0.00    -0.300 OA
BRANCH  13  14
HETATM   14  C10 UNL     1      27.424  -2.022  -2.924  1.00  0.00     0.156 A 
HETATM   15  C11 UNL     1      26.279  -2.649  -2.404  1.00  0.00     0.156 A 
HETATM   16  F1  UNL     1      25.479  -2.025  -1.494  1.00  0.00    -0.203 F 
HETATM   17  C12 UNL     1      25.873  -3.902  -2.810  1.00  0.00     0.090 A 
HETATM   18  C13 UNL     1      26.588  -4.602  -3.761  1.00  0.00     0.161 A 
HETATM   19  F2  UNL     1      26.214  -5.824  -4.173  1.00  0.00    -0.203 F 
HETATM   20  C14 UNL     1      27.698  -3.991  -4.265  1.00  0.00     0.196 A 
HETATM   21  F3  UNL     1      28.442  -4.643  -5.213  1.00  0.00    -0.199 F 
HETATM   22  C15 UNL     1      28.123  -2.721  -3.863  1.00  0.00     0.194 A 
HETATM   23  F4  UNL     1      29.259  -2.208  -4.417  1.00  0.00    -0.200 F 
ENDBRANCH  13  14
ENDBRANCH   5  13
BRANCH   4  24
HETATM   24  O4  UNL     1      26.598   0.454  -4.803  1.00  0.00    -0.351 OA
HETATM   25  C8  UNL     1      27.864   0.666  -5.418  1.00  0.00     0.210 C 
ENDBRANCH   4  24
BRANCH   3  26
HETATM   26  O3  UNL     1      25.148   2.710  -4.568  1.00  0.00    -0.353 OA
HETATM   27  C6  UNL     1      23.808   2.668  -4.933  1.00  0.00     0.210 C 
ENDBRANCH   3  26
TORSDOF 6
ENDMDL
MODEL 4
REMARK VINA RESULT: -6.492099878      3.359      5.031
REMARK  6 active torsions:
REMARK  status: ('A' for Active; 'I' for Inactive)
REMARK    1  A    between atoms: O1_2  and  C2_3 
REMARK    2  A    between atoms: C2_3  and  C3_5 
REMARK    3  A    between atoms: C5_7  and  O3_8 
REMARK    4  A    between atoms: C7_10  and  O4_11 
REMARK    5  A    between atoms: C9_13  and  O5_14 
REMARK    6  A    between atoms: O5_14  and  C10_15 
ROOT
HETATM    1  C3  UNL     1      24.664   2.262  -4.393  1.00  0.00     0.065 A 
HETATM    2  C4  UNL     1      25.792   1.755  -5.051  1.00  0.00     0.059 A 
HETATM    3  C5  UNL     1      26.870   1.277  -4.357  1.00  0.00     0.105 A 
HETATM    4  C7  UNL     1      26.794   1.316  -2.958  1.00  0.00     0.137 A 
HETATM    5  C9  UNL     1      25.699   1.805  -2.305  1.00  0.00     0.134 A 
HETATM    6  C16 UNL     1      24.594   2.299  -3.031  1.00  0.00     0.097 A 
HETATM    7  C17 UNL     1      23.453   2.876  -2.339  1.00  0.00     0.103 C 
HETATM    8  N1  UNL     1      22.551   3.335  -1.761  1.00  0.00    -0.191 NA
ENDROOT
BRANCH   1   9
HETATM    9  C2  UNL     1      23.556   2.750  -5.217  1.00  0.00     0.294 C 
HETATM   10  O2  UNL     1      23.544   3.962  -5.593  1.00  0.00    -0.259 OA
BRANCH   9  11
HETATM   11  O1  UNL     1      22.504   1.962  -5.616  1.00  0.00    -0.322 OA
HETATM   12  C1  UNL     1      21.184   2.227  -5.248  1.00  0.00     0.213 C 
ENDBRANCH   9  11
ENDBRANCH   1   9
BRANCH   5  13
HETATM   13  O5  UNL     1      25.582   1.859  -0.950  1.00  0.00    -0.300 OA
BRANCH  13  14
HETATM   14  C10 UNL     1      25.322   0.885  -0.032  1.00  0.00     0.156 A 
HETATM   15  C11 UNL     1      26.339   0.655   0.910  1.00  0.00     0.156 A 
HETATM   16  F1  UNL     1      27.478   1.404   0.921  1.00  0.00    -0.203 F 
HETATM   17  C12 UNL     1      26.232  -0.299   1.897  1.00  0.00     0.090 A 
HETATM   18  C13 UNL     1      25.100  -1.082   2.002  1.00  0.00     0.161 A 
HETATM   19  F2  UNL     1      24.970  -2.020   2.954  1.00  0.00    -0.203 F 
HETATM   20  C14 UNL     1      24.113  -0.858   1.088  1.00  0.00     0.196 A 
HETATM   21  F3  UNL     1      22.968  -1.607   1.149  1.00  0.00    -0.199 F 
HETATM   22  C15 UNL     1      24.208   0.107   0.080  1.00  0.00     0.194 A 
HETATM   23  F4  UNL     1      23.170   0.239  -0.796  1.00  0.00    -0.200 F 
ENDBRANCH  13  14
ENDBRANCH   5  13
BRANCH   4  24
HETATM   24  O4  UNL     1      27.932   0.813  -2.304  1.00  0.00    -0.351 OA
HETATM   25  C8  UNL     1      27.963  -0.587  -2.048  1.00  0.00     0.210 C 
ENDBRANCH   4  24
BRANCH   3  26
HETATM   26  O3  UNL     1      27.993   0.774  -4.995  1.00  0.00    -0.353 OA
HETATM   27  C6  UNL     1      27.962  -0.128  -6.053  1.00  0.00     0.210 C 
ENDBRANCH   3  26
TORSDOF 6
ENDMDL
MODEL 5
REMARK VINA RESULT: -6.438738858      1.593      1.921
REMARK  6 active torsions:
REMARK  status: ('A' for Active; 'I' for Inactive)
REMARK    1  A    between atoms: O1_2  and  C2_3 
REMARK    2  A    between atoms: C2_3  and  C3_5 
REMARK    3  A    between atoms: C5_7  and  O3_8 
REMARK    4  A    between atoms: C7_10  and  O4_11 
REMARK    5  A    between atoms: C9_13  and  O5_14 
REMARK    6  A    between atoms: O5_14  and  C10_15 
ROOT
HETATM    1  C3  UNL     1      23.747   1.928  -1.200  1.00  0.00     0.065 A 
HETATM    2  C4  UNL     1      23.629   1.584   0.153  1.00  0.00     0.059 A 
HETATM    3  C5  UNL     1      24.601   0.866   0.795  1.00  0.00     0.105 A 
HETATM    4  C7  UNL     1      25.720   0.491   0.039  1.00  0.00     0.137 A 
HETATM    5  C9  UNL     1      25.848   0.822  -1.279  1.00  0.00     0.134 A 
HETATM    6  C16 UNL     1      24.838   1.561  -1.933  1.00  0.00     0.097 A 
HETATM    7  C17 UNL     1      24.943   1.861  -3.351  1.00  0.00     0.103 C 
HETATM    8  N1  UNL     1      25.050   2.089  -4.490  1.00  0.00    -0.191 NA
ENDROOT
BRANCH   1   9
HETATM    9  C2  UNL     1      22.660   2.700  -1.805  1.00  0.00     0.294 C 
HETATM   10  O2  UNL     1      22.762   3.962  -1.890  1.00  0.00    -0.259 OA
BRANCH   9  11
HETATM   11  O1  UNL     1      21.510   2.132  -2.297  1.00  0.00    -0.322 OA
HETATM   12  C1  UNL     1      21.226   2.073  -3.662  1.00  0.00     0.213 C 
ENDBRANCH   9  11
ENDBRANCH   1   9
BRANCH   5  13
HETATM   13  O5  UNL     1      26.917   0.481  -2.049  1.00  0.00    -0.300 OA
BRANCH  13  14
HETATM   14  C10 UNL     1      27.151  -0.617  -2.823  1.00  0.00     0.156 A 
HETATM   15  C11 UNL     1      27.743  -0.360  -4.072  1.00  0.00     0.156 A 
HETATM   16  F1  UNL     1      28.100   0.902  -4.441  1.00  0.00    -0.203 F 
HETATM   17  C12 UNL     1      28.036  -1.361  -4.971  1.00  0.00     0.090 A 
HETATM   18  C13 UNL     1      27.756  -2.681  -4.676  1.00  0.00     0.161 A 
HETATM   19  F2  UNL     1      28.031  -3.674  -5.535  1.00  0.00    -0.203 F 
HETATM   20  C14 UNL     1      27.182  -2.928  -3.464  1.00  0.00     0.196 A 
HETATM   21  F3  UNL     1      26.885  -4.221  -3.121  1.00  0.00    -0.199 F 
HETATM   22  C15 UNL     1      26.878  -1.923  -2.541  1.00  0.00     0.194 A 
HETATM   23  F4  UNL     1      26.288  -2.276  -1.363  1.00  0.00    -0.200 F 
ENDBRANCH  13  14
ENDBRANCH   5  13
BRANCH   4  24
HETATM   24  O4  UNL     1      26.680  -0.245   0.755  1.00  0.00    -0.351 OA
HETATM   25  C8  UNL     1      27.774   0.482   1.303  1.00  0.00     0.210 C 
ENDBRANCH   4  24
BRANCH   3  26
HETATM   26  O3  UNL     1      24.496   0.518   2.134  1.00  0.00    -0.353 OA
HETATM   27  C6  UNL     1      24.507   1.425   3.188  1.00  0.00     0.210 C 
ENDBRANCH   3  26
TORSDOF 6
ENDMDL
