MODEL 1
REMARK VINA RESULT: -9.829095665      0.000      0.000
REMARK  5 active torsions:
REMARK  status: ('A' for Active; 'I' for Inactive)
REMARK    1  A    between atoms: C7_9  and  O1_10 
REMARK    2  A    between atoms: O1_10  and  C8_11 
REMARK    3  A    between atoms: C8_11  and  C9_12 
REMARK    4  A    between atoms: N2_14  and  C11_15 
REMARK    5  A    between atoms: C11_15  and  C12_16 
ROOT
HETATM    1  N1  UNL     1      28.130  -9.175  -1.641  1.00  0.00    -0.191 NA
HETATM    2  C1  UNL     1      27.894  -9.525  -2.725  1.00  0.00     0.102 C 
HETATM    3  C2  UNL     1      27.611  -9.977  -4.056  1.00  0.00     0.079 A 
HETATM    4  C3  UNL     1      28.039 -11.252  -4.400  1.00  0.00     0.049 A 
HETATM    5  C4  UNL     1      27.803 -11.750  -5.655  1.00  0.00     0.035 A 
HETATM    6 CL1  UNL     1      28.349 -13.369  -6.093  1.00  0.00    -0.084 Cl
HETATM    7  C5  UNL     1      27.136 -10.963  -6.563  1.00  0.00     0.026 A 
HETATM    8  C6  UNL     1      26.708  -9.680  -6.205  1.00  0.00     0.040 A 
HETATM    9  C7  UNL     1      26.938  -9.164  -4.948  1.00  0.00     0.090 A 
ENDROOT
BRANCH   9  10
HETATM   10  O1  UNL     1      26.542  -7.923  -4.553  1.00  0.00    -0.344 OA
BRANCH  10  11
HETATM   11  C8  UNL     1      26.406  -6.778  -5.312  1.00  0.00     0.236 C 
BRANCH  11  12
HETATM   12  C9  UNL     1      26.705  -5.506  -4.663  1.00  0.00     0.068 A 
HETATM   13  C10 UNL     1      27.818  -4.685  -4.901  1.00  0.00     0.140 A 
HETATM   14  N2  UNL     1      27.731  -3.618  -4.106  1.00  0.00    -0.283 N 
HETATM   15  N3  UNL     1      26.618  -3.765  -3.408  1.00  0.00    -0.240 N 
HETATM   16  N4  UNL     1      25.990  -4.882  -3.722  1.00  0.00    -0.287 N 
ATOM     17  H3  UNL     1      26.286  -3.097  -2.713  1.00  0.00     0.208 HD
ATOM     18  H4  UNL     1      25.113  -5.212  -3.317  1.00  0.00     0.188 HD
BRANCH  14  19
HETATM   19  C11 UNL     1      28.614  -2.490  -3.968  1.00  0.00     0.193 C 
BRANCH  19  20
HETATM   20  C12 UNL     1      28.002  -1.186  -4.305  1.00  0.00     0.022 A 
HETATM   21  C13 UNL     1      27.804  -0.750  -5.592  1.00  0.00     0.126 A 
HETATM   22  F1  UNL     1      28.152  -1.510  -6.636  1.00  0.00    -0.205 F 
HETATM   23  C14 UNL     1      27.229   0.488  -5.880  1.00  0.00     0.043 A 
HETATM   24  C15 UNL     1      26.837   1.324  -4.859  1.00  0.00     0.005 A 
HETATM   25  C16 UNL     1      27.028   0.904  -3.563  1.00  0.00     0.024 A 
HETATM   26  C17 UNL     1      27.596  -0.317  -3.292  1.00  0.00     0.045 A 
HETATM   27 CL2  UNL     1      27.852  -0.876  -1.640  1.00  0.00    -0.084 Cl
ENDBRANCH  19  20
ENDBRANCH  14  19
ENDBRANCH  11  12
ENDBRANCH  10  11
ENDBRANCH   9  10
TORSDOF 5
ENDMDL
MODEL 2
REMARK VINA RESULT: -9.755607590      1.624      1.956
REMARK  5 active torsions:
REMARK  status: ('A' for Active; 'I' for Inactive)
REMARK    1  A    between atoms: C7_9  and  O1_10 
REMARK    2  A    between atoms: O1_10  and  C8_11 
REMARK    3  A    between atoms: C8_11  and  C9_12 
REMARK    4  A    between atoms: N2_14  and  C11_15 
REMARK    5  A    between atoms: C11_15  and  C12_16 
ROOT
HETATM    1  N1  UNL     1      28.444  -9.559  -1.597  1.00  0.00    -0.191 NA
HETATM    2  C1  UNL     1      28.189  -9.810  -2.703  1.00  0.00     0.102 C 
HETATM    3  C2  UNL     1      27.877 -10.141  -4.063  1.00  0.00     0.079 A 
HETATM    4  C3  UNL     1      28.031 -11.466  -4.447  1.00  0.00     0.049 A 
HETATM    5  C4  UNL     1      27.752 -11.855  -5.731  1.00  0.00     0.035 A 
HETATM    6 CL1  UNL     1      27.948 -13.538  -6.220  1.00  0.00    -0.084 Cl
HETATM    7  C5  UNL     1      27.317 -10.908  -6.628  1.00  0.00     0.026 A 
HETATM    8  C6  UNL     1      27.165  -9.576  -6.230  1.00  0.00     0.040 A 
HETATM    9  C7  UNL     1      27.443  -9.168  -4.943  1.00  0.00     0.090 A 
ENDROOT
BRANCH   9  10
HETATM   10  O1  UNL     1      27.311  -7.885  -4.508  1.00  0.00    -0.344 OA
BRANCH  10  11
HETATM   11  C8  UNL     1      26.345  -6.956  -4.840  1.00  0.00     0.236 C 
BRANCH  11  12
HETATM   12  C9  UNL     1      26.769  -5.565  -4.960  1.00  0.00     0.068 A 
HETATM   13  C10 UNL     1      27.675  -4.890  -4.127  1.00  0.00     0.140 A 
HETATM   14  N2  UNL     1      27.790  -3.634  -4.562  1.00  0.00    -0.283 N 
HETATM   15  N3  UNL     1      26.997  -3.532  -5.614  1.00  0.00    -0.240 N 
HETATM   16  N4  UNL     1      26.377  -4.668  -5.871  1.00  0.00    -0.287 N 
ATOM     17  H3  UNL     1      26.879  -2.679  -6.161  1.00  0.00     0.208 HD
ATOM     18  H4  UNL     1      25.715  -4.834  -6.629  1.00  0.00     0.188 HD
BRANCH  14  19
HETATM   19  C11 UNL     1      28.587  -2.548  -4.057  1.00  0.00     0.193 C 
BRANCH  19  20
HETATM   20  C12 UNL     1      27.806  -1.407  -3.531  1.00  0.00     0.022 A 
HETATM   21  C13 UNL     1      27.145  -1.430  -2.327  1.00  0.00     0.126 A 
HETATM   22  F1  UNL     1      27.186  -2.511  -1.542  1.00  0.00    -0.205 F 
HETATM   23  C14 UNL     1      26.412  -0.339  -1.858  1.00  0.00     0.043 A 
HETATM   24  C15 UNL     1      26.330   0.813  -2.606  1.00  0.00     0.005 A 
HETATM   25  C16 UNL     1      26.986   0.855  -3.814  1.00  0.00     0.024 A 
HETATM   26  C17 UNL     1      27.704  -0.226  -4.266  1.00  0.00     0.045 A 
HETATM   27 CL2  UNL     1      28.552  -0.197  -5.812  1.00  0.00    -0.084 Cl
ENDBRANCH  19  20
ENDBRANCH  14  19
ENDBRANCH  11  12
ENDBRANCH  10  11
ENDBRANCH   9  10
TORSDOF 5
ENDMDL
MODEL 3
REMARK VINA RESULT: -9.538350303      4.456     10.434
REMARK  5 active torsions:
REMARK  status: ('A' for Active; 'I' for Inactive)
REMARK    1  A    between atoms: C7_9  and  O1_10 
REMARK    2  A    between atoms: O1_10  and  C8_11 
REMARK    3  A    between atoms: C8_11  and  C9_12 
REMARK    4  A    between atoms: N2_14  and  C11_15 
REMARK    5  A    between atoms: C11_15  and  C12_16 
ROOT
HETATM    1  N1  UNL     1      27.714  -9.031  -1.966  1.00  0.00    -0.191 NA
HETATM    2  C1  UNL     1      27.355  -8.135  -2.615  1.00  0.00     0.102 C 
HETATM    3  C2  UNL     1      26.916  -7.016  -3.397  1.00  0.00     0.079 A 
HETATM    4  C3  UNL     1      26.788  -5.796  -2.747  1.00  0.00     0.049 A 
HETATM    5  C4  UNL     1      26.373  -4.683  -3.431  1.00  0.00     0.035 A 
HETATM    6 CL1  UNL     1      26.209  -3.134  -2.606  1.00  0.00    -0.084 Cl
HETATM    7  C5  UNL     1      26.088  -4.801  -4.771  1.00  0.00     0.026 A 
HETATM    8  C6  UNL     1      26.221  -6.035  -5.416  1.00  0.00     0.040 A 
HETATM    9  C7  UNL     1      26.636  -7.164  -4.742  1.00  0.00     0.090 A 
ENDROOT
BRANCH   9  10
HETATM   10  O1  UNL     1      26.781  -8.386  -5.324  1.00  0.00    -0.344 OA
BRANCH  10  11
HETATM   11  C8  UNL     1      27.943  -9.046  -5.667  1.00  0.00     0.236 C 
BRANCH  11  12
HETATM   12  C9  UNL     1      27.986 -10.487  -5.441  1.00  0.00     0.068 A 
HETATM   13  C10 UNL     1      27.489 -11.484  -6.294  1.00  0.00     0.140 A 
HETATM   14  N2  UNL     1      27.714 -12.671  -5.729  1.00  0.00    -0.283 N 
HETATM   15  N3  UNL     1      28.322 -12.426  -4.581  1.00  0.00    -0.240 N 
HETATM   16  N4  UNL     1      28.495 -11.132  -4.387  1.00  0.00    -0.287 N 
ATOM     17  H3  UNL     1      28.622 -13.149  -3.927  1.00  0.00     0.208 HD
ATOM     18  H4  UNL     1      28.938 -10.701  -3.576  1.00  0.00     0.188 HD
BRANCH  14  19
HETATM   19  C11 UNL     1      27.398 -13.995  -6.195  1.00  0.00     0.193 C 
BRANCH  19  20
HETATM   20  C12 UNL     1      28.574 -14.813  -6.566  1.00  0.00     0.022 A 
HETATM   21  C13 UNL     1      29.243 -15.625  -5.684  1.00  0.00     0.126 A 
HETATM   22  F1  UNL     1      28.846 -15.731  -4.412  1.00  0.00    -0.205 F 
HETATM   23  C14 UNL     1      30.354 -16.381  -6.061  1.00  0.00     0.043 A 
HETATM   24  C15 UNL     1      30.817 -16.331  -7.356  1.00  0.00     0.005 A 
HETATM   25  C16 UNL     1      30.160 -15.523  -8.254  1.00  0.00     0.024 A 
HETATM   26  C17 UNL     1      29.068 -14.783  -7.870  1.00  0.00     0.045 A 
HETATM   27 CL2  UNL     1      28.210 -13.738  -9.003  1.00  0.00    -0.084 Cl
ENDBRANCH  19  20
ENDBRANCH  14  19
ENDBRANCH  11  12
ENDBRANCH  10  11
ENDBRANCH   9  10
TORSDOF 5
ENDMDL
MODEL 4
REMARK VINA RESULT: -9.485254102      2.530      3.859
REMARK  5 active torsions:
REMARK  status: ('A' for Active; 'I' for Inactive)
REMARK    1  A    between atoms: C7_9  and  O1_10 
REMARK    2  A    between atoms: O1_10  and  C8_11 
REMARK    3  A    between atoms: C8_11  and  C9_12 
REMARK    4  A    between atoms: N2_14  and  C11_15 
REMARK    5  A    between atoms: C11_15  and  C12_16 
ROOT
HETATM    1  N1  UNL     1      26.246 -10.163  -6.781  1.00  0.00    -0.191 NA
HETATM    2  C1  UNL     1      26.927 -11.044  -6.446  1.00  0.00     0.102 C 
HETATM    3  C2  UNL     1      27.768 -12.138  -6.054  1.00  0.00     0.079 A 
HETATM    4  C3  UNL     1      28.086 -13.076  -7.027  1.00  0.00     0.049 A 
HETATM    5  C4  UNL     1      28.885 -14.148  -6.724  1.00  0.00     0.035 A 
HETATM    6 CL1  UNL     1      29.288 -15.341  -7.958  1.00  0.00    -0.084 Cl
HETATM    7  C5  UNL     1      29.363 -14.273  -5.441  1.00  0.00     0.026 A 
HETATM    8  C6  UNL     1      29.036 -13.322  -4.470  1.00  0.00     0.040 A 
HETATM    9  C7  UNL     1      28.233 -12.238  -4.757  1.00  0.00     0.090 A 
ENDROOT
BRANCH   9  10
HETATM   10  O1  UNL     1      27.888 -11.287  -3.847  1.00  0.00    -0.344 OA
BRANCH  10  11
HETATM   11  C8  UNL     1      28.584 -10.155  -3.476  1.00  0.00     0.236 C 
BRANCH  11  12
HETATM   12  C9  UNL     1      27.842  -8.900  -3.424  1.00  0.00     0.068 A 
HETATM   13  C10 UNL     1      27.712  -7.960  -4.458  1.00  0.00     0.140 A 
HETATM   14  N2  UNL     1      26.963  -6.949  -4.016  1.00  0.00    -0.283 N 
HETATM   15  N3  UNL     1      26.641  -7.244  -2.769  1.00  0.00    -0.240 N 
HETATM   16  N4  UNL     1      27.153  -8.401  -2.393  1.00  0.00    -0.287 N 
ATOM     17  H3  UNL     1      26.067  -6.651  -2.170  1.00  0.00     0.208 HD
ATOM     18  H4  UNL     1      27.043  -8.837  -1.478  1.00  0.00     0.188 HD
BRANCH  14  19
HETATM   19  C11 UNL     1      26.541  -5.746  -4.684  1.00  0.00     0.193 C 
BRANCH  19  20
HETATM   20  C12 UNL     1      27.080  -4.498  -4.100  1.00  0.00     0.022 A 
HETATM   21  C13 UNL     1      28.386  -4.098  -4.237  1.00  0.00     0.126 A 
HETATM   22  F1  UNL     1      29.259  -4.831  -4.935  1.00  0.00    -0.205 F 
HETATM   23  C14 UNL     1      28.868  -2.917  -3.670  1.00  0.00     0.043 A 
HETATM   24  C15 UNL     1      28.027  -2.105  -2.944  1.00  0.00     0.005 A 
HETATM   25  C16 UNL     1      26.715  -2.489  -2.796  1.00  0.00     0.024 A 
HETATM   26  C17 UNL     1      26.253  -3.655  -3.358  1.00  0.00     0.045 A 
HETATM   27 CL2  UNL     1      24.575  -4.169  -3.182  1.00  0.00    -0.084 Cl
ENDBRANCH  19  20
ENDBRANCH  14  19
ENDBRANCH  11  12
ENDBRANCH  10  11
ENDBRANCH   9  10
TORSDOF 5
ENDMDL
MODEL 5
REMARK VINA RESULT: -9.362162038      2.470      3.581
REMARK  5 active torsions:
REMARK  status: ('A' for Active; 'I' for Inactive)
REMARK    1  A    between atoms: C7_9  and  O1_10 
REMARK    2  A    between atoms: O1_10  and  C8_11 
REMARK    3  A    between atoms: C8_11  and  C9_12 
REMARK    4  A    between atoms: N2_14  and  C11_15 
REMARK    5  A    between atoms: C11_15  and  C12_16 
ROOT
HETATM    1  N1  UNL     1      26.013  -9.035  -6.373  1.00  0.00    -0.191 NA
HETATM    2  C1  UNL     1      26.646  -9.966  -6.083  1.00  0.00     0.102 C 
HETATM    3  C2  UNL     1      27.427 -11.122  -5.746  1.00  0.00     0.079 A 
HETATM    4  C3  UNL     1      27.620 -12.071  -6.741  1.00  0.00     0.049 A 
HETATM    5  C4  UNL     1      28.355 -13.201  -6.491  1.00  0.00     0.035 A 
HETATM    6 CL1  UNL     1      28.598 -14.408  -7.752  1.00  0.00    -0.084 Cl
HETATM    7  C5  UNL     1      28.896 -13.372  -5.238  1.00  0.00     0.026 A 
HETATM    8  C6  UNL     1      28.696 -12.409  -4.245  1.00  0.00     0.040 A 
HETATM    9  C7  UNL     1      27.958 -11.268  -4.479  1.00  0.00     0.090 A 
ENDROOT
BRANCH   9  10
HETATM   10  O1  UNL     1      27.736 -10.302  -3.546  1.00  0.00    -0.344 OA
BRANCH  10  11
HETATM   11  C8  UNL     1      28.245  -9.020  -3.492  1.00  0.00     0.236 C 
BRANCH  11  12
HETATM   12  C9  UNL     1      27.361  -7.971  -2.995  1.00  0.00     0.068 A 
HETATM   13  C10 UNL     1      27.124  -6.723  -3.591  1.00  0.00     0.140 A 
HETATM   14  N2  UNL     1      26.262  -6.049  -2.827  1.00  0.00    -0.283 N 
HETATM   15  N3  UNL     1      25.975  -6.839  -1.807  1.00  0.00    -0.240 N 
HETATM   16  N4  UNL     1      26.618  -7.989  -1.883  1.00  0.00    -0.287 N 
ATOM     17  H3  UNL     1      25.335  -6.590  -1.053  1.00  0.00     0.208 HD
ATOM     18  H4  UNL     1      26.559  -8.756  -1.214  1.00  0.00     0.188 HD
BRANCH  14  19
HETATM   19  C11 UNL     1      25.703  -4.735  -2.998  1.00  0.00     0.193 C 
BRANCH  19  20
HETATM   20  C12 UNL     1      26.643  -3.735  -3.551  1.00  0.00     0.022 A 
HETATM   21  C13 UNL     1      27.322  -2.823  -2.780  1.00  0.00     0.126 A 
HETATM   22  F1  UNL     1      27.173  -2.801  -1.452  1.00  0.00    -0.205 F 
HETATM   23  C14 UNL     1      28.199  -1.887  -3.330  1.00  0.00     0.043 A 
HETATM   24  C15 UNL     1      28.411  -1.854  -4.690  1.00  0.00     0.005 A 
HETATM   25  C16 UNL     1      27.740  -2.759  -5.478  1.00  0.00     0.024 A 
HETATM   26  C17 UNL     1      26.879  -3.675  -4.924  1.00  0.00     0.045 A 
HETATM   27 CL2  UNL     1      26.006  -4.845  -5.914  1.00  0.00    -0.084 Cl
ENDBRANCH  19  20
ENDBRANCH  14  19
ENDBRANCH  11  12
ENDBRANCH  10  11
ENDBRANCH   9  10
TORSDOF 5
ENDMDL
