MODEL 1
REMARK VINA RESULT: -7.370673259      0.000      0.000
REMARK  8 active torsions:
REMARK  status: ('A' for Active; 'I' for Inactive)
REMARK    1  A    between atoms: O1_2  and  C2_3 
REMARK    2  A    between atoms: C5_8  and  N2_9 
REMARK    3  A    between atoms: N3_11  and  N4_13 
REMARK    4  A    between atoms: N4_13  and  C7_15 
REMARK    5  A    between atoms: C7_15  and  O2_16 
REMARK    6  A    between atoms: C7_15  and  C8_18 
REMARK    7  A    between atoms: C8_18  and  C9_20 
REMARK    8  A    between atoms: C10_23  and  O3_24 
ROOT
HETATM    1  N2  UNL     1      27.169  -8.149  -4.161  1.00  0.00    -0.280 N 
ATOM      2  H2  UNL     1      26.999  -8.115  -3.156  1.00  0.00     0.188 HD
HETATM    3  N3  UNL     1      27.223  -7.060  -4.762  1.00  0.00    -0.238 N 
ATOM      4  H3  UNL     1      27.393  -7.092  -5.767  1.00  0.00     0.208 HD
ENDROOT
BRANCH   1   5
HETATM    5  C5  UNL     1      27.322  -9.420  -4.738  1.00  0.00     0.122 A 
HETATM    6  C3  UNL     1      27.963 -10.446  -4.076  1.00  0.00     0.041 A 
HETATM    7  N1  UNL     1      28.094 -11.653  -4.657  1.00  0.00    -0.324 N 
HETATM    8  C4  UNL     1      28.532 -10.255  -2.702  1.00  0.00     0.071 C 
HETATM    9  C2  UNL     1      27.618 -11.908  -5.874  1.00  0.00     0.225 A 
ATOM     10  H1  UNL     1      28.573 -12.397  -4.149  1.00  0.00     0.169 HD
HETATM   11  N5  UNL     1      26.993 -10.921  -6.531  1.00  0.00    -0.301 N 
HETATM   12  C10 UNL     1      26.830  -9.684  -5.997  1.00  0.00     0.175 A 
ATOM     13  H5  UNL     1      26.626 -11.107  -7.465  1.00  0.00     0.171 HD
BRANCH   9  14
HETATM   14  O1  UNL     1      27.759 -13.161  -6.465  1.00  0.00    -0.327 OA
HETATM   15  C1  UNL     1      28.823 -14.020  -6.107  1.00  0.00     0.213 C 
ENDBRANCH   9  14
BRANCH  12  16
HETATM   16  O3  UNL     1      26.176  -8.729  -6.737  1.00  0.00    -0.339 OA
HETATM   17  C11 UNL     1      24.768  -8.636  -6.752  1.00  0.00     0.211 C 
ENDBRANCH  12  16
ENDBRANCH   1   5
BRANCH   3  18
HETATM   18  N4  UNL     1      27.072  -5.816  -4.191  1.00  0.00    -0.260 N 
HETATM   19  C6  UNL     1      26.700  -5.881  -2.745  1.00  0.00     0.181 C 
BRANCH  18  20
HETATM   20  C7  UNL     1      27.209  -4.547  -4.744  1.00  0.00     0.182 C 
BRANCH  20  21
HETATM   21  O2  UNL     1      26.402  -4.310  -5.773  1.00  0.00    -0.344 OA
ATOM     22  H2  UNL     1      26.020  -3.441  -5.777  1.00  0.00     0.219 HD
ENDBRANCH  20  21
BRANCH  20  23
HETATM   23  C8  UNL     1      28.038  -3.421  -4.444  1.00  0.00     0.119 C 
HETATM   24 CL1  UNL     1      29.491  -3.795  -3.401  1.00  0.00    -0.077 Cl
BRANCH  23  25
HETATM   25  C9  UNL     1      27.983  -2.172  -4.755  1.00  0.00     0.129 C 
HETATM   26 CL2  UNL     1      27.875  -1.429  -6.329  1.00  0.00    -0.069 Cl
HETATM   27 CL3  UNL     1      28.021  -0.981  -3.413  1.00  0.00    -0.069 Cl
ENDBRANCH  23  25
ENDBRANCH  20  23
ENDBRANCH  18  20
ENDBRANCH   3  18
TORSDOF 8
ENDMDL
MODEL 2
REMARK VINA RESULT: -7.168504310      1.474      1.709
REMARK  8 active torsions:
REMARK  status: ('A' for Active; 'I' for Inactive)
REMARK    1  A    between atoms: O1_2  and  C2_3 
REMARK    2  A    between atoms: C5_8  and  N2_9 
REMARK    3  A    between atoms: N3_11  and  N4_13 
REMARK    4  A    between atoms: N4_13  and  C7_15 
REMARK    5  A    between atoms: C7_15  and  O2_16 
REMARK    6  A    between atoms: C7_15  and  C8_18 
REMARK    7  A    between atoms: C8_18  and  C9_20 
REMARK    8  A    between atoms: C10_23  and  O3_24 
ROOT
HETATM    1  N2  UNL     1      27.659  -8.662  -4.269  1.00  0.00    -0.280 N 
ATOM      2  H2  UNL     1      28.557  -8.186  -4.186  1.00  0.00     0.188 HD
HETATM    3  N3  UNL     1      26.663  -8.072  -3.810  1.00  0.00    -0.238 N 
ATOM      4  H3  UNL     1      25.764  -8.546  -3.892  1.00  0.00     0.208 HD
ENDROOT
BRANCH   1   5
HETATM    5  C5  UNL     1      27.661  -9.920  -4.890  1.00  0.00     0.122 A 
HETATM    6  C3  UNL     1      28.228 -11.025  -4.292  1.00  0.00     0.041 A 
HETATM    7  N1  UNL     1      28.215 -12.219  -4.914  1.00  0.00    -0.324 N 
HETATM    8  C4  UNL     1      28.874 -10.937  -2.942  1.00  0.00     0.071 C 
HETATM    9  C2  UNL     1      27.663 -12.385  -6.114  1.00  0.00     0.225 A 
ATOM     10  H1  UNL     1      28.641 -13.022  -4.452  1.00  0.00     0.169 HD
HETATM   11  N5  UNL     1      27.107 -11.321  -6.711  1.00  0.00    -0.301 N 
HETATM   12  C10 UNL     1      27.090 -10.093  -6.132  1.00  0.00     0.175 A 
ATOM     13  H5  UNL     1      26.683 -11.438  -7.631  1.00  0.00     0.171 HD
BRANCH   9  14
HETATM   14  O1  UNL     1      27.655 -13.625  -6.749  1.00  0.00    -0.327 OA
HETATM   15  C1  UNL     1      28.747 -14.513  -6.627  1.00  0.00     0.213 C 
ENDBRANCH   9  14
BRANCH  12  16
HETATM   16  O3  UNL     1      26.500  -9.054  -6.811  1.00  0.00    -0.339 OA
HETATM   17  C11 UNL     1      25.147  -8.707  -6.608  1.00  0.00     0.211 C 
ENDBRANCH  12  16
ENDBRANCH   1   5
BRANCH   3  18
HETATM   18  N4  UNL     1      26.667  -6.837  -3.201  1.00  0.00    -0.260 N 
HETATM   19  C6  UNL     1      26.235  -6.893  -1.771  1.00  0.00     0.181 C 
BRANCH  18  20
HETATM   20  C7  UNL     1      27.001  -5.584  -3.703  1.00  0.00     0.182 C 
BRANCH  20  21
HETATM   21  O2  UNL     1      27.891  -5.612  -4.690  1.00  0.00    -0.344 OA
ATOM     22  H2  UNL     1      28.017  -4.777  -5.125  1.00  0.00     0.219 HD
ENDBRANCH  20  21
BRANCH  20  23
HETATM   23  C8  UNL     1      26.593  -4.250  -3.389  1.00  0.00     0.119 C 
HETATM   24 CL1  UNL     1      24.790  -3.963  -3.463  1.00  0.00    -0.077 Cl
BRANCH  23  25
HETATM   25  C9  UNL     1      27.233  -3.182  -3.058  1.00  0.00     0.129 C 
HETATM   26 CL2  UNL     1      28.763  -2.585  -3.641  1.00  0.00    -0.069 Cl
HETATM   27 CL3  UNL     1      26.484  -2.118  -1.821  1.00  0.00    -0.069 Cl
ENDBRANCH  23  25
ENDBRANCH  20  23
ENDBRANCH  18  20
ENDBRANCH   3  18
TORSDOF 8
ENDMDL
MODEL 3
REMARK VINA RESULT: -7.013145886      0.431      1.339
REMARK  8 active torsions:
REMARK  status: ('A' for Active; 'I' for Inactive)
REMARK    1  A    between atoms: O1_2  and  C2_3 
REMARK    2  A    between atoms: C5_8  and  N2_9 
REMARK    3  A    between atoms: N3_11  and  N4_13 
REMARK    4  A    between atoms: N4_13  and  C7_15 
REMARK    5  A    between atoms: C7_15  and  O2_16 
REMARK    6  A    between atoms: C7_15  and  C8_18 
REMARK    7  A    between atoms: C8_18  and  C9_20 
REMARK    8  A    between atoms: C10_23  and  O3_24 
ROOT
HETATM    1  N2  UNL     1      27.148  -8.200  -4.196  1.00  0.00    -0.280 N 
ATOM      2  H2  UNL     1      27.080  -8.158  -3.180  1.00  0.00     0.188 HD
HETATM    3  N3  UNL     1      27.072  -7.121  -4.813  1.00  0.00    -0.238 N 
ATOM      4  H3  UNL     1      27.140  -7.162  -5.829  1.00  0.00     0.208 HD
ENDROOT
BRANCH   1   5
HETATM    5  C5  UNL     1      27.320  -9.470  -4.769  1.00  0.00     0.122 A 
HETATM    6  C3  UNL     1      27.961 -10.490  -4.098  1.00  0.00     0.041 A 
HETATM    7  N1  UNL     1      28.111 -11.696  -4.676  1.00  0.00    -0.324 N 
HETATM    8  C4  UNL     1      28.508 -10.292  -2.716  1.00  0.00     0.071 C 
HETATM    9  C2  UNL     1      27.655 -11.956  -5.899  1.00  0.00     0.225 A 
ATOM     10  H1  UNL     1      28.589 -12.435  -4.160  1.00  0.00     0.169 HD
HETATM   11  N5  UNL     1      27.030 -10.975  -6.566  1.00  0.00    -0.301 N 
HETATM   12  C10 UNL     1      26.849  -9.739  -6.035  1.00  0.00     0.175 A 
ATOM     13  H5  UNL     1      26.679 -11.165  -7.505  1.00  0.00     0.171 HD
BRANCH   9  14
HETATM   14  O1  UNL     1      27.816 -13.208  -6.487  1.00  0.00    -0.327 OA
HETATM   15  C1  UNL     1      28.880 -14.059  -6.110  1.00  0.00     0.213 C 
ENDBRANCH   9  14
BRANCH  12  16
HETATM   16  O3  UNL     1      26.198  -8.790  -6.786  1.00  0.00    -0.339 OA
HETATM   17  C11 UNL     1      24.794  -8.650  -6.749  1.00  0.00     0.211 C 
ENDBRANCH  12  16
ENDBRANCH   1   5
BRANCH   3  18
HETATM   18  N4  UNL     1      26.903  -5.878  -4.245  1.00  0.00    -0.260 N 
HETATM   19  C6  UNL     1      26.739  -5.935  -2.760  1.00  0.00     0.181 C 
BRANCH  18  20
HETATM   20  C7  UNL     1      26.861  -4.617  -4.830  1.00  0.00     0.182 C 
BRANCH  20  21
HETATM   21  O2  UNL     1      25.865  -4.449  -5.694  1.00  0.00    -0.344 OA
ATOM     22  H2  UNL     1      25.207  -3.825  -5.412  1.00  0.00     0.219 HD
ENDBRANCH  20  21
BRANCH  20  23
HETATM   23  C8  UNL     1      27.665  -3.441  -4.705  1.00  0.00     0.119 C 
HETATM   24 CL1  UNL     1      27.673  -2.358  -6.176  1.00  0.00    -0.077 Cl
BRANCH  23  25
HETATM   25  C9  UNL     1      28.403  -2.967  -3.761  1.00  0.00     0.129 C 
HETATM   26 CL2  UNL     1      28.290  -1.437  -2.933  1.00  0.00    -0.069 Cl
HETATM   27 CL3  UNL     1      29.757  -3.989  -3.176  1.00  0.00    -0.069 Cl
ENDBRANCH  23  25
ENDBRANCH  20  23
ENDBRANCH  18  20
ENDBRANCH   3  18
TORSDOF 8
ENDMDL
MODEL 4
REMARK VINA RESULT: -6.956777794      1.053      2.175
REMARK  8 active torsions:
REMARK  status: ('A' for Active; 'I' for Inactive)
REMARK    1  A    between atoms: O1_2  and  C2_3 
REMARK    2  A    between atoms: C5_8  and  N2_9 
REMARK    3  A    between atoms: N3_11  and  N4_13 
REMARK    4  A    between atoms: N4_13  and  C7_15 
REMARK    5  A    between atoms: C7_15  and  O2_16 
REMARK    6  A    between atoms: C7_15  and  C8_18 
REMARK    7  A    between atoms: C8_18  and  C9_20 
REMARK    8  A    between atoms: C10_23  and  O3_24 
ROOT
HETATM    1  N2  UNL     1      26.945  -8.091  -4.246  1.00  0.00    -0.280 N 
ATOM      2  H2  UNL     1      26.595  -8.045  -3.290  1.00  0.00     0.188 HD
HETATM    3  N3  UNL     1      27.182  -7.008  -4.813  1.00  0.00    -0.238 N 
ATOM      4  H3  UNL     1      27.533  -7.052  -5.769  1.00  0.00     0.208 HD
ENDROOT
BRANCH   1   5
HETATM    5  C5  UNL     1      27.115  -9.369  -4.800  1.00  0.00     0.122 A 
HETATM    6  C3  UNL     1      26.447  -9.761  -5.942  1.00  0.00     0.041 A 
HETATM    7  N1  UNL     1      26.631 -10.994  -6.449  1.00  0.00    -0.324 N 
HETATM    8  C4  UNL     1      25.504  -8.836  -6.651  1.00  0.00     0.071 C 
HETATM    9  C2  UNL     1      27.450 -11.877  -5.882  1.00  0.00     0.225 A 
ATOM     10  H1  UNL     1      26.126 -11.261  -7.294  1.00  0.00     0.169 HD
HETATM   11  N5  UNL     1      28.106 -11.514  -4.771  1.00  0.00    -0.301 N 
HETATM   12  C10 UNL     1      27.962 -10.284  -4.214  1.00  0.00     0.175 A 
ATOM     13  H5  UNL     1      28.735 -12.184  -4.329  1.00  0.00     0.171 HD
BRANCH   9  14
HETATM   14  O1  UNL     1      27.632 -13.151  -6.415  1.00  0.00    -0.327 OA
HETATM   15  C1  UNL     1      28.792 -13.905  -6.122  1.00  0.00     0.213 C 
ENDBRANCH   9  14
BRANCH  12  16
HETATM   16  O3  UNL     1      28.671  -9.990  -3.074  1.00  0.00    -0.339 OA
HETATM   17  C11 UNL     1      28.095  -9.270  -2.006  1.00  0.00     0.211 C 
ENDBRANCH  12  16
ENDBRANCH   1   5
BRANCH   3  18
HETATM   18  N4  UNL     1      27.014  -5.757  -4.264  1.00  0.00    -0.260 N 
HETATM   19  C6  UNL     1      26.662  -5.802  -2.812  1.00  0.00     0.181 C 
BRANCH  18  20
HETATM   20  C7  UNL     1      27.117  -4.496  -4.843  1.00  0.00     0.182 C 
BRANCH  20  21
HETATM   21  O2  UNL     1      26.296  -4.299  -5.869  1.00  0.00    -0.344 OA
ATOM     22  H2  UNL     1      26.240  -3.395  -6.156  1.00  0.00     0.219 HD
ENDBRANCH  20  21
BRANCH  20  23
HETATM   23  C8  UNL     1      27.922  -3.346  -4.573  1.00  0.00     0.119 C 
HETATM   24 CL1  UNL     1      29.330  -3.644  -3.448  1.00  0.00    -0.077 Cl
BRANCH  23  25
HETATM   25  C9  UNL     1      27.870  -2.117  -4.957  1.00  0.00     0.129 C 
HETATM   26 CL2  UNL     1      27.777  -1.468  -6.572  1.00  0.00    -0.069 Cl
HETATM   27 CL3  UNL     1      27.894  -0.850  -3.686  1.00  0.00    -0.069 Cl
ENDBRANCH  23  25
ENDBRANCH  20  23
ENDBRANCH  18  20
ENDBRANCH   3  18
TORSDOF 8
ENDMDL
MODEL 5
REMARK VINA RESULT: -6.953608136      1.424      2.640
REMARK  8 active torsions:
REMARK  status: ('A' for Active; 'I' for Inactive)
REMARK    1  A    between atoms: O1_2  and  C2_3 
REMARK    2  A    between atoms: C5_8  and  N2_9 
REMARK    3  A    between atoms: N3_11  and  N4_13 
REMARK    4  A    between atoms: N4_13  and  C7_15 
REMARK    5  A    between atoms: C7_15  and  O2_16 
REMARK    6  A    between atoms: C7_15  and  C8_18 
REMARK    7  A    between atoms: C8_18  and  C9_20 
REMARK    8  A    between atoms: C10_23  and  O3_24 
ROOT
HETATM    1  N2  UNL     1      26.415  -8.532  -3.960  1.00  0.00    -0.280 N 
ATOM      2  H2  UNL     1      25.653  -8.646  -3.293  1.00  0.00     0.188 HD
HETATM    3  N3  UNL     1      26.945  -7.407  -4.026  1.00  0.00    -0.238 N 
ATOM      4  H3  UNL     1      27.708  -7.291  -4.692  1.00  0.00     0.208 HD
ENDROOT
BRANCH   1   5
HETATM    5  C5  UNL     1      26.770  -9.658  -4.719  1.00  0.00     0.122 A 
HETATM    6  C3  UNL     1      26.378  -9.801  -6.034  1.00  0.00     0.041 A 
HETATM    7  N1  UNL     1      26.734 -10.894  -6.734  1.00  0.00    -0.324 N 
HETATM    8  C4  UNL     1      25.551  -8.757  -6.720  1.00  0.00     0.071 C 
HETATM    9  C2  UNL     1      27.467 -11.869  -6.201  1.00  0.00     0.225 A 
ATOM     10  H1  UNL     1      26.432 -10.978  -7.705  1.00  0.00     0.169 HD
HETATM   11  N5  UNL     1      27.856 -11.746  -4.924  1.00  0.00    -0.301 N 
HETATM   12  C10 UNL     1      27.529 -10.667  -4.168  1.00  0.00     0.175 A 
ATOM     13  H5  UNL     1      28.418 -12.488  -4.507  1.00  0.00     0.171 HD
BRANCH   9  14
HETATM   14  O1  UNL     1      27.830 -12.995  -6.936  1.00  0.00    -0.327 OA
HETATM   15  C1  UNL     1      28.621 -14.016  -6.362  1.00  0.00     0.213 C 
ENDBRANCH   9  14
BRANCH  12  16
HETATM   16  O3  UNL     1      27.968 -10.618  -2.867  1.00  0.00    -0.339 OA
HETATM   17  C11 UNL     1      29.277 -10.203  -2.540  1.00  0.00     0.211 C 
ENDBRANCH  12  16
ENDBRANCH   1   5
BRANCH   3  18
HETATM   18  N4  UNL     1      26.592  -6.305  -3.279  1.00  0.00    -0.260 N 
HETATM   19  C6  UNL     1      26.210  -6.652  -1.876  1.00  0.00     0.181 C 
BRANCH  18  20
HETATM   20  C7  UNL     1      26.539  -4.959  -3.626  1.00  0.00     0.182 C 
BRANCH  20  21
HETATM   21  O2  UNL     1      25.500  -4.633  -4.388  1.00  0.00    -0.344 OA
ATOM     22  H2  UNL     1      25.051  -5.376  -4.773  1.00  0.00     0.219 HD
ENDBRANCH  20  21
BRANCH  20  23
HETATM   23  C8  UNL     1      27.367  -3.829  -3.338  1.00  0.00     0.119 C 
HETATM   24 CL1  UNL     1      29.162  -4.145  -3.459  1.00  0.00    -0.077 Cl
BRANCH  23  25
HETATM   25  C9  UNL     1      27.118  -2.610  -3.004  1.00  0.00     0.129 C 
HETATM   26 CL2  UNL     1      26.179  -1.999  -1.669  1.00  0.00    -0.069 Cl
HETATM   27 CL3  UNL     1      27.816  -1.312  -4.029  1.00  0.00    -0.069 Cl
ENDBRANCH  23  25
ENDBRANCH  20  23
ENDBRANCH  18  20
ENDBRANCH   3  18
TORSDOF 8
ENDMDL
