MODEL 1
REMARK VINA RESULT: -9.758215653      0.000      0.000
REMARK  5 active torsions:
REMARK  status: ('A' for Active; 'I' for Inactive)
REMARK    1  A    between atoms: O1_2  and  C2_3 
REMARK    2  A    between atoms: C4_5  and  N1_6 
REMARK    3  A    between atoms: C6_10  and  C7_11 
REMARK    4  A    between atoms: C7_11  and  C8_13 
REMARK    5  A    between atoms: C8_13  and  N3_14 
ROOT
HETATM    1  N1  UNL     1      27.628  -9.391  -3.788  1.00  0.00    -0.245 N 
HETATM    2  N2  UNL     1      28.429 -10.028  -2.958  1.00  0.00    -0.303 N 
ATOM      3  H2  UNL     1      28.773  -9.637  -2.080  1.00  0.00     0.186 HD
HETATM    4  C5  UNL     1      28.736 -11.251  -3.406  1.00  0.00     0.119 A 
HETATM    5  C6  UNL     1      28.090 -11.415  -4.609  1.00  0.00     0.019 A 
HETATM    6  C11 UNL     1      27.397 -10.212  -4.815  1.00  0.00     0.135 A 
HETATM    7 CL2  UNL     1      26.389  -9.842  -6.187  1.00  0.00    -0.062 Cl
ENDROOT
BRANCH   5   8
HETATM    8  C7  UNL     1      28.037 -12.591  -5.497  1.00  0.00     0.139 C 
HETATM    9 CL1  UNL     1      27.875 -11.929  -7.169  1.00  0.00    -0.118 Cl
BRANCH   8  10
HETATM   10  C8  UNL     1      29.162 -13.537  -5.461  1.00  0.00     0.175 C 
BRANCH  10  11
HETATM   11  N3  UNL     1      28.973 -14.828  -6.047  1.00  0.00    -0.285 N 
HETATM   12  C9  UNL     1      28.311 -15.903  -5.661  1.00  0.00     0.201 A 
HETATM   13  N4  UNL     1      28.433 -16.917  -6.567  1.00  0.00    -0.346 N 
HETATM   14  C10 UNL     1      29.208 -16.432  -7.550  1.00  0.00     0.198 A 
ATOM     15  H4  UNL     1      28.023 -17.848  -6.509  1.00  0.00     0.167 HD
HETATM   16  N5  UNL     1      29.520 -15.188  -7.225  1.00  0.00    -0.293 N 
ATOM     17  H5  UNL     1      30.104 -14.577  -7.795  1.00  0.00     0.188 HD
ENDBRANCH  10  11
ENDBRANCH   8  10
ENDBRANCH   5   8
BRANCH   1  18
HETATM   18  C4  UNL     1      27.102  -8.059  -3.602  1.00  0.00     0.060 A 
HETATM   19  C3  UNL     1      27.129  -7.159  -4.641  1.00  0.00     0.070 A 
HETATM   20  C2  UNL     1      26.625  -5.864  -4.492  1.00  0.00     0.092 A 
HETATM   21  C14 UNL     1      26.094  -5.504  -3.271  1.00  0.00     0.067 A 
HETATM   22  C13 UNL     1      26.055  -6.389  -2.216  1.00  0.00     0.029 A 
HETATM   23 CL3  UNL     1      25.453  -3.868  -3.077  1.00  0.00    -0.081 Cl
HETATM   24  C12 UNL     1      26.567  -7.671  -2.399  1.00  0.00     0.033 A 
BRANCH  20  25
HETATM   25  O1  UNL     1      26.644  -4.936  -5.533  1.00  0.00    -0.354 OA
HETATM   26  C1  UNL     1      27.656  -3.933  -5.461  1.00  0.00     0.210 C 
ENDBRANCH  20  25
ENDBRANCH   1  18
TORSDOF 5
ENDMDL
MODEL 2
REMARK VINA RESULT: -9.195534620      1.931      2.488
REMARK  5 active torsions:
REMARK  status: ('A' for Active; 'I' for Inactive)
REMARK    1  A    between atoms: O1_2  and  C2_3 
REMARK    2  A    between atoms: C4_5  and  N1_6 
REMARK    3  A    between atoms: C6_10  and  C7_11 
REMARK    4  A    between atoms: C7_11  and  C8_13 
REMARK    5  A    between atoms: C8_13  and  N3_14 
ROOT
HETATM    1  N1  UNL     1      26.890  -7.675  -4.744  1.00  0.00    -0.245 N 
HETATM    2  N2  UNL     1      26.257  -8.008  -5.852  1.00  0.00    -0.303 N 
ATOM      3  H2  UNL     1      25.683  -7.367  -6.399  1.00  0.00     0.186 HD
HETATM    4  C5  UNL     1      26.460  -9.291  -6.171  1.00  0.00     0.119 A 
HETATM    5  C6  UNL     1      27.280  -9.824  -5.203  1.00  0.00     0.019 A 
HETATM    6  C11 UNL     1      27.530  -8.765  -4.317  1.00  0.00     0.135 A 
HETATM    7 CL2  UNL     1      28.521  -8.849  -2.886  1.00  0.00    -0.062 Cl
ENDROOT
BRANCH   5   8
HETATM    8  C7  UNL     1      27.861 -11.176  -5.099  1.00  0.00     0.139 C 
HETATM    9 CL1  UNL     1      27.549 -11.709  -3.403  1.00  0.00    -0.118 Cl
BRANCH   8  10
HETATM   10  C8  UNL     1      27.377 -12.210  -6.025  1.00  0.00     0.175 C 
BRANCH  10  11
HETATM   11  N3  UNL     1      28.228 -13.330  -6.285  1.00  0.00    -0.285 N 
HETATM   12  C9  UNL     1      28.425 -14.080  -7.353  1.00  0.00     0.201 A 
HETATM   13  N4  UNL     1      29.347 -15.058  -7.112  1.00  0.00    -0.346 N 
HETATM   14  C10 UNL     1      29.725 -14.892  -5.835  1.00  0.00     0.198 A 
ATOM     15  H4  UNL     1      29.679 -15.767  -7.765  1.00  0.00     0.167 HD
HETATM   16  N5  UNL     1      29.049 -13.860  -5.357  1.00  0.00    -0.293 N 
ATOM     17  H5  UNL     1      29.139 -13.508  -4.405  1.00  0.00     0.188 HD
ENDBRANCH  10  11
ENDBRANCH   8  10
ENDBRANCH   5   8
BRANCH   1  18
HETATM   18  C4  UNL     1      26.887  -6.368  -4.129  1.00  0.00     0.060 A 
HETATM   19  C3  UNL     1      27.613  -5.343  -4.691  1.00  0.00     0.070 A 
HETATM   20  C2  UNL     1      27.626  -4.068  -4.120  1.00  0.00     0.092 A 
HETATM   21  C14 UNL     1      26.890  -3.855  -2.973  1.00  0.00     0.067 A 
HETATM   22  C13 UNL     1      26.155  -4.865  -2.394  1.00  0.00     0.029 A 
HETATM   23 CL3  UNL     1      26.903  -2.241  -2.249  1.00  0.00    -0.081 Cl
HETATM   24  C12 UNL     1      26.164  -6.124  -2.988  1.00  0.00     0.033 A 
BRANCH  20  25
HETATM   25  O1  UNL     1      28.356  -3.016  -4.674  1.00  0.00    -0.354 OA
HETATM   26  C1  UNL     1      27.727  -2.307  -5.740  1.00  0.00     0.210 C 
ENDBRANCH  20  25
ENDBRANCH   1  18
TORSDOF 5
ENDMDL
MODEL 3
REMARK VINA RESULT: -9.117966827      3.572      8.441
REMARK  5 active torsions:
REMARK  status: ('A' for Active; 'I' for Inactive)
REMARK    1  A    between atoms: O1_2  and  C2_3 
REMARK    2  A    between atoms: C4_5  and  N1_6 
REMARK    3  A    between atoms: C6_10  and  C7_11 
REMARK    4  A    between atoms: C7_11  and  C8_13 
REMARK    5  A    between atoms: C8_13  and  N3_14 
ROOT
HETATM    1  N1  UNL     1      27.202  -9.740  -5.231  1.00  0.00    -0.245 N 
HETATM    2  N2  UNL     1      26.413  -9.162  -6.114  1.00  0.00    -0.303 N 
ATOM      3  H2  UNL     1      26.117  -9.596  -6.989  1.00  0.00     0.186 HD
HETATM    4  C5  UNL     1      26.046  -7.936  -5.724  1.00  0.00     0.119 A 
HETATM    5  C6  UNL     1      26.640  -7.705  -4.505  1.00  0.00     0.019 A 
HETATM    6  C11 UNL     1      27.364  -8.875  -4.228  1.00  0.00     0.135 A 
HETATM    7 CL2  UNL     1      28.321  -9.164  -2.800  1.00  0.00    -0.062 Cl
ENDROOT
BRANCH   5   8
HETATM    8  C7  UNL     1      26.525  -6.542  -3.606  1.00  0.00     0.139 C 
HETATM    9 CL1  UNL     1      26.093  -7.219  -1.989  1.00  0.00    -0.118 Cl
BRANCH   8  10
HETATM   10  C8  UNL     1      27.693  -5.661  -3.462  1.00  0.00     0.175 C 
BRANCH  10  11
HETATM   11  N3  UNL     1      27.717  -4.448  -4.221  1.00  0.00    -0.285 N 
HETATM   12  C9  UNL     1      27.232  -4.119  -5.404  1.00  0.00     0.201 A 
HETATM   13  N4  UNL     1      27.522  -2.821  -5.717  1.00  0.00    -0.346 N 
HETATM   14  C10 UNL     1      28.216  -2.343  -4.673  1.00  0.00     0.198 A 
ATOM     15  H4  UNL     1      27.265  -2.321  -6.568  1.00  0.00     0.167 HD
HETATM   16  N5  UNL     1      28.323  -3.324  -3.792  1.00  0.00    -0.293 N 
ATOM     17  H5  UNL     1      28.806  -3.240  -2.898  1.00  0.00     0.188 HD
ENDBRANCH  10  11
ENDBRANCH   8  10
ENDBRANCH   5   8
BRANCH   1  18
HETATM   18  C4  UNL     1      27.768 -11.064  -5.341  1.00  0.00     0.060 A 
HETATM   19  C3  UNL     1      27.660 -11.761  -6.522  1.00  0.00     0.070 A 
HETATM   20  C2  UNL     1      28.200 -13.042  -6.659  1.00  0.00     0.092 A 
HETATM   21  C14 UNL     1      28.850 -13.599  -5.578  1.00  0.00     0.067 A 
HETATM   22  C13 UNL     1      28.972 -12.920  -4.386  1.00  0.00     0.029 A 
HETATM   23 CL3  UNL     1      29.537 -15.220  -5.748  1.00  0.00    -0.081 Cl
HETATM   24  C12 UNL     1      28.421 -11.645  -4.282  1.00  0.00     0.033 A 
BRANCH  20  25
HETATM   25  O1  UNL     1      28.101 -13.765  -7.848  1.00  0.00    -0.354 OA
HETATM   26  C1  UNL     1      28.092 -12.998  -9.050  1.00  0.00     0.210 C 
ENDBRANCH  20  25
ENDBRANCH   1  18
TORSDOF 5
ENDMDL
MODEL 4
REMARK VINA RESULT: -8.921197108      1.718      2.084
REMARK  5 active torsions:
REMARK  status: ('A' for Active; 'I' for Inactive)
REMARK    1  A    between atoms: O1_2  and  C2_3 
REMARK    2  A    between atoms: C4_5  and  N1_6 
REMARK    3  A    between atoms: C6_10  and  C7_11 
REMARK    4  A    between atoms: C7_11  and  C8_13 
REMARK    5  A    between atoms: C8_13  and  N3_14 
ROOT
HETATM    1  N1  UNL     1      26.762  -8.313  -4.956  1.00  0.00    -0.245 N 
HETATM    2  N2  UNL     1      26.171  -8.689  -6.073  1.00  0.00    -0.303 N 
ATOM      3  H2  UNL     1      25.542  -8.097  -6.616  1.00  0.00     0.186 HD
HETATM    4  C5  UNL     1      26.496  -9.943  -6.407  1.00  0.00     0.119 A 
HETATM    5  C6  UNL     1      27.356 -10.409  -5.440  1.00  0.00     0.019 A 
HETATM    6  C11 UNL     1      27.499  -9.344  -4.538  1.00  0.00     0.135 A 
HETATM    7 CL2  UNL     1      28.484  -9.355  -3.101  1.00  0.00    -0.062 Cl
ENDROOT
BRANCH   5   8
HETATM    8  C7  UNL     1      28.060 -11.702  -5.349  1.00  0.00     0.139 C 
HETATM    9 CL1  UNL     1      28.055 -12.136  -3.597  1.00  0.00    -0.118 Cl
BRANCH   8  10
HETATM   10  C8  UNL     1      27.533 -12.833  -6.127  1.00  0.00     0.175 C 
BRANCH  10  11
HETATM   11  N3  UNL     1      28.216 -14.087  -6.035  1.00  0.00    -0.285 N 
HETATM   12  C9  UNL     1      29.485 -14.410  -5.869  1.00  0.00     0.201 A 
HETATM   13  N4  UNL     1      29.657 -15.764  -5.855  1.00  0.00    -0.346 N 
HETATM   14  C10 UNL     1      28.432 -16.287  -6.020  1.00  0.00     0.198 A 
ATOM     15  H4  UNL     1      30.534 -16.273  -5.742  1.00  0.00     0.167 HD
HETATM   16  N5  UNL     1      27.586 -15.275  -6.126  1.00  0.00    -0.293 N 
ATOM     17  H5  UNL     1      26.581 -15.381  -6.260  1.00  0.00     0.188 HD
ENDBRANCH  10  11
ENDBRANCH   8  10
ENDBRANCH   5   8
BRANCH   1  18
HETATM   18  C4  UNL     1      26.632  -7.021  -4.323  1.00  0.00     0.060 A 
HETATM   19  C3  UNL     1      26.713  -5.875  -5.080  1.00  0.00     0.070 A 
HETATM   20  C2  UNL     1      26.588  -4.611  -4.498  1.00  0.00     0.092 A 
HETATM   21  C14 UNL     1      26.379  -4.535  -3.136  1.00  0.00     0.067 A 
HETATM   22  C13 UNL     1      26.293  -5.668  -2.358  1.00  0.00     0.029 A 
HETATM   23 CL3  UNL     1      26.218  -2.938  -2.395  1.00  0.00    -0.081 Cl
HETATM   24  C12 UNL     1      26.423  -6.912  -2.971  1.00  0.00     0.033 A 
BRANCH  20  25
HETATM   25  O1  UNL     1      26.668  -3.438  -5.247  1.00  0.00    -0.354 OA
HETATM   26  C1  UNL     1      27.916  -2.748  -5.201  1.00  0.00     0.210 C 
ENDBRANCH  20  25
ENDBRANCH   1  18
TORSDOF 5
ENDMDL
MODEL 5
REMARK VINA RESULT: -8.866603591      3.379      8.400
REMARK  5 active torsions:
REMARK  status: ('A' for Active; 'I' for Inactive)
REMARK    1  A    between atoms: O1_2  and  C2_3 
REMARK    2  A    between atoms: C4_5  and  N1_6 
REMARK    3  A    between atoms: C6_10  and  C7_11 
REMARK    4  A    between atoms: C7_11  and  C8_13 
REMARK    5  A    between atoms: C8_13  and  N3_14 
ROOT
HETATM    1  N1  UNL     1      27.776 -10.256  -4.193  1.00  0.00    -0.245 N 
HETATM    2  N2  UNL     1      28.194 -10.232  -2.943  1.00  0.00    -0.303 N 
ATOM      3  H2  UNL     1      28.703 -10.994  -2.494  1.00  0.00     0.186 HD
HETATM    4  C5  UNL     1      27.867  -9.087  -2.334  1.00  0.00     0.119 A 
HETATM    5  C6  UNL     1      27.192  -8.318  -3.253  1.00  0.00     0.019 A 
HETATM    6  C11 UNL     1      27.157  -9.097  -4.420  1.00  0.00     0.135 A 
HETATM    7 CL2  UNL     1      26.427  -8.629  -5.932  1.00  0.00    -0.062 Cl
ENDROOT
BRANCH   5   8
HETATM    8  C7  UNL     1      26.662  -6.948  -3.127  1.00  0.00     0.139 C 
HETATM    9 CL1  UNL     1      25.727  -6.929  -1.582  1.00  0.00    -0.118 Cl
BRANCH   8  10
HETATM   10  C8  UNL     1      27.620  -5.833  -3.124  1.00  0.00     0.175 C 
BRANCH  10  11
HETATM   11  N3  UNL     1      27.487  -4.830  -4.136  1.00  0.00    -0.285 N 
HETATM   12  C9  UNL     1      26.814  -4.782  -5.270  1.00  0.00     0.201 A 
HETATM   13  N4  UNL     1      27.010  -3.595  -5.916  1.00  0.00    -0.346 N 
HETATM   14  C10 UNL     1      27.842  -2.890  -5.134  1.00  0.00     0.198 A 
ATOM     15  H4  UNL     1      26.608  -3.304  -6.807  1.00  0.00     0.167 HD
HETATM   16  N5  UNL     1      28.117  -3.640  -4.079  1.00  0.00    -0.293 N 
ATOM     17  H5  UNL     1      28.730  -3.353  -3.316  1.00  0.00     0.188 HD
ENDBRANCH  10  11
ENDBRANCH   8  10
ENDBRANCH   5   8
BRANCH   1  18
HETATM   18  C4  UNL     1      27.971 -11.339  -5.129  1.00  0.00     0.060 A 
HETATM   19  C3  UNL     1      28.689 -12.450  -4.753  1.00  0.00     0.070 A 
HETATM   20  C2  UNL     1      28.890 -13.515  -5.636  1.00  0.00     0.092 A 
HETATM   21  C14 UNL     1      28.350 -13.428  -6.902  1.00  0.00     0.067 A 
HETATM   22  C13 UNL     1      27.627 -12.326  -7.300  1.00  0.00     0.029 A 
HETATM   23 CL3  UNL     1      28.601 -14.774  -8.021  1.00  0.00    -0.081 Cl
HETATM   24  C12 UNL     1      27.445 -11.283  -6.396  1.00  0.00     0.033 A 
BRANCH  20  25
HETATM   25  O1  UNL     1      29.616 -14.650  -5.275  1.00  0.00    -0.354 OA
HETATM   26  C1  UNL     1      28.898 -15.883  -5.281  1.00  0.00     0.210 C 
ENDBRANCH  20  25
ENDBRANCH   1  18
TORSDOF 5
ENDMDL
