MODEL 1
REMARK VINA RESULT: -8.008492156      0.000      0.000
REMARK  8 active torsions:
REMARK  status: ('A' for Active; 'I' for Inactive)
REMARK    1  A    between atoms: C2_2  and  C3_3 
REMARK    2  A    between atoms: C3_3  and  N1_5 
REMARK    3  A    between atoms: C5_8  and  C6_9 
REMARK    4  A    between atoms: C6_9  and  C7_10 
REMARK       I    between atoms: C7_10  and  N2_12 
REMARK    5  A    between atoms: N2_12  and  C8_14 
REMARK    6  A    between atoms: C9_19  and  C10_20 
REMARK    7  A    between atoms: C10_20  and  C11_21 
REMARK    8  A    between atoms: C11_21  and  C12_22 
ROOT
HETATM    1  C7  UNL     1     -17.576 -11.466 -20.099  1.00  0.00     0.226 C 
HETATM    2  O2  UNL     1     -17.594 -10.950 -18.954  1.00  0.00    -0.273 OA
HETATM    3  N2  UNL     1     -16.332 -11.611 -20.747  1.00  0.00    -0.311 N 
ATOM      4  H2  UNL     1     -16.125 -12.500 -21.204  1.00  0.00     0.170 HD
ENDROOT
BRANCH   3   5
HETATM    5  C8  UNL     1     -15.443 -10.680 -20.792  1.00  0.00     0.142 A 
HETATM    6  N3  UNL     1     -15.522  -9.399 -20.430  1.00  0.00    -0.284 N 
HETATM    7  N4  UNL     1     -14.347  -8.793 -20.654  1.00  0.00    -0.302 N 
ATOM      8  H3  UNL     1     -16.351  -8.949 -20.041  1.00  0.00     0.188 HD
HETATM    9  C9  UNL     1     -13.469  -9.679 -21.174  1.00  0.00     0.047 A 
ATOM     10  H4  UNL     1     -14.145  -7.812 -20.462  1.00  0.00     0.186 HD
HETATM   11  C14 UNL     1     -14.164 -10.870 -21.260  1.00  0.00     0.080 A 
HETATM   12 BR1  UNL     1     -13.446 -12.514 -21.926  1.00  0.00    -0.045 Br
BRANCH   9  13
HETATM   13  C10 UNL     1     -12.064  -9.380 -21.556  1.00  0.00     0.060 C 
BRANCH  13  14
HETATM   14  C11 UNL     1     -11.883  -9.221 -23.038  1.00  0.00     0.006 C 
BRANCH  14  15
HETATM   15  C12 UNL     1     -12.716  -8.036 -23.471  1.00  0.00    -0.004 C 
HETATM   16  C13 UNL     1     -12.024  -7.220 -24.542  1.00  0.00     0.005 C 
ENDBRANCH  14  15
ENDBRANCH  13  14
ENDBRANCH   9  13
ENDBRANCH   3   5
BRANCH   1  17
HETATM   17  C6  UNL     1     -18.846 -11.908 -20.743  1.00  0.00     0.144 C 
BRANCH  17  18
HETATM   18  C5  UNL     1     -18.839 -13.424 -20.944  1.00  0.00     0.224 C 
HETATM   19  O1  UNL     1     -20.170 -13.817 -20.922  1.00  0.00    -0.357 OA
HETATM   20  C4  UNL     1     -20.605 -14.026 -22.200  1.00  0.00     0.300 C 
HETATM   21  N1  UNL     1     -19.560 -13.677 -23.128  1.00  0.00    -0.294 N 
HETATM   22  C15 UNL     1     -18.365 -13.654 -22.331  1.00  0.00     0.253 C 
HETATM   23  O3  UNL     1     -17.202 -13.793 -22.718  1.00  0.00    -0.270 OA
BRANCH  21  24
HETATM   24  C3  UNL     1     -19.678 -13.408 -24.550  1.00  0.00     0.298 C 
HETATM   25  F1  UNL     1     -18.418 -13.184 -25.094  1.00  0.00    -0.222 F 
BRANCH  24  26
HETATM   26  C2  UNL     1     -20.574 -12.246 -24.794  1.00  0.00     0.021 C 
HETATM   27  C1  UNL     1     -20.935 -11.937 -26.029  1.00  0.00     0.012 C 
ENDBRANCH  24  26
ENDBRANCH  21  24
ENDBRANCH  17  18
ENDBRANCH   1  17
TORSDOF 8
ENDMDL
MODEL 2
REMARK VINA RESULT: -7.933530929      0.785      1.058
REMARK  8 active torsions:
REMARK  status: ('A' for Active; 'I' for Inactive)
REMARK    1  A    between atoms: C2_2  and  C3_3 
REMARK    2  A    between atoms: C3_3  and  N1_5 
REMARK    3  A    between atoms: C5_8  and  C6_9 
REMARK    4  A    between atoms: C6_9  and  C7_10 
REMARK       I    between atoms: C7_10  and  N2_12 
REMARK    5  A    between atoms: N2_12  and  C8_14 
REMARK    6  A    between atoms: C9_19  and  C10_20 
REMARK    7  A    between atoms: C10_20  and  C11_21 
REMARK    8  A    between atoms: C11_21  and  C12_22 
ROOT
HETATM    1  C7  UNL     1     -17.723 -11.772 -20.060  1.00  0.00     0.226 C 
HETATM    2  O2  UNL     1     -18.033 -10.892 -19.218  1.00  0.00    -0.273 OA
HETATM    3  N2  UNL     1     -16.360 -11.944 -20.376  1.00  0.00    -0.311 N 
ATOM      4  H2  UNL     1     -15.989 -12.894 -20.417  1.00  0.00     0.170 HD
ENDROOT
BRANCH   3   5
HETATM    5  C8  UNL     1     -15.558 -10.964 -20.614  1.00  0.00     0.142 A 
HETATM    6  N3  UNL     1     -15.712  -9.657 -20.399  1.00  0.00    -0.284 N 
HETATM    7  N4  UNL     1     -14.614  -9.001 -20.804  1.00  0.00    -0.302 N 
ATOM      8  H3  UNL     1     -16.538  -9.222 -19.989  1.00  0.00     0.188 HD
HETATM    9  C9  UNL     1     -13.714  -9.880 -21.298  1.00  0.00     0.047 A 
ATOM     10  H4  UNL     1     -14.479  -7.992 -20.749  1.00  0.00     0.186 HD
HETATM   11  C14 UNL     1     -14.313 -11.119 -21.176  1.00  0.00     0.080 A 
HETATM   12 BR1  UNL     1     -13.521 -12.778 -21.709  1.00  0.00    -0.045 Br
BRANCH   9  13
HETATM   13  C10 UNL     1     -12.376  -9.531 -21.844  1.00  0.00     0.060 C 
BRANCH  13  14
HETATM   14  C11 UNL     1     -12.455  -8.702 -23.094  1.00  0.00     0.006 C 
BRANCH  14  15
HETATM   15  C12 UNL     1     -11.476  -9.287 -24.087  1.00  0.00    -0.004 C 
HETATM   16  C13 UNL     1     -11.123 -10.721 -23.756  1.00  0.00     0.005 C 
ENDBRANCH  14  15
ENDBRANCH  13  14
ENDBRANCH   9  13
ENDBRANCH   3   5
BRANCH   1  17
HETATM   17  C6  UNL     1     -18.782 -12.603 -20.699  1.00  0.00     0.144 C 
BRANCH  17  18
HETATM   18  C5  UNL     1     -18.168 -13.864 -21.312  1.00  0.00     0.224 C 
HETATM   19  O1  UNL     1     -19.152 -14.840 -21.238  1.00  0.00    -0.357 OA
HETATM   20  C4  UNL     1     -19.743 -14.986 -22.460  1.00  0.00     0.300 C 
HETATM   21  N1  UNL     1     -19.204 -14.013 -23.375  1.00  0.00    -0.294 N 
HETATM   22  C15 UNL     1     -17.985 -13.573 -22.754  1.00  0.00     0.253 C 
HETATM   23  O3  UNL     1     -17.004 -13.065 -23.303  1.00  0.00    -0.270 OA
BRANCH  21  24
HETATM   24  C3  UNL     1     -19.759 -13.571 -24.641  1.00  0.00     0.298 C 
HETATM   25  F1  UNL     1     -18.736 -13.371 -25.561  1.00  0.00    -0.222 F 
BRANCH  24  26
HETATM   26  C2  UNL     1     -20.558 -12.329 -24.462  1.00  0.00     0.021 C 
HETATM   27  C1  UNL     1     -21.009 -11.674 -25.519  1.00  0.00     0.012 C 
ENDBRANCH  24  26
ENDBRANCH  21  24
ENDBRANCH  17  18
ENDBRANCH   1  17
TORSDOF 8
ENDMDL
MODEL 3
REMARK VINA RESULT: -7.614426577      1.252      1.606
REMARK  8 active torsions:
REMARK  status: ('A' for Active; 'I' for Inactive)
REMARK    1  A    between atoms: C2_2  and  C3_3 
REMARK    2  A    between atoms: C3_3  and  N1_5 
REMARK    3  A    between atoms: C5_8  and  C6_9 
REMARK    4  A    between atoms: C6_9  and  C7_10 
REMARK       I    between atoms: C7_10  and  N2_12 
REMARK    5  A    between atoms: N2_12  and  C8_14 
REMARK    6  A    between atoms: C9_19  and  C10_20 
REMARK    7  A    between atoms: C10_20  and  C11_21 
REMARK    8  A    between atoms: C11_21  and  C12_22 
ROOT
HETATM    1  C7  UNL     1     -16.402 -13.548 -20.606  1.00  0.00     0.226 C 
HETATM    2  O2  UNL     1     -16.099 -13.489 -19.388  1.00  0.00    -0.273 OA
HETATM    3  N2  UNL     1     -15.563 -12.900 -21.536  1.00  0.00    -0.311 N 
ATOM      4  H2  UNL     1     -15.304 -13.403 -22.386  1.00  0.00     0.170 HD
ENDROOT
BRANCH   3   5
HETATM    5  C8  UNL     1     -15.107 -11.707 -21.368  1.00  0.00     0.142 A 
HETATM    6  N3  UNL     1     -15.723 -10.604 -20.944  1.00  0.00    -0.284 N 
HETATM    7  N4  UNL     1     -14.855  -9.581 -20.925  1.00  0.00    -0.302 N 
ATOM      8  H3  UNL     1     -16.706 -10.546 -20.675  1.00  0.00     0.188 HD
HETATM    9  C9  UNL     1     -13.642 -10.006 -21.342  1.00  0.00     0.047 A 
ATOM     10  H4  UNL     1     -15.077  -8.628 -20.639  1.00  0.00     0.186 HD
HETATM   11  C14 UNL     1     -13.804 -11.348 -21.621  1.00  0.00     0.080 A 
HETATM   12 BR1  UNL     1     -12.423 -12.511 -22.258  1.00  0.00    -0.045 Br
BRANCH   9  13
HETATM   13  C10 UNL     1     -12.425  -9.160 -21.457  1.00  0.00     0.060 C 
BRANCH  13  14
HETATM   14  C11 UNL     1     -11.971  -8.982 -22.877  1.00  0.00     0.006 C 
BRANCH  14  15
HETATM   15  C12 UNL     1     -12.775  -7.846 -23.470  1.00  0.00    -0.004 C 
HETATM   16  C13 UNL     1     -12.009  -7.116 -24.552  1.00  0.00     0.005 C 
ENDBRANCH  14  15
ENDBRANCH  13  14
ENDBRANCH   9  13
ENDBRANCH   3   5
BRANCH   1  17
HETATM   17  C6  UNL     1     -17.622 -14.287 -21.040  1.00  0.00     0.144 C 
BRANCH  17  18
HETATM   18  C5  UNL     1     -18.869 -13.427 -20.822  1.00  0.00     0.224 C 
HETATM   19  O1  UNL     1     -18.488 -12.125 -21.116  1.00  0.00    -0.357 OA
HETATM   20  C4  UNL     1     -18.934 -11.790 -22.363  1.00  0.00     0.300 C 
HETATM   21  N1  UNL     1     -19.560 -12.935 -22.973  1.00  0.00    -0.294 N 
HETATM   22  C15 UNL     1     -19.831 -13.823 -21.878  1.00  0.00     0.253 C 
HETATM   23  O3  UNL     1     -20.679 -14.719 -21.829  1.00  0.00    -0.270 OA
BRANCH  21  24
HETATM   24  C3  UNL     1     -19.856 -13.150 -24.379  1.00  0.00     0.298 C 
HETATM   25  F1  UNL     1     -18.672 -13.219 -25.105  1.00  0.00    -0.222 F 
BRANCH  24  26
HETATM   26  C2  UNL     1     -20.736 -12.072 -24.904  1.00  0.00     0.021 C 
HETATM   27  C1  UNL     1     -21.005 -12.008 -26.198  1.00  0.00     0.012 C 
ENDBRANCH  24  26
ENDBRANCH  21  24
ENDBRANCH  17  18
ENDBRANCH   1  17
TORSDOF 8
ENDMDL
MODEL 4
REMARK VINA RESULT: -7.570492696      1.706      2.473
REMARK  8 active torsions:
REMARK  status: ('A' for Active; 'I' for Inactive)
REMARK    1  A    between atoms: C2_2  and  C3_3 
REMARK    2  A    between atoms: C3_3  and  N1_5 
REMARK    3  A    between atoms: C5_8  and  C6_9 
REMARK    4  A    between atoms: C6_9  and  C7_10 
REMARK       I    between atoms: C7_10  and  N2_12 
REMARK    5  A    between atoms: N2_12  and  C8_14 
REMARK    6  A    between atoms: C9_19  and  C10_20 
REMARK    7  A    between atoms: C10_20  and  C11_21 
REMARK    8  A    between atoms: C11_21  and  C12_22 
ROOT
HETATM    1  C7  UNL     1     -17.016 -14.171 -21.899  1.00  0.00     0.226 C 
HETATM    2  O2  UNL     1     -16.420 -14.728 -20.943  1.00  0.00    -0.273 OA
HETATM    3  N2  UNL     1     -16.500 -12.954 -22.391  1.00  0.00    -0.311 N 
ATOM      4  H2  UNL     1     -16.422 -12.835 -23.401  1.00  0.00     0.170 HD
ENDROOT
BRANCH   3   5
HETATM    5  C8  UNL     1     -16.122 -11.985 -21.630  1.00  0.00     0.142 A 
HETATM    6  N3  UNL     1     -16.838 -11.026 -21.044  1.00  0.00    -0.284 N 
HETATM    7  N4  UNL     1     -16.025 -10.224 -20.339  1.00  0.00    -0.302 N 
ATOM      8  H3  UNL     1     -17.849 -10.917 -21.119  1.00  0.00     0.188 HD
HETATM    9  C9  UNL     1     -14.749 -10.653 -20.456  1.00  0.00     0.047 A 
ATOM     10  H4  UNL     1     -16.324  -9.414 -19.797  1.00  0.00     0.186 HD
HETATM   11  C14 UNL     1     -14.814 -11.765 -21.272  1.00  0.00     0.080 A 
HETATM   12 BR1  UNL     1     -13.310 -12.822 -21.809  1.00  0.00    -0.045 Br
BRANCH   9  13
HETATM   13  C10 UNL     1     -13.564 -10.021 -19.819  1.00  0.00     0.060 C 
BRANCH  13  14
HETATM   14  C11 UNL     1     -13.090  -8.799 -20.552  1.00  0.00     0.006 C 
BRANCH  14  15
HETATM   15  C12 UNL     1     -12.086  -9.253 -21.587  1.00  0.00    -0.004 C 
HETATM   16  C13 UNL     1     -12.504  -8.863 -22.989  1.00  0.00     0.005 C 
ENDBRANCH  14  15
ENDBRANCH  13  14
ENDBRANCH   9  13
ENDBRANCH   3   5
BRANCH   1  17
HETATM   17  C6  UNL     1     -18.236 -14.794 -22.487  1.00  0.00     0.144 C 
BRANCH  17  18
HETATM   18  C5  UNL     1     -19.433 -14.600 -21.553  1.00  0.00     0.224 C 
HETATM   19  O1  UNL     1     -19.261 -13.351 -20.970  1.00  0.00    -0.357 OA
HETATM   20  C4  UNL     1     -20.072 -12.443 -21.589  1.00  0.00     0.300 C 
HETATM   21  N1  UNL     1     -20.753 -13.077 -22.689  1.00  0.00    -0.294 N 
HETATM   22  C15 UNL     1     -20.623 -14.483 -22.430  1.00  0.00     0.253 C 
HETATM   23  O3  UNL     1     -21.345 -15.394 -22.847  1.00  0.00    -0.270 OA
BRANCH  21  24
HETATM   24  C3  UNL     1     -21.423 -12.444 -23.811  1.00  0.00     0.298 C 
HETATM   25  F1  UNL     1     -22.728 -12.913 -23.907  1.00  0.00    -0.222 F 
BRANCH  24  26
HETATM   26  C2  UNL     1     -20.679 -12.688 -25.075  1.00  0.00     0.021 C 
HETATM   27  C1  UNL     1     -20.975 -11.994 -26.163  1.00  0.00     0.012 C 
ENDBRANCH  24  26
ENDBRANCH  21  24
ENDBRANCH  17  18
ENDBRANCH   1  17
TORSDOF 8
ENDMDL
MODEL 5
REMARK VINA RESULT: -7.560881474      2.675      7.273
REMARK  8 active torsions:
REMARK  status: ('A' for Active; 'I' for Inactive)
REMARK    1  A    between atoms: C2_2  and  C3_3 
REMARK    2  A    between atoms: C3_3  and  N1_5 
REMARK    3  A    between atoms: C5_8  and  C6_9 
REMARK    4  A    between atoms: C6_9  and  C7_10 
REMARK       I    between atoms: C7_10  and  N2_12 
REMARK    5  A    between atoms: N2_12  and  C8_14 
REMARK    6  A    between atoms: C9_19  and  C10_20 
REMARK    7  A    between atoms: C10_20  and  C11_21 
REMARK    8  A    between atoms: C11_21  and  C12_22 
ROOT
HETATM    1  C7  UNL     1     -16.463 -12.488 -20.877  1.00  0.00     0.226 C 
HETATM    2  O2  UNL     1     -16.729 -13.185 -19.866  1.00  0.00    -0.273 OA
HETATM    3  N2  UNL     1     -17.476 -11.664 -21.408  1.00  0.00    -0.311 N 
ATOM      4  H2  UNL     1     -17.238 -10.704 -21.659  1.00  0.00     0.170 HD
ENDROOT
BRANCH   3   5
HETATM    5  C8  UNL     1     -18.688 -12.061 -21.593  1.00  0.00     0.142 A 
HETATM    6  N3  UNL     1     -19.769 -11.903 -20.829  1.00  0.00    -0.284 N 
HETATM    7  N4  UNL     1     -20.825 -12.485 -21.416  1.00  0.00    -0.302 N 
ATOM      8  H3  UNL     1     -19.790 -11.413 -19.934  1.00  0.00     0.188 HD
HETATM    9  C9  UNL     1     -20.446 -13.042 -22.588  1.00  0.00     0.047 A 
ATOM     10  H4  UNL     1     -21.772 -12.506 -21.036  1.00  0.00     0.186 HD
HETATM   11  C14 UNL     1     -19.096 -12.772 -22.696  1.00  0.00     0.080 A 
HETATM   12 BR1  UNL     1     -17.984 -13.309 -24.159  1.00  0.00    -0.045 Br
BRANCH   9  13
HETATM   13  C10 UNL     1     -21.337 -13.777 -23.523  1.00  0.00     0.060 C 
BRANCH  13  14
HETATM   14  C11 UNL     1     -22.260 -12.869 -24.284  1.00  0.00     0.006 C 
BRANCH  14  15
HETATM   15  C12 UNL     1     -21.409 -11.803 -24.937  1.00  0.00    -0.004 C 
HETATM   16  C13 UNL     1     -21.056 -12.157 -26.365  1.00  0.00     0.005 C 
ENDBRANCH  14  15
ENDBRANCH  13  14
ENDBRANCH   9  13
ENDBRANCH   3   5
BRANCH   1  17
HETATM   17  C6  UNL     1     -15.104 -12.544 -21.488  1.00  0.00     0.144 C 
BRANCH  17  18
HETATM   18  C5  UNL     1     -14.032 -12.315 -20.420  1.00  0.00     0.224 C 
HETATM   19  O1  UNL     1     -12.885 -12.937 -20.893  1.00  0.00    -0.357 OA
HETATM   20  C4  UNL     1     -12.038 -11.999 -21.410  1.00  0.00     0.300 C 
HETATM   21  N1  UNL     1     -12.669 -10.705 -21.368  1.00  0.00    -0.294 N 
HETATM   22  C15 UNL     1     -13.745 -10.860 -20.430  1.00  0.00     0.253 C 
HETATM   23  O3  UNL     1     -14.307  -9.975 -19.778  1.00  0.00    -0.270 OA
BRANCH  21  24
HETATM   24  C3  UNL     1     -12.305  -9.508 -22.105  1.00  0.00     0.298 C 
HETATM   25  F1  UNL     1     -13.447  -8.774 -22.405  1.00  0.00    -0.222 F 
BRANCH  24  26
HETATM   26  C2  UNL     1     -11.561  -9.857 -23.344  1.00  0.00     0.021 C 
HETATM   27  C1  UNL     1     -11.427  -8.963 -24.310  1.00  0.00     0.012 C 
ENDBRANCH  24  26
ENDBRANCH  21  24
ENDBRANCH  17  18
ENDBRANCH   1  17
TORSDOF 8
ENDMDL
