MODEL 1
REMARK VINA RESULT: -8.006798102      0.000      0.000
REMARK  7 active torsions:
REMARK  status: ('A' for Active; 'I' for Inactive)
REMARK    1  A    between atoms: C3_3  and  N1_4 
REMARK    2  A    between atoms: N2_8  and  C6_9 
REMARK    3  A    between atoms: C6_9  and  C7_10 
REMARK    4  A    between atoms: C10_15  and  C11_16 
REMARK    5  A    between atoms: N4_23  and  C16_24 
REMARK    6  A    between atoms: C16_24  and  C17_25 
REMARK    7  A    between atoms: C17_25  and  O2_26 
ROOT
HETATM    1  C1  UNL     1     -11.263 -10.627 -23.856  1.00  0.00     0.014 C 
HETATM    2  C2  UNL     1     -11.715 -11.325 -22.968  1.00  0.00    -0.098 C 
HETATM    3  C3  UNL     1     -12.261 -12.156 -21.863  1.00  0.00     0.214 C 
ENDROOT
BRANCH   3   4
HETATM    4  N1  UNL     1     -13.648 -12.385 -22.014  1.00  0.00    -0.368 N 
HETATM    5  C4  UNL     1     -14.671 -11.745 -21.701  1.00  0.00     0.094 C 
HETATM    6  C5  UNL     1     -15.996 -12.349 -22.047  1.00  0.00     0.202 C 
HETATM    7  N4  UNL     1     -14.702 -10.495 -21.042  1.00  0.00    -0.359 N 
HETATM    8  N2  UNL     1     -16.899 -12.303 -20.913  1.00  0.00    -0.339 N 
HETATM    9  C14 UNL     1     -16.686 -11.349 -19.889  1.00  0.00     0.238 C 
HETATM   10  O1  UNL     1     -17.462 -11.302 -18.876  1.00  0.00    -0.272 OA
HETATM   11  C15 UNL     1     -15.597 -10.368 -19.901  1.00  0.00     0.227 C 
ATOM     12  H1  UNL     1     -13.858 -13.267 -22.482  1.00  0.00     0.161 HD
BRANCH   8  13
HETATM   13  C6  UNL     1     -17.934 -13.280 -20.851  1.00  0.00     0.168 C 
BRANCH  13  14
HETATM   14  C7  UNL     1     -19.124 -13.080 -21.680  1.00  0.00     0.001 A 
HETATM   15  C8  UNL     1     -20.272 -12.449 -21.160  1.00  0.00     0.015 A 
HETATM   16  C9  UNL     1     -20.427 -11.952 -19.760  1.00  0.00     0.069 C 
HETATM   17  N3  UNL     1     -21.179 -12.381 -22.132  1.00  0.00    -0.362 N 
HETATM   18  C10 UNL     1     -20.709 -12.923 -23.262  1.00  0.00     0.027 A 
ATOM     19  H3  UNL     1     -22.107 -11.970 -22.030  1.00  0.00     0.165 HD
HETATM   20  C13 UNL     1     -19.415 -13.357 -22.955  1.00  0.00     0.043 A 
HETATM   21 BR1  UNL     1     -18.310 -14.190 -24.282  1.00  0.00    -0.048 Br
BRANCH  18  22
HETATM   22  C11 UNL     1     -21.427 -13.030 -24.554  1.00  0.00     0.054 C 
HETATM   23  C12 UNL     1     -21.047 -11.895 -25.471  1.00  0.00     0.011 C 
ENDBRANCH  18  22
ENDBRANCH  13  14
ENDBRANCH   8  13
BRANCH   7  24
HETATM   24  C16 UNL     1     -13.920  -9.365 -21.421  1.00  0.00     0.150 C 
BRANCH  24  25
HETATM   25  C17 UNL     1     -12.711  -9.224 -20.486  1.00  0.00     0.183 C 
BRANCH  25  26
HETATM   26  O2  UNL     1     -13.029  -8.399 -19.435  1.00  0.00    -0.399 OA
ATOM     27  H2  UNL     1     -13.720  -8.792 -18.916  1.00  0.00     0.209 HD
ENDBRANCH  25  26
ENDBRANCH  24  25
ENDBRANCH   7  24
ENDBRANCH   3   4
TORSDOF 7
ENDMDL
MODEL 2
REMARK VINA RESULT: -7.966085922      1.580      2.068
REMARK  7 active torsions:
REMARK  status: ('A' for Active; 'I' for Inactive)
REMARK    1  A    between atoms: C3_3  and  N1_4 
REMARK    2  A    between atoms: N2_8  and  C6_9 
REMARK    3  A    between atoms: C6_9  and  C7_10 
REMARK    4  A    between atoms: C10_15  and  C11_16 
REMARK    5  A    between atoms: N4_23  and  C16_24 
REMARK    6  A    between atoms: C16_24  and  C17_25 
REMARK    7  A    between atoms: C17_25  and  O2_26 
ROOT
HETATM    1  C1  UNL     1     -11.474 -15.807 -18.883  1.00  0.00     0.014 C 
HETATM    2  C2  UNL     1     -11.847 -14.831 -19.507  1.00  0.00    -0.098 C 
HETATM    3  C3  UNL     1     -12.285 -13.647 -20.292  1.00  0.00     0.214 C 
ENDROOT
BRANCH   3   4
HETATM    4  N1  UNL     1     -13.633 -13.758 -20.703  1.00  0.00    -0.368 N 
HETATM    5  C4  UNL     1     -14.481 -12.946 -21.120  1.00  0.00     0.094 C 
HETATM    6  C5  UNL     1     -15.839 -13.478 -21.457  1.00  0.00     0.202 C 
HETATM    7  N4  UNL     1     -14.285 -11.558 -21.305  1.00  0.00    -0.359 N 
HETATM    8  N2  UNL     1     -16.878 -12.653 -20.873  1.00  0.00    -0.339 N 
HETATM    9  C14 UNL     1     -16.596 -11.307 -20.537  1.00  0.00     0.238 C 
HETATM   10  O1  UNL     1     -17.494 -10.569 -20.008  1.00  0.00    -0.272 OA
HETATM   11  C15 UNL     1     -15.297 -10.666 -20.757  1.00  0.00     0.227 C 
ATOM     12  H1  UNL     1     -13.990 -14.712 -20.645  1.00  0.00     0.161 HD
BRANCH   8  13
HETATM   13  C6  UNL     1     -18.134 -13.266 -20.599  1.00  0.00     0.168 C 
BRANCH  13  14
HETATM   14  C7  UNL     1     -19.236 -13.038 -21.537  1.00  0.00     0.001 A 
HETATM   15  C8  UNL     1     -20.372 -12.297 -21.154  1.00  0.00     0.015 A 
HETATM   16  C9  UNL     1     -20.602 -11.702 -19.803  1.00  0.00     0.069 C 
HETATM   17  N3  UNL     1     -21.188 -12.227 -22.203  1.00  0.00    -0.362 N 
HETATM   18  C10 UNL     1     -20.670 -12.871 -23.255  1.00  0.00     0.027 A 
ATOM     19  H3  UNL     1     -22.089 -11.748 -22.204  1.00  0.00     0.165 HD
HETATM   20  C13 UNL     1     -19.441 -13.374 -22.814  1.00  0.00     0.043 A 
HETATM   21 BR1  UNL     1     -18.297 -14.364 -23.992  1.00  0.00    -0.048 Br
BRANCH  18  22
HETATM   22  C11 UNL     1     -21.286 -13.009 -24.596  1.00  0.00     0.054 C 
HETATM   23  C12 UNL     1     -21.036 -11.777 -25.428  1.00  0.00     0.011 C 
ENDBRANCH  18  22
ENDBRANCH  13  14
ENDBRANCH   8  13
BRANCH   7  24
HETATM   24  C16 UNL     1     -13.171 -10.986 -21.985  1.00  0.00     0.150 C 
BRANCH  24  25
HETATM   25  C17 UNL     1     -13.165  -9.463 -21.800  1.00  0.00     0.183 C 
BRANCH  25  26
HETATM   26  O2  UNL     1     -12.021  -9.078 -21.145  1.00  0.00    -0.399 OA
ATOM     27  H2  UNL     1     -12.233  -8.436 -20.477  1.00  0.00     0.209 HD
ENDBRANCH  25  26
ENDBRANCH  24  25
ENDBRANCH   7  24
ENDBRANCH   3   4
TORSDOF 7
ENDMDL
MODEL 3
REMARK VINA RESULT: -7.858541848      2.490      6.860
REMARK  7 active torsions:
REMARK  status: ('A' for Active; 'I' for Inactive)
REMARK    1  A    between atoms: C3_3  and  N1_4 
REMARK    2  A    between atoms: N2_8  and  C6_9 
REMARK    3  A    between atoms: C6_9  and  C7_10 
REMARK    4  A    between atoms: C10_15  and  C11_16 
REMARK    5  A    between atoms: N4_23  and  C16_24 
REMARK    6  A    between atoms: C16_24  and  C17_25 
REMARK    7  A    between atoms: C17_25  and  O2_26 
ROOT
HETATM    1  C1  UNL     1     -18.571 -15.937 -25.123  1.00  0.00     0.014 C 
HETATM    2  C2  UNL     1     -18.373 -14.860 -24.592  1.00  0.00    -0.098 C 
HETATM    3  C3  UNL     1     -18.159 -13.545 -23.932  1.00  0.00     0.214 C 
ENDROOT
BRANCH   3   4
HETATM    4  N1  UNL     1     -17.193 -13.626 -22.903  1.00  0.00    -0.368 N 
HETATM    5  C4  UNL     1     -17.202 -13.369 -21.683  1.00  0.00     0.094 C 
HETATM    6  C5  UNL     1     -15.934 -13.595 -20.920  1.00  0.00     0.202 C 
HETATM    7  N4  UNL     1     -18.302 -12.876 -20.944  1.00  0.00    -0.359 N 
HETATM    8  N2  UNL     1     -15.620 -12.452 -20.087  1.00  0.00    -0.339 N 
HETATM    9  C14 UNL     1     -16.653 -11.566 -19.696  1.00  0.00     0.238 C 
HETATM   10  O1  UNL     1     -16.393 -10.545 -18.974  1.00  0.00    -0.272 OA
HETATM   11  C15 UNL     1     -18.059 -11.736 -20.073  1.00  0.00     0.227 C 
ATOM     12  H1  UNL     1     -16.290 -13.969 -23.230  1.00  0.00     0.161 HD
BRANCH   8  13
HETATM   13  C6  UNL     1     -14.253 -12.233 -19.751  1.00  0.00     0.168 C 
BRANCH  13  14
HETATM   14  C7  UNL     1     -13.347 -11.769 -20.804  1.00  0.00     0.001 A 
HETATM   15  C8  UNL     1     -12.486 -12.665 -21.467  1.00  0.00     0.015 A 
HETATM   16  C9  UNL     1     -12.370 -14.127 -21.179  1.00  0.00     0.069 C 
HETATM   17  N3  UNL     1     -11.805 -11.979 -22.382  1.00  0.00    -0.362 N 
HETATM   18  C10 UNL     1     -12.158 -10.688 -22.371  1.00  0.00     0.027 A 
ATOM     19  H3  UNL     1     -11.108 -12.383 -23.008  1.00  0.00     0.165 HD
HETATM   20  C13 UNL     1     -13.129 -10.578 -21.370  1.00  0.00     0.043 A 
HETATM   21 BR1  UNL     1     -13.970  -8.897 -20.990  1.00  0.00    -0.048 Br
BRANCH  18  22
HETATM   22  C11 UNL     1     -11.620  -9.619 -23.245  1.00  0.00     0.054 C 
HETATM   23  C12 UNL     1     -11.245 -10.173 -24.596  1.00  0.00     0.011 C 
ENDBRANCH  18  22
ENDBRANCH  13  14
ENDBRANCH   8  13
BRANCH   7  24
HETATM   24  C16 UNL     1     -19.618 -13.421 -21.001  1.00  0.00     0.150 C 
BRANCH  24  25
HETATM   25  C17 UNL     1     -20.618 -12.340 -21.433  1.00  0.00     0.183 C 
BRANCH  25  26
HETATM   26  O2  UNL     1     -21.369 -12.796 -22.488  1.00  0.00    -0.399 OA
ATOM     27  H2  UNL     1     -22.259 -12.474 -22.412  1.00  0.00     0.209 HD
ENDBRANCH  25  26
ENDBRANCH  24  25
ENDBRANCH   7  24
ENDBRANCH   3   4
TORSDOF 7
ENDMDL
MODEL 4
REMARK VINA RESULT: -7.762014149      1.837      2.303
REMARK  7 active torsions:
REMARK  status: ('A' for Active; 'I' for Inactive)
REMARK    1  A    between atoms: C3_3  and  N1_4 
REMARK    2  A    between atoms: N2_8  and  C6_9 
REMARK    3  A    between atoms: C6_9  and  C7_10 
REMARK    4  A    between atoms: C10_15  and  C11_16 
REMARK    5  A    between atoms: N4_23  and  C16_24 
REMARK    6  A    between atoms: C16_24  and  C17_25 
REMARK    7  A    between atoms: C17_25  and  O2_26 
ROOT
HETATM    1  C1  UNL     1     -11.268  -9.760 -24.117  1.00  0.00     0.014 C 
HETATM    2  C2  UNL     1     -11.436 -10.645 -23.299  1.00  0.00    -0.098 C 
HETATM    3  C3  UNL     1     -11.635 -11.707 -22.278  1.00  0.00     0.214 C 
ENDROOT
BRANCH   3   4
HETATM    4  N1  UNL     1     -12.996 -12.070 -22.156  1.00  0.00    -0.368 N 
HETATM    5  C4  UNL     1     -13.901 -11.778 -21.352  1.00  0.00     0.094 C 
HETATM    6  C5  UNL     1     -15.248 -12.393 -21.574  1.00  0.00     0.202 C 
HETATM    7  N4  UNL     1     -13.780 -10.916 -20.238  1.00  0.00    -0.359 N 
HETATM    8  N2  UNL     1     -15.775 -12.945 -20.341  1.00  0.00    -0.339 N 
HETATM    9  C14 UNL     1     -15.303 -12.458 -19.099  1.00  0.00     0.238 C 
HETATM   10  O1  UNL     1     -15.746 -12.941 -18.003  1.00  0.00    -0.272 OA
HETATM   11  C15 UNL     1     -14.301 -11.397 -18.966  1.00  0.00     0.227 C 
ATOM     12  H1  UNL     1     -13.303 -12.714 -22.885  1.00  0.00     0.161 HD
BRANCH   8  13
HETATM   13  C6  UNL     1     -16.711 -14.014 -20.442  1.00  0.00     0.168 C 
BRANCH  13  14
HETATM   14  C7  UNL     1     -17.829 -13.871 -21.377  1.00  0.00     0.001 A 
HETATM   15  C8  UNL     1     -17.936 -14.698 -22.513  1.00  0.00     0.015 A 
HETATM   16  C9  UNL     1     -16.958 -15.757 -22.906  1.00  0.00     0.069 C 
HETATM   17  N3  UNL     1     -19.050 -14.366 -23.159  1.00  0.00    -0.362 N 
HETATM   18  C10 UNL     1     -19.690 -13.374 -22.529  1.00  0.00     0.027 A 
ATOM     19  H3  UNL     1     -19.373 -14.808 -24.020  1.00  0.00     0.165 HD
HETATM   20  C13 UNL     1     -18.905 -13.078 -21.410  1.00  0.00     0.043 A 
HETATM   21 BR1  UNL     1     -19.431 -11.720 -20.163  1.00  0.00    -0.048 Br
BRANCH  18  22
HETATM   22  C11 UNL     1     -20.963 -12.740 -22.946  1.00  0.00     0.054 C 
HETATM   23  C12 UNL     1     -20.899 -12.315 -24.391  1.00  0.00     0.011 C 
ENDBRANCH  18  22
ENDBRANCH  13  14
ENDBRANCH   8  13
BRANCH   7  24
HETATM   24  C16 UNL     1     -13.185  -9.621 -20.283  1.00  0.00     0.150 C 
BRANCH  24  25
HETATM   25  C17 UNL     1     -13.959  -8.719 -21.253  1.00  0.00     0.183 C 
BRANCH  25  26
HETATM   26  O2  UNL     1     -14.986  -8.094 -20.589  1.00  0.00    -0.399 OA
ATOM     27  H2  UNL     1     -14.809  -7.164 -20.524  1.00  0.00     0.209 HD
ENDBRANCH  25  26
ENDBRANCH  24  25
ENDBRANCH   7  24
ENDBRANCH   3   4
TORSDOF 7
ENDMDL
MODEL 5
REMARK VINA RESULT: -7.402484766      2.810      7.239
REMARK  7 active torsions:
REMARK  status: ('A' for Active; 'I' for Inactive)
REMARK    1  A    between atoms: C3_3  and  N1_4 
REMARK    2  A    between atoms: N2_8  and  C6_9 
REMARK    3  A    between atoms: C6_9  and  C7_10 
REMARK    4  A    between atoms: C10_15  and  C11_16 
REMARK    5  A    between atoms: N4_23  and  C16_24 
REMARK    6  A    between atoms: C16_24  and  C17_25 
REMARK    7  A    between atoms: C17_25  and  O2_26 
ROOT
HETATM    1  C1  UNL     1     -20.964 -12.174 -25.186  1.00  0.00     0.014 C 
HETATM    2  C2  UNL     1     -20.633 -12.389 -24.035  1.00  0.00    -0.098 C 
HETATM    3  C3  UNL     1     -20.235 -12.682 -22.633  1.00  0.00     0.214 C 
ENDROOT
BRANCH   3   4
HETATM    4  N1  UNL     1     -18.840 -12.548 -22.443  1.00  0.00    -0.368 N 
HETATM    5  C4  UNL     1     -17.905 -13.357 -22.291  1.00  0.00     0.094 C 
HETATM    6  C5  UNL     1     -16.528 -12.796 -22.114  1.00  0.00     0.202 C 
HETATM    7  N4  UNL     1     -18.018 -14.766 -22.265  1.00  0.00    -0.359 N 
HETATM    8  N2  UNL     1     -15.854 -13.421 -20.994  1.00  0.00    -0.339 N 
HETATM    9  C14 UNL     1     -16.269 -14.700 -20.553  1.00  0.00     0.238 C 
HETATM   10  O1  UNL     1     -15.696 -15.261 -19.559  1.00  0.00    -0.272 OA
HETATM   11  C15 UNL     1     -17.353 -15.465 -21.175  1.00  0.00     0.227 C 
ATOM     12  H1  UNL     1     -18.533 -11.575 -22.427  1.00  0.00     0.161 HD
BRANCH   8  13
HETATM   13  C6  UNL     1     -14.832 -12.676 -20.338  1.00  0.00     0.168 C 
BRANCH  13  14
HETATM   14  C7  UNL     1     -13.761 -12.102 -21.155  1.00  0.00     0.001 A 
HETATM   15  C8  UNL     1     -12.827 -12.928 -21.810  1.00  0.00     0.015 A 
HETATM   16  C9  UNL     1     -12.792 -14.420 -21.739  1.00  0.00     0.069 C 
HETATM   17  N3  UNL     1     -11.994 -12.146 -22.493  1.00  0.00    -0.362 N 
HETATM   18  C10 UNL     1     -12.314 -10.856 -22.334  1.00  0.00     0.027 A 
ATOM     19  H3  UNL     1     -11.217 -12.484 -23.060  1.00  0.00     0.165 HD
HETATM   20  C13 UNL     1     -13.428 -10.851 -21.489  1.00  0.00     0.043 A 
HETATM   21 BR1  UNL     1     -14.280  -9.209 -20.984  1.00  0.00    -0.048 Br
BRANCH  18  22
HETATM   22  C11 UNL     1     -11.619  -9.695 -22.939  1.00  0.00     0.054 C 
HETATM   23  C12 UNL     1     -11.245  -9.982 -24.370  1.00  0.00     0.011 C 
ENDBRANCH  18  22
ENDBRANCH  13  14
ENDBRANCH   8  13
BRANCH   7  24
HETATM   24  C16 UNL     1     -18.736 -15.533 -23.228  1.00  0.00     0.150 C 
BRANCH  24  25
HETATM   25  C17 UNL     1     -18.150 -15.303 -24.628  1.00  0.00     0.183 C 
BRANCH  25  26
HETATM   26  O2  UNL     1     -16.870 -15.796 -24.684  1.00  0.00    -0.399 OA
ATOM     27  H2  UNL     1     -16.254 -15.123 -24.417  1.00  0.00     0.209 HD
ENDBRANCH  25  26
ENDBRANCH  24  25
ENDBRANCH   7  24
ENDBRANCH   3   4
TORSDOF 7
ENDMDL
