MODEL 1
REMARK VINA RESULT: -7.694829647      0.000      0.000
REMARK  8 active torsions:
REMARK  status: ('A' for Active; 'I' for Inactive)
REMARK    1  A    between atoms: C2_2  and  C3_3 
REMARK    2  A    between atoms: C3_3  and  C4_4 
REMARK    3  A    between atoms: C4_4  and  C5_5 
REMARK    4  A    between atoms: C5_5  and  N1_6 
REMARK    5  A    between atoms: N1_6  and  C6_8 
REMARK    6  A    between atoms: C8_13  and  C9_14 
REMARK    7  A    between atoms: C9_14  and  C10_15 
REMARK    8  A    between atoms: C13_18  and  O2_19 
ROOT
HETATM    1  C6  UNL     1     -13.546 -10.855 -20.569  1.00  0.00     0.130 A 
HETATM    2  N2  UNL     1     -14.669 -10.203 -20.229  1.00  0.00    -0.306 N 
ATOM      3  H2  UNL     1     -14.636  -9.190 -20.125  1.00  0.00     0.170 HD
HETATM    4  C7  UNL     1     -15.853 -10.849 -20.018  1.00  0.00     0.273 A 
HETATM    5  O1  UNL     1     -16.861 -10.144 -19.699  1.00  0.00    -0.266 OA
HETATM    6  C8  UNL     1     -15.919 -12.205 -20.152  1.00  0.00     0.102 A 
HETATM    7  N3  UNL     1     -14.813 -12.875 -20.490  1.00  0.00    -0.349 N 
ATOM      8  H3  UNL     1     -14.859 -13.889 -20.590  1.00  0.00     0.166 HD
HETATM    9  C17 UNL     1     -13.647 -12.252 -20.699  1.00  0.00     0.067 A 
HETATM   10  C18 UNL     1     -12.566 -12.927 -21.031  1.00  0.00     0.047 C 
ENDROOT
BRANCH   6  11
HETATM   11  C9  UNL     1     -17.033 -12.841 -19.956  1.00  0.00     0.046 C 
BRANCH  11  12
HETATM   12  C10 UNL     1     -18.088 -12.941 -20.986  1.00  0.00    -0.032 A 
HETATM   13  C11 UNL     1     -19.398 -12.606 -20.724  1.00  0.00     0.014 A 
HETATM   14  C12 UNL     1     -20.376 -12.706 -21.703  1.00  0.00     0.039 A 
HETATM   15  C13 UNL     1     -20.078 -13.143 -22.976  1.00  0.00     0.085 A 
HETATM   16  C15 UNL     1     -18.766 -13.479 -23.237  1.00  0.00     0.045 A 
HETATM   17 BR1  UNL     1     -18.347 -14.086 -25.000  1.00  0.00    -0.048 Br
HETATM   18  C16 UNL     1     -17.785 -13.379 -22.256  1.00  0.00     0.033 A 
BRANCH  15  19
HETATM   19  O2  UNL     1     -21.070 -13.238 -23.948  1.00  0.00    -0.355 OA
HETATM   20  C14 UNL     1     -21.480 -12.063 -24.622  1.00  0.00     0.210 C 
ENDBRANCH  15  19
ENDBRANCH  11  12
ENDBRANCH   6  11
BRANCH   1  21
HETATM   21  N1  UNL     1     -12.405 -10.289 -20.778  1.00  0.00    -0.374 N 
ATOM     22  H1  UNL     1     -11.630 -10.474 -20.142  1.00  0.00     0.161 HD
BRANCH  21  23
HETATM   23  C5  UNL     1     -12.207  -9.410 -21.884  1.00  0.00     0.121 C 
BRANCH  23  24
HETATM   24  C4  UNL     1     -11.584 -10.107 -23.094  1.00  0.00     0.023 C 
BRANCH  24  25
HETATM   25  C3  UNL     1     -11.508  -9.089 -24.224  1.00  0.00     0.028 C 
BRANCH  25  26
HETATM   26  C2  UNL     1     -12.319  -7.900 -23.947  1.00  0.00    -0.037 C 
HETATM   27  C1  UNL     1     -12.103  -6.784 -24.616  1.00  0.00     0.007 C 
ENDBRANCH  25  26
ENDBRANCH  24  25
ENDBRANCH  23  24
ENDBRANCH  21  23
ENDBRANCH   1  21
TORSDOF 8
ENDMDL
MODEL 2
REMARK VINA RESULT: -7.521539760      1.337      1.835
REMARK  8 active torsions:
REMARK  status: ('A' for Active; 'I' for Inactive)
REMARK    1  A    between atoms: C2_2  and  C3_3 
REMARK    2  A    between atoms: C3_3  and  C4_4 
REMARK    3  A    between atoms: C4_4  and  C5_5 
REMARK    4  A    between atoms: C5_5  and  N1_6 
REMARK    5  A    between atoms: N1_6  and  C6_8 
REMARK    6  A    between atoms: C8_13  and  C9_14 
REMARK    7  A    between atoms: C9_14  and  C10_15 
REMARK    8  A    between atoms: C13_18  and  O2_19 
ROOT
HETATM    1  C6  UNL     1     -13.408 -10.789 -20.600  1.00  0.00     0.130 A 
HETATM    2  N2  UNL     1     -13.771 -11.938 -20.010  1.00  0.00    -0.306 N 
ATOM      3  H2  UNL     1     -13.074 -12.674 -19.898  1.00  0.00     0.170 HD
HETATM    4  C7  UNL     1     -15.039 -12.158 -19.555  1.00  0.00     0.273 A 
HETATM    5  O1  UNL     1     -15.285 -13.280 -19.010  1.00  0.00    -0.266 OA
HETATM    6  C8  UNL     1     -15.987 -11.187 -19.695  1.00  0.00     0.102 A 
HETATM    7  N3  UNL     1     -15.649 -10.034 -20.280  1.00  0.00    -0.349 N 
ATOM      8  H3  UNL     1     -16.356  -9.306 -20.386  1.00  0.00     0.166 HD
HETATM    9  C17 UNL     1     -14.408  -9.808 -20.729  1.00  0.00     0.067 A 
HETATM   10  C18 UNL     1     -14.091  -8.667 -21.303  1.00  0.00     0.047 C 
ENDROOT
BRANCH   6  11
HETATM   11  C9  UNL     1     -17.199 -11.372 -19.271  1.00  0.00     0.046 C 
BRANCH  11  12
HETATM   12  C10 UNL     1     -18.283 -11.876 -20.140  1.00  0.00    -0.032 A 
HETATM   13  C11 UNL     1     -19.610 -11.618 -19.876  1.00  0.00     0.014 A 
HETATM   14  C12 UNL     1     -20.614 -12.098 -20.704  1.00  0.00     0.039 A 
HETATM   15  C13 UNL     1     -20.327 -12.853 -21.821  1.00  0.00     0.085 A 
HETATM   16  C15 UNL     1     -18.997 -13.111 -22.083  1.00  0.00     0.045 A 
HETATM   17 BR1  UNL     1     -18.594 -14.157 -23.631  1.00  0.00    -0.048 Br
HETATM   18  C16 UNL     1     -17.990 -12.629 -21.255  1.00  0.00     0.033 A 
BRANCH  15  19
HETATM   19  O2  UNL     1     -21.346 -13.328 -22.642  1.00  0.00    -0.355 OA
HETATM   20  C14 UNL     1     -21.813 -12.507 -23.697  1.00  0.00     0.210 C 
ENDBRANCH  15  19
ENDBRANCH  11  12
ENDBRANCH   6  11
BRANCH   1  21
HETATM   21  N1  UNL     1     -12.224 -10.536 -21.046  1.00  0.00    -0.374 N 
ATOM     22  H1  UNL     1     -11.718  -9.725 -20.690  1.00  0.00     0.161 HD
BRANCH  21  23
HETATM   23  C5  UNL     1     -11.608 -11.369 -22.026  1.00  0.00     0.121 C 
BRANCH  23  24
HETATM   24  C4  UNL     1     -11.547 -10.717 -23.408  1.00  0.00     0.023 C 
BRANCH  24  25
HETATM   25  C3  UNL     1     -11.503  -9.209 -23.204  1.00  0.00     0.028 C 
BRANCH  25  26
HETATM   26  C2  UNL     1     -11.646  -8.480 -24.468  1.00  0.00    -0.037 C 
HETATM   27  C1  UNL     1     -12.135  -7.255 -24.472  1.00  0.00     0.007 C 
ENDBRANCH  25  26
ENDBRANCH  24  25
ENDBRANCH  23  24
ENDBRANCH  21  23
ENDBRANCH   1  21
TORSDOF 8
ENDMDL
MODEL 3
REMARK VINA RESULT: -7.432640022      2.693      7.059
REMARK  8 active torsions:
REMARK  status: ('A' for Active; 'I' for Inactive)
REMARK    1  A    between atoms: C2_2  and  C3_3 
REMARK    2  A    between atoms: C3_3  and  C4_4 
REMARK    3  A    between atoms: C4_4  and  C5_5 
REMARK    4  A    between atoms: C5_5  and  N1_6 
REMARK    5  A    between atoms: N1_6  and  C6_8 
REMARK    6  A    between atoms: C8_13  and  C9_14 
REMARK    7  A    between atoms: C9_14  and  C10_15 
REMARK    8  A    between atoms: C13_18  and  O2_19 
ROOT
HETATM    1  C6  UNL     1     -18.418 -12.802 -20.826  1.00  0.00     0.130 A 
HETATM    2  N2  UNL     1     -18.167 -11.850 -19.914  1.00  0.00    -0.306 N 
ATOM      3  H2  UNL     1     -18.949 -11.444 -19.400  1.00  0.00     0.170 HD
HETATM    4  C7  UNL     1     -16.904 -11.404 -19.651  1.00  0.00     0.273 A 
HETATM    5  O1  UNL     1     -16.769 -10.498 -18.769  1.00  0.00    -0.266 OA
HETATM    6  C8  UNL     1     -15.844 -11.932 -20.327  1.00  0.00     0.102 A 
HETATM    7  N3  UNL     1     -16.069 -12.882 -21.240  1.00  0.00    -0.349 N 
ATOM      8  H3  UNL     1     -15.278 -13.279 -21.748  1.00  0.00     0.166 HD
HETATM    9  C17 UNL     1     -17.303 -13.327 -21.506  1.00  0.00     0.067 A 
HETATM   10  C18 UNL     1     -17.508 -14.263 -22.408  1.00  0.00     0.047 C 
ENDROOT
BRANCH   6  11
HETATM   11  C9  UNL     1     -14.634 -11.525 -20.094  1.00  0.00     0.046 C 
BRANCH  11  12
HETATM   12  C10 UNL     1     -13.872 -10.694 -21.050  1.00  0.00    -0.032 A 
HETATM   13  C11 UNL     1     -14.103  -9.343 -21.187  1.00  0.00     0.014 A 
HETATM   14  C12 UNL     1     -13.377  -8.577 -22.089  1.00  0.00     0.039 A 
HETATM   15  C13 UNL     1     -12.399  -9.136 -22.883  1.00  0.00     0.085 A 
HETATM   16  C15 UNL     1     -12.169 -10.489 -22.744  1.00  0.00     0.045 A 
HETATM   17 BR1  UNL     1     -10.813 -11.268 -23.843  1.00  0.00    -0.048 Br
HETATM   18  C16 UNL     1     -12.895 -11.257 -21.840  1.00  0.00     0.033 A 
BRANCH  15  19
HETATM   19  O2  UNL     1     -11.679  -8.354 -23.783  1.00  0.00    -0.355 OA
HETATM   20  C14 UNL     1     -12.328  -7.264 -24.412  1.00  0.00     0.210 C 
ENDBRANCH  15  19
ENDBRANCH  11  12
ENDBRANCH   6  11
BRANCH   1  21
HETATM   21  N1  UNL     1     -19.592 -13.255 -21.109  1.00  0.00    -0.374 N 
ATOM     22  H1  UNL     1     -19.820 -14.225 -20.893  1.00  0.00     0.161 HD
BRANCH  21  23
HETATM   23  C5  UNL     1     -20.578 -12.424 -21.718  1.00  0.00     0.121 C 
BRANCH  23  24
HETATM   24  C4  UNL     1     -21.105 -12.994 -23.036  1.00  0.00     0.023 C 
BRANCH  24  25
HETATM   25  C3  UNL     1     -20.248 -12.428 -24.159  1.00  0.00     0.028 C 
BRANCH  25  26
HETATM   26  C2  UNL     1     -21.048 -11.692 -25.142  1.00  0.00    -0.037 C 
HETATM   27  C1  UNL     1     -21.018 -12.044 -26.413  1.00  0.00     0.007 C 
ENDBRANCH  25  26
ENDBRANCH  24  25
ENDBRANCH  23  24
ENDBRANCH  21  23
ENDBRANCH   1  21
TORSDOF 8
ENDMDL
MODEL 4
REMARK VINA RESULT: -7.271951302      2.254      2.794
REMARK  8 active torsions:
REMARK  status: ('A' for Active; 'I' for Inactive)
REMARK    1  A    between atoms: C2_2  and  C3_3 
REMARK    2  A    between atoms: C3_3  and  C4_4 
REMARK    3  A    between atoms: C4_4  and  C5_5 
REMARK    4  A    between atoms: C5_5  and  N1_6 
REMARK    5  A    between atoms: N1_6  and  C6_8 
REMARK    6  A    between atoms: C8_13  and  C9_14 
REMARK    7  A    between atoms: C9_14  and  C10_15 
REMARK    8  A    between atoms: C13_18  and  O2_19 
ROOT
HETATM    1  C6  UNL     1     -12.676 -11.962 -22.054  1.00  0.00     0.130 A 
HETATM    2  N2  UNL     1     -12.633 -13.292 -22.227  1.00  0.00    -0.306 N 
ATOM      3  H2  UNL     1     -11.781 -13.711 -22.599  1.00  0.00     0.170 HD
HETATM    4  C7  UNL     1     -13.688 -14.104 -21.924  1.00  0.00     0.273 A 
HETATM    5  O1  UNL     1     -13.549 -15.351 -22.124  1.00  0.00    -0.266 OA
HETATM    6  C8  UNL     1     -14.836 -13.564 -21.425  1.00  0.00     0.102 A 
HETATM    7  N3  UNL     1     -14.903 -12.242 -21.244  1.00  0.00    -0.349 N 
ATOM      8  H3  UNL     1     -15.762 -11.835 -20.872  1.00  0.00     0.166 HD
HETATM    9  C17 UNL     1     -13.875 -11.436 -21.538  1.00  0.00     0.067 A 
HETATM   10  C18 UNL     1     -13.957 -10.136 -21.354  1.00  0.00     0.047 C 
ENDROOT
BRANCH   6  11
HETATM   11  C9  UNL     1     -15.853 -14.315 -21.129  1.00  0.00     0.046 C 
BRANCH  11  12
HETATM   12  C10 UNL     1     -17.245 -13.940 -21.452  1.00  0.00    -0.032 A 
HETATM   13  C11 UNL     1     -17.872 -14.379 -22.597  1.00  0.00     0.014 A 
HETATM   14  C12 UNL     1     -19.181 -14.017 -22.884  1.00  0.00     0.039 A 
HETATM   15  C13 UNL     1     -19.905 -13.205 -22.037  1.00  0.00     0.085 A 
HETATM   16  C15 UNL     1     -19.275 -12.766 -20.891  1.00  0.00     0.045 A 
HETATM   17 BR1  UNL     1     -20.275 -11.641 -19.714  1.00  0.00    -0.048 Br
HETATM   18  C16 UNL     1     -17.964 -13.129 -20.602  1.00  0.00     0.033 A 
BRANCH  15  19
HETATM   19  O2  UNL     1     -21.218 -12.851 -22.338  1.00  0.00    -0.355 OA
HETATM   20  C14 UNL     1     -21.590 -12.702 -23.696  1.00  0.00     0.210 C 
ENDBRANCH  15  19
ENDBRANCH  11  12
ENDBRANCH   6  11
BRANCH   1  21
HETATM   21  N1  UNL     1     -11.707 -11.155 -22.326  1.00  0.00    -0.374 N 
ATOM     22  H1  UNL     1     -11.386 -10.500 -21.613  1.00  0.00     0.161 HD
BRANCH  21  23
HETATM   23  C5  UNL     1     -11.074 -11.163 -23.604  1.00  0.00     0.121 C 
BRANCH  23  24
HETATM   24  C4  UNL     1     -11.320  -9.878 -24.397  1.00  0.00     0.023 C 
BRANCH  24  25
HETATM   25  C3  UNL     1     -11.614  -8.768 -23.397  1.00  0.00     0.028 C 
BRANCH  25  26
HETATM   26  C2  UNL     1     -12.524  -7.760 -23.949  1.00  0.00    -0.037 C 
HETATM   27  C1  UNL     1     -12.045  -6.757 -24.659  1.00  0.00     0.007 C 
ENDBRANCH  25  26
ENDBRANCH  24  25
ENDBRANCH  23  24
ENDBRANCH  21  23
ENDBRANCH   1  21
TORSDOF 8
ENDMDL
MODEL 5
REMARK VINA RESULT: -7.240131295      1.820      2.477
REMARK  8 active torsions:
REMARK  status: ('A' for Active; 'I' for Inactive)
REMARK    1  A    between atoms: C2_2  and  C3_3 
REMARK    2  A    between atoms: C3_3  and  C4_4 
REMARK    3  A    between atoms: C4_4  and  C5_5 
REMARK    4  A    between atoms: C5_5  and  N1_6 
REMARK    5  A    between atoms: N1_6  and  C6_8 
REMARK    6  A    between atoms: C8_13  and  C9_14 
REMARK    7  A    between atoms: C9_14  and  C10_15 
REMARK    8  A    between atoms: C13_18  and  O2_19 
ROOT
HETATM    1  C6  UNL     1     -15.512 -11.213 -20.884  1.00  0.00     0.130 A 
HETATM    2  N2  UNL     1     -16.645 -10.545 -20.616  1.00  0.00    -0.306 N 
ATOM      3  H2  UNL     1     -16.592  -9.544 -20.429  1.00  0.00     0.170 HD
HETATM    4  C7  UNL     1     -17.865 -11.157 -20.586  1.00  0.00     0.273 A 
HETATM    5  O1  UNL     1     -18.880 -10.439 -20.323  1.00  0.00    -0.266 OA
HETATM    6  C8  UNL     1     -17.958 -12.495 -20.834  1.00  0.00     0.102 A 
HETATM    7  N3  UNL     1     -16.843 -13.181 -21.103  1.00  0.00    -0.349 N 
ATOM      8  H3  UNL     1     -16.909 -14.182 -21.288  1.00  0.00     0.166 HD
HETATM    9  C17 UNL     1     -15.642 -12.591 -21.136  1.00  0.00     0.067 A 
HETATM   10  C18 UNL     1     -14.553 -13.281 -21.402  1.00  0.00     0.047 C 
ENDROOT
BRANCH   6  11
HETATM   11  C9  UNL     1     -19.106 -13.100 -20.811  1.00  0.00     0.046 C 
BRANCH  11  12
HETATM   12  C10 UNL     1     -19.772 -13.598 -22.032  1.00  0.00    -0.032 A 
HETATM   13  C11 UNL     1     -20.167 -14.911 -22.164  1.00  0.00     0.014 A 
HETATM   14  C12 UNL     1     -20.792 -15.362 -23.318  1.00  0.00     0.039 A 
HETATM   15  C13 UNL     1     -21.042 -14.516 -24.378  1.00  0.00     0.085 A 
HETATM   16  C15 UNL     1     -20.644 -13.202 -24.245  1.00  0.00     0.045 A 
HETATM   17 BR1  UNL     1     -20.988 -12.027 -25.712  1.00  0.00    -0.048 Br
HETATM   18  C16 UNL     1     -20.019 -12.749 -23.088  1.00  0.00     0.033 A 
BRANCH  15  19
HETATM   19  O2  UNL     1     -21.670 -14.983 -25.530  1.00  0.00    -0.355 OA
HETATM   20  C14 UNL     1     -22.787 -15.843 -25.398  1.00  0.00     0.210 C 
ENDBRANCH  15  19
ENDBRANCH  11  12
ENDBRANCH   6  11
BRANCH   1  21
HETATM   21  N1  UNL     1     -14.338 -10.678 -20.924  1.00  0.00    -0.374 N 
ATOM     22  H1  UNL     1     -13.515 -11.270 -20.816  1.00  0.00     0.161 HD
BRANCH  21  23
HETATM   23  C5  UNL     1     -14.170  -9.275 -21.116  1.00  0.00     0.121 C 
BRANCH  23  24
HETATM   24  C4  UNL     1     -13.128  -8.942 -22.185  1.00  0.00     0.023 C 
BRANCH  24  25
HETATM   25  C3  UNL     1     -11.973  -9.920 -22.024  1.00  0.00     0.028 C 
BRANCH  25  26
HETATM   26  C2  UNL     1     -11.524 -10.456 -23.312  1.00  0.00    -0.037 C 
HETATM   27  C1  UNL     1     -11.275  -9.638 -24.316  1.00  0.00     0.007 C 
ENDBRANCH  25  26
ENDBRANCH  24  25
ENDBRANCH  23  24
ENDBRANCH  21  23
ENDBRANCH   1  21
TORSDOF 8
ENDMDL
