MODEL 1
REMARK VINA RESULT: -7.568463115      0.000      0.000
REMARK  7 active torsions:
REMARK  status: ('A' for Active; 'I' for Inactive)
REMARK    1  A    between atoms: C2_2  and  N1_3 
REMARK    2  A    between atoms: N1_3  and  C3_4 
REMARK    3  A    between atoms: N1_3  and  C5_6 
REMARK    4  A    between atoms: C5_6  and  C6_7 
REMARK    5  A    between atoms: C6_7  and  N2_8 
REMARK    6  A    between atoms: N2_8  and  C7_10 
REMARK       I    between atoms: N4_14  and  C9_16 
REMARK    7  A    between atoms: C9_16  and  C10_18 
ROOT
HETATM    1  C7  UNL     1     -17.274 -12.936 -22.162  1.00  0.00     0.125 A 
HETATM    2  N3  UNL     1     -16.098 -12.254 -22.094  1.00  0.00    -0.176 N 
ATOM      3  H3  UNL     1     -15.371 -12.462 -22.779  1.00  0.00     0.186 HD
HETATM    4  C8  UNL     1     -15.856 -11.315 -21.159  1.00  0.00     0.686 A 
HETATM    5  N4  UNL     1     -14.774 -10.670 -21.082  1.00  0.00    -0.159 N 
ATOM      6  H4  UNL     1     -14.750  -9.994 -20.318  1.00  0.00     0.187 HD
HETATM    7  C9  UNL     1     -13.615 -10.705 -21.835  1.00  0.00     0.245 C 
HETATM    8  O1  UNL     1     -13.128 -11.711 -22.441  1.00  0.00    -0.272 OA
HETATM    9  N5  UNL     1     -16.835 -11.042 -20.245  1.00  0.00    -0.195 N 
ATOM     10  H5  UNL     1     -16.669 -10.335 -19.529  1.00  0.00     0.184 HD
HETATM   11  C11 UNL     1     -18.024 -11.696 -20.272  1.00  0.00     0.036 A 
HETATM   12  C12 UNL     1     -18.260 -12.651 -21.230  1.00  0.00     0.009 A 
HETATM   13  C13 UNL     1     -19.587 -13.305 -21.192  1.00  0.00     0.044 C 
HETATM   14  C14 UNL     1     -20.586 -12.139 -21.149  1.00  0.00     0.005 C 
HETATM   15  C15 UNL     1     -20.485 -11.507 -19.793  1.00  0.00     0.006 C 
HETATM   16  C16 UNL     1     -19.086 -11.418 -19.284  1.00  0.00     0.058 C 
ENDROOT
BRANCH   1  17
HETATM   17  N2  UNL     1     -17.561 -13.833 -23.010  1.00  0.00    -0.371 N 
ATOM     18  H2  UNL     1     -17.514 -14.789 -22.656  1.00  0.00     0.161 HD
BRANCH  17  19
HETATM   19  C6  UNL     1     -17.939 -13.716 -24.383  1.00  0.00     0.166 C 
BRANCH  19  20
HETATM   20  C5  UNL     1     -19.200 -14.546 -24.562  1.00  0.00     0.087 C 
BRANCH  20  21
HETATM   21  N1  UNL     1     -20.392 -13.819 -24.652  1.00  0.00    -0.353 N 
BRANCH  21  22
HETATM   22  C2  UNL     1     -20.330 -12.447 -24.888  1.00  0.00     0.064 C 
HETATM   23  C1  UNL     1     -20.983 -11.985 -26.171  1.00  0.00     0.055 C 
ENDBRANCH  21  22
BRANCH  21  24
HETATM   24  C3  UNL     1     -21.570 -14.414 -24.199  1.00  0.00     0.064 C 
HETATM   25  C4  UNL     1     -21.378 -15.718 -23.459  1.00  0.00     0.055 C 
ENDBRANCH  21  24
ENDBRANCH  20  21
ENDBRANCH  19  20
ENDBRANCH  17  19
ENDBRANCH   1  17
BRANCH   7  26
HETATM   26  C10 UNL     1     -12.784  -9.453 -22.003  1.00  0.00     0.188 C 
HETATM   27 BR1  UNL     1     -11.627  -9.671 -23.543  1.00  0.00    -0.087 Br
ENDBRANCH   7  26
TORSDOF 7
ENDMDL
MODEL 2
REMARK VINA RESULT: -7.497419641      0.119      1.519
REMARK  7 active torsions:
REMARK  status: ('A' for Active; 'I' for Inactive)
REMARK    1  A    between atoms: C2_2  and  N1_3 
REMARK    2  A    between atoms: N1_3  and  C3_4 
REMARK    3  A    between atoms: N1_3  and  C5_6 
REMARK    4  A    between atoms: C5_6  and  C6_7 
REMARK    5  A    between atoms: C6_7  and  N2_8 
REMARK    6  A    between atoms: N2_8  and  C7_10 
REMARK       I    between atoms: N4_14  and  C9_16 
REMARK    7  A    between atoms: C9_16  and  C10_18 
ROOT
HETATM    1  C7  UNL     1     -17.285 -12.938 -22.168  1.00  0.00     0.125 A 
HETATM    2  N3  UNL     1     -16.109 -12.257 -22.097  1.00  0.00    -0.176 N 
ATOM      3  H3  UNL     1     -15.381 -12.464 -22.781  1.00  0.00     0.186 HD
HETATM    4  C8  UNL     1     -15.868 -11.320 -21.160  1.00  0.00     0.686 A 
HETATM    5  N4  UNL     1     -14.786 -10.676 -21.079  1.00  0.00    -0.159 N 
ATOM      6  H4  UNL     1     -14.763 -10.002 -20.314  1.00  0.00     0.187 HD
HETATM    7  C9  UNL     1     -13.626 -10.711 -21.829  1.00  0.00     0.245 C 
HETATM    8  O1  UNL     1     -13.138 -11.717 -22.436  1.00  0.00    -0.272 OA
HETATM    9  N5  UNL     1     -16.848 -11.049 -20.247  1.00  0.00    -0.195 N 
ATOM     10  H5  UNL     1     -16.683 -10.344 -19.529  1.00  0.00     0.184 HD
HETATM   11  C11 UNL     1     -18.038 -11.701 -20.277  1.00  0.00     0.036 A 
HETATM   12  C12 UNL     1     -18.273 -12.654 -21.238  1.00  0.00     0.009 A 
HETATM   13  C13 UNL     1     -19.601 -13.307 -21.204  1.00  0.00     0.044 C 
HETATM   14  C14 UNL     1     -20.599 -12.140 -21.161  1.00  0.00     0.005 C 
HETATM   15  C15 UNL     1     -20.500 -11.511 -19.802  1.00  0.00     0.006 C 
HETATM   16  C16 UNL     1     -19.102 -11.424 -19.291  1.00  0.00     0.058 C 
ENDROOT
BRANCH   1  17
HETATM   17  N2  UNL     1     -17.571 -13.833 -23.019  1.00  0.00    -0.371 N 
ATOM     18  H2  UNL     1     -17.556 -14.788 -22.659  1.00  0.00     0.161 HD
BRANCH  17  19
HETATM   19  C6  UNL     1     -17.911 -13.715 -24.403  1.00  0.00     0.166 C 
BRANCH  19  20
HETATM   20  C5  UNL     1     -19.192 -14.508 -24.607  1.00  0.00     0.087 C 
BRANCH  20  21
HETATM   21  N1  UNL     1     -20.373 -13.759 -24.601  1.00  0.00    -0.353 N 
BRANCH  21  22
HETATM   22  C2  UNL     1     -21.596 -14.426 -24.600  1.00  0.00     0.064 C 
HETATM   23  C1  UNL     1     -21.686 -15.602 -23.654  1.00  0.00     0.055 C 
ENDBRANCH  21  22
BRANCH  21  24
HETATM   24  C3  UNL     1     -20.300 -12.399 -24.909  1.00  0.00     0.064 C 
HETATM   25  C4  UNL     1     -21.003 -12.001 -26.187  1.00  0.00     0.055 C 
ENDBRANCH  21  24
ENDBRANCH  20  21
ENDBRANCH  19  20
ENDBRANCH  17  19
ENDBRANCH   1  17
BRANCH   7  26
HETATM   26  C10 UNL     1     -12.793  -9.460 -21.993  1.00  0.00     0.188 C 
HETATM   27 BR1  UNL     1     -11.633  -9.675 -23.533  1.00  0.00    -0.087 Br
ENDBRANCH   7  26
TORSDOF 7
ENDMDL
MODEL 3
REMARK VINA RESULT: -7.035623605      4.462      6.962
REMARK  7 active torsions:
REMARK  status: ('A' for Active; 'I' for Inactive)
REMARK    1  A    between atoms: C2_2  and  N1_3 
REMARK    2  A    between atoms: N1_3  and  C3_4 
REMARK    3  A    between atoms: N1_3  and  C5_6 
REMARK    4  A    between atoms: C5_6  and  C6_7 
REMARK    5  A    between atoms: C6_7  and  N2_8 
REMARK    6  A    between atoms: N2_8  and  C7_10 
REMARK       I    between atoms: N4_14  and  C9_16 
REMARK    7  A    between atoms: C9_16  and  C10_18 
ROOT
HETATM    1  C7  UNL     1     -15.480 -10.836 -19.835  1.00  0.00     0.125 A 
HETATM    2  N3  UNL     1     -15.393 -10.790 -18.477  1.00  0.00    -0.176 N 
ATOM      3  H3  UNL     1     -15.213  -9.891 -18.029  1.00  0.00     0.186 HD
HETATM    4  C8  UNL     1     -15.536 -11.882 -17.703  1.00  0.00     0.686 A 
HETATM    5  N4  UNL     1     -15.461 -11.859 -16.443  1.00  0.00    -0.159 N 
ATOM      6  H4  UNL     1     -15.593 -12.771 -16.005  1.00  0.00     0.187 HD
HETATM    7  C9  UNL     1     -15.235 -10.833 -15.544  1.00  0.00     0.245 C 
HETATM    8  O1  UNL     1     -14.540  -9.786 -15.739  1.00  0.00    -0.272 OA
HETATM    9  N5  UNL     1     -15.776 -13.082 -18.311  1.00  0.00    -0.195 N 
ATOM     10  H5  UNL     1     -15.885 -13.920 -17.741  1.00  0.00     0.184 HD
HETATM   11  C11 UNL     1     -15.871 -13.179 -19.661  1.00  0.00     0.036 A 
HETATM   12  C12 UNL     1     -15.725 -12.059 -20.441  1.00  0.00     0.009 A 
HETATM   13  C13 UNL     1     -15.856 -12.254 -21.903  1.00  0.00     0.044 C 
HETATM   14  C14 UNL     1     -17.179 -13.017 -22.069  1.00  0.00     0.005 C 
HETATM   15  C15 UNL     1     -16.962 -14.412 -21.562  1.00  0.00     0.006 C 
HETATM   16  C16 UNL     1     -16.121 -14.472 -20.332  1.00  0.00     0.058 C 
ENDROOT
BRANCH   1  17
HETATM   17  N2  UNL     1     -15.349  -9.849 -20.619  1.00  0.00    -0.371 N 
ATOM     18  H2  UNL     1     -16.180  -9.622 -21.166  1.00  0.00     0.161 HD
BRANCH  17  19
HETATM   19  C6  UNL     1     -14.221  -9.004 -20.856  1.00  0.00     0.166 C 
BRANCH  19  20
HETATM   20  C5  UNL     1     -12.997  -9.905 -20.881  1.00  0.00     0.087 C 
BRANCH  20  21
HETATM   21  N1  UNL     1     -12.523 -10.243 -22.153  1.00  0.00    -0.353 N 
BRANCH  21  22
HETATM   22  C2  UNL     1     -12.141 -11.560 -22.402  1.00  0.00     0.064 C 
HETATM   23  C1  UNL     1     -12.173 -12.478 -21.202  1.00  0.00     0.055 C 
ENDBRANCH  21  22
BRANCH  21  24
HETATM   24  C3  UNL     1     -12.155  -9.215 -23.021  1.00  0.00     0.064 C 
HETATM   25  C4  UNL     1     -11.313  -9.651 -24.199  1.00  0.00     0.055 C 
ENDBRANCH  21  24
ENDBRANCH  20  21
ENDBRANCH  19  20
ENDBRANCH  17  19
ENDBRANCH   1  17
BRANCH   7  26
HETATM   26  C10 UNL     1     -15.846 -10.890 -14.162  1.00  0.00     0.188 C 
HETATM   27 BR1  UNL     1     -16.216 -12.741 -13.716  1.00  0.00    -0.087 Br
ENDBRANCH   7  26
TORSDOF 7
ENDMDL
MODEL 4
REMARK VINA RESULT: -6.957671967      2.459      4.683
REMARK  7 active torsions:
REMARK  status: ('A' for Active; 'I' for Inactive)
REMARK    1  A    between atoms: C2_2  and  N1_3 
REMARK    2  A    between atoms: N1_3  and  C3_4 
REMARK    3  A    between atoms: N1_3  and  C5_6 
REMARK    4  A    between atoms: C5_6  and  C6_7 
REMARK    5  A    between atoms: C6_7  and  N2_8 
REMARK    6  A    between atoms: N2_8  and  C7_10 
REMARK       I    between atoms: N4_14  and  C9_16 
REMARK    7  A    between atoms: C9_16  and  C10_18 
ROOT
HETATM    1  C7  UNL     1     -16.414 -13.327 -21.727  1.00  0.00     0.125 A 
HETATM    2  N3  UNL     1     -15.438 -12.381 -21.791  1.00  0.00    -0.176 N 
ATOM      3  H3  UNL     1     -14.546 -12.626 -22.222  1.00  0.00     0.186 HD
HETATM    4  C8  UNL     1     -15.601 -11.135 -21.308  1.00  0.00     0.686 A 
HETATM    5  N4  UNL     1     -14.709 -10.243 -21.360  1.00  0.00    -0.159 N 
ATOM      6  H4  UNL     1     -14.991  -9.352 -20.951  1.00  0.00     0.187 HD
HETATM    7  C9  UNL     1     -13.423 -10.245 -21.866  1.00  0.00     0.245 C 
HETATM    8  O1  UNL     1     -12.627 -11.234 -21.927  1.00  0.00    -0.272 OA
HETATM    9  N5  UNL     1     -16.798 -10.814 -20.731  1.00  0.00    -0.195 N 
ATOM     10  H5  UNL     1     -16.939  -9.875 -20.359  1.00  0.00     0.184 HD
HETATM   11  C11 UNL     1     -17.802 -11.723 -20.644  1.00  0.00     0.036 A 
HETATM   12  C12 UNL     1     -17.624 -12.991 -21.140  1.00  0.00     0.009 A 
HETATM   13  C13 UNL     1     -18.775 -13.913 -21.013  1.00  0.00     0.044 C 
HETATM   14  C14 UNL     1     -19.960 -13.126 -21.595  1.00  0.00     0.005 C 
HETATM   15  C15 UNL     1     -20.297 -12.034 -20.623  1.00  0.00     0.006 C 
HETATM   16  C16 UNL     1     -19.097 -11.392 -20.014  1.00  0.00     0.058 C 
ENDROOT
BRANCH   1  17
HETATM   17  N2  UNL     1     -16.321 -14.516 -22.155  1.00  0.00    -0.371 N 
ATOM     18  H2  UNL     1     -17.096 -14.823 -22.743  1.00  0.00     0.161 HD
BRANCH  17  19
HETATM   19  C6  UNL     1     -15.301 -15.495 -21.942  1.00  0.00     0.166 C 
BRANCH  19  20
HETATM   20  C5  UNL     1     -14.950 -15.448 -20.464  1.00  0.00     0.087 C 
BRANCH  20  21
HETATM   21  N1  UNL     1     -13.685 -14.935 -20.161  1.00  0.00    -0.353 N 
BRANCH  21  22
HETATM   22  C2  UNL     1     -13.563 -14.005 -19.130  1.00  0.00     0.064 C 
HETATM   23  C1  UNL     1     -14.834 -13.727 -18.361  1.00  0.00     0.055 C 
ENDBRANCH  21  22
BRANCH  21  24
HETATM   24  C3  UNL     1     -12.653 -15.121 -21.081  1.00  0.00     0.064 C 
HETATM   25  C4  UNL     1     -11.675 -16.218 -20.724  1.00  0.00     0.055 C 
ENDBRANCH  21  24
ENDBRANCH  20  21
ENDBRANCH  19  20
ENDBRANCH  17  19
ENDBRANCH   1  17
BRANCH   7  26
HETATM   26  C10 UNL     1     -12.829  -8.972 -22.426  1.00  0.00     0.188 C 
HETATM   27 BR1  UNL     1     -11.561  -9.431 -23.819  1.00  0.00    -0.087 Br
ENDBRANCH   7  26
TORSDOF 7
ENDMDL
MODEL 5
REMARK VINA RESULT: -6.938356971      3.529      6.169
REMARK  7 active torsions:
REMARK  status: ('A' for Active; 'I' for Inactive)
REMARK    1  A    between atoms: C2_2  and  N1_3 
REMARK    2  A    between atoms: N1_3  and  C3_4 
REMARK    3  A    between atoms: N1_3  and  C5_6 
REMARK    4  A    between atoms: C5_6  and  C6_7 
REMARK    5  A    between atoms: C6_7  and  N2_8 
REMARK    6  A    between atoms: N2_8  and  C7_10 
REMARK       I    between atoms: N4_14  and  C9_16 
REMARK    7  A    between atoms: C9_16  and  C10_18 
ROOT
HETATM    1  C7  UNL     1     -13.935 -12.017 -20.311  1.00  0.00     0.125 A 
HETATM    2  N3  UNL     1     -14.024 -13.323 -20.683  1.00  0.00    -0.176 N 
ATOM      3  H3  UNL     1     -14.611 -13.950 -20.133  1.00  0.00     0.186 HD
HETATM    4  C8  UNL     1     -13.368 -13.820 -21.750  1.00  0.00     0.686 A 
HETATM    5  N4  UNL     1     -13.440 -15.027 -22.113  1.00  0.00    -0.159 N 
ATOM      6  H4  UNL     1     -12.884 -15.242 -22.941  1.00  0.00     0.187 HD
HETATM    7  C9  UNL     1     -14.129 -16.111 -21.603  1.00  0.00     0.245 C 
HETATM    8  O1  UNL     1     -14.433 -16.319 -20.386  1.00  0.00    -0.272 OA
HETATM    9  N5  UNL     1     -12.583 -12.974 -22.481  1.00  0.00    -0.195 N 
ATOM     10  H5  UNL     1     -12.078 -13.333 -23.290  1.00  0.00     0.184 HD
HETATM   11  C11 UNL     1     -12.462 -11.664 -22.149  1.00  0.00     0.036 A 
HETATM   12  C12 UNL     1     -13.136 -11.167 -21.060  1.00  0.00     0.009 A 
HETATM   13  C13 UNL     1     -12.956  -9.725 -20.777  1.00  0.00     0.044 C 
HETATM   14  C14 UNL     1     -13.250  -9.035 -22.117  1.00  0.00     0.005 C 
HETATM   15  C15 UNL     1     -12.108  -9.340 -23.042  1.00  0.00     0.006 C 
HETATM   16  C16 UNL     1     -11.609 -10.740 -22.925  1.00  0.00     0.058 C 
ENDROOT
BRANCH   1  17
HETATM   17  N2  UNL     1     -14.519 -11.490 -19.317  1.00  0.00    -0.371 N 
ATOM     18  H2  UNL     1     -13.955 -10.820 -18.793  1.00  0.00     0.161 HD
BRANCH  17  19
HETATM   19  C6  UNL     1     -15.842 -11.688 -18.814  1.00  0.00     0.166 C 
BRANCH  19  20
HETATM   20  C5  UNL     1     -16.783 -10.960 -19.760  1.00  0.00     0.087 C 
BRANCH  20  21
HETATM   21  N1  UNL     1     -17.887 -11.698 -20.199  1.00  0.00    -0.353 N 
BRANCH  21  22
HETATM   22  C2  UNL     1     -17.675 -12.936 -20.803  1.00  0.00     0.064 C 
HETATM   23  C1  UNL     1     -17.215 -12.878 -22.242  1.00  0.00     0.055 C 
ENDBRANCH  21  22
BRANCH  21  24
HETATM   24  C3  UNL     1     -19.120 -11.052 -20.306  1.00  0.00     0.064 C 
HETATM   25  C4  UNL     1     -20.250 -11.717 -19.554  1.00  0.00     0.055 C 
ENDBRANCH  21  24
ENDBRANCH  20  21
ENDBRANCH  19  20
ENDBRANCH  17  19
ENDBRANCH   1  17
BRANCH   7  26
HETATM   26  C10 UNL     1     -14.605 -17.208 -22.528  1.00  0.00     0.188 C 
HETATM   27 BR1  UNL     1     -16.327 -16.704 -23.264  1.00  0.00    -0.087 Br
ENDBRANCH   7  26
TORSDOF 7
ENDMDL
