MODEL 1
REMARK VINA RESULT: -7.706519712      0.000      0.000
REMARK  9 active torsions:
REMARK  status: ('A' for Active; 'I' for Inactive)
REMARK    1  A    between atoms: C2_2  and  C3_3 
REMARK    2  A    between atoms: C4_4  and  C5_5 
REMARK    3  A    between atoms: C9_14  and  N3_15 
REMARK    4  A    between atoms: N3_15  and  C10_17 
REMARK    5  A    between atoms: C10_17  and  C11_18 
REMARK    6  A    between atoms: C11_18  and  C12_19 
REMARK    7  A    between atoms: C12_19  and  C13_20 
REMARK    8  A    between atoms: C13_20  and  C14_21 
REMARK    9  A    between atoms: C14_21  and  N4_22 
ROOT
HETATM    1  C5  UNL     1     -12.446 -10.707 -22.012  1.00  0.00     0.128 A 
HETATM    2  C6  UNL     1     -11.603 -11.796 -22.036  1.00  0.00     0.154 A 
HETATM    3  F1  UNL     1     -10.557 -11.799 -22.880  1.00  0.00    -0.203 F 
HETATM    4  C7  UNL     1     -11.874 -12.835 -21.190  1.00  0.00     0.078 A 
HETATM    5  C8  UNL     1     -12.975 -12.765 -20.342  1.00  0.00     0.082 A 
HETATM    6  N1  UNL     1     -13.454 -13.613 -19.443  1.00  0.00    -0.297 N 
ATOM      7  H1  UNL     1     -13.059 -14.525 -19.213  1.00  0.00     0.187 HD
HETATM    8  N2  UNL     1     -14.527 -13.081 -18.896  1.00  0.00    -0.283 N 
ATOM      9  H2  UNL     1     -15.086 -13.532 -18.172  1.00  0.00     0.188 HD
HETATM   10  C9  UNL     1     -14.796 -11.863 -19.414  1.00  0.00     0.149 A 
HETATM   11  C20 UNL     1     -13.774 -11.657 -20.365  1.00  0.00     0.109 A 
HETATM   12  N6  UNL     1     -13.523 -10.634 -21.184  1.00  0.00    -0.337 N 
HETATM   13  C21 UNL     1     -14.378  -9.480 -21.190  1.00  0.00     0.157 C 
ENDROOT
BRANCH  10  14
HETATM   14  N3  UNL     1     -15.673 -11.013 -19.218  1.00  0.00    -0.353 N 
ATOM     15  H3  UNL     1     -15.288 -10.072 -19.303  1.00  0.00     0.166 HD
BRANCH  14  16
HETATM   16  C10 UNL     1     -17.016 -10.963 -18.918  1.00  0.00     0.062 C 
BRANCH  16  17
HETATM   17  C11 UNL     1     -17.916 -11.505 -19.974  1.00  0.00     0.044 C 
BRANCH  17  18
HETATM   18  C12 UNL     1     -19.380 -11.429 -19.565  1.00  0.00     0.007 C 
BRANCH  18  19
HETATM   19  C13 UNL     1     -20.284 -12.176 -20.512  1.00  0.00     0.030 C 
BRANCH  19  20
HETATM   20  C14 UNL     1     -19.430 -13.258 -21.149  1.00  0.00     0.272 C 
BRANCH  20  21
HETATM   21  N4  UNL     1     -19.998 -13.655 -22.421  1.00  0.00     0.091 N 
HETATM   22  C15 UNL     1     -20.989 -12.699 -22.836  1.00  0.00     0.302 C 
HETATM   23  C16 UNL     1     -21.674 -13.326 -24.055  1.00  0.00     0.302 C 
HETATM   24  N5  UNL     1     -20.746 -13.257 -25.152  1.00  0.00     0.087 N 
HETATM   25  C17 UNL     1     -21.058 -12.025 -25.893  1.00  0.00     0.310 C 
HETATM   26  C18 UNL     1     -19.373 -13.160 -24.750  1.00  0.00     0.302 C 
HETATM   27  C19 UNL     1     -19.034 -13.801 -23.462  1.00  0.00     0.302 C 
ENDBRANCH  20  21
ENDBRANCH  19  20
ENDBRANCH  18  19
ENDBRANCH  17  18
ENDBRANCH  16  17
ENDBRANCH  14  16
ENDBRANCH  10  14
BRANCH   1  28
HETATM   28  C4  UNL     1     -12.166  -9.611 -22.899  1.00  0.00    -0.045 C 
HETATM   29  C3  UNL     1     -11.929  -8.695 -23.662  1.00  0.00    -0.100 C 
BRANCH  29  30
HETATM   30  C2  UNL     1     -11.651  -7.591 -24.573  1.00  0.00     0.090 C 
HETATM   31  C1  UNL     1     -12.716  -6.513 -24.422  1.00  0.00     0.018 C 
ENDBRANCH  29  30
ENDBRANCH   1  28
TORSDOF 9
ENDMDL
MODEL 2
REMARK VINA RESULT: -7.502599877      1.522      3.777
REMARK  9 active torsions:
REMARK  status: ('A' for Active; 'I' for Inactive)
REMARK    1  A    between atoms: C2_2  and  C3_3 
REMARK    2  A    between atoms: C4_4  and  C5_5 
REMARK    3  A    between atoms: C9_14  and  N3_15 
REMARK    4  A    between atoms: N3_15  and  C10_17 
REMARK    5  A    between atoms: C10_17  and  C11_18 
REMARK    6  A    between atoms: C11_18  and  C12_19 
REMARK    7  A    between atoms: C12_19  and  C13_20 
REMARK    8  A    between atoms: C13_20  and  C14_21 
REMARK    9  A    between atoms: C14_21  and  N4_22 
ROOT
HETATM    1  C5  UNL     1     -12.790 -12.800 -21.031  1.00  0.00     0.128 A 
HETATM    2  C6  UNL     1     -12.185 -11.979 -21.957  1.00  0.00     0.154 A 
HETATM    3  F1  UNL     1     -11.141 -12.443 -22.665  1.00  0.00    -0.203 F 
HETATM    4  C7  UNL     1     -12.683 -10.715 -22.114  1.00  0.00     0.078 A 
HETATM    5  C8  UNL     1     -13.768 -10.301 -21.347  1.00  0.00     0.082 A 
HETATM    6  N1  UNL     1     -14.432  -9.154 -21.302  1.00  0.00    -0.297 N 
ATOM      7  H1  UNL     1     -14.235  -8.328 -21.867  1.00  0.00     0.187 HD
HETATM    8  N2  UNL     1     -15.387  -9.260 -20.403  1.00  0.00    -0.283 N 
ATOM      9  H2  UNL     1     -16.044  -8.515 -20.174  1.00  0.00     0.188 HD
HETATM   10  C9  UNL     1     -15.390 -10.480 -19.823  1.00  0.00     0.149 A 
HETATM   11  C20 UNL     1     -14.324 -11.163 -20.445  1.00  0.00     0.109 A 
HETATM   12  N6  UNL     1     -13.850 -12.400 -20.280  1.00  0.00    -0.337 N 
HETATM   13  C21 UNL     1     -14.453 -13.287 -19.325  1.00  0.00     0.157 C 
ENDROOT
BRANCH  10  14
HETATM   14  N3  UNL     1     -16.081 -11.023 -18.952  1.00  0.00    -0.353 N 
ATOM     15  H3  UNL     1     -15.503 -11.319 -18.166  1.00  0.00     0.166 HD
BRANCH  14  16
HETATM   16  C10 UNL     1     -17.401 -11.347 -18.733  1.00  0.00     0.062 C 
BRANCH  16  17
HETATM   17  C11 UNL     1     -18.256 -11.358 -19.953  1.00  0.00     0.044 C 
BRANCH  17  18
HETATM   18  C12 UNL     1     -19.733 -11.494 -19.609  1.00  0.00     0.007 C 
BRANCH  18  19
HETATM   19  C13 UNL     1     -20.548 -12.023 -20.762  1.00  0.00     0.030 C 
BRANCH  19  20
HETATM   20  C14 UNL     1     -19.917 -13.346 -21.156  1.00  0.00     0.272 C 
BRANCH  20  21
HETATM   21  N4  UNL     1     -20.326 -13.712 -22.496  1.00  0.00     0.091 N 
HETATM   22  C15 UNL     1     -21.268 -12.750 -23.002  1.00  0.00     0.302 C 
HETATM   23  C16 UNL     1     -21.799 -13.349 -24.309  1.00  0.00     0.302 C 
HETATM   24  N5  UNL     1     -20.747 -13.247 -25.285  1.00  0.00     0.087 N 
HETATM   25  C17 UNL     1     -20.978 -11.998 -26.027  1.00  0.00     0.310 C 
HETATM   26  C18 UNL     1     -19.432 -13.155 -24.721  1.00  0.00     0.302 C 
HETATM   27  C19 UNL     1     -19.244 -13.828 -23.418  1.00  0.00     0.302 C 
ENDBRANCH  20  21
ENDBRANCH  19  20
ENDBRANCH  18  19
ENDBRANCH  17  18
ENDBRANCH  16  17
ENDBRANCH  14  16
ENDBRANCH  10  14
BRANCH   1  28
HETATM   28  C4  UNL     1     -12.271 -14.130 -20.862  1.00  0.00    -0.045 C 
HETATM   29  C3  UNL     1     -11.846 -15.261 -20.725  1.00  0.00    -0.100 C 
BRANCH  29  30
HETATM   30  C2  UNL     1     -11.329 -16.614 -20.564  1.00  0.00     0.090 C 
HETATM   31  C1  UNL     1     -10.703 -16.770 -19.184  1.00  0.00     0.018 C 
ENDBRANCH  29  30
ENDBRANCH   1  28
TORSDOF 9
ENDMDL
MODEL 3
REMARK VINA RESULT: -7.329877237      0.886      1.232
REMARK  9 active torsions:
REMARK  status: ('A' for Active; 'I' for Inactive)
REMARK    1  A    between atoms: C2_2  and  C3_3 
REMARK    2  A    between atoms: C4_4  and  C5_5 
REMARK    3  A    between atoms: C9_14  and  N3_15 
REMARK    4  A    between atoms: N3_15  and  C10_17 
REMARK    5  A    between atoms: C10_17  and  C11_18 
REMARK    6  A    between atoms: C11_18  and  C12_19 
REMARK    7  A    between atoms: C12_19  and  C13_20 
REMARK    8  A    between atoms: C13_20  and  C14_21 
REMARK    9  A    between atoms: C14_21  and  N4_22 
ROOT
HETATM    1  C5  UNL     1     -12.579 -10.872 -21.803  1.00  0.00     0.128 A 
HETATM    2  C6  UNL     1     -11.742 -11.965 -21.747  1.00  0.00     0.154 A 
HETATM    3  F1  UNL     1     -10.668 -12.014 -22.554  1.00  0.00    -0.203 F 
HETATM    4  C7  UNL     1     -12.048 -12.961 -20.862  1.00  0.00     0.078 A 
HETATM    5  C8  UNL     1     -13.177 -12.845 -20.056  1.00  0.00     0.082 A 
HETATM    6  N1  UNL     1     -13.691 -13.647 -19.134  1.00  0.00    -0.297 N 
ATOM      7  H1  UNL     1     -13.310 -14.548 -18.848  1.00  0.00     0.187 HD
HETATM    8  N2  UNL     1     -14.779 -13.084 -18.650  1.00  0.00    -0.283 N 
ATOM      9  H2  UNL     1     -15.364 -13.497 -17.925  1.00  0.00     0.188 HD
HETATM   10  C9  UNL     1     -15.022 -11.891 -19.234  1.00  0.00     0.149 A 
HETATM   11  C20 UNL     1     -13.967 -11.735 -20.159  1.00  0.00     0.109 A 
HETATM   12  N6  UNL     1     -13.682 -10.754 -21.017  1.00  0.00    -0.337 N 
HETATM   13  C21 UNL     1     -14.529  -9.597 -21.106  1.00  0.00     0.157 C 
ENDROOT
BRANCH  10  14
HETATM   14  N3  UNL     1     -15.899 -11.027 -19.109  1.00  0.00    -0.353 N 
ATOM     15  H3  UNL     1     -15.487 -10.095 -19.090  1.00  0.00     0.166 HD
BRANCH  14  16
HETATM   16  C10 UNL     1     -17.268 -10.956 -18.986  1.00  0.00     0.062 C 
BRANCH  16  17
HETATM   17  C11 UNL     1     -18.030 -11.355 -20.202  1.00  0.00     0.044 C 
BRANCH  17  18
HETATM   18  C12 UNL     1     -19.486 -11.668 -19.883  1.00  0.00     0.007 C 
BRANCH  18  19
HETATM   19  C13 UNL     1     -20.195 -12.344 -21.028  1.00  0.00     0.030 C 
BRANCH  19  20
HETATM   20  C14 UNL     1     -19.184 -12.443 -22.155  1.00  0.00     0.272 C 
BRANCH  20  21
HETATM   21  N4  UNL     1     -19.743 -13.193 -23.260  1.00  0.00     0.091 N 
HETATM   22  C15 UNL     1     -20.454 -14.342 -22.765  1.00  0.00     0.302 C 
HETATM   23  C16 UNL     1     -20.801 -15.172 -24.005  1.00  0.00     0.302 C 
HETATM   24  N5  UNL     1     -21.849 -14.479 -24.706  1.00  0.00     0.087 N 
HETATM   25  C17 UNL     1     -23.121 -15.055 -24.242  1.00  0.00     0.310 C 
HETATM   26  C18 UNL     1     -21.908 -13.073 -24.429  1.00  0.00     0.302 C 
HETATM   27  C19 UNL     1     -20.619 -12.432 -24.090  1.00  0.00     0.302 C 
ENDBRANCH  20  21
ENDBRANCH  19  20
ENDBRANCH  18  19
ENDBRANCH  17  18
ENDBRANCH  16  17
ENDBRANCH  14  16
ENDBRANCH  10  14
BRANCH   1  28
HETATM   28  C4  UNL     1     -12.261  -9.821 -22.731  1.00  0.00    -0.045 C 
HETATM   29  C3  UNL     1     -11.982  -8.942 -23.524  1.00  0.00    -0.100 C 
BRANCH  29  30
HETATM   30  C2  UNL     1     -11.656  -7.887 -24.475  1.00  0.00     0.090 C 
HETATM   31  C1  UNL     1     -12.617  -6.719 -24.304  1.00  0.00     0.018 C 
ENDBRANCH  29  30
ENDBRANCH   1  28
TORSDOF 9
ENDMDL
MODEL 4
REMARK VINA RESULT: -7.315814999      1.810      4.034
REMARK  9 active torsions:
REMARK  status: ('A' for Active; 'I' for Inactive)
REMARK    1  A    between atoms: C2_2  and  C3_3 
REMARK    2  A    between atoms: C4_4  and  C5_5 
REMARK    3  A    between atoms: C9_14  and  N3_15 
REMARK    4  A    between atoms: N3_15  and  C10_17 
REMARK    5  A    between atoms: C10_17  and  C11_18 
REMARK    6  A    between atoms: C11_18  and  C12_19 
REMARK    7  A    between atoms: C12_19  and  C13_20 
REMARK    8  A    between atoms: C13_20  and  C14_21 
REMARK    9  A    between atoms: C14_21  and  N4_22 
ROOT
HETATM    1  C5  UNL     1     -12.875 -12.814 -20.953  1.00  0.00     0.128 A 
HETATM    2  C6  UNL     1     -12.125 -11.837 -21.570  1.00  0.00     0.154 A 
HETATM    3  F1  UNL     1     -10.933 -12.159 -22.101  1.00  0.00    -0.203 F 
HETATM    4  C7  UNL     1     -12.636 -10.569 -21.615  1.00  0.00     0.078 A 
HETATM    5  C8  UNL     1     -13.878 -10.306 -21.044  1.00  0.00     0.082 A 
HETATM    6  N1  UNL     1     -14.589  -9.191 -20.950  1.00  0.00    -0.297 N 
ATOM      7  H1  UNL     1     -14.315  -8.277 -21.310  1.00  0.00     0.187 HD
HETATM    8  N2  UNL     1     -15.709  -9.463 -20.314  1.00  0.00    -0.283 N 
ATOM      9  H2  UNL     1     -16.434  -8.775 -20.110  1.00  0.00     0.188 HD
HETATM   10  C9  UNL     1     -15.779 -10.765 -19.964  1.00  0.00     0.149 A 
HETATM   11  C20 UNL     1     -14.573 -11.319 -20.446  1.00  0.00     0.109 A 
HETATM   12  N6  UNL     1     -14.088 -12.561 -20.395  1.00  0.00    -0.337 N 
HETATM   13  C21 UNL     1     -14.839 -13.609 -19.760  1.00  0.00     0.157 C 
ENDROOT
BRANCH  10  14
HETATM   14  N3  UNL     1     -16.613 -11.460 -19.372  1.00  0.00    -0.353 N 
ATOM     15  H3  UNL     1     -16.169 -12.275 -18.948  1.00  0.00     0.166 HD
BRANCH  14  16
HETATM   16  C10 UNL     1     -17.966 -11.457 -19.116  1.00  0.00     0.062 C 
BRANCH  16  17
HETATM   17  C11 UNL     1     -18.826 -11.121 -20.285  1.00  0.00     0.044 C 
BRANCH  17  18
HETATM   18  C12 UNL     1     -20.172 -11.830 -20.222  1.00  0.00     0.007 C 
BRANCH  18  19
HETATM   19  C13 UNL     1     -20.225 -13.046 -21.111  1.00  0.00     0.030 C 
BRANCH  19  20
HETATM   20  C14 UNL     1     -19.517 -12.662 -22.398  1.00  0.00     0.272 C 
BRANCH  20  21
HETATM   21  N4  UNL     1     -20.209 -13.232 -23.535  1.00  0.00     0.091 N 
HETATM   22  C15 UNL     1     -20.609 -14.582 -23.241  1.00  0.00     0.302 C 
HETATM   23  C16 UNL     1     -21.118 -15.155 -24.568  1.00  0.00     0.302 C 
HETATM   24  N5  UNL     1     -22.390 -14.541 -24.840  1.00  0.00     0.087 N 
HETATM   25  C17 UNL     1     -23.419 -15.451 -24.313  1.00  0.00     0.310 C 
HETATM   26  C18 UNL     1     -22.583 -13.279 -24.188  1.00  0.00     0.302 C 
HETATM   27  C19 UNL     1     -21.357 -12.490 -23.944  1.00  0.00     0.302 C 
ENDBRANCH  20  21
ENDBRANCH  19  20
ENDBRANCH  18  19
ENDBRANCH  17  18
ENDBRANCH  16  17
ENDBRANCH  14  16
ENDBRANCH  10  14
BRANCH   1  28
HETATM   28  C4  UNL     1     -12.342 -14.148 -20.903  1.00  0.00    -0.045 C 
HETATM   29  C3  UNL     1     -11.899 -15.279 -20.847  1.00  0.00    -0.100 C 
BRANCH  29  30
HETATM   30  C2  UNL     1     -11.370 -16.636 -20.788  1.00  0.00     0.090 C 
HETATM   31  C1  UNL     1     -10.831 -16.922 -19.392  1.00  0.00     0.018 C 
ENDBRANCH  29  30
ENDBRANCH   1  28
TORSDOF 9
ENDMDL
MODEL 5
REMARK VINA RESULT: -7.292434591      1.841      4.136
REMARK  9 active torsions:
REMARK  status: ('A' for Active; 'I' for Inactive)
REMARK    1  A    between atoms: C2_2  and  C3_3 
REMARK    2  A    between atoms: C4_4  and  C5_5 
REMARK    3  A    between atoms: C9_14  and  N3_15 
REMARK    4  A    between atoms: N3_15  and  C10_17 
REMARK    5  A    between atoms: C10_17  and  C11_18 
REMARK    6  A    between atoms: C11_18  and  C12_19 
REMARK    7  A    between atoms: C12_19  and  C13_20 
REMARK    8  A    between atoms: C13_20  and  C14_21 
REMARK    9  A    between atoms: C14_21  and  N4_22 
ROOT
HETATM    1  C5  UNL     1     -12.885 -12.841 -20.934  1.00  0.00     0.128 A 
HETATM    2  C6  UNL     1     -12.118 -11.869 -21.540  1.00  0.00     0.154 A 
HETATM    3  F1  UNL     1     -10.923 -12.201 -22.058  1.00  0.00    -0.203 F 
HETATM    4  C7  UNL     1     -12.616 -10.596 -21.585  1.00  0.00     0.078 A 
HETATM    5  C8  UNL     1     -13.862 -10.323 -21.028  1.00  0.00     0.082 A 
HETATM    6  N1  UNL     1     -14.563  -9.202 -20.938  1.00  0.00    -0.297 N 
ATOM      7  H1  UNL     1     -14.276  -8.289 -21.291  1.00  0.00     0.187 HD
HETATM    8  N2  UNL     1     -15.693  -9.464 -20.315  1.00  0.00    -0.283 N 
ATOM      9  H2  UNL     1     -16.413  -8.770 -20.117  1.00  0.00     0.188 HD
HETATM   10  C9  UNL     1     -15.779 -10.767 -19.972  1.00  0.00     0.149 A 
HETATM   11  C20 UNL     1     -14.574 -11.331 -20.442  1.00  0.00     0.109 A 
HETATM   12  N6  UNL     1     -14.102 -12.578 -20.390  1.00  0.00    -0.337 N 
HETATM   13  C21 UNL     1     -14.870 -13.621 -19.767  1.00  0.00     0.157 C 
ENDROOT
BRANCH  10  14
HETATM   14  N3  UNL     1     -16.628 -11.456 -19.392  1.00  0.00    -0.353 N 
ATOM     15  H3  UNL     1     -16.196 -12.277 -18.967  1.00  0.00     0.166 HD
BRANCH  14  16
HETATM   16  C10 UNL     1     -17.983 -11.440 -19.150  1.00  0.00     0.062 C 
BRANCH  16  17
HETATM   17  C11 UNL     1     -18.829 -11.140 -20.339  1.00  0.00     0.044 C 
BRANCH  17  18
HETATM   18  C12 UNL     1     -20.140 -11.915 -20.312  1.00  0.00     0.007 C 
BRANCH  18  19
HETATM   19  C13 UNL     1     -20.122 -13.110 -21.229  1.00  0.00     0.030 C 
BRANCH  19  20
HETATM   20  C14 UNL     1     -20.864 -12.692 -22.486  1.00  0.00     0.272 C 
BRANCH  20  21
HETATM   21  N4  UNL     1     -20.296 -13.354 -23.642  1.00  0.00     0.091 N 
HETATM   22  C15 UNL     1     -18.862 -13.398 -23.528  1.00  0.00     0.302 C 
HETATM   23  C16 UNL     1     -18.361 -13.902 -24.885  1.00  0.00     0.302 C 
HETATM   24  N5  UNL     1     -18.676 -15.304 -24.965  1.00  0.00     0.087 N 
HETATM   25  C17 UNL     1     -17.482 -16.032 -24.507  1.00  0.00     0.310 C 
HETATM   26  C18 UNL     1     -19.757 -15.710 -24.115  1.00  0.00     0.302 C 
HETATM   27  C19 UNL     1     -20.783 -14.680 -23.845  1.00  0.00     0.302 C 
ENDBRANCH  20  21
ENDBRANCH  19  20
ENDBRANCH  18  19
ENDBRANCH  17  18
ENDBRANCH  16  17
ENDBRANCH  14  16
ENDBRANCH  10  14
BRANCH   1  28
HETATM   28  C4  UNL     1     -12.366 -14.180 -20.884  1.00  0.00    -0.045 C 
HETATM   29  C3  UNL     1     -11.931 -15.314 -20.825  1.00  0.00    -0.100 C 
BRANCH  29  30
HETATM   30  C2  UNL     1     -11.413 -16.676 -20.762  1.00  0.00     0.090 C 
HETATM   31  C1  UNL     1     -10.867 -16.959 -19.369  1.00  0.00     0.018 C 
ENDBRANCH  29  30
ENDBRANCH   1  28
TORSDOF 9
ENDMDL
