MODEL 1
REMARK VINA RESULT: -7.712304740      0.000      0.000
REMARK  6 active torsions:
REMARK  status: ('A' for Active; 'I' for Inactive)
REMARK    1  A    between atoms: C2_2  and  C3_3 
REMARK       I    between atoms: N3_9  and  C5_11 
REMARK    2  A    between atoms: C5_11  and  C6_13 
REMARK    3  A    between atoms: C6_13  and  C7_14 
REMARK    4  A    between atoms: C7_14  and  S1_15 
REMARK    5  A    between atoms: S1_15  and  N4_18 
REMARK    6  A    between atoms: N4_18  and  C9_20 
ROOT
HETATM    1  C3  UNL     1      13.118 -10.335  21.756  1.00  0.00     0.046 A 
HETATM    2  N1  UNL     1      14.112  -9.525  21.362  1.00  0.00    -0.302 N 
ATOM      3  H1  UNL     1      14.107  -8.508  21.448  1.00  0.00     0.186 HD
HETATM    4  N2  UNL     1      15.110 -10.242  20.843  1.00  0.00    -0.284 N 
ATOM      5  H2  UNL     1      15.979  -9.857  20.473  1.00  0.00     0.188 HD
HETATM    6  C4  UNL     1      14.800 -11.545  20.882  1.00  0.00     0.142 A 
HETATM    7  N3  UNL     1      15.552 -12.489  20.456  1.00  0.00    -0.311 N 
ATOM      8  H3  UNL     1      15.202 -13.444  20.540  1.00  0.00     0.170 HD
HETATM    9  C5  UNL     1      16.836 -12.309  19.877  1.00  0.00     0.224 C 
HETATM   10  O1  UNL     1      16.987 -11.476  18.968  1.00  0.00    -0.273 OA
HETATM   11  C12 UNL     1      13.551 -11.619  21.453  1.00  0.00     0.080 A 
HETATM   12 BR1  UNL     1      12.551 -13.189  21.790  1.00  0.00    -0.045 Br
ENDROOT
BRANCH   9  13
HETATM   13  C6  UNL     1      17.934 -13.131  20.394  1.00  0.00     0.120 C 
BRANCH  13  14
HETATM   14  C7  UNL     1      18.661 -12.600  21.581  1.00  0.00     0.172 C 
BRANCH  14  15
HETATM   15  S1  UNL     1      19.613 -13.745  22.489  1.00  0.00     0.229 S 
HETATM   16  O2  UNL     1      19.362 -15.113  21.919  1.00  0.00    -0.206 OA
HETATM   17  O3  UNL     1      21.070 -13.467  22.351  1.00  0.00    -0.206 OA
BRANCH  15  18
HETATM   18  N4  UNL     1      19.249 -13.689  24.174  1.00  0.00    -0.311 N 
HETATM   19  C8  UNL     1      18.040 -14.337  24.539  1.00  0.00     0.163 C 
BRANCH  18  20
HETATM   20  C9  UNL     1      20.382 -13.902  25.003  1.00  0.00     0.087 C 
HETATM   21  C10 UNL     1      20.760 -12.558  25.633  1.00  0.00     0.032 C 
HETATM   22  C11 UNL     1      20.109 -14.838  26.161  1.00  0.00     0.032 C 
ENDBRANCH  18  20
ENDBRANCH  15  18
ENDBRANCH  14  15
ENDBRANCH  13  14
ENDBRANCH   9  13
BRANCH   1  23
HETATM   23  C2  UNL     1      11.829  -9.950  22.385  1.00  0.00     0.055 C 
HETATM   24  C1  UNL     1      12.104  -9.197  23.660  1.00  0.00     0.011 C 
ENDBRANCH   1  23
TORSDOF 6
ENDMDL
MODEL 2
REMARK VINA RESULT: -7.651018423      0.918      1.467
REMARK  6 active torsions:
REMARK  status: ('A' for Active; 'I' for Inactive)
REMARK    1  A    between atoms: C2_2  and  C3_3 
REMARK       I    between atoms: N3_9  and  C5_11 
REMARK    2  A    between atoms: C5_11  and  C6_13 
REMARK    3  A    between atoms: C6_13  and  C7_14 
REMARK    4  A    between atoms: C7_14  and  S1_15 
REMARK    5  A    between atoms: S1_15  and  N4_18 
REMARK    6  A    between atoms: N4_18  and  C9_20 
ROOT
HETATM    1  C3  UNL     1      13.121 -10.405  21.776  1.00  0.00     0.046 A 
HETATM    2  N1  UNL     1      14.087  -9.561  21.383  1.00  0.00    -0.302 N 
ATOM      3  H1  UNL     1      14.052  -8.546  21.480  1.00  0.00     0.186 HD
HETATM    4  N2  UNL     1      15.102 -10.242  20.849  1.00  0.00    -0.284 N 
ATOM      5  H2  UNL     1      15.955  -9.826  20.476  1.00  0.00     0.188 HD
HETATM    6  C4  UNL     1      14.832 -11.553  20.875  1.00  0.00     0.142 A 
HETATM    7  N3  UNL     1      15.609 -12.469  20.433  1.00  0.00    -0.311 N 
ATOM      8  H3  UNL     1      15.289 -13.436  20.509  1.00  0.00     0.170 HD
HETATM    9  C5  UNL     1      16.882 -12.245  19.846  1.00  0.00     0.224 C 
HETATM   10  O1  UNL     1      17.001 -11.397  18.946  1.00  0.00    -0.273 OA
HETATM   11  C12 UNL     1      13.591 -11.672  21.455  1.00  0.00     0.080 A 
HETATM   12 BR1  UNL     1      12.641 -13.276  21.782  1.00  0.00    -0.045 Br
ENDROOT
BRANCH   9  13
HETATM   13  C6  UNL     1      18.009 -13.038  20.346  1.00  0.00     0.120 C 
BRANCH  13  14
HETATM   14  C7  UNL     1      18.473 -12.737  21.729  1.00  0.00     0.172 C 
BRANCH  14  15
HETATM   15  S1  UNL     1      18.524 -14.078  22.843  1.00  0.00     0.229 S 
HETATM   16  O2  UNL     1      17.269 -14.044  23.669  1.00  0.00    -0.206 OA
HETATM   17  O3  UNL     1      18.543 -15.381  22.120  1.00  0.00    -0.206 OA
BRANCH  15  18
HETATM   18  N4  UNL     1      19.933 -14.036  23.837  1.00  0.00    -0.311 N 
HETATM   19  C8  UNL     1      21.108 -13.590  23.177  1.00  0.00     0.163 C 
BRANCH  18  20
HETATM   20  C9  UNL     1      19.686 -13.538  25.144  1.00  0.00     0.087 C 
HETATM   21  C10 UNL     1      19.685 -14.729  26.106  1.00  0.00     0.032 C 
HETATM   22  C11 UNL     1      20.771 -12.606  25.643  1.00  0.00     0.032 C 
ENDBRANCH  18  20
ENDBRANCH  15  18
ENDBRANCH  14  15
ENDBRANCH  13  14
ENDBRANCH   9  13
BRANCH   1  23
HETATM   23  C2  UNL     1      11.826 -10.067  22.418  1.00  0.00     0.055 C 
HETATM   24  C1  UNL     1      12.085  -9.250  23.657  1.00  0.00     0.011 C 
ENDBRANCH   1  23
TORSDOF 6
ENDMDL
MODEL 3
REMARK VINA RESULT: -7.539256716      0.853      1.291
REMARK  6 active torsions:
REMARK  status: ('A' for Active; 'I' for Inactive)
REMARK    1  A    between atoms: C2_2  and  C3_3 
REMARK       I    between atoms: N3_9  and  C5_11 
REMARK    2  A    between atoms: C5_11  and  C6_13 
REMARK    3  A    between atoms: C6_13  and  C7_14 
REMARK    4  A    between atoms: C7_14  and  S1_15 
REMARK    5  A    between atoms: S1_15  and  N4_18 
REMARK    6  A    between atoms: N4_18  and  C9_20 
ROOT
HETATM    1  C3  UNL     1      13.265 -10.447  21.323  1.00  0.00     0.046 A 
HETATM    2  N1  UNL     1      14.392  -9.728  21.207  1.00  0.00    -0.302 N 
ATOM      3  H1  UNL     1      14.473  -8.731  21.408  1.00  0.00     0.186 HD
HETATM    4  N2  UNL     1      15.392 -10.506  20.790  1.00  0.00    -0.284 N 
ATOM      5  H2  UNL     1      16.349 -10.194  20.625  1.00  0.00     0.188 HD
HETATM    6  C4  UNL     1      14.951 -11.760  20.621  1.00  0.00     0.142 A 
HETATM    7  N3  UNL     1      15.671 -12.742  20.227  1.00  0.00    -0.311 N 
ATOM      8  H3  UNL     1      15.218 -13.652  20.136  1.00  0.00     0.170 HD
HETATM    9  C5  UNL     1      17.052 -12.662  19.906  1.00  0.00     0.224 C 
HETATM   10  O1  UNL     1      17.454 -11.769  19.142  1.00  0.00    -0.273 OA
HETATM   11  C12 UNL     1      13.616 -11.739  20.952  1.00  0.00     0.080 A 
HETATM   12 BR1  UNL     1      12.418 -13.202  20.923  1.00  0.00    -0.045 Br
ENDROOT
BRANCH   9  13
HETATM   13  C6  UNL     1      17.945 -13.656  20.509  1.00  0.00     0.120 C 
BRANCH  13  14
HETATM   14  C7  UNL     1      18.561 -13.293  21.815  1.00  0.00     0.172 C 
BRANCH  14  15
HETATM   15  S1  UNL     1      19.948 -14.227  22.311  1.00  0.00     0.229 S 
HETATM   16  O2  UNL     1      20.255 -15.216  21.221  1.00  0.00    -0.206 OA
HETATM   17  O3  UNL     1      21.151 -13.363  22.476  1.00  0.00    -0.206 OA
BRANCH  15  18
HETATM   18  N4  UNL     1      19.685 -15.017  23.822  1.00  0.00    -0.311 N 
HETATM   19  C8  UNL     1      20.760 -15.835  24.255  1.00  0.00     0.163 C 
BRANCH  18  20
HETATM   20  C9  UNL     1      19.062 -14.187  24.790  1.00  0.00     0.087 C 
HETATM   21  C10 UNL     1      17.768 -14.876  25.233  1.00  0.00     0.032 C 
HETATM   22  C11 UNL     1      19.887 -14.012  26.048  1.00  0.00     0.032 C 
ENDBRANCH  18  20
ENDBRANCH  15  18
ENDBRANCH  14  15
ENDBRANCH  13  14
ENDBRANCH   9  13
BRANCH   1  23
HETATM   23  C2  UNL     1      11.926  -9.973  21.756  1.00  0.00     0.055 C 
HETATM   24  C1  UNL     1      11.865  -9.967  23.262  1.00  0.00     0.011 C 
ENDBRANCH   1  23
TORSDOF 6
ENDMDL
MODEL 4
REMARK VINA RESULT: -7.444093859      1.077      1.354
REMARK  6 active torsions:
REMARK  status: ('A' for Active; 'I' for Inactive)
REMARK    1  A    between atoms: C2_2  and  C3_3 
REMARK       I    between atoms: N3_9  and  C5_11 
REMARK    2  A    between atoms: C5_11  and  C6_13 
REMARK    3  A    between atoms: C6_13  and  C7_14 
REMARK    4  A    between atoms: C7_14  and  S1_15 
REMARK    5  A    between atoms: S1_15  and  N4_18 
REMARK    6  A    between atoms: N4_18  and  C9_20 
ROOT
HETATM    1  C3  UNL     1      13.363 -10.689  21.522  1.00  0.00     0.046 A 
HETATM    2  N1  UNL     1      14.343  -9.843  21.170  1.00  0.00    -0.302 N 
ATOM      3  H1  UNL     1      14.292  -8.827  21.244  1.00  0.00     0.186 HD
HETATM    4  N2  UNL     1      15.392 -10.524  20.708  1.00  0.00    -0.284 N 
ATOM      5  H2  UNL     1      16.263 -10.107  20.377  1.00  0.00     0.188 HD
HETATM    6  C4  UNL     1      15.133 -11.837  20.745  1.00  0.00     0.142 A 
HETATM    7  N3  UNL     1      15.943 -12.754  20.367  1.00  0.00    -0.311 N 
ATOM      8  H3  UNL     1      15.628 -13.721  20.444  1.00  0.00     0.170 HD
HETATM    9  C5  UNL     1      17.246 -12.527  19.850  1.00  0.00     0.224 C 
HETATM   10  O1  UNL     1      17.409 -11.696  18.942  1.00  0.00    -0.273 OA
HETATM   11  C12 UNL     1      13.862 -11.957  21.254  1.00  0.00     0.080 A 
HETATM   12 BR1  UNL     1      12.909 -13.563  21.558  1.00  0.00    -0.045 Br
ENDROOT
BRANCH   9  13
HETATM   13  C6  UNL     1      18.348 -13.300  20.430  1.00  0.00     0.120 C 
BRANCH  13  14
HETATM   14  C7  UNL     1      18.739 -12.957  21.826  1.00  0.00     0.172 C 
BRANCH  14  15
HETATM   15  S1  UNL     1      18.174 -14.029  23.080  1.00  0.00     0.229 S 
HETATM   16  O2  UNL     1      16.727 -13.719  23.340  1.00  0.00    -0.206 OA
HETATM   17  O3  UNL     1      18.251 -15.453  22.649  1.00  0.00    -0.206 OA
BRANCH  15  18
HETATM   18  N4  UNL     1      19.116 -13.890  24.519  1.00  0.00    -0.311 N 
HETATM   19  C8  UNL     1      19.073 -15.027  25.366  1.00  0.00     0.163 C 
BRANCH  18  20
HETATM   20  C9  UNL     1      20.379 -13.277  24.308  1.00  0.00     0.087 C 
HETATM   21  C10 UNL     1      20.789 -12.588  25.613  1.00  0.00     0.032 C 
HETATM   22  C11 UNL     1      21.482 -14.269  24.002  1.00  0.00     0.032 C 
ENDBRANCH  18  20
ENDBRANCH  15  18
ENDBRANCH  14  15
ENDBRANCH  13  14
ENDBRANCH   9  13
BRANCH   1  23
HETATM   23  C2  UNL     1      12.029 -10.351  22.082  1.00  0.00     0.055 C 
HETATM   24  C1  UNL     1      12.208  -9.471  23.292  1.00  0.00     0.011 C 
ENDBRANCH   1  23
TORSDOF 6
ENDMDL
MODEL 5
REMARK VINA RESULT: -7.226016074      2.668      3.372
REMARK  6 active torsions:
REMARK  status: ('A' for Active; 'I' for Inactive)
REMARK    1  A    between atoms: C2_2  and  C3_3 
REMARK       I    between atoms: N3_9  and  C5_11 
REMARK    2  A    between atoms: C5_11  and  C6_13 
REMARK    3  A    between atoms: C6_13  and  C7_14 
REMARK    4  A    between atoms: C7_14  and  S1_15 
REMARK    5  A    between atoms: S1_15  and  N4_18 
REMARK    6  A    between atoms: N4_18  and  C9_20 
ROOT
HETATM    1  C3  UNL     1      12.415 -10.972  21.416  1.00  0.00     0.046 A 
HETATM    2  N1  UNL     1      12.863  -9.980  20.632  1.00  0.00    -0.302 N 
ATOM      3  H1  UNL     1      12.715  -8.986  20.805  1.00  0.00     0.186 HD
HETATM    4  N2  UNL     1      13.531 -10.483  19.593  1.00  0.00    -0.284 N 
ATOM      5  H2  UNL     1      13.968  -9.932  18.854  1.00  0.00     0.188 HD
HETATM    6  C4  UNL     1      13.542 -11.821  19.665  1.00  0.00     0.142 A 
HETATM    7  N3  UNL     1      14.103 -12.594  18.814  1.00  0.00    -0.311 N 
ATOM      8  H3  UNL     1      14.041 -13.600  18.979  1.00  0.00     0.170 HD
HETATM    9  C5  UNL     1      14.805 -12.162  17.658  1.00  0.00     0.224 C 
HETATM   10  O1  UNL     1      14.279 -11.334  16.895  1.00  0.00    -0.273 OA
HETATM   11  C12 UNL     1      12.845 -12.143  20.806  1.00  0.00     0.080 A 
HETATM   12 BR1  UNL     1      12.503 -13.881  21.472  1.00  0.00    -0.045 Br
ENDROOT
BRANCH   9  13
HETATM   13  C6  UNL     1      16.138 -12.724  17.425  1.00  0.00     0.120 C 
BRANCH  13  14
HETATM   14  C7  UNL     1      17.275 -12.048  18.110  1.00  0.00     0.172 C 
BRANCH  14  15
HETATM   15  S1  UNL     1      17.542 -12.473  19.781  1.00  0.00     0.229 S 
HETATM   16  O2  UNL     1      17.314 -11.243  20.615  1.00  0.00    -0.206 OA
HETATM   17  O3  UNL     1      16.569 -13.505  20.238  1.00  0.00    -0.206 OA
BRANCH  15  18
HETATM   18  N4  UNL     1      19.119 -13.123  20.035  1.00  0.00    -0.311 N 
HETATM   19  C8  UNL     1      20.177 -12.313  19.550  1.00  0.00     0.163 C 
BRANCH  18  20
HETATM   20  C9  UNL     1      19.283 -13.720  21.313  1.00  0.00     0.087 C 
HETATM   21  C10 UNL     1      19.557 -15.211  21.102  1.00  0.00     0.032 C 
HETATM   22  C11 UNL     1      20.479 -13.185  22.073  1.00  0.00     0.032 C 
ENDBRANCH  18  20
ENDBRANCH  15  18
ENDBRANCH  14  15
ENDBRANCH  13  14
ENDBRANCH   9  13
BRANCH   1  23
HETATM   23  C2  UNL     1      11.630 -10.854  22.671  1.00  0.00     0.055 C 
HETATM   24  C1  UNL     1      11.987  -9.561  23.359  1.00  0.00     0.011 C 
ENDBRANCH   1  23
TORSDOF 6
ENDMDL
