MODEL 1
REMARK VINA RESULT: -7.396850867      0.000      0.000
REMARK  6 active torsions:
REMARK  status: ('A' for Active; 'I' for Inactive)
REMARK    1  A    between atoms: N1_2  and  C3_4 
REMARK    2  A    between atoms: C3_4  and  C4_5 
REMARK    3  A    between atoms: C4_5  and  C5_6 
REMARK    4  A    between atoms: N2_7  and  C6_9 
REMARK    5  A    between atoms: C13_21  and  C14_22 
REMARK    6  A    between atoms: C14_22  and  N5_23 
ROOT
HETATM    1  C6  UNL     1      13.665 -11.766  19.968  1.00  0.00     0.130 A 
HETATM    2  N3  UNL     1      13.629 -10.631  20.687  1.00  0.00    -0.339 N 
ATOM      3  H3  UNL     1      14.180  -9.819  20.409  1.00  0.00     0.167 HD
HETATM    4  C7  UNL     1      12.844 -10.594  21.792  1.00  0.00     0.062 A 
HETATM    5  C8  UNL     1      12.818  -9.405  22.529  1.00  0.00     0.051 A 
HETATM    6  C9  UNL     1      12.034  -9.322  23.658  1.00  0.00     0.013 A 
HETATM    7 BR1  UNL     1      11.998  -7.700  24.667  1.00  0.00    -0.051 Br
HETATM    8  C10 UNL     1      11.289 -10.408  24.043  1.00  0.00     0.021 A 
HETATM    9  C11 UNL     1      11.288 -11.599  23.341  1.00  0.00     0.033 A 
HETATM   10  C12 UNL     1      12.080 -11.660  22.214  1.00  0.00     0.059 A 
HETATM   11  N4  UNL     1      12.155 -12.775  21.453  1.00  0.00    -0.353 N 
ATOM     12  H4  UNL     1      11.602 -13.584  21.737  1.00  0.00     0.166 HD
HETATM   13  C13 UNL     1      12.888 -12.885  20.378  1.00  0.00     0.080 A 
ENDROOT
BRANCH   1  14
HETATM   14  N2  UNL     1      14.372 -11.849  18.945  1.00  0.00    -0.354 N 
HETATM   15  C5  UNL     1      15.541 -12.212  18.370  1.00  0.00     0.064 C 
ATOM     16  H2  UNL     1      13.805 -11.464  18.190  1.00  0.00     0.166 HD
BRANCH  15  17
HETATM   17  C4  UNL     1      16.680 -12.723  19.256  1.00  0.00     0.074 C 
BRANCH  17  18
HETATM   18  C3  UNL     1      17.120 -11.622  20.214  1.00  0.00     0.276 C 
BRANCH  18  19
HETATM   19  N1  UNL     1      18.482 -11.837  20.666  1.00  0.00     0.080 N 
HETATM   20  C1  UNL     1      19.180 -12.521  19.592  1.00  0.00     0.309 C 
HETATM   21  C2  UNL     1      18.423 -12.752  21.797  1.00  0.00     0.309 C 
ENDBRANCH  18  19
ENDBRANCH  17  18
ENDBRANCH  15  17
ENDBRANCH   1  14
BRANCH  13  22
HETATM   22  C14 UNL     1      13.007 -14.075  19.511  1.00  0.00     0.296 C 
BRANCH  22  23
HETATM   23  N5  UNL     1      13.573 -15.214  20.131  1.00  0.00    -0.073 N 
HETATM   24  C15 UNL     1      12.502 -16.062  20.673  1.00  0.00     0.272 C 
HETATM   25  C16 UNL     1      14.228 -16.014  19.109  1.00  0.00     0.272 C 
HETATM   26  C17 UNL     1      14.529 -14.944  21.164  1.00  0.00     0.272 C 
ENDBRANCH  22  23
ENDBRANCH  13  22
TORSDOF 6
ENDMDL
MODEL 2
REMARK VINA RESULT: -7.268709704      0.789      1.085
REMARK  6 active torsions:
REMARK  status: ('A' for Active; 'I' for Inactive)
REMARK    1  A    between atoms: N1_2  and  C3_4 
REMARK    2  A    between atoms: C3_4  and  C4_5 
REMARK    3  A    between atoms: C4_5  and  C5_6 
REMARK    4  A    between atoms: N2_7  and  C6_9 
REMARK    5  A    between atoms: C13_21  and  C14_22 
REMARK    6  A    between atoms: C14_22  and  N5_23 
ROOT
HETATM    1  C6  UNL     1      14.252 -11.759  19.951  1.00  0.00     0.130 A 
HETATM    2  N3  UNL     1      14.147 -10.668  20.727  1.00  0.00    -0.339 N 
ATOM      3  H3  UNL     1      14.772  -9.872  20.597  1.00  0.00     0.167 HD
HETATM    4  C7  UNL     1      13.190 -10.650  21.688  1.00  0.00     0.062 A 
HETATM    5  C8  UNL     1      13.095  -9.505  22.487  1.00  0.00     0.051 A 
HETATM    6  C9  UNL     1      12.138  -9.444  23.474  1.00  0.00     0.013 A 
HETATM    7 BR1  UNL     1      12.006  -7.882  24.568  1.00  0.00    -0.051 Br
HETATM    8  C10 UNL     1      11.291 -10.507  23.660  1.00  0.00     0.021 A 
HETATM    9  C11 UNL     1      11.354 -11.655  22.891  1.00  0.00     0.033 A 
HETATM   10  C12 UNL     1      12.320 -11.695  21.908  1.00  0.00     0.059 A 
HETATM   11  N4  UNL     1      12.471 -12.767  21.098  1.00  0.00    -0.353 N 
ATOM     12  H4  UNL     1      11.843 -13.559  21.234  1.00  0.00     0.166 HD
HETATM   13  C13 UNL     1      13.368 -12.855  20.154  1.00  0.00     0.080 A 
ENDROOT
BRANCH   1  14
HETATM   14  N2  UNL     1      15.116 -11.823  19.055  1.00  0.00    -0.354 N 
HETATM   15  C5  UNL     1      16.417 -11.948  18.705  1.00  0.00     0.064 C 
ATOM     16  H2  UNL     1      14.603 -11.745  18.177  1.00  0.00     0.166 HD
BRANCH  15  17
HETATM   17  C4  UNL     1      17.485 -11.968  19.802  1.00  0.00     0.074 C 
BRANCH  17  18
HETATM   18  C3  UNL     1      17.832 -13.409  20.154  1.00  0.00     0.276 C 
BRANCH  18  19
HETATM   19  N1  UNL     1      19.244 -13.546  20.461  1.00  0.00     0.080 N 
HETATM   20  C1  UNL     1      19.391 -13.305  21.885  1.00  0.00     0.309 C 
HETATM   21  C2  UNL     1      19.944 -12.474  19.767  1.00  0.00     0.309 C 
ENDBRANCH  18  19
ENDBRANCH  17  18
ENDBRANCH  15  17
ENDBRANCH   1  14
BRANCH  13  22
HETATM   22  C14 UNL     1      13.577 -14.000  19.242  1.00  0.00     0.296 C 
BRANCH  22  23
HETATM   23  N5  UNL     1      14.085 -15.169  19.855  1.00  0.00    -0.073 N 
HETATM   24  C15 UNL     1      13.018 -16.174  19.957  1.00  0.00     0.272 C 
HETATM   25  C16 UNL     1      15.088 -15.748  18.975  1.00  0.00     0.272 C 
HETATM   26  C17 UNL     1      14.681 -14.982  21.144  1.00  0.00     0.272 C 
ENDBRANCH  22  23
ENDBRANCH  13  22
TORSDOF 6
ENDMDL
MODEL 3
REMARK VINA RESULT: -6.972763912      2.957      6.464
REMARK  6 active torsions:
REMARK  status: ('A' for Active; 'I' for Inactive)
REMARK    1  A    between atoms: N1_2  and  C3_4 
REMARK    2  A    between atoms: C3_4  and  C4_5 
REMARK    3  A    between atoms: C4_5  and  C5_6 
REMARK    4  A    between atoms: N2_7  and  C6_9 
REMARK    5  A    between atoms: C13_21  and  C14_22 
REMARK    6  A    between atoms: C14_22  and  N5_23 
ROOT
HETATM    1  C6  UNL     1      16.015 -14.071  21.749  1.00  0.00     0.130 A 
HETATM    2  N3  UNL     1      16.504 -14.184  22.995  1.00  0.00    -0.339 N 
ATOM      3  H3  UNL     1      15.889 -14.397  23.780  1.00  0.00     0.167 HD
HETATM    4  C7  UNL     1      17.836 -14.007  23.182  1.00  0.00     0.062 A 
HETATM    5  C8  UNL     1      18.329 -14.129  24.486  1.00  0.00     0.051 A 
HETATM    6  C9  UNL     1      19.674 -13.958  24.722  1.00  0.00     0.013 A 
HETATM    7 BR1  UNL     1      20.351 -14.123  26.502  1.00  0.00    -0.051 Br
HETATM    8  C10 UNL     1      20.512 -13.671  23.674  1.00  0.00     0.021 A 
HETATM    9  C11 UNL     1      20.062 -13.543  22.372  1.00  0.00     0.033 A 
HETATM   10  C12 UNL     1      18.712 -13.718  22.159  1.00  0.00     0.059 A 
HETATM   11  N4  UNL     1      18.164 -13.616  20.927  1.00  0.00    -0.353 N 
ATOM     12  H4  UNL     1      18.785 -13.402  20.146  1.00  0.00     0.166 HD
HETATM   13  C13 UNL     1      16.894 -13.772  20.671  1.00  0.00     0.080 A 
ENDROOT
BRANCH   1  14
HETATM   14  N2  UNL     1      14.798 -14.224  21.526  1.00  0.00    -0.354 N 
HETATM   15  C5  UNL     1      13.558 -13.690  21.447  1.00  0.00     0.064 C 
ATOM     16  H2  UNL     1      14.685 -15.211  21.298  1.00  0.00     0.166 HD
BRANCH  15  17
HETATM   17  C4  UNL     1      13.348 -12.228  21.852  1.00  0.00     0.074 C 
BRANCH  17  18
HETATM   18  C3  UNL     1      12.014 -12.082  22.574  1.00  0.00     0.276 C 
BRANCH  18  19
HETATM   19  N1  UNL     1      11.627 -10.687  22.679  1.00  0.00     0.080 N 
HETATM   20  C1  UNL     1      12.807  -9.899  22.372  1.00  0.00     0.309 C 
HETATM   21  C2  UNL     1      11.290 -10.436  24.073  1.00  0.00     0.309 C 
ENDBRANCH  18  19
ENDBRANCH  17  18
ENDBRANCH  15  17
ENDBRANCH   1  14
BRANCH  13  22
HETATM   22  C14 UNL     1      16.243 -13.673  19.347  1.00  0.00     0.296 C 
BRANCH  22  23
HETATM   23  N5  UNL     1      16.062 -12.354  18.867  1.00  0.00    -0.073 N 
HETATM   24  C15 UNL     1      17.027 -12.086  17.792  1.00  0.00     0.272 C 
HETATM   25  C16 UNL     1      14.750 -12.269  18.248  1.00  0.00     0.272 C 
HETATM   26  C17 UNL     1      16.156 -11.319  19.853  1.00  0.00     0.272 C 
ENDBRANCH  22  23
ENDBRANCH  13  22
TORSDOF 6
ENDMDL
MODEL 4
REMARK VINA RESULT: -6.668672259      1.597      2.128
REMARK  6 active torsions:
REMARK  status: ('A' for Active; 'I' for Inactive)
REMARK    1  A    between atoms: N1_2  and  C3_4 
REMARK    2  A    between atoms: C3_4  and  C4_5 
REMARK    3  A    between atoms: C4_5  and  C5_6 
REMARK    4  A    between atoms: N2_7  and  C6_9 
REMARK    5  A    between atoms: C13_21  and  C14_22 
REMARK    6  A    between atoms: C14_22  and  N5_23 
ROOT
HETATM    1  C6  UNL     1      13.032 -12.248  20.062  1.00  0.00     0.130 A 
HETATM    2  N3  UNL     1      13.085 -11.041  20.648  1.00  0.00    -0.339 N 
ATOM      3  H3  UNL     1      13.554 -10.258  20.192  1.00  0.00     0.167 HD
HETATM    4  C7  UNL     1      12.500 -10.888  21.862  1.00  0.00     0.062 A 
HETATM    5  C8  UNL     1      12.564  -9.624  22.458  1.00  0.00     0.051 A 
HETATM    6  C9  UNL     1      11.983  -9.423  23.690  1.00  0.00     0.013 A 
HETATM    7 BR1  UNL     1      12.070  -7.698  24.508  1.00  0.00    -0.051 Br
HETATM    8  C10 UNL     1      11.349 -10.467  24.315  1.00  0.00     0.021 A 
HETATM    9  C11 UNL     1      11.265 -11.730  23.758  1.00  0.00     0.033 A 
HETATM   10  C12 UNL     1      11.853 -11.909  22.524  1.00  0.00     0.059 A 
HETATM   11  N4  UNL     1      11.831 -13.101  21.888  1.00  0.00    -0.353 N 
ATOM     12  H4  UNL     1      11.360 -13.879  22.350  1.00  0.00     0.166 HD
HETATM   13  C13 UNL     1      12.372 -13.323  20.720  1.00  0.00     0.080 A 
ENDROOT
BRANCH   1  14
HETATM   14  N2  UNL     1      13.555 -12.438  18.948  1.00  0.00    -0.354 N 
HETATM   15  C5  UNL     1      14.668 -12.468  18.178  1.00  0.00     0.064 C 
ATOM     16  H2  UNL     1      12.787 -12.688  18.325  1.00  0.00     0.166 HD
BRANCH  15  17
HETATM   17  C4  UNL     1      16.002 -12.019  18.781  1.00  0.00     0.074 C 
BRANCH  17  18
HETATM   18  C3  UNL     1      17.007 -11.759  17.665  1.00  0.00     0.276 C 
BRANCH  18  19
HETATM   19  N1  UNL     1      16.335 -11.501  16.405  1.00  0.00     0.080 N 
HETATM   20  C1  UNL     1      16.748 -12.547  15.486  1.00  0.00     0.309 C 
HETATM   21  C2  UNL     1      16.854 -10.242  15.889  1.00  0.00     0.309 C 
ENDBRANCH  18  19
ENDBRANCH  17  18
ENDBRANCH  15  17
ENDBRANCH   1  14
BRANCH  13  22
HETATM   22  C14 UNL     1      12.377 -14.602  19.981  1.00  0.00     0.296 C 
BRANCH  22  23
HETATM   23  N5  UNL     1      13.275 -15.577  20.477  1.00  0.00    -0.073 N 
HETATM   24  C15 UNL     1      12.548 -16.522  21.336  1.00  0.00     0.272 C 
HETATM   25  C16 UNL     1      13.764 -16.362  19.355  1.00  0.00     0.272 C 
HETATM   26  C17 UNL     1      14.409 -15.068  21.189  1.00  0.00     0.272 C 
ENDBRANCH  22  23
ENDBRANCH  13  22
TORSDOF 6
ENDMDL
MODEL 5
REMARK VINA RESULT: -6.585187546      2.871      6.513
REMARK  6 active torsions:
REMARK  status: ('A' for Active; 'I' for Inactive)
REMARK    1  A    between atoms: N1_2  and  C3_4 
REMARK    2  A    between atoms: C3_4  and  C4_5 
REMARK    3  A    between atoms: C4_5  and  C5_6 
REMARK    4  A    between atoms: N2_7  and  C6_9 
REMARK    5  A    between atoms: C13_21  and  C14_22 
REMARK    6  A    between atoms: C14_22  and  N5_23 
ROOT
HETATM    1  C6  UNL     1      15.492 -12.718  19.664  1.00  0.00     0.130 A 
HETATM    2  N3  UNL     1      16.213 -13.087  20.735  1.00  0.00    -0.339 N 
ATOM      3  H3  UNL     1      15.756 -13.425  21.582  1.00  0.00     0.167 HD
HETATM    4  C7  UNL     1      17.565 -12.999  20.662  1.00  0.00     0.062 A 
HETATM    5  C8  UNL     1      18.301 -13.388  21.787  1.00  0.00     0.051 A 
HETATM    6  C9  UNL     1      19.676 -13.316  21.757  1.00  0.00     0.013 A 
HETATM    7 BR1  UNL     1      20.684 -13.845  23.291  1.00  0.00    -0.051 Br
HETATM    8  C10 UNL     1      20.303 -12.864  20.624  1.00  0.00     0.021 A 
HETATM    9  C11 UNL     1      19.610 -12.471  19.493  1.00  0.00     0.033 A 
HETATM   10  C12 UNL     1      18.235 -12.551  19.545  1.00  0.00     0.059 A 
HETATM   11  N4  UNL     1      17.458 -12.193  18.497  1.00  0.00    -0.353 N 
ATOM     12  H4  UNL     1      17.922 -11.856  17.654  1.00  0.00     0.166 HD
HETATM   13  C13 UNL     1      16.154 -12.250  18.495  1.00  0.00     0.080 A 
ENDROOT
BRANCH   1  14
HETATM   14  N2  UNL     1      14.248 -12.780  19.683  1.00  0.00    -0.354 N 
HETATM   15  C5  UNL     1      13.083 -12.533  20.326  1.00  0.00     0.064 C 
ATOM     16  H2  UNL     1      13.984 -13.224  18.803  1.00  0.00     0.166 HD
BRANCH  15  17
HETATM   17  C4  UNL     1      13.124 -11.974  21.751  1.00  0.00     0.074 C 
BRANCH  17  18
HETATM   18  C3  UNL     1      11.710 -11.641  22.212  1.00  0.00     0.276 C 
BRANCH  18  19
HETATM   19  N1  UNL     1      11.612 -10.258  22.641  1.00  0.00     0.080 N 
HETATM   20  C1  UNL     1      12.923  -9.664  22.450  1.00  0.00     0.309 C 
HETATM   21  C2  UNL     1      11.346 -10.267  24.073  1.00  0.00     0.309 C 
ENDBRANCH  18  19
ENDBRANCH  17  18
ENDBRANCH  15  17
ENDBRANCH   1  14
BRANCH  13  22
HETATM   22  C14 UNL     1      15.258 -11.874  17.381  1.00  0.00     0.296 C 
BRANCH  22  23
HETATM   23  N5  UNL     1      15.825 -11.995  16.090  1.00  0.00    -0.073 N 
HETATM   24  C15 UNL     1      15.804 -13.404  15.675  1.00  0.00     0.272 C 
HETATM   25  C16 UNL     1      14.967 -11.295  15.148  1.00  0.00     0.272 C 
HETATM   26  C17 UNL     1      17.154 -11.480  15.948  1.00  0.00     0.272 C 
ENDBRANCH  22  23
ENDBRANCH  13  22
TORSDOF 6
ENDMDL
