MODEL 1
REMARK VINA RESULT: -8.388642419      0.000      0.000
REMARK  6 active torsions:
REMARK  status: ('A' for Active; 'I' for Inactive)
REMARK    1  A    between atoms: N1_2  and  C3_4 
REMARK    2  A    between atoms: C3_4  and  C4_5 
REMARK    3  A    between atoms: C4_5  and  N2_6 
REMARK       I    between atoms: N2_6  and  C6_8 
REMARK    4  A    between atoms: C6_8  and  C7_10 
REMARK    5  A    between atoms: C7_10  and  N3_11 
REMARK       I    between atoms: N3_11  and  C8_13 
REMARK       I    between atoms: C8_13  and  N4_15 
REMARK    6  A    between atoms: N4_15  and  C9_17 
ROOT
HETATM    1  N3  UNL     1      16.631 -12.698  21.564  1.00  0.00    -0.334 N 
ATOM      2  H3  UNL     1      17.169 -11.896  21.237  1.00  0.00     0.164 HD
HETATM    3  C8  UNL     1      17.217 -13.632  22.445  1.00  0.00     0.316 C 
HETATM    4  O2  UNL     1      16.575 -14.615  22.837  1.00  0.00    -0.247 OA
HETATM    5  N4  UNL     1      18.567 -13.465  22.904  1.00  0.00    -0.338 N 
ATOM      6  H4  UNL     1      19.108 -12.659  22.588  1.00  0.00     0.164 HD
ENDROOT
BRANCH   1   7
HETATM    7  C7  UNL     1      15.271 -12.880  21.129  1.00  0.00     0.227 C 
BRANCH   7   8
HETATM    8  C6  UNL     1      14.458 -11.650  21.117  1.00  0.00     0.237 C 
HETATM    9  N2  UNL     1      13.127 -11.701  21.578  1.00  0.00    -0.353 N 
HETATM   10  C5  UNL     1      12.517 -12.924  22.068  1.00  0.00     0.152 C 
HETATM   11  O1  UNL     1      14.939 -10.576  20.705  1.00  0.00    -0.272 OA
BRANCH   9  12
HETATM   12  C4  UNL     1      12.291 -10.495  21.579  1.00  0.00     0.155 C 
BRANCH  12  13
HETATM   13  C3  UNL     1      12.740  -9.663  22.757  1.00  0.00     0.291 C 
BRANCH  13  14
HETATM   14  N1  UNL     1      11.688  -9.373  23.681  1.00  0.00     0.081 N 
HETATM   15  C1  UNL     1      11.918  -8.226  24.506  1.00  0.00     0.309 C 
HETATM   16  C2  UNL     1      11.160 -10.513  24.367  1.00  0.00     0.309 C 
ENDBRANCH  13  14
ENDBRANCH  12  13
ENDBRANCH   9  12
ENDBRANCH   7   8
ENDBRANCH   1   7
BRANCH   5  17
HETATM   17  C9  UNL     1      19.179 -14.428  23.814  1.00  0.00     0.091 C 
HETATM   18  C10 UNL     1      20.412 -14.942  23.142  1.00  0.00     0.030 C 
HETATM   19  C11 UNL     1      21.490 -15.416  24.080  1.00  0.00    -0.011 C 
HETATM   20  C12 UNL     1      22.376 -14.340  24.596  1.00  0.00     0.009 C 
HETATM   21  C17 UNL     1      21.009 -16.394  25.098  1.00  0.00     0.025 C 
HETATM   22  C13 UNL     1      21.744 -13.299  25.430  1.00  0.00    -0.013 C 
HETATM   23  C14 UNL     1      21.191 -13.813  26.730  1.00  0.00     0.011 C 
HETATM   24  C19 UNL     1      20.530 -12.662  24.795  1.00  0.00     0.011 C 
HETATM   25  C15 UNL     1      19.884 -14.456  26.246  1.00  0.00     0.010 C 
HETATM   26  C16 UNL     1      20.103 -15.904  26.143  1.00  0.00     0.087 C 
HETATM   27  C18 UNL     1      19.458 -13.690  25.089  1.00  0.00     0.014 C 
HETATM   28 CL1  UNL     1      18.527 -16.784  26.134  1.00  0.00    -0.125 Cl
ENDBRANCH   5  17
TORSDOF 6
ENDMDL
MODEL 2
REMARK VINA RESULT: -8.276678518      0.996      1.092
REMARK  6 active torsions:
REMARK  status: ('A' for Active; 'I' for Inactive)
REMARK    1  A    between atoms: N1_2  and  C3_4 
REMARK    2  A    between atoms: C3_4  and  C4_5 
REMARK    3  A    between atoms: C4_5  and  N2_6 
REMARK       I    between atoms: N2_6  and  C6_8 
REMARK    4  A    between atoms: C6_8  and  C7_10 
REMARK    5  A    between atoms: C7_10  and  N3_11 
REMARK       I    between atoms: N3_11  and  C8_13 
REMARK       I    between atoms: C8_13  and  N4_15 
REMARK    6  A    between atoms: N4_15  and  C9_17 
ROOT
HETATM    1  N3  UNL     1      17.701 -13.165  20.689  1.00  0.00    -0.334 N 
ATOM      2  H3  UNL     1      18.477 -12.691  20.229  1.00  0.00     0.164 HD
HETATM    3  C8  UNL     1      17.930 -13.924  21.856  1.00  0.00     0.316 C 
HETATM    4  O2  UNL     1      16.996 -14.515  22.415  1.00  0.00    -0.247 OA
HETATM    5  N4  UNL     1      19.246 -14.030  22.421  1.00  0.00    -0.338 N 
ATOM      6  H4  UNL     1      20.025 -13.549  21.971  1.00  0.00     0.164 HD
ENDROOT
BRANCH   1   7
HETATM    7  C7  UNL     1      16.372 -13.063  20.150  1.00  0.00     0.227 C 
BRANCH   7   8
HETATM    8  C6  UNL     1      15.688 -11.786  20.431  1.00  0.00     0.237 C 
HETATM    9  N2  UNL     1      14.476 -11.798  21.148  1.00  0.00    -0.353 N 
HETATM   10  C5  UNL     1      13.865 -13.025  21.628  1.00  0.00     0.152 C 
HETATM   11  O1  UNL     1      16.176 -10.708  20.037  1.00  0.00    -0.272 OA
BRANCH   9  12
HETATM   12  C4  UNL     1      13.772 -10.545  21.444  1.00  0.00     0.155 C 
BRANCH  12  13
HETATM   13  C3  UNL     1      12.303 -10.886  21.518  1.00  0.00     0.291 C 
BRANCH  13  14
HETATM   14  N1  UNL     1      11.666 -10.399  22.701  1.00  0.00     0.081 N 
HETATM   15  C1  UNL     1      12.329  -9.293  23.323  1.00  0.00     0.309 C 
HETATM   16  C2  UNL     1      11.215 -11.416  23.603  1.00  0.00     0.309 C 
ENDBRANCH  13  14
ENDBRANCH  12  13
ENDBRANCH   9  12
ENDBRANCH   7   8
ENDBRANCH   1   7
BRANCH   5  17
HETATM   17  C9  UNL     1      19.488 -14.814  23.628  1.00  0.00     0.091 C 
HETATM   18  C10 UNL     1      20.860 -15.394  23.504  1.00  0.00     0.030 C 
HETATM   19  C11 UNL     1      21.546 -15.678  24.815  1.00  0.00    -0.011 C 
HETATM   20  C12 UNL     1      22.234 -14.506  25.417  1.00  0.00     0.009 C 
HETATM   21  C17 UNL     1      20.722 -16.491  25.756  1.00  0.00     0.025 C 
HETATM   22  C13 UNL     1      21.386 -13.363  25.808  1.00  0.00    -0.013 C 
HETATM   23  C14 UNL     1      20.413 -13.676  26.911  1.00  0.00     0.011 C 
HETATM   24  C19 UNL     1      20.476 -12.873  24.706  1.00  0.00     0.011 C 
HETATM   25  C15 UNL     1      19.329 -14.427  26.125  1.00  0.00     0.010 C 
HETATM   26  C16 UNL     1      19.531 -15.866  26.339  1.00  0.00     0.087 C 
HETATM   27  C18 UNL     1      19.339 -13.871  24.784  1.00  0.00     0.014 C 
HETATM   28 CL1  UNL     1      18.027 -16.782  25.943  1.00  0.00    -0.125 Cl
ENDBRANCH   5  17
TORSDOF 6
ENDMDL
MODEL 3
REMARK VINA RESULT: -8.100755576      0.869      1.220
REMARK  6 active torsions:
REMARK  status: ('A' for Active; 'I' for Inactive)
REMARK    1  A    between atoms: N1_2  and  C3_4 
REMARK    2  A    between atoms: C3_4  and  C4_5 
REMARK    3  A    between atoms: C4_5  and  N2_6 
REMARK       I    between atoms: N2_6  and  C6_8 
REMARK    4  A    between atoms: C6_8  and  C7_10 
REMARK    5  A    between atoms: C7_10  and  N3_11 
REMARK       I    between atoms: N3_11  and  C8_13 
REMARK       I    between atoms: C8_13  and  N4_15 
REMARK    6  A    between atoms: N4_15  and  C9_17 
ROOT
HETATM    1  N3  UNL     1      16.862 -13.133  21.110  1.00  0.00    -0.334 N 
ATOM      2  H3  UNL     1      17.253 -12.199  20.989  1.00  0.00     0.164 HD
HETATM    3  C8  UNL     1      17.429 -14.019  22.050  1.00  0.00     0.316 C 
HETATM    4  O2  UNL     1      16.969 -15.160  22.194  1.00  0.00    -0.247 OA
HETATM    5  N4  UNL     1      18.548 -13.622  22.856  1.00  0.00    -0.338 N 
ATOM      6  H4  UNL     1      18.937 -12.685  22.747  1.00  0.00     0.164 HD
ENDROOT
BRANCH   1   7
HETATM    7  C7  UNL     1      15.732 -13.549  20.322  1.00  0.00     0.227 C 
BRANCH   7   8
HETATM    8  C6  UNL     1      14.545 -12.683  20.441  1.00  0.00     0.237 C 
HETATM    9  N2  UNL     1      13.347 -13.222  20.951  1.00  0.00    -0.353 N 
HETATM   10  C5  UNL     1      13.232 -14.608  21.369  1.00  0.00     0.152 C 
HETATM   11  O1  UNL     1      14.597 -11.486  20.093  1.00  0.00    -0.272 OA
BRANCH   9  12
HETATM   12  C4  UNL     1      12.148 -12.387  21.081  1.00  0.00     0.155 C 
BRANCH  12  13
HETATM   13  C3  UNL     1      11.968 -12.122  22.557  1.00  0.00     0.291 C 
BRANCH  13  14
HETATM   14  N1  UNL     1      12.082 -10.740  22.904  1.00  0.00     0.081 N 
HETATM   15  C1  UNL     1      11.317 -10.348  24.049  1.00  0.00     0.309 C 
HETATM   16  C2  UNL     1      12.017  -9.836  21.797  1.00  0.00     0.309 C 
ENDBRANCH  13  14
ENDBRANCH  12  13
ENDBRANCH   9  12
ENDBRANCH   7   8
ENDBRANCH   1   7
BRANCH   5  17
HETATM   17  C9  UNL     1      19.138 -14.535  23.830  1.00  0.00     0.091 C 
HETATM   18  C10 UNL     1      20.388 -15.079  23.216  1.00  0.00     0.030 C 
HETATM   19  C11 UNL     1      21.444 -15.502  24.204  1.00  0.00    -0.011 C 
HETATM   20  C12 UNL     1      22.315 -14.397  24.686  1.00  0.00     0.009 C 
HETATM   21  C17 UNL     1      20.938 -16.427  25.259  1.00  0.00     0.025 C 
HETATM   22  C13 UNL     1      21.660 -13.318  25.450  1.00  0.00    -0.013 C 
HETATM   23  C14 UNL     1      21.076 -13.765  26.760  1.00  0.00     0.011 C 
HETATM   24  C19 UNL     1      20.462 -12.717  24.752  1.00  0.00     0.011 C 
HETATM   25  C15 UNL     1      19.782 -14.436  26.277  1.00  0.00     0.010 C 
HETATM   26  C16 UNL     1      20.006 -15.887  26.254  1.00  0.00     0.087 C 
HETATM   27  C18 UNL     1      19.384 -13.731  25.072  1.00  0.00     0.014 C 
HETATM   28 CL1  UNL     1      18.432 -16.771  26.251  1.00  0.00    -0.125 Cl
ENDBRANCH   5  17
TORSDOF 6
ENDMDL
MODEL 4
REMARK VINA RESULT: -8.031135734      1.482      2.061
REMARK  6 active torsions:
REMARK  status: ('A' for Active; 'I' for Inactive)
REMARK    1  A    between atoms: N1_2  and  C3_4 
REMARK    2  A    between atoms: C3_4  and  C4_5 
REMARK    3  A    between atoms: C4_5  and  N2_6 
REMARK       I    between atoms: N2_6  and  C6_8 
REMARK    4  A    between atoms: C6_8  and  C7_10 
REMARK    5  A    between atoms: C7_10  and  N3_11 
REMARK       I    between atoms: N3_11  and  C8_13 
REMARK       I    between atoms: C8_13  and  N4_15 
REMARK    6  A    between atoms: N4_15  and  C9_17 
ROOT
HETATM    1  N3  UNL     1      18.405 -12.500  20.294  1.00  0.00    -0.334 N 
ATOM      2  H3  UNL     1      19.110 -11.765  20.251  1.00  0.00     0.164 HD
HETATM    3  C8  UNL     1      18.436 -13.449  21.338  1.00  0.00     0.316 C 
HETATM    4  O2  UNL     1      17.591 -14.352  21.391  1.00  0.00    -0.247 OA
HETATM    5  N4  UNL     1      19.444 -13.389  22.358  1.00  0.00    -0.338 N 
ATOM      6  H4  UNL     1      20.147 -12.650  22.326  1.00  0.00     0.164 HD
ENDROOT
BRANCH   1   7
HETATM    7  C7  UNL     1      17.376 -12.572  19.291  1.00  0.00     0.227 C 
BRANCH   7   8
HETATM    8  C6  UNL     1      16.143 -11.832  19.617  1.00  0.00     0.237 C 
HETATM    9  N2  UNL     1      14.893 -12.432  19.363  1.00  0.00    -0.353 N 
HETATM   10  C5  UNL     1      14.767 -13.760  18.789  1.00  0.00     0.152 C 
HETATM   11  O1  UNL     1      16.203 -10.689  20.111  1.00  0.00    -0.272 OA
BRANCH   9  12
HETATM   12  C4  UNL     1      13.648 -11.722  19.677  1.00  0.00     0.155 C 
BRANCH  12  13
HETATM   13  C3  UNL     1      13.114 -12.334  20.950  1.00  0.00     0.291 C 
BRANCH  13  14
HETATM   14  N1  UNL     1      12.880 -11.376  21.985  1.00  0.00     0.081 N 
HETATM   15  C1  UNL     1      11.657 -11.564  22.706  1.00  0.00     0.309 C 
HETATM   16  C2  UNL     1      13.163 -10.021  21.623  1.00  0.00     0.309 C 
ENDBRANCH  13  14
ENDBRANCH  12  13
ENDBRANCH   9  12
ENDBRANCH   7   8
ENDBRANCH   1   7
BRANCH   5  17
HETATM   17  C9  UNL     1      19.481 -14.368  23.440  1.00  0.00     0.091 C 
HETATM   18  C10 UNL     1      20.749 -15.145  23.283  1.00  0.00     0.030 C 
HETATM   19  C11 UNL     1      21.296 -15.725  24.560  1.00  0.00    -0.011 C 
HETATM   20  C12 UNL     1      22.123 -14.784  25.361  1.00  0.00     0.009 C 
HETATM   21  C17 UNL     1      20.295 -16.516  25.334  1.00  0.00     0.025 C 
HETATM   22  C13 UNL     1      21.445 -13.584  25.888  1.00  0.00    -0.013 C 
HETATM   23  C14 UNL     1      20.368 -13.884  26.891  1.00  0.00     0.011 C 
HETATM   24  C19 UNL     1      20.696 -12.795  24.839  1.00  0.00     0.011 C 
HETATM   25  C15 UNL     1      19.229 -14.322  25.959  1.00  0.00     0.010 C 
HETATM   26  C16 UNL     1      19.184 -15.790  25.959  1.00  0.00     0.087 C 
HETATM   27  C18 UNL     1      19.413 -13.590  24.720  1.00  0.00     0.014 C 
HETATM   28 CL1  UNL     1      17.582 -16.375  25.370  1.00  0.00    -0.125 Cl
ENDBRANCH   5  17
TORSDOF 6
ENDMDL
MODEL 5
REMARK VINA RESULT: -7.933439846      0.944      1.112
REMARK  6 active torsions:
REMARK  status: ('A' for Active; 'I' for Inactive)
REMARK    1  A    between atoms: N1_2  and  C3_4 
REMARK    2  A    between atoms: C3_4  and  C4_5 
REMARK    3  A    between atoms: C4_5  and  N2_6 
REMARK       I    between atoms: N2_6  and  C6_8 
REMARK    4  A    between atoms: C6_8  and  C7_10 
REMARK    5  A    between atoms: C7_10  and  N3_11 
REMARK       I    between atoms: N3_11  and  C8_13 
REMARK       I    between atoms: C8_13  and  N4_15 
REMARK    6  A    between atoms: N4_15  and  C9_17 
ROOT
HETATM    1  N3  UNL     1      16.451 -13.035  21.492  1.00  0.00    -0.334 N 
ATOM      2  H3  UNL     1      16.808 -12.084  21.406  1.00  0.00     0.164 HD
HETATM    3  C8  UNL     1      17.105 -13.963  22.330  1.00  0.00     0.316 C 
HETATM    4  O2  UNL     1      16.685 -15.123  22.431  1.00  0.00    -0.247 OA
HETATM    5  N4  UNL     1      18.267 -13.584  23.083  1.00  0.00    -0.338 N 
ATOM      6  H4  UNL     1      18.624 -12.631  23.009  1.00  0.00     0.164 HD
ENDROOT
BRANCH   1   7
HETATM    7  C7  UNL     1      15.280 -13.434  20.758  1.00  0.00     0.227 C 
BRANCH   7   8
HETATM    8  C6  UNL     1      14.000 -13.134  21.427  1.00  0.00     0.237 C 
HETATM    9  N2  UNL     1      13.600 -11.792  21.576  1.00  0.00    -0.353 N 
HETATM   10  C5  UNL     1      14.401 -10.680  21.094  1.00  0.00     0.152 C 
HETATM   11  O1  UNL     1      13.280 -14.056  21.858  1.00  0.00    -0.272 OA
BRANCH   9  12
HETATM   12  C4  UNL     1      12.333 -11.459  22.237  1.00  0.00     0.155 C 
BRANCH  12  13
HETATM   13  C3  UNL     1      12.400  -9.991  22.581  1.00  0.00     0.291 C 
BRANCH  13  14
HETATM   14  N1  UNL     1      11.552  -9.624  23.673  1.00  0.00     0.081 N 
HETATM   15  C1  UNL     1      11.965  -8.450  24.380  1.00  0.00     0.309 C 
HETATM   16  C2  UNL     1      11.139 -10.713  24.503  1.00  0.00     0.309 C 
ENDBRANCH  13  14
ENDBRANCH  12  13
ENDBRANCH   9  12
ENDBRANCH   7   8
ENDBRANCH   1   7
BRANCH   5  17
HETATM   17  C9  UNL     1      18.948 -14.540  23.952  1.00  0.00     0.091 C 
HETATM   18  C10 UNL     1      20.145 -15.033  23.205  1.00  0.00     0.030 C 
HETATM   19  C11 UNL     1      21.285 -15.493  24.075  1.00  0.00    -0.011 C 
HETATM   20  C12 UNL     1      22.184 -14.404  24.541  1.00  0.00     0.009 C 
HETATM   21  C17 UNL     1      20.881 -16.480  25.118  1.00  0.00     0.025 C 
HETATM   22  C13 UNL     1      21.587 -13.375  25.415  1.00  0.00    -0.013 C 
HETATM   23  C14 UNL     1      21.122 -13.900  26.743  1.00  0.00     0.011 C 
HETATM   24  C19 UNL     1      20.328 -12.755  24.855  1.00  0.00     0.011 C 
HETATM   25  C15 UNL     1      19.797 -14.562  26.337  1.00  0.00     0.010 C 
HETATM   26  C16 UNL     1      20.032 -16.007  26.216  1.00  0.00     0.087 C 
HETATM   27  C18 UNL     1      19.291 -13.800  25.210  1.00  0.00     0.014 C 
HETATM   28 CL1  UNL     1      18.473 -16.911  26.300  1.00  0.00    -0.125 Cl
ENDBRANCH   5  17
TORSDOF 6
ENDMDL
