MODEL 1
REMARK VINA RESULT: -6.630084854      0.000      0.000
REMARK  8 active torsions:
REMARK  status: ('A' for Active; 'I' for Inactive)
REMARK    1  A    between atoms: C4_5  and  C5_6 
REMARK       I    between atoms: C5_6  and  N1_8 
REMARK    2  A    between atoms: N1_8  and  C6_10 
REMARK    3  A    between atoms: C6_10  and  C7_11 
REMARK    4  A    between atoms: C7_11  and  N2_12 
REMARK    5  A    between atoms: N2_12  and  C10_15 
REMARK    6  A    between atoms: C10_15  and  C11_16 
REMARK    7  A    between atoms: C11_16  and  O2_17 
REMARK    8  A    between atoms: N3_19  and  N4_20 
ROOT
HETATM    1  C5  UNL     1      17.703 -13.820  22.296  1.00  0.00     0.269 C 
HETATM    2  O1  UNL     1      18.151 -13.540  21.158  1.00  0.00    -0.266 OA
HETATM    3  N1  UNL     1      16.313 -13.742  22.529  1.00  0.00    -0.354 N 
ATOM      4  H1  UNL     1      15.975 -13.981  23.461  1.00  0.00     0.162 HD
ENDROOT
BRANCH   1   5
HETATM    5  C4  UNL     1      18.613 -14.230  23.386  1.00  0.00     0.123 C 
HETATM    6  C3  UNL     1      18.639 -13.756  24.613  1.00  0.00     0.034 C 
HETATM    7  C2  UNL     1      19.700 -14.426  25.407  1.00  0.00     0.061 C 
HETATM    8  C1  UNL     1      19.138 -15.377  26.422  1.00  0.00     0.035 C 
HETATM    9 BR1  UNL     1      20.753 -13.105  26.372  1.00  0.00    -0.079 Br
HETATM   10  C12 UNL     1      20.554 -15.076  24.372  1.00  0.00     0.073 C 
HETATM   11  N3  UNL     1      19.617 -15.225  23.250  1.00  0.00    -0.217 N 
HETATM   12  C13 UNL     1      21.646 -14.158  23.910  1.00  0.00     0.042 C 
HETATM   13  C14 UNL     1      21.071 -16.429  24.795  1.00  0.00     0.042 C 
BRANCH  11  14
HETATM   14  N4  UNL     1      19.746 -16.187  22.263  1.00  0.00    -0.035 N 
HETATM   15  O3  UNL     1      20.558 -16.005  21.346  1.00  0.00    -0.516 OA
HETATM   16  O4  UNL     1      18.952 -17.306  22.357  1.00  0.00    -0.516 OA
ENDBRANCH  11  14
ENDBRANCH   1   5
BRANCH   3  17
HETATM   17  C6  UNL     1      15.343 -13.351  21.549  1.00  0.00     0.151 C 
BRANCH  17  18
HETATM   18  C7  UNL     1      15.187 -11.877  21.466  1.00  0.00     0.256 C 
BRANCH  18  19
HETATM   19  N2  UNL     1      13.815 -11.463  21.181  1.00  0.00    -0.071 N 
HETATM   20  C8  UNL     1      13.756 -10.048  21.493  1.00  0.00     0.272 C 
HETATM   21  C9  UNL     1      13.530 -11.622  19.767  1.00  0.00     0.272 C 
BRANCH  19  22
HETATM   22  C10 UNL     1      12.942 -12.225  22.006  1.00  0.00     0.262 C 
BRANCH  22  23
HETATM   23  C11 UNL     1      11.835 -11.459  22.672  1.00  0.00     0.192 C 
BRANCH  23  24
HETATM   24  O2  UNL     1      10.754 -12.206  23.059  1.00  0.00    -0.399 OA
ATOM     25  H2  UNL     1      10.004 -11.709  23.365  1.00  0.00     0.209 HD
ENDBRANCH  23  24
ENDBRANCH  22  23
ENDBRANCH  19  22
ENDBRANCH  18  19
ENDBRANCH  17  18
ENDBRANCH   3  17
TORSDOF 8
ENDMDL
MODEL 2
REMARK VINA RESULT: -6.489226956      1.231      1.501
REMARK  8 active torsions:
REMARK  status: ('A' for Active; 'I' for Inactive)
REMARK    1  A    between atoms: C4_5  and  C5_6 
REMARK       I    between atoms: C5_6  and  N1_8 
REMARK    2  A    between atoms: N1_8  and  C6_10 
REMARK    3  A    between atoms: C6_10  and  C7_11 
REMARK    4  A    between atoms: C7_11  and  N2_12 
REMARK    5  A    between atoms: N2_12  and  C10_15 
REMARK    6  A    between atoms: C10_15  and  C11_16 
REMARK    7  A    between atoms: C11_16  and  O2_17 
REMARK    8  A    between atoms: N3_19  and  N4_20 
ROOT
HETATM    1  C5  UNL     1      17.096 -14.626  22.794  1.00  0.00     0.269 C 
HETATM    2  O1  UNL     1      16.489 -15.646  22.388  1.00  0.00    -0.266 OA
HETATM    3  N1  UNL     1      16.589 -13.349  22.476  1.00  0.00    -0.354 N 
ATOM      4  H1  UNL     1      17.098 -12.537  22.824  1.00  0.00     0.162 HD
ENDROOT
BRANCH   1   5
HETATM    5  C4  UNL     1      18.329 -14.752  23.599  1.00  0.00     0.123 C 
HETATM    6  C3  UNL     1      18.481 -14.437  24.867  1.00  0.00     0.034 C 
HETATM    7  C2  UNL     1      19.872 -14.709  25.309  1.00  0.00     0.061 C 
HETATM    8  C1  UNL     1      19.961 -15.906  26.210  1.00  0.00     0.035 C 
HETATM    9 BR1  UNL     1      20.574 -13.187  26.297  1.00  0.00    -0.079 Br
HETATM   10  C12 UNL     1      20.623 -14.856  24.030  1.00  0.00     0.073 C 
HETATM   11  N3  UNL     1      19.561 -15.246  23.093  1.00  0.00    -0.217 N 
HETATM   12  C13 UNL     1      21.158 -13.537  23.557  1.00  0.00     0.042 C 
HETATM   13  C14 UNL     1      21.683 -15.928  24.084  1.00  0.00     0.042 C 
BRANCH  11  14
HETATM   14  N4  UNL     1      19.786 -15.970  21.934  1.00  0.00    -0.035 N 
HETATM   15  O3  UNL     1      20.260 -15.393  20.945  1.00  0.00    -0.516 OA
HETATM   16  O4  UNL     1      19.463 -17.306  21.944  1.00  0.00    -0.516 OA
ENDBRANCH  11  14
ENDBRANCH   1   5
BRANCH   3  17
HETATM   17  C6  UNL     1      15.409 -13.111  21.699  1.00  0.00     0.151 C 
BRANCH  17  18
HETATM   18  C7  UNL     1      15.170 -11.665  21.463  1.00  0.00     0.256 C 
BRANCH  18  19
HETATM   19  N2  UNL     1      13.758 -11.344  21.260  1.00  0.00    -0.071 N 
HETATM   20  C8  UNL     1      13.496 -11.584  19.854  1.00  0.00     0.272 C 
HETATM   21  C9  UNL     1      12.926 -12.248  22.031  1.00  0.00     0.272 C 
BRANCH  19  22
HETATM   22  C10 UNL     1      13.560  -9.980  21.612  1.00  0.00     0.262 C 
BRANCH  22  23
HETATM   23  C11 UNL     1      12.511  -9.719  22.654  1.00  0.00     0.192 C 
BRANCH  23  24
HETATM   24  O2  UNL     1      12.887  -8.876  23.667  1.00  0.00    -0.399 OA
ATOM     25  H2  UNL     1      13.032  -7.973  23.411  1.00  0.00     0.209 HD
ENDBRANCH  23  24
ENDBRANCH  22  23
ENDBRANCH  19  22
ENDBRANCH  18  19
ENDBRANCH  17  18
ENDBRANCH   3  17
TORSDOF 8
ENDMDL
MODEL 3
REMARK VINA RESULT: -6.454737216      0.888      1.229
REMARK  8 active torsions:
REMARK  status: ('A' for Active; 'I' for Inactive)
REMARK    1  A    between atoms: C4_5  and  C5_6 
REMARK       I    between atoms: C5_6  and  N1_8 
REMARK    2  A    between atoms: N1_8  and  C6_10 
REMARK    3  A    between atoms: C6_10  and  C7_11 
REMARK    4  A    between atoms: C7_11  and  N2_12 
REMARK    5  A    between atoms: N2_12  and  C10_15 
REMARK    6  A    between atoms: C10_15  and  C11_16 
REMARK    7  A    between atoms: C11_16  and  O2_17 
REMARK    8  A    between atoms: N3_19  and  N4_20 
ROOT
HETATM    1  C5  UNL     1      17.938 -14.046  22.370  1.00  0.00     0.269 C 
HETATM    2  O1  UNL     1      18.457 -13.785  21.258  1.00  0.00    -0.266 OA
HETATM    3  N1  UNL     1      16.536 -13.978  22.511  1.00  0.00    -0.354 N 
ATOM      4  H1  UNL     1      16.140 -14.202  23.424  1.00  0.00     0.162 HD
ENDROOT
BRANCH   1   5
HETATM    5  C4  UNL     1      18.779 -14.422  23.526  1.00  0.00     0.123 C 
HETATM    6  C3  UNL     1      18.741 -13.903  24.734  1.00  0.00     0.034 C 
HETATM    7  C2  UNL     1      19.747 -14.552  25.612  1.00  0.00     0.061 C 
HETATM    8  C1  UNL     1      19.116 -15.459  26.628  1.00  0.00     0.035 C 
HETATM    9 BR1  UNL     1      20.759 -13.206  26.586  1.00  0.00    -0.079 Br
HETATM   10  C12 UNL     1      20.650 -15.250  24.653  1.00  0.00     0.073 C 
HETATM   11  N3  UNL     1      19.777 -15.432  23.486  1.00  0.00    -0.217 N 
HETATM   12  C13 UNL     1      21.778 -14.362  24.220  1.00  0.00     0.042 C 
HETATM   13  C14 UNL     1      21.125 -16.591  25.155  1.00  0.00     0.042 C 
BRANCH  11  14
HETATM   14  N4  UNL     1      19.950 -16.433  22.544  1.00  0.00    -0.035 N 
HETATM   15  O3  UNL     1      20.798 -16.283  21.653  1.00  0.00    -0.516 OA
HETATM   16  O4  UNL     1      19.160 -17.552  22.652  1.00  0.00    -0.516 OA
ENDBRANCH  11  14
ENDBRANCH   1   5
BRANCH   3  17
HETATM   17  C6  UNL     1      15.628 -13.619  21.462  1.00  0.00     0.151 C 
BRANCH  17  18
HETATM   18  C7  UNL     1      15.444 -12.150  21.353  1.00  0.00     0.256 C 
BRANCH  18  19
HETATM   19  N2  UNL     1      14.057 -11.763  21.103  1.00  0.00    -0.071 N 
HETATM   20  C8  UNL     1      13.827 -12.007  19.692  1.00  0.00     0.272 C 
HETATM   21  C9  UNL     1      13.159 -12.617  21.857  1.00  0.00     0.272 C 
BRANCH  19  22
HETATM   22  C10 UNL     1      13.915 -10.387  21.434  1.00  0.00     0.262 C 
BRANCH  22  23
HETATM   23  C11 UNL     1      12.582  -9.984  21.996  1.00  0.00     0.192 C 
BRANCH  23  24
HETATM   24  O2  UNL     1      11.679  -9.510  21.081  1.00  0.00    -0.399 OA
ATOM     25  H2  UNL     1      11.785  -8.598  20.839  1.00  0.00     0.209 HD
ENDBRANCH  23  24
ENDBRANCH  22  23
ENDBRANCH  19  22
ENDBRANCH  18  19
ENDBRANCH  17  18
ENDBRANCH   3  17
TORSDOF 8
ENDMDL
MODEL 4
REMARK VINA RESULT: -6.361602044      1.291      1.399
REMARK  8 active torsions:
REMARK  status: ('A' for Active; 'I' for Inactive)
REMARK    1  A    between atoms: C4_5  and  C5_6 
REMARK       I    between atoms: C5_6  and  N1_8 
REMARK    2  A    between atoms: N1_8  and  C6_10 
REMARK    3  A    between atoms: C6_10  and  C7_11 
REMARK    4  A    between atoms: C7_11  and  N2_12 
REMARK    5  A    between atoms: N2_12  and  C10_15 
REMARK    6  A    between atoms: C10_15  and  C11_16 
REMARK    7  A    between atoms: C11_16  and  O2_17 
REMARK    8  A    between atoms: N3_19  and  N4_20 
ROOT
HETATM    1  C5  UNL     1      17.289 -14.247  22.484  1.00  0.00     0.269 C 
HETATM    2  O1  UNL     1      16.416 -15.129  22.301  1.00  0.00    -0.266 OA
HETATM    3  N1  UNL     1      17.186 -13.021  21.793  1.00  0.00    -0.354 N 
ATOM      4  H1  UNL     1      17.906 -12.319  21.965  1.00  0.00     0.162 HD
ENDROOT
BRANCH   1   5
HETATM    5  C4  UNL     1      18.415 -14.479  23.413  1.00  0.00     0.123 C 
HETATM    6  C3  UNL     1      18.492 -14.105  24.672  1.00  0.00     0.034 C 
HETATM    7  C2  UNL     1      19.787 -14.527  25.263  1.00  0.00     0.061 C 
HETATM    8  C1  UNL     1      19.629 -15.662  26.230  1.00  0.00     0.035 C 
HETATM    9 BR1  UNL     1      20.597 -13.048  26.233  1.00  0.00    -0.079 Br
HETATM   10  C12 UNL     1      20.624 -14.854  24.073  1.00  0.00     0.073 C 
HETATM   11  N3  UNL     1      19.609 -15.163  23.058  1.00  0.00    -0.217 N 
HETATM   12  C13 UNL     1      21.375 -13.651  23.587  1.00  0.00     0.042 C 
HETATM   13  C14 UNL     1      21.518 -16.050  24.289  1.00  0.00     0.042 C 
BRANCH  11  14
HETATM   14  N4  UNL     1      19.837 -15.985  21.967  1.00  0.00    -0.035 N 
HETATM   15  O3  UNL     1      20.406 -15.519  20.970  1.00  0.00    -0.516 OA
HETATM   16  O4  UNL     1      19.411 -17.289  22.052  1.00  0.00    -0.516 OA
ENDBRANCH  11  14
ENDBRANCH   1   5
BRANCH   3  17
HETATM   17  C6  UNL     1      16.144 -12.692  20.867  1.00  0.00     0.151 C 
BRANCH  17  18
HETATM   18  C7  UNL     1      15.025 -11.961  21.512  1.00  0.00     0.256 C 
BRANCH  18  19
HETATM   19  N2  UNL     1      13.731 -12.228  20.888  1.00  0.00    -0.071 N 
HETATM   20  C8  UNL     1      13.112 -10.932  20.689  1.00  0.00     0.272 C 
HETATM   21  C9  UNL     1      13.923 -12.837  19.585  1.00  0.00     0.272 C 
BRANCH  19  22
HETATM   22  C10 UNL     1      12.975 -13.048  21.772  1.00  0.00     0.262 C 
BRANCH  22  23
HETATM   23  C11 UNL     1      12.834 -14.488  21.368  1.00  0.00     0.192 C 
BRANCH  23  24
HETATM   24  O2  UNL     1      12.823 -15.388  22.401  1.00  0.00    -0.399 OA
ATOM     25  H2  UNL     1      11.969 -15.564  22.778  1.00  0.00     0.209 HD
ENDBRANCH  23  24
ENDBRANCH  22  23
ENDBRANCH  19  22
ENDBRANCH  18  19
ENDBRANCH  17  18
ENDBRANCH   3  17
TORSDOF 8
ENDMDL
MODEL 5
REMARK VINA RESULT: -6.338531078      1.248      1.594
REMARK  8 active torsions:
REMARK  status: ('A' for Active; 'I' for Inactive)
REMARK    1  A    between atoms: C4_5  and  C5_6 
REMARK       I    between atoms: C5_6  and  N1_8 
REMARK    2  A    between atoms: N1_8  and  C6_10 
REMARK    3  A    between atoms: C6_10  and  C7_11 
REMARK    4  A    between atoms: C7_11  and  N2_12 
REMARK    5  A    between atoms: N2_12  and  C10_15 
REMARK    6  A    between atoms: C10_15  and  C11_16 
REMARK    7  A    between atoms: C11_16  and  O2_17 
REMARK    8  A    between atoms: N3_19  and  N4_20 
ROOT
HETATM    1  C5  UNL     1      17.743 -13.856  22.226  1.00  0.00     0.269 C 
HETATM    2  O1  UNL     1      18.056 -13.787  21.013  1.00  0.00    -0.266 OA
HETATM    3  N1  UNL     1      16.400 -13.648  22.605  1.00  0.00    -0.354 N 
ATOM      4  H1  UNL     1      16.172 -13.717  23.596  1.00  0.00     0.162 HD
ENDROOT
BRANCH   1   5
HETATM    5  C4  UNL     1      18.763 -14.154  23.253  1.00  0.00     0.123 C 
HETATM    6  C3  UNL     1      19.722 -13.356  23.668  1.00  0.00     0.034 C 
HETATM    7  C2  UNL     1      20.541 -14.024  24.711  1.00  0.00     0.061 C 
HETATM    8  C1  UNL     1      20.293 -13.461  26.079  1.00  0.00     0.035 C 
HETATM    9 BR1  UNL     1      22.435 -13.798  24.327  1.00  0.00    -0.079 Br
HETATM   10  C12 UNL     1      20.178 -15.463  24.571  1.00  0.00     0.073 C 
HETATM   11  N3  UNL     1      18.847 -15.386  23.954  1.00  0.00    -0.217 N 
HETATM   12  C13 UNL     1      21.074 -16.160  23.591  1.00  0.00     0.042 C 
HETATM   13  C14 UNL     1      20.092 -16.184  25.894  1.00  0.00     0.042 C 
BRANCH  11  14
HETATM   14  N4  UNL     1      17.887 -16.377  24.071  1.00  0.00    -0.035 N 
HETATM   15  O3  UNL     1      16.898 -16.176  24.791  1.00  0.00    -0.516 OA
HETATM   16  O4  UNL     1      18.087 -17.544  23.374  1.00  0.00    -0.516 OA
ENDBRANCH  11  14
ENDBRANCH   1   5
BRANCH   3  17
HETATM   17  C6  UNL     1      15.333 -13.348  21.696  1.00  0.00     0.151 C 
BRANCH  17  18
HETATM   18  C7  UNL     1      15.211 -11.893  21.430  1.00  0.00     0.256 C 
BRANCH  18  19
HETATM   19  N2  UNL     1      13.839 -11.477  21.146  1.00  0.00    -0.071 N 
HETATM   20  C8  UNL     1      13.797 -10.050  21.400  1.00  0.00     0.272 C 
HETATM   21  C9  UNL     1      13.534 -11.691  19.744  1.00  0.00     0.272 C 
BRANCH  19  22
HETATM   22  C10 UNL     1      12.969 -12.196  22.013  1.00  0.00     0.262 C 
BRANCH  22  23
HETATM   23  C11 UNL     1      11.746 -11.456  22.475  1.00  0.00     0.192 C 
BRANCH  23  24
HETATM   24  O2  UNL     1      10.805 -12.220  23.112  1.00  0.00    -0.399 OA
ATOM     25  H2  UNL     1       9.978 -11.785  23.286  1.00  0.00     0.209 HD
ENDBRANCH  23  24
ENDBRANCH  22  23
ENDBRANCH  19  22
ENDBRANCH  18  19
ENDBRANCH  17  18
ENDBRANCH   3  17
TORSDOF 8
ENDMDL
