MODEL 1
REMARK VINA RESULT: -7.955797911      0.000      0.000
REMARK  9 active torsions:
REMARK  status: ('A' for Active; 'I' for Inactive)
REMARK       I    between atoms: C1_2  and  N1_3 
REMARK    1  A    between atoms: C1_2  and  C6_12 
REMARK    2  A    between atoms: N1_3  and  C2_5 
REMARK    3  A    between atoms: C6_12  and  C7_13 
REMARK    4  A    between atoms: C6_12  and  N2_16 
REMARK    5  A    between atoms: N2_16  and  C10_17 
REMARK    6  A    between atoms: N2_16  and  C15_23 
REMARK    7  A    between atoms: C10_17  and  C11_18 
REMARK    8  A    between atoms: C15_23  and  O5_24 
REMARK    9  A    between atoms: C15_23  and  C16_26 
ROOT
HETATM    1  N2  UNL     1      44.011 -12.969  37.418  1.00  0.00    -0.341 N 
ENDROOT
BRANCH   1   2
HETATM    2  C6  UNL     1      43.837 -13.219  35.945  1.00  0.00     0.182 C 
BRANCH   2   3
HETATM    3  C1  UNL     1      43.898 -14.672  35.683  1.00  0.00     0.241 C 
HETATM    4  O1  UNL     1      43.169 -15.095  34.732  1.00  0.00    -0.271 OA
HETATM    5  N1  UNL     1      44.695 -15.580  36.405  1.00  0.00    -0.354 N 
ATOM      6  H1  UNL     1      45.274 -15.217  37.163  1.00  0.00     0.162 HD
BRANCH   5   7
HETATM    7  C2  UNL     1      44.738 -17.002  36.129  1.00  0.00     0.099 C 
HETATM    8  C3  UNL     1      43.415 -17.580  36.493  1.00  0.00     0.041 C 
HETATM    9  C4  UNL     1      43.537 -19.057  36.621  1.00  0.00     0.142 C 
HETATM   10  S1  UNL     1      45.157 -19.218  37.385  1.00  0.00     0.146 S 
HETATM   11  O2  UNL     1      45.957 -20.288  36.737  1.00  0.00    -0.228 OA
HETATM   12  O3  UNL     1      45.044 -19.367  38.864  1.00  0.00    -0.228 OA
HETATM   13  C5  UNL     1      45.781 -17.589  37.042  1.00  0.00     0.165 C 
ENDBRANCH   5   7
ENDBRANCH   2   3
BRANCH   2  14
HETATM   14  C7  UNL     1      42.637 -12.597  35.363  1.00  0.00     0.018 A 
HETATM   15  C8  UNL     1      42.010 -11.350  35.864  1.00  0.00     0.007 A 
HETATM   16  C9  UNL     1      42.830 -11.239  34.655  1.00  0.00     0.007 A 
ENDBRANCH   2  14
ENDBRANCH   1   2
BRANCH   1  17
HETATM   17  C10 UNL     1      43.170 -13.704  38.290  1.00  0.00     0.191 C 
BRANCH  17  18
HETATM   18  C11 UNL     1      43.750 -14.314  39.489  1.00  0.00     0.070 A 
HETATM   19  C12 UNL     1      43.804 -13.925  40.785  1.00  0.00     0.036 A 
HETATM   20  C13 UNL     1      44.472 -14.873  41.508  1.00  0.00     0.027 A 
HETATM   21  C14 UNL     1      44.821 -15.848  40.609  1.00  0.00     0.142 A 
HETATM   22  O4  UNL     1      44.384 -15.488  39.447  1.00  0.00    -0.325 OA
ENDBRANCH  17  18
ENDBRANCH   1  17
BRANCH   1  23
HETATM   23  C15 UNL     1      44.989 -12.036  37.735  1.00  0.00     0.149 C 
BRANCH  23  24
HETATM   24  O5  UNL     1      46.248 -12.466  37.532  1.00  0.00    -0.346 OA
ATOM     25  H5  UNL     1      46.788 -11.868  37.028  1.00  0.00     0.219 HD
ENDBRANCH  23  24
BRANCH  23  26
HETATM   26  C16 UNL     1      45.001 -10.692  38.241  1.00  0.00     0.015 A 
HETATM   27  C17 UNL     1      45.268 -10.474  39.606  1.00  0.00     0.017 A 
HETATM   28  C18 UNL     1      45.283  -9.235  40.195  1.00  0.00     0.025 A 
HETATM   29  C19 UNL     1      45.026  -8.125  39.424  1.00  0.00     0.034 A 
HETATM   30 CL1  UNL     1      45.046  -6.556  40.176  1.00  0.00    -0.084 Cl
HETATM   31  C20 UNL     1      44.763  -8.301  38.093  1.00  0.00     0.025 A 
HETATM   32  C21 UNL     1      44.753  -9.548  37.524  1.00  0.00     0.017 A 
ENDBRANCH  23  26
ENDBRANCH   1  23
TORSDOF 9
ENDMDL
MODEL 2
REMARK VINA RESULT: -7.844702211      3.652      7.158
REMARK  9 active torsions:
REMARK  status: ('A' for Active; 'I' for Inactive)
REMARK       I    between atoms: C1_2  and  N1_3 
REMARK    1  A    between atoms: C1_2  and  C6_12 
REMARK    2  A    between atoms: N1_3  and  C2_5 
REMARK    3  A    between atoms: C6_12  and  C7_13 
REMARK    4  A    between atoms: C6_12  and  N2_16 
REMARK    5  A    between atoms: N2_16  and  C10_17 
REMARK    6  A    between atoms: N2_16  and  C15_23 
REMARK    7  A    between atoms: C10_17  and  C11_18 
REMARK    8  A    between atoms: C15_23  and  O5_24 
REMARK    9  A    between atoms: C15_23  and  C16_26 
ROOT
HETATM    1  N2  UNL     1      44.366 -14.129  37.716  1.00  0.00    -0.341 N 
ENDROOT
BRANCH   1   2
HETATM    2  C6  UNL     1      43.943 -12.945  36.889  1.00  0.00     0.182 C 
BRANCH   2   3
HETATM    3  C1  UNL     1      44.643 -11.735  37.371  1.00  0.00     0.241 C 
HETATM    4  O1  UNL     1      45.831 -11.911  37.785  1.00  0.00    -0.271 OA
HETATM    5  N1  UNL     1      44.083 -10.445  37.392  1.00  0.00    -0.354 N 
ATOM      6  H1  UNL     1      43.127 -10.328  37.053  1.00  0.00     0.162 HD
BRANCH   5   7
HETATM    7  C2  UNL     1      44.789  -9.273  37.870  1.00  0.00     0.099 C 
HETATM    8  C3  UNL     1      43.911  -8.577  38.850  1.00  0.00     0.041 C 
HETATM    9  C4  UNL     1      44.399  -7.185  39.051  1.00  0.00     0.142 C 
HETATM   10  S1  UNL     1      44.913  -6.741  37.385  1.00  0.00     0.146 S 
HETATM   11  O2  UNL     1      46.231  -6.057  37.390  1.00  0.00    -0.228 OA
HETATM   12  O3  UNL     1      43.846  -5.979  36.677  1.00  0.00    -0.228 OA
HETATM   13  C5  UNL     1      44.986  -8.372  36.681  1.00  0.00     0.165 C 
ENDBRANCH   5   7
ENDBRANCH   2   3
BRANCH   2  14
HETATM   14  C7  UNL     1      44.096 -13.137  35.438  1.00  0.00     0.018 A 
HETATM   15  C8  UNL     1      43.085 -13.780  34.564  1.00  0.00     0.007 A 
HETATM   16  C9  UNL     1      43.158 -12.318  34.525  1.00  0.00     0.007 A 
ENDBRANCH   2  14
ENDBRANCH   1   2
BRANCH   1  17
HETATM   17  C10 UNL     1      45.281 -15.029  37.116  1.00  0.00     0.191 C 
BRANCH  17  18
HETATM   18  C11 UNL     1      44.852 -16.402  36.843  1.00  0.00     0.070 A 
HETATM   19  C12 UNL     1      45.176 -17.595  37.398  1.00  0.00     0.036 A 
HETATM   20  C13 UNL     1      44.481 -18.586  36.761  1.00  0.00     0.027 A 
HETATM   21  C14 UNL     1      43.728 -17.955  35.803  1.00  0.00     0.142 A 
HETATM   22  O4  UNL     1      43.970 -16.688  35.882  1.00  0.00    -0.325 OA
ENDBRANCH  17  18
ENDBRANCH   1  17
BRANCH   1  23
HETATM   23  C15 UNL     1      43.795 -14.184  38.980  1.00  0.00     0.149 C 
BRANCH  23  24
HETATM   24  O5  UNL     1      42.589 -13.594  39.067  1.00  0.00    -0.346 OA
ATOM     25  H5  UNL     1      42.580 -12.799  39.588  1.00  0.00     0.219 HD
ENDBRANCH  23  24
BRANCH  23  26
HETATM   26  C16 UNL     1      44.175 -14.722  40.257  1.00  0.00     0.015 A 
HETATM   27  C17 UNL     1      43.835 -14.018  41.428  1.00  0.00     0.017 A 
HETATM   28  C18 UNL     1      44.167 -14.433  42.693  1.00  0.00     0.025 A 
HETATM   29  C19 UNL     1      44.873 -15.603  42.850  1.00  0.00     0.034 A 
HETATM   30 CL1  UNL     1      45.291 -16.123  44.457  1.00  0.00    -0.084 Cl
HETATM   31  C20 UNL     1      45.219 -16.312  41.732  1.00  0.00     0.025 A 
HETATM   32  C21 UNL     1      44.877 -15.881  40.476  1.00  0.00     0.017 A 
ENDBRANCH  23  26
ENDBRANCH   1  23
TORSDOF 9
ENDMDL
MODEL 3
REMARK VINA RESULT: -7.814715116      4.256      7.560
REMARK  9 active torsions:
REMARK  status: ('A' for Active; 'I' for Inactive)
REMARK       I    between atoms: C1_2  and  N1_3 
REMARK    1  A    between atoms: C1_2  and  C6_12 
REMARK    2  A    between atoms: N1_3  and  C2_5 
REMARK    3  A    between atoms: C6_12  and  C7_13 
REMARK    4  A    between atoms: C6_12  and  N2_16 
REMARK    5  A    between atoms: N2_16  and  C10_17 
REMARK    6  A    between atoms: N2_16  and  C15_23 
REMARK    7  A    between atoms: C10_17  and  C11_18 
REMARK    8  A    between atoms: C15_23  and  O5_24 
REMARK    9  A    between atoms: C15_23  and  C16_26 
ROOT
HETATM    1  N2  UNL     1      43.818 -13.592  38.146  1.00  0.00    -0.341 N 
ENDROOT
BRANCH   1   2
HETATM    2  C6  UNL     1      43.451 -12.746  36.957  1.00  0.00     0.182 C 
BRANCH   2   3
HETATM    3  C1  UNL     1      43.785 -11.333  37.239  1.00  0.00     0.241 C 
HETATM    4  O1  UNL     1      44.916 -11.129  37.780  1.00  0.00    -0.271 OA
HETATM    5  N1  UNL     1      42.946 -10.242  36.946  1.00  0.00    -0.354 N 
ATOM      6  H1  UNL     1      42.043 -10.431  36.509  1.00  0.00     0.162 HD
BRANCH   5   7
HETATM    7  C2  UNL     1      43.296  -8.865  37.232  1.00  0.00     0.099 C 
HETATM    8  C3  UNL     1      42.062  -8.042  37.101  1.00  0.00     0.041 C 
HETATM    9  C4  UNL     1      42.434  -6.607  36.976  1.00  0.00     0.142 C 
HETATM   10  S1  UNL     1      43.912  -6.707  35.957  1.00  0.00     0.146 S 
HETATM   11  O2  UNL     1      44.990  -5.829  36.479  1.00  0.00    -0.228 OA
HETATM   12  O3  UNL     1      43.594  -6.473  34.520  1.00  0.00    -0.228 OA
HETATM   13  C5  UNL     1      44.270  -8.436  36.168  1.00  0.00     0.165 C 
ENDBRANCH   5   7
ENDBRANCH   2   3
BRANCH   2  14
HETATM   14  C7  UNL     1      44.025 -13.211  35.684  1.00  0.00     0.018 A 
HETATM   15  C8  UNL     1      43.333 -14.109  34.729  1.00  0.00     0.007 A 
HETATM   16  C9  UNL     1      43.368 -12.685  34.391  1.00  0.00     0.007 A 
ENDBRANCH   2  14
ENDBRANCH   1   2
BRANCH   1  17
HETATM   17  C10 UNL     1      43.003 -13.457  39.297  1.00  0.00     0.191 C 
BRANCH  17  18
HETATM   18  C11 UNL     1      43.639 -13.372  40.613  1.00  0.00     0.070 A 
HETATM   19  C12 UNL     1      43.977 -14.307  41.534  1.00  0.00     0.036 A 
HETATM   20  C13 UNL     1      44.555 -13.687  42.607  1.00  0.00     0.027 A 
HETATM   21  C14 UNL     1      44.555 -12.348  42.307  1.00  0.00     0.142 A 
HETATM   22  O4  UNL     1      44.016 -12.205  41.141  1.00  0.00    -0.325 OA
ENDBRANCH  17  18
ENDBRANCH   1  17
BRANCH   1  23
HETATM   23  C15 UNL     1      44.925 -14.407  37.955  1.00  0.00     0.149 C 
BRANCH  23  24
HETATM   24  O5  UNL     1      46.073 -13.739  37.741  1.00  0.00    -0.346 OA
ATOM     25  H5  UNL     1      46.856 -14.269  37.833  1.00  0.00     0.219 HD
ENDBRANCH  23  24
BRANCH  23  26
HETATM   26  C16 UNL     1      45.165 -15.823  37.924  1.00  0.00     0.015 A 
HETATM   27  C17 UNL     1      45.180 -16.491  36.684  1.00  0.00     0.017 A 
HETATM   28  C18 UNL     1      45.378 -17.841  36.544  1.00  0.00     0.025 A 
HETATM   29  C19 UNL     1      45.576 -18.608  37.670  1.00  0.00     0.034 A 
HETATM   30 CL1  UNL     1      45.827 -20.320  37.485  1.00  0.00    -0.084 Cl
HETATM   31  C20 UNL     1      45.568 -17.991  38.891  1.00  0.00     0.025 A 
HETATM   32  C21 UNL     1      45.369 -16.639  39.009  1.00  0.00     0.017 A 
ENDBRANCH  23  26
ENDBRANCH   1  23
TORSDOF 9
ENDMDL
MODEL 4
REMARK VINA RESULT: -7.723224061      4.128      8.024
REMARK  9 active torsions:
REMARK  status: ('A' for Active; 'I' for Inactive)
REMARK       I    between atoms: C1_2  and  N1_3 
REMARK    1  A    between atoms: C1_2  and  C6_12 
REMARK    2  A    between atoms: N1_3  and  C2_5 
REMARK    3  A    between atoms: C6_12  and  C7_13 
REMARK    4  A    between atoms: C6_12  and  N2_16 
REMARK    5  A    between atoms: N2_16  and  C10_17 
REMARK    6  A    between atoms: N2_16  and  C15_23 
REMARK    7  A    between atoms: C10_17  and  C11_18 
REMARK    8  A    between atoms: C15_23  and  O5_24 
REMARK    9  A    between atoms: C15_23  and  C16_26 
ROOT
HETATM    1  N2  UNL     1      44.166 -13.362  38.452  1.00  0.00    -0.341 N 
ENDROOT
BRANCH   1   2
HETATM    2  C6  UNL     1      44.372 -12.567  39.713  1.00  0.00     0.182 C 
BRANCH   2   3
HETATM    3  C1  UNL     1      44.044 -11.149  39.458  1.00  0.00     0.241 C 
HETATM    4  O1  UNL     1      43.319 -10.582  40.334  1.00  0.00    -0.271 OA
HETATM    5  N1  UNL     1      44.480 -10.418  38.339  1.00  0.00    -0.354 N 
ATOM      6  H1  UNL     1      45.064 -10.893  37.649  1.00  0.00     0.162 HD
BRANCH   5   7
HETATM    7  C2  UNL     1      44.145  -9.026  38.111  1.00  0.00     0.099 C 
HETATM    8  C3  UNL     1      42.706  -8.956  37.737  1.00  0.00     0.041 C 
HETATM    9  C4  UNL     1      42.421  -7.640  37.104  1.00  0.00     0.142 C 
HETATM   10  S1  UNL     1      43.916  -7.375  36.140  1.00  0.00     0.146 S 
HETATM   11  O2  UNL     1      44.415  -5.984  36.286  1.00  0.00    -0.228 OA
HETATM   12  O3  UNL     1      43.726  -7.796  34.723  1.00  0.00    -0.228 OA
HETATM   13  C5  UNL     1      44.965  -8.570  36.934  1.00  0.00     0.165 C 
ENDBRANCH   5   7
ENDBRANCH   2   3
BRANCH   2  14
HETATM   14  C7  UNL     1      43.663 -13.102  40.887  1.00  0.00     0.018 A 
HETATM   15  C8  UNL     1      43.970 -14.399  41.535  1.00  0.00     0.007 A 
HETATM   16  C9  UNL     1      44.464 -13.193  42.203  1.00  0.00     0.007 A 
ENDBRANCH   2  14
ENDBRANCH   1   2
BRANCH   1  17
HETATM   17  C10 UNL     1      42.984 -13.094  37.718  1.00  0.00     0.191 C 
BRANCH  17  18
HETATM   18  C11 UNL     1      43.088 -12.787  36.290  1.00  0.00     0.070 A 
HETATM   19  C12 UNL     1      43.368 -13.547  35.204  1.00  0.00     0.036 A 
HETATM   20  C13 UNL     1      43.340 -12.758  34.088  1.00  0.00     0.027 A 
HETATM   21  C14 UNL     1      43.035 -11.497  34.533  1.00  0.00     0.142 A 
HETATM   22  O4  UNL     1      42.895 -11.554  35.817  1.00  0.00    -0.325 OA
ENDBRANCH  17  18
ENDBRANCH   1  17
BRANCH   1  23
HETATM   23  C15 UNL     1      45.180 -14.266  38.167  1.00  0.00     0.149 C 
BRANCH  23  24
HETATM   24  O5  UNL     1      46.363 -13.696  37.874  1.00  0.00    -0.346 OA
ATOM     25  H5  UNL     1      47.089 -14.013  38.399  1.00  0.00     0.219 HD
ENDBRANCH  23  24
BRANCH  23  26
HETATM   26  C16 UNL     1      45.291 -15.697  38.100  1.00  0.00     0.015 A 
HETATM   27  C17 UNL     1      45.184 -16.337  36.851  1.00  0.00     0.017 A 
HETATM   28  C18 UNL     1      45.255 -17.696  36.678  1.00  0.00     0.025 A 
HETATM   29  C19 UNL     1      45.441 -18.501  37.779  1.00  0.00     0.034 A 
HETATM   30 CL1  UNL     1      45.529 -20.224  37.554  1.00  0.00    -0.084 Cl
HETATM   31  C20 UNL     1      45.550 -17.911  39.009  1.00  0.00     0.025 A 
HETATM   32  C21 UNL     1      45.477 -16.550  39.159  1.00  0.00     0.017 A 
ENDBRANCH  23  26
ENDBRANCH   1  23
TORSDOF 9
ENDMDL
MODEL 5
REMARK VINA RESULT: -7.636634480      3.592      7.053
REMARK  9 active torsions:
REMARK  status: ('A' for Active; 'I' for Inactive)
REMARK       I    between atoms: C1_2  and  N1_3 
REMARK    1  A    between atoms: C1_2  and  C6_12 
REMARK    2  A    between atoms: N1_3  and  C2_5 
REMARK    3  A    between atoms: C6_12  and  C7_13 
REMARK    4  A    between atoms: C6_12  and  N2_16 
REMARK    5  A    between atoms: N2_16  and  C10_17 
REMARK    6  A    between atoms: N2_16  and  C15_23 
REMARK    7  A    between atoms: C10_17  and  C11_18 
REMARK    8  A    between atoms: C15_23  and  O5_24 
REMARK    9  A    between atoms: C15_23  and  C16_26 
ROOT
HETATM    1  N2  UNL     1      44.353 -14.355  37.636  1.00  0.00    -0.341 N 
ENDROOT
BRANCH   1   2
HETATM    2  C6  UNL     1      44.025 -13.108  36.862  1.00  0.00     0.182 C 
BRANCH   2   3
HETATM    3  C1  UNL     1      44.829 -11.982  37.382  1.00  0.00     0.241 C 
HETATM    4  O1  UNL     1      46.086 -12.166  37.410  1.00  0.00    -0.271 OA
HETATM    5  N1  UNL     1      44.295 -10.760  37.829  1.00  0.00    -0.354 N 
ATOM      6  H1  UNL     1      43.282 -10.634  37.795  1.00  0.00     0.162 HD
BRANCH   5   7
HETATM    7  C2  UNL     1      45.105  -9.669  38.335  1.00  0.00     0.099 C 
HETATM    8  C3  UNL     1      44.916  -9.605  39.810  1.00  0.00     0.041 C 
HETATM    9  C4  UNL     1      45.381  -8.283  40.312  1.00  0.00     0.142 C 
HETATM   10  S1  UNL     1      44.838  -7.187  38.993  1.00  0.00     0.146 S 
HETATM   11  O2  UNL     1      45.899  -6.214  38.628  1.00  0.00    -0.228 OA
HETATM   12  O3  UNL     1      43.531  -6.552  39.322  1.00  0.00    -0.228 OA
HETATM   13  C5  UNL     1      44.557  -8.405  37.729  1.00  0.00     0.165 C 
ENDBRANCH   5   7
ENDBRANCH   2   3
BRANCH   2  14
HETATM   14  C7  UNL     1      44.147 -13.253  35.402  1.00  0.00     0.018 A 
HETATM   15  C8  UNL     1      43.121 -13.875  34.531  1.00  0.00     0.007 A 
HETATM   16  C9  UNL     1      43.185 -12.412  34.536  1.00  0.00     0.007 A 
ENDBRANCH   2  14
ENDBRANCH   1   2
BRANCH   1  17
HETATM   17  C10 UNL     1      45.125 -15.335  36.964  1.00  0.00     0.191 C 
BRANCH  17  18
HETATM   18  C11 UNL     1      44.576 -16.684  36.804  1.00  0.00     0.070 A 
HETATM   19  C12 UNL     1      43.422 -17.150  36.269  1.00  0.00     0.036 A 
HETATM   20  C13 UNL     1      43.401 -18.513  36.373  1.00  0.00     0.027 A 
HETATM   21  C14 UNL     1      44.578 -18.857  36.988  1.00  0.00     0.142 A 
HETATM   22  O4  UNL     1      45.234 -17.768  37.222  1.00  0.00    -0.325 OA
ENDBRANCH  17  18
ENDBRANCH   1  17
BRANCH   1  23
HETATM   23  C15 UNL     1      43.849 -14.381  38.930  1.00  0.00     0.149 C 
BRANCH  23  24
HETATM   24  O5  UNL     1      42.673 -13.744  39.077  1.00  0.00    -0.346 OA
ATOM     25  H5  UNL     1      42.660 -13.110  39.784  1.00  0.00     0.219 HD
ENDBRANCH  23  24
BRANCH  23  26
HETATM   26  C16 UNL     1      44.277 -14.928  40.187  1.00  0.00     0.015 A 
HETATM   27  C17 UNL     1      43.969 -14.238  41.376  1.00  0.00     0.017 A 
HETATM   28  C18 UNL     1      44.346 -14.661  42.625  1.00  0.00     0.025 A 
HETATM   29  C19 UNL     1      45.069 -15.825  42.747  1.00  0.00     0.034 A 
HETATM   30 CL1  UNL     1      45.545 -16.356  44.335  1.00  0.00    -0.084 Cl
HETATM   31  C20 UNL     1      45.385 -16.521  41.612  1.00  0.00     0.025 A 
HETATM   32  C21 UNL     1      44.997 -16.081  40.373  1.00  0.00     0.017 A 
ENDBRANCH  23  26
ENDBRANCH   1  23
TORSDOF 9
ENDMDL
