MODEL 1
REMARK VINA RESULT: -7.513787678      0.000      0.000
REMARK  10 active torsions:
REMARK  status: ('A' for Active; 'I' for Inactive)
REMARK    1  A    between atoms: O1_2  and  C2_3 
REMARK    2  A    between atoms: C2_3  and  C3_5 
REMARK    3  A    between atoms: C3_5  and  C4_6 
REMARK    4  A    between atoms: C4_6  and  N1_7 
REMARK       I    between atoms: N1_7  and  C5_8 
REMARK    5  A    between atoms: N1_7  and  C14_21 
REMARK    6  A    between atoms: C5_8  and  C6_10 
REMARK    7  A    between atoms: C6_10  and  O4_11 
REMARK    8  A    between atoms: O4_11  and  C7_12 
REMARK    9  A    between atoms: C7_12  and  C8_14 
REMARK   10  A    between atoms: C19_26  and  C20_27 
ROOT
HETATM    1  N1  UNL     1      43.343  -9.921  37.327  1.00  0.00    -0.315 N 
HETATM    2  C5  UNL     1      43.844 -10.888  38.241  1.00  0.00     0.248 C 
HETATM    3  O3  UNL     1      44.716 -10.483  39.073  1.00  0.00    -0.271 OA
ENDROOT
BRANCH   1   4
HETATM    4  C4  UNL     1      42.348 -10.341  36.367  1.00  0.00     0.142 C 
BRANCH   4   5
HETATM    5  C3  UNL     1      42.762 -10.225  34.938  1.00  0.00     0.131 C 
BRANCH   5   6
HETATM    6  C2  UNL     1      43.079 -11.608  34.475  1.00  0.00     0.259 C 
HETATM    7  O2  UNL     1      43.873 -11.755  33.507  1.00  0.00    -0.265 OA
BRANCH   6   8
HETATM    8  O1  UNL     1      42.538 -12.727  35.063  1.00  0.00    -0.326 OA
HETATM    9  C1  UNL     1      43.174 -13.995  34.821  1.00  0.00     0.213 C 
ENDBRANCH   6   8
ENDBRANCH   5   6
ENDBRANCH   4   5
ENDBRANCH   1   4
BRANCH   1  10
HETATM   10  C14 UNL     1      43.832  -8.598  37.400  1.00  0.00     0.054 A 
HETATM   11  C15 UNL     1      45.053  -8.284  36.842  1.00  0.00     0.031 A 
HETATM   12  C16 UNL     1      45.618  -7.027  36.860  1.00  0.00     0.002 A 
HETATM   13  C17 UNL     1      44.899  -6.026  37.486  1.00  0.00     0.001 A 
HETATM   14  C18 UNL     1      43.682  -6.288  38.056  1.00  0.00     0.021 A 
HETATM   15  C19 UNL     1      43.136  -7.597  38.013  1.00  0.00     0.067 A 
BRANCH  15  16
HETATM   16  C20 UNL     1      41.857  -7.828  38.626  1.00  0.00     0.211 C 
HETATM   17  O6  UNL     1      40.792  -7.559  38.050  1.00  0.00    -0.644 OA
HETATM   18  O7  UNL     1      41.791  -8.363  39.899  1.00  0.00    -0.644 OA
ENDBRANCH  15  16
ENDBRANCH   1  10
BRANCH   2  19
HETATM   19  C6  UNL     1      43.437 -12.287  38.292  1.00  0.00     0.282 C 
BRANCH  19  20
HETATM   20  O4  UNL     1      44.517 -13.116  38.622  1.00  0.00    -0.308 OA
BRANCH  20  21
HETATM   21  C7  UNL     1      44.361 -14.214  39.436  1.00  0.00     0.293 C 
HETATM   22  O5  UNL     1      43.863 -14.086  40.586  1.00  0.00    -0.259 OA
BRANCH  21  23
HETATM   23  C8  UNL     1      44.773 -15.522  38.960  1.00  0.00     0.039 A 
HETATM   24  C9  UNL     1      44.725 -15.803  37.616  1.00  0.00     0.019 A 
HETATM   25  C10 UNL     1      45.127 -17.056  37.174  1.00  0.00     0.020 A 
HETATM   26  C11 UNL     1      45.558 -17.973  38.102  1.00  0.00     0.011 A 
HETATM   27 BR1  UNL     1      46.111 -19.704  37.477  1.00  0.00    -0.051 Br
HETATM   28  C12 UNL     1      45.617 -17.726  39.449  1.00  0.00     0.020 A 
HETATM   29  C13 UNL     1      45.213 -16.463  39.889  1.00  0.00     0.019 A 
ENDBRANCH  21  23
ENDBRANCH  20  21
ENDBRANCH  19  20
ENDBRANCH   2  19
TORSDOF 10
ENDMDL
MODEL 2
REMARK VINA RESULT: -7.378734796      1.508      2.315
REMARK  10 active torsions:
REMARK  status: ('A' for Active; 'I' for Inactive)
REMARK    1  A    between atoms: O1_2  and  C2_3 
REMARK    2  A    between atoms: C2_3  and  C3_5 
REMARK    3  A    between atoms: C3_5  and  C4_6 
REMARK    4  A    between atoms: C4_6  and  N1_7 
REMARK       I    between atoms: N1_7  and  C5_8 
REMARK    5  A    between atoms: N1_7  and  C14_21 
REMARK    6  A    between atoms: C5_8  and  C6_10 
REMARK    7  A    between atoms: C6_10  and  O4_11 
REMARK    8  A    between atoms: O4_11  and  C7_12 
REMARK    9  A    between atoms: C7_12  and  C8_14 
REMARK   10  A    between atoms: C19_26  and  C20_27 
ROOT
HETATM    1  N1  UNL     1      43.376 -10.163  37.617  1.00  0.00    -0.315 N 
HETATM    2  C5  UNL     1      44.617 -10.723  38.030  1.00  0.00     0.248 C 
HETATM    3  O3  UNL     1      45.360  -9.985  38.750  1.00  0.00    -0.271 OA
ENDROOT
BRANCH   1   4
HETATM    4  C4  UNL     1      42.502 -10.971  36.800  1.00  0.00     0.142 C 
BRANCH   4   5
HETATM    5  C3  UNL     1      42.132 -10.369  35.485  1.00  0.00     0.131 C 
BRANCH   5   6
HETATM    6  C2  UNL     1      43.119 -10.885  34.490  1.00  0.00     0.259 C 
HETATM    7  O2  UNL     1      43.239 -10.283  33.390  1.00  0.00    -0.265 OA
BRANCH   6   8
HETATM    8  O1  UNL     1      43.900 -11.991  34.729  1.00  0.00    -0.326 OA
HETATM    9  C1  UNL     1      43.468 -13.255  34.193  1.00  0.00     0.213 C 
ENDBRANCH   6   8
ENDBRANCH   5   6
ENDBRANCH   4   5
ENDBRANCH   1   4
BRANCH   1  10
HETATM   10  C14 UNL     1      43.054  -8.850  38.026  1.00  0.00     0.054 A 
HETATM   11  C15 UNL     1      42.323  -8.648  39.177  1.00  0.00     0.031 A 
HETATM   12  C16 UNL     1      41.958  -7.410  39.661  1.00  0.00     0.002 A 
HETATM   13  C17 UNL     1      42.358  -6.309  38.929  1.00  0.00     0.001 A 
HETATM   14  C18 UNL     1      43.085  -6.457  37.778  1.00  0.00     0.021 A 
HETATM   15  C19 UNL     1      43.442  -7.751  37.316  1.00  0.00     0.067 A 
BRANCH  15  16
HETATM   16  C20 UNL     1      44.202  -7.860  36.103  1.00  0.00     0.211 C 
HETATM   17  O6  UNL     1      45.336  -8.364  36.079  1.00  0.00    -0.644 OA
HETATM   18  O7  UNL     1      43.673  -7.393  34.914  1.00  0.00    -0.644 OA
ENDBRANCH  15  16
ENDBRANCH   1  10
BRANCH   2  19
HETATM   19  C6  UNL     1      45.089 -12.061  37.692  1.00  0.00     0.282 C 
BRANCH  19  20
HETATM   20  O4  UNL     1      44.844 -12.961  38.738  1.00  0.00    -0.308 OA
BRANCH  20  21
HETATM   21  C7  UNL     1      43.967 -14.011  38.594  1.00  0.00     0.293 C 
HETATM   22  O5  UNL     1      42.726 -13.818  38.691  1.00  0.00    -0.259 OA
BRANCH  21  23
HETATM   23  C8  UNL     1      44.481 -15.343  38.329  1.00  0.00     0.039 A 
HETATM   24  C9  UNL     1      44.983 -16.096  39.364  1.00  0.00     0.019 A 
HETATM   25  C10 UNL     1      45.467 -17.369  39.098  1.00  0.00     0.020 A 
HETATM   26  C11 UNL     1      45.426 -17.831  37.805  1.00  0.00     0.011 A 
HETATM   27 BR1  UNL     1      46.098 -19.596  37.450  1.00  0.00    -0.051 Br
HETATM   28  C12 UNL     1      44.933 -17.106  36.751  1.00  0.00     0.020 A 
HETATM   29  C13 UNL     1      44.447 -15.825  37.023  1.00  0.00     0.019 A 
ENDBRANCH  21  23
ENDBRANCH  20  21
ENDBRANCH  19  20
ENDBRANCH   2  19
TORSDOF 10
ENDMDL
MODEL 3
REMARK VINA RESULT: -7.299346057      3.404      7.340
REMARK  10 active torsions:
REMARK  status: ('A' for Active; 'I' for Inactive)
REMARK    1  A    between atoms: O1_2  and  C2_3 
REMARK    2  A    between atoms: C2_3  and  C3_5 
REMARK    3  A    between atoms: C3_5  and  C4_6 
REMARK    4  A    between atoms: C4_6  and  N1_7 
REMARK       I    between atoms: N1_7  and  C5_8 
REMARK    5  A    between atoms: N1_7  and  C14_21 
REMARK    6  A    between atoms: C5_8  and  C6_10 
REMARK    7  A    between atoms: C6_10  and  O4_11 
REMARK    8  A    between atoms: O4_11  and  C7_12 
REMARK    9  A    between atoms: C7_12  and  C8_14 
REMARK   10  A    between atoms: C19_26  and  C20_27 
ROOT
HETATM    1  N1  UNL     1      44.058 -15.211  37.448  1.00  0.00    -0.315 N 
HETATM    2  C5  UNL     1      44.647 -14.135  36.726  1.00  0.00     0.248 C 
HETATM    3  O3  UNL     1      45.596 -13.518  37.304  1.00  0.00    -0.271 OA
ENDROOT
BRANCH   1   4
HETATM    4  C4  UNL     1      42.979 -15.940  36.824  1.00  0.00     0.142 C 
BRANCH   4   5
HETATM    5  C3  UNL     1      43.344 -16.652  35.564  1.00  0.00     0.131 C 
BRANCH   5   6
HETATM    6  C2  UNL     1      44.155 -17.840  35.969  1.00  0.00     0.259 C 
HETATM    7  O2  UNL     1      45.369 -17.886  35.633  1.00  0.00    -0.265 OA
BRANCH   6   8
HETATM    8  O1  UNL     1      43.628 -18.882  36.693  1.00  0.00    -0.326 OA
HETATM    9  C1  UNL     1      44.534 -19.873  37.213  1.00  0.00     0.213 C 
ENDBRANCH   6   8
ENDBRANCH   5   6
ENDBRANCH   4   5
ENDBRANCH   1   4
BRANCH   1  10
HETATM   10  C14 UNL     1      44.555 -15.520  38.733  1.00  0.00     0.054 A 
HETATM   11  C15 UNL     1      45.344 -16.636  38.916  1.00  0.00     0.031 A 
HETATM   12  C16 UNL     1      45.876 -17.023  40.127  1.00  0.00     0.002 A 
HETATM   13  C17 UNL     1      45.589 -16.229  41.221  1.00  0.00     0.001 A 
HETATM   14  C18 UNL     1      44.809 -15.111  41.091  1.00  0.00     0.021 A 
HETATM   15  C19 UNL     1      44.281 -14.747  39.824  1.00  0.00     0.067 A 
BRANCH  15  16
HETATM   16  C20 UNL     1      43.467 -13.567  39.734  1.00  0.00     0.211 C 
HETATM   17  O6  UNL     1      42.306 -13.601  39.296  1.00  0.00    -0.644 OA
HETATM   18  O7  UNL     1      43.974 -12.347  40.139  1.00  0.00    -0.644 OA
ENDBRANCH  15  16
ENDBRANCH   1  10
BRANCH   2  19
HETATM   19  C6  UNL     1      44.248 -13.699  35.393  1.00  0.00     0.282 C 
BRANCH  19  20
HETATM   20  O4  UNL     1      43.117 -12.874  35.450  1.00  0.00    -0.308 OA
BRANCH  20  21
HETATM   21  C7  UNL     1      43.171 -11.551  35.077  1.00  0.00     0.293 C 
HETATM   22  O5  UNL     1      43.469 -11.238  33.893  1.00  0.00    -0.259 OA
BRANCH  21  23
HETATM   23  C8  UNL     1      42.881 -10.518  36.055  1.00  0.00     0.039 A 
HETATM   24  C9  UNL     1      41.853  -9.635  35.826  1.00  0.00     0.019 A 
HETATM   25  C10 UNL     1      41.582  -8.655  36.772  1.00  0.00     0.020 A 
HETATM   26  C11 UNL     1      42.358  -8.604  37.905  1.00  0.00     0.011 A 
HETATM   27 BR1  UNL     1      41.974  -7.243  39.206  1.00  0.00    -0.051 Br
HETATM   28  C12 UNL     1      43.391  -9.469  38.163  1.00  0.00     0.020 A 
HETATM   29  C13 UNL     1      43.658 -10.453  37.209  1.00  0.00     0.019 A 
ENDBRANCH  21  23
ENDBRANCH  20  21
ENDBRANCH  19  20
ENDBRANCH   2  19
TORSDOF 10
ENDMDL
MODEL 4
REMARK VINA RESULT: -7.285649049      1.827      2.995
REMARK  10 active torsions:
REMARK  status: ('A' for Active; 'I' for Inactive)
REMARK    1  A    between atoms: O1_2  and  C2_3 
REMARK    2  A    between atoms: C2_3  and  C3_5 
REMARK    3  A    between atoms: C3_5  and  C4_6 
REMARK    4  A    between atoms: C4_6  and  N1_7 
REMARK       I    between atoms: N1_7  and  C5_8 
REMARK    5  A    between atoms: N1_7  and  C14_21 
REMARK    6  A    between atoms: C5_8  and  C6_10 
REMARK    7  A    between atoms: C6_10  and  O4_11 
REMARK    8  A    between atoms: O4_11  and  C7_12 
REMARK    9  A    between atoms: C7_12  and  C8_14 
REMARK   10  A    between atoms: C19_26  and  C20_27 
ROOT
HETATM    1  N1  UNL     1      44.087  -9.025  37.754  1.00  0.00    -0.315 N 
HETATM    2  C5  UNL     1      44.265 -10.266  38.428  1.00  0.00     0.248 C 
HETATM    3  O3  UNL     1      43.706 -10.377  39.565  1.00  0.00    -0.271 OA
ENDROOT
BRANCH   1   4
HETATM    4  C4  UNL     1      44.703  -8.860  36.458  1.00  0.00     0.142 C 
BRANCH   4   5
HETATM    5  C3  UNL     1      43.837  -8.217  35.426  1.00  0.00     0.131 C 
BRANCH   5   6
HETATM    6  C2  UNL     1      43.035  -9.312  34.804  1.00  0.00     0.259 C 
HETATM    7  O2  UNL     1      43.522  -9.935  33.823  1.00  0.00    -0.265 OA
BRANCH   6   8
HETATM    8  O1  UNL     1      41.787  -9.665  35.259  1.00  0.00    -0.326 OA
HETATM    9  C1  UNL     1      41.576 -11.027  35.672  1.00  0.00     0.213 C 
ENDBRANCH   6   8
ENDBRANCH   5   6
ENDBRANCH   4   5
ENDBRANCH   1   4
BRANCH   1  10
HETATM   10  C14 UNL     1      43.317  -8.018  38.376  1.00  0.00     0.054 A 
HETATM   11  C15 UNL     1      41.944  -8.027  38.252  1.00  0.00     0.031 A 
HETATM   12  C16 UNL     1      41.105  -7.091  38.819  1.00  0.00     0.002 A 
HETATM   13  C17 UNL     1      41.697  -6.083  39.555  1.00  0.00     0.001 A 
HETATM   14  C18 UNL     1      43.057  -6.030  39.706  1.00  0.00     0.021 A 
HETATM   15  C19 UNL     1      43.885  -7.015  39.107  1.00  0.00     0.067 A 
BRANCH  15  16
HETATM   16  C20 UNL     1      45.306  -6.920  39.289  1.00  0.00     0.211 C 
HETATM   17  O6  UNL     1      46.023  -6.246  38.534  1.00  0.00    -0.644 OA
HETATM   18  O7  UNL     1      45.914  -7.595  40.332  1.00  0.00    -0.644 OA
ENDBRANCH  15  16
ENDBRANCH   1  10
BRANCH   2  19
HETATM   19  C6  UNL     1      45.027 -11.399  37.917  1.00  0.00     0.282 C 
BRANCH  19  20
HETATM   20  O4  UNL     1      44.188 -12.484  37.631  1.00  0.00    -0.308 OA
BRANCH  20  21
HETATM   21  C7  UNL     1      44.370 -13.260  36.510  1.00  0.00     0.293 C 
HETATM   22  O5  UNL     1      44.533 -12.718  35.384  1.00  0.00    -0.259 OA
BRANCH  21  23
HETATM   23  C8  UNL     1      44.374 -14.706  36.633  1.00  0.00     0.039 A 
HETATM   24  C9  UNL     1      45.297 -15.316  37.448  1.00  0.00     0.019 A 
HETATM   25  C10 UNL     1      45.287 -16.700  37.561  1.00  0.00     0.020 A 
HETATM   26  C11 UNL     1      44.352 -17.410  36.848  1.00  0.00     0.011 A 
HETATM   27 BR1  UNL     1      44.349 -19.325  37.013  1.00  0.00    -0.051 Br
HETATM   28  C12 UNL     1      43.419 -16.833  36.026  1.00  0.00     0.020 A 
HETATM   29  C13 UNL     1      43.432 -15.441  35.916  1.00  0.00     0.019 A 
ENDBRANCH  21  23
ENDBRANCH  20  21
ENDBRANCH  19  20
ENDBRANCH   2  19
TORSDOF 10
ENDMDL
MODEL 5
REMARK VINA RESULT: -7.273367500      1.531      2.371
REMARK  10 active torsions:
REMARK  status: ('A' for Active; 'I' for Inactive)
REMARK    1  A    between atoms: O1_2  and  C2_3 
REMARK    2  A    between atoms: C2_3  and  C3_5 
REMARK    3  A    between atoms: C3_5  and  C4_6 
REMARK    4  A    between atoms: C4_6  and  N1_7 
REMARK       I    between atoms: N1_7  and  C5_8 
REMARK    5  A    between atoms: N1_7  and  C14_21 
REMARK    6  A    between atoms: C5_8  and  C6_10 
REMARK    7  A    between atoms: C6_10  and  O4_11 
REMARK    8  A    between atoms: O4_11  and  C7_12 
REMARK    9  A    between atoms: C7_12  and  C8_14 
REMARK   10  A    between atoms: C19_26  and  C20_27 
ROOT
HETATM    1  N1  UNL     1      43.613  -9.366  37.647  1.00  0.00    -0.315 N 
HETATM    2  C5  UNL     1      43.910 -10.050  38.859  1.00  0.00     0.248 C 
HETATM    3  O3  UNL     1      43.599  -9.452  39.937  1.00  0.00    -0.271 OA
ENDROOT
BRANCH   1   4
HETATM    4  C4  UNL     1      43.948 -10.013  36.400  1.00  0.00     0.142 C 
BRANCH   4   5
HETATM    5  C3  UNL     1      42.832 -10.774  35.766  1.00  0.00     0.131 C 
BRANCH   5   6
HETATM    6  C2  UNL     1      43.166 -10.885  34.314  1.00  0.00     0.259 C 
HETATM    7  O2  UNL     1      42.911  -9.909  33.559  1.00  0.00    -0.265 OA
BRANCH   6   8
HETATM    8  O1  UNL     1      43.740 -12.010  33.772  1.00  0.00    -0.326 OA
HETATM    9  C1  UNL     1      43.630 -13.246  34.500  1.00  0.00     0.213 C 
ENDBRANCH   6   8
ENDBRANCH   5   6
ENDBRANCH   4   5
ENDBRANCH   1   4
BRANCH   1  10
HETATM   10  C14 UNL     1      43.003  -8.094  37.716  1.00  0.00     0.054 A 
HETATM   11  C15 UNL     1      41.632  -7.982  37.627  1.00  0.00     0.031 A 
HETATM   12  C16 UNL     1      40.943  -6.790  37.683  1.00  0.00     0.002 A 
HETATM   13  C17 UNL     1      41.692  -5.640  37.837  1.00  0.00     0.001 A 
HETATM   14  C18 UNL     1      43.057  -5.698  37.929  1.00  0.00     0.021 A 
HETATM   15  C19 UNL     1      43.728  -6.947  37.869  1.00  0.00     0.067 A 
BRANCH  15  16
HETATM   16  C20 UNL     1      45.161  -6.962  37.967  1.00  0.00     0.211 C 
HETATM   17  O6  UNL     1      45.890  -6.994  36.964  1.00  0.00    -0.644 OA
HETATM   18  O7  UNL     1      45.766  -6.944  39.211  1.00  0.00    -0.644 OA
ENDBRANCH  15  16
ENDBRANCH   1  10
BRANCH   2  19
HETATM   19  C6  UNL     1      44.533 -11.365  38.952  1.00  0.00     0.282 C 
BRANCH  19  20
HETATM   20  O4  UNL     1      43.567 -12.379  39.001  1.00  0.00    -0.308 OA
BRANCH  20  21
HETATM   21  C7  UNL     1      43.647 -13.408  39.910  1.00  0.00     0.293 C 
HETATM   22  O5  UNL     1      43.242 -13.243  41.092  1.00  0.00    -0.259 OA
BRANCH  21  23
HETATM   23  C8  UNL     1      44.201 -14.685  39.499  1.00  0.00     0.039 A 
HETATM   24  C9  UNL     1      44.769 -15.513  40.437  1.00  0.00     0.019 A 
HETATM   25  C10 UNL     1      45.290 -16.735  40.032  1.00  0.00     0.020 A 
HETATM   26  C11 UNL     1      45.219 -17.070  38.701  1.00  0.00     0.011 A 
HETATM   27 BR1  UNL     1      45.943 -18.763  38.154  1.00  0.00    -0.051 Br
HETATM   28  C12 UNL     1      44.659 -16.268  37.741  1.00  0.00     0.020 A 
HETATM   29  C13 UNL     1      44.136 -15.040  38.154  1.00  0.00     0.019 A 
ENDBRANCH  21  23
ENDBRANCH  20  21
ENDBRANCH  19  20
ENDBRANCH   2  19
TORSDOF 10
ENDMDL
