MODEL 1
REMARK VINA RESULT: -8.779867715      0.000      0.000
REMARK  9 active torsions:
REMARK  status: ('A' for Active; 'I' for Inactive)
REMARK    1  A    between atoms: C3_3  and  C4_4 
REMARK    2  A    between atoms: C6_6  and  C7_7 
REMARK       I    between atoms: C7_7  and  N1_9 
REMARK    3  A    between atoms: N1_9  and  C8_11 
REMARK    4  A    between atoms: C8_11  and  C9_12 
REMARK    5  A    between atoms: C9_12  and  N2_13 
REMARK    6  A    between atoms: N2_13  and  C11_15 
REMARK    7  A    between atoms: C11_15  and  C12_16 
REMARK    8  A    between atoms: C16_20  and  O2_21 
REMARK    9  A    between atoms: O2_21  and  C17_22 
ROOT
HETATM    1  C1  UNL     1      45.227 -10.342  40.313  1.00  0.00     0.112 C 
HETATM    2  C2  UNL     1      44.243  -9.296  39.945  1.00  0.00    -0.111 C 
HETATM    3  C3  UNL     1      43.427  -8.458  39.642  1.00  0.00    -0.100 C 
ENDROOT
BRANCH   3   4
HETATM    4  C4  UNL     1      42.421  -7.463  39.267  1.00  0.00     0.096 C 
HETATM    5  C5  UNL     1      41.565  -7.920  38.130  1.00  0.00     0.034 C 
HETATM    6  C6  UNL     1      42.184  -7.388  36.845  1.00  0.00     0.086 C 
HETATM    7  C21 UNL     1      43.445  -6.700  37.256  1.00  0.00     0.043 C 
HETATM    8  C22 UNL     1      43.656  -5.369  36.612  1.00  0.00     0.089 C 
HETATM    9  C25 UNL     1      43.127  -6.273  38.696  1.00  0.00     0.153 C 
HETATM   10  C23 UNL     1      45.134  -5.037  36.651  1.00  0.00     0.021 C 
HETATM   11  C24 UNL     1      42.876  -4.416  37.475  1.00  0.00     0.263 C 
HETATM   12  O4  UNL     1      42.821  -3.161  37.286  1.00  0.00    -0.265 OA
HETATM   13  O5  UNL     1      42.265  -5.175  38.469  1.00  0.00    -0.314 OA
BRANCH   6  14
HETATM   14  C7  UNL     1      42.362  -8.481  35.888  1.00  0.00     0.222 C 
HETATM   15  O1  UNL     1      42.391  -8.221  34.659  1.00  0.00    -0.273 OA
HETATM   16  N1  UNL     1      42.504  -9.827  36.276  1.00  0.00    -0.359 N 
ATOM     17  H1  UNL     1      42.483 -10.059  37.268  1.00  0.00     0.162 HD
BRANCH  16  18
HETATM   18  C8  UNL     1      42.682 -10.908  35.297  1.00  0.00     0.152 C 
BRANCH  18  19
HETATM   19  C9  UNL     1      42.442 -12.241  35.962  1.00  0.00     0.291 C 
BRANCH  19  20
HETATM   20  N2  UNL     1      43.356 -13.260  35.506  1.00  0.00     0.089 N 
HETATM   21  C10 UNL     1      43.779 -13.051  34.139  1.00  0.00     0.310 C 
BRANCH  20  22
HETATM   22  C11 UNL     1      44.487 -13.418  36.396  1.00  0.00     0.310 C 
BRANCH  22  23
HETATM   23  C12 UNL     1      44.520 -14.835  36.843  1.00  0.00    -0.027 A 
HETATM   24  C13 UNL     1      45.128 -15.217  38.020  1.00  0.00     0.018 A 
HETATM   25  C14 UNL     1      45.150 -16.542  38.437  1.00  0.00    -0.024 A 
HETATM   26  C15 UNL     1      45.830 -16.883  39.724  1.00  0.00     0.051 C 
HETATM   27  C16 UNL     1      44.546 -17.488  37.644  1.00  0.00     0.123 A 
HETATM   28  C19 UNL     1      43.929 -17.158  36.463  1.00  0.00     0.151 A 
HETATM   29  F1  UNL     1      43.341 -18.106  35.701  1.00  0.00    -0.203 F 
HETATM   30  C20 UNL     1      43.920 -15.842  36.074  1.00  0.00     0.054 A 
BRANCH  27  31
HETATM   31  O2  UNL     1      44.548 -18.824  38.028  1.00  0.00    -0.276 OA
BRANCH  31  32
HETATM   32  C17 UNL     1      45.322 -19.768  37.411  1.00  0.00     0.260 C 
HETATM   33  C18 UNL     1      46.801 -19.792  37.454  1.00  0.00     0.126 C 
HETATM   34  O3  UNL     1      44.738 -20.680  36.760  1.00  0.00    -0.265 OA
ENDBRANCH  31  32
ENDBRANCH  27  31
ENDBRANCH  22  23
ENDBRANCH  20  22
ENDBRANCH  19  20
ENDBRANCH  18  19
ENDBRANCH  16  18
ENDBRANCH   6  14
ENDBRANCH   3   4
TORSDOF 9
ENDMDL
MODEL 2
REMARK VINA RESULT: -8.465148162      1.204      1.685
REMARK  9 active torsions:
REMARK  status: ('A' for Active; 'I' for Inactive)
REMARK    1  A    between atoms: C3_3  and  C4_4 
REMARK    2  A    between atoms: C6_6  and  C7_7 
REMARK       I    between atoms: C7_7  and  N1_9 
REMARK    3  A    between atoms: N1_9  and  C8_11 
REMARK    4  A    between atoms: C8_11  and  C9_12 
REMARK    5  A    between atoms: C9_12  and  N2_13 
REMARK    6  A    between atoms: N2_13  and  C11_15 
REMARK    7  A    between atoms: C11_15  and  C12_16 
REMARK    8  A    between atoms: C16_20  and  O2_21 
REMARK    9  A    between atoms: O2_21  and  C17_22 
ROOT
HETATM    1  C1  UNL     1      44.382 -10.514  40.439  1.00  0.00     0.112 C 
HETATM    2  C2  UNL     1      43.556  -9.370  39.985  1.00  0.00    -0.111 C 
HETATM    3  C3  UNL     1      42.868  -8.450  39.610  1.00  0.00    -0.100 C 
ENDROOT
BRANCH   3   4
HETATM    4  C4  UNL     1      42.016  -7.353  39.145  1.00  0.00     0.096 C 
HETATM    5  C5  UNL     1      41.274  -7.701  37.895  1.00  0.00     0.034 C 
HETATM    6  C6  UNL     1      42.100  -7.205  36.716  1.00  0.00     0.086 C 
HETATM    7  C21 UNL     1      43.357  -6.652  37.305  1.00  0.00     0.043 C 
HETATM    8  C22 UNL     1      43.774  -5.335  36.737  1.00  0.00     0.089 C 
HETATM    9  C25 UNL     1      42.898  -6.226  38.707  1.00  0.00     0.153 C 
HETATM   10  C23 UNL     1      45.259  -5.149  36.973  1.00  0.00     0.021 C 
HETATM   11  C24 UNL     1      42.983  -4.329  37.527  1.00  0.00     0.263 C 
HETATM   12  O4  UNL     1      43.071  -3.071  37.375  1.00  0.00    -0.265 OA
HETATM   13  O5  UNL     1      42.180  -5.045  38.410  1.00  0.00    -0.314 OA
BRANCH   6  14
HETATM   14  C7  UNL     1      42.296  -8.289  35.753  1.00  0.00     0.222 C 
HETATM   15  O1  UNL     1      42.156  -8.053  34.527  1.00  0.00    -0.273 OA
HETATM   16  N1  UNL     1      42.637  -9.602  36.132  1.00  0.00    -0.359 N 
ATOM     17  H1  UNL     1      42.754  -9.815  37.123  1.00  0.00     0.162 HD
BRANCH  16  18
HETATM   18  C8  UNL     1      42.829 -10.675  35.148  1.00  0.00     0.152 C 
BRANCH  18  19
HETATM   19  C9  UNL     1      42.305 -11.976  35.705  1.00  0.00     0.291 C 
BRANCH  19  20
HETATM   20  N2  UNL     1      43.216 -13.075  35.497  1.00  0.00     0.089 N 
HETATM   21  C10 UNL     1      43.668 -13.166  34.126  1.00  0.00     0.310 C 
BRANCH  20  22
HETATM   22  C11 UNL     1      44.328 -13.047  36.424  1.00  0.00     0.310 C 
BRANCH  22  23
HETATM   23  C12 UNL     1      44.499 -14.418  36.971  1.00  0.00    -0.027 A 
HETATM   24  C13 UNL     1      44.027 -15.533  36.311  1.00  0.00     0.018 A 
HETATM   25  C14 UNL     1      44.195 -16.814  36.823  1.00  0.00    -0.024 A 
HETATM   26  C15 UNL     1      43.654 -17.975  36.053  1.00  0.00     0.051 C 
HETATM   27  C16 UNL     1      44.853 -16.959  38.020  1.00  0.00     0.123 A 
HETATM   28  C19 UNL     1      45.342 -15.880  38.715  1.00  0.00     0.151 A 
HETATM   29  F1  UNL     1      45.986 -16.048  39.891  1.00  0.00    -0.203 F 
HETATM   30  C20 UNL     1      45.162 -14.626  38.188  1.00  0.00     0.054 A 
BRANCH  27  31
HETATM   31  O2  UNL     1      45.041 -18.225  38.564  1.00  0.00    -0.276 OA
BRANCH  31  32
HETATM   32  C17 UNL     1      46.158 -18.975  38.317  1.00  0.00     0.260 C 
HETATM   33  C18 UNL     1      46.344 -19.824  37.120  1.00  0.00     0.126 C 
HETATM   34  O3  UNL     1      47.093 -18.943  39.166  1.00  0.00    -0.265 OA
ENDBRANCH  31  32
ENDBRANCH  27  31
ENDBRANCH  22  23
ENDBRANCH  20  22
ENDBRANCH  19  20
ENDBRANCH  18  19
ENDBRANCH  16  18
ENDBRANCH   6  14
ENDBRANCH   3   4
TORSDOF 9
ENDMDL
MODEL 3
REMARK VINA RESULT: -8.373435608      2.055      2.786
REMARK  9 active torsions:
REMARK  status: ('A' for Active; 'I' for Inactive)
REMARK    1  A    between atoms: C3_3  and  C4_4 
REMARK    2  A    between atoms: C6_6  and  C7_7 
REMARK       I    between atoms: C7_7  and  N1_9 
REMARK    3  A    between atoms: N1_9  and  C8_11 
REMARK    4  A    between atoms: C8_11  and  C9_12 
REMARK    5  A    between atoms: C9_12  and  N2_13 
REMARK    6  A    between atoms: N2_13  and  C11_15 
REMARK    7  A    between atoms: C11_15  and  C12_16 
REMARK    8  A    between atoms: C16_20  and  O2_21 
REMARK    9  A    between atoms: O2_21  and  C17_22 
ROOT
HETATM    1  C1  UNL     1      45.360 -10.176  40.389  1.00  0.00     0.112 C 
HETATM    2  C2  UNL     1      44.301  -9.221  39.984  1.00  0.00    -0.111 C 
HETATM    3  C3  UNL     1      43.452  -8.428  39.650  1.00  0.00    -0.100 C 
ENDROOT
BRANCH   3   4
HETATM    4  C4  UNL     1      42.442  -7.449  39.244  1.00  0.00     0.096 C 
HETATM    5  C5  UNL     1      41.610  -7.931  38.101  1.00  0.00     0.034 C 
HETATM    6  C6  UNL     1      42.246  -7.413  36.818  1.00  0.00     0.086 C 
HETATM    7  C21 UNL     1      43.492  -6.706  37.240  1.00  0.00     0.043 C 
HETATM    8  C22 UNL     1      43.702  -5.383  36.579  1.00  0.00     0.089 C 
HETATM    9  C25 UNL     1      43.146  -6.261  38.667  1.00  0.00     0.153 C 
HETATM   10  C23 UNL     1      45.176  -5.035  36.637  1.00  0.00     0.021 C 
HETATM   11  C24 UNL     1      42.899  -4.425  37.415  1.00  0.00     0.263 C 
HETATM   12  O4  UNL     1      42.835  -3.173  37.206  1.00  0.00    -0.265 OA
HETATM   13  O5  UNL     1      42.279  -5.175  38.409  1.00  0.00    -0.314 OA
BRANCH   6  14
HETATM   14  C7  UNL     1      42.450  -8.517  35.880  1.00  0.00     0.222 C 
HETATM   15  O1  UNL     1      42.369  -8.297  34.646  1.00  0.00    -0.273 OA
HETATM   16  N1  UNL     1      42.735  -9.833  36.293  1.00  0.00    -0.359 N 
ATOM     17  H1  UNL     1      42.803 -10.033  37.291  1.00  0.00     0.162 HD
BRANCH  16  18
HETATM   18  C8  UNL     1      42.936 -10.927  35.334  1.00  0.00     0.152 C 
BRANCH  18  19
HETATM   19  C9  UNL     1      42.390 -12.212  35.906  1.00  0.00     0.291 C 
BRANCH  19  20
HETATM   20  N2  UNL     1      43.321 -13.308  35.793  1.00  0.00     0.089 N 
HETATM   21  C10 UNL     1      43.551 -13.699  34.420  1.00  0.00     0.310 C 
BRANCH  20  22
HETATM   22  C11 UNL     1      44.564 -13.045  36.488  1.00  0.00     0.310 C 
BRANCH  22  23
HETATM   23  C12 UNL     1      44.598 -13.903  37.701  1.00  0.00    -0.027 A 
HETATM   24  C13 UNL     1      44.986 -15.225  37.651  1.00  0.00     0.018 A 
HETATM   25  C14 UNL     1      45.023 -16.021  38.790  1.00  0.00    -0.024 A 
HETATM   26  C15 UNL     1      45.451 -17.447  38.659  1.00  0.00     0.051 C 
HETATM   27  C16 UNL     1      44.660 -15.463  39.992  1.00  0.00     0.123 A 
HETATM   28  C19 UNL     1      44.267 -14.151  40.092  1.00  0.00     0.151 A 
HETATM   29  F1  UNL     1      43.915 -13.624  41.286  1.00  0.00    -0.203 F 
HETATM   30  C20 UNL     1      44.239 -13.386  38.954  1.00  0.00     0.054 A 
BRANCH  27  31
HETATM   31  O2  UNL     1      44.685 -16.228  41.152  1.00  0.00    -0.276 OA
BRANCH  31  32
HETATM   32  C17 UNL     1      45.687 -16.133  42.077  1.00  0.00     0.260 C 
HETATM   33  C18 UNL     1      45.503 -15.633  43.457  1.00  0.00     0.126 C 
HETATM   34  O3  UNL     1      46.848 -16.495  41.732  1.00  0.00    -0.265 OA
ENDBRANCH  31  32
ENDBRANCH  27  31
ENDBRANCH  22  23
ENDBRANCH  20  22
ENDBRANCH  19  20
ENDBRANCH  18  19
ENDBRANCH  16  18
ENDBRANCH   6  14
ENDBRANCH   3   4
TORSDOF 9
ENDMDL
MODEL 4
REMARK VINA RESULT: -8.227968815      2.490      4.099
REMARK  9 active torsions:
REMARK  status: ('A' for Active; 'I' for Inactive)
REMARK    1  A    between atoms: C3_3  and  C4_4 
REMARK    2  A    between atoms: C6_6  and  C7_7 
REMARK       I    between atoms: C7_7  and  N1_9 
REMARK    3  A    between atoms: N1_9  and  C8_11 
REMARK    4  A    between atoms: C8_11  and  C9_12 
REMARK    5  A    between atoms: C9_12  and  N2_13 
REMARK    6  A    between atoms: N2_13  and  C11_15 
REMARK    7  A    between atoms: C11_15  and  C12_16 
REMARK    8  A    between atoms: C16_20  and  O2_21 
REMARK    9  A    between atoms: O2_21  and  C17_22 
ROOT
HETATM    1  C1  UNL     1      40.994 -11.858  35.626  1.00  0.00     0.112 C 
HETATM    2  C2  UNL     1      41.824 -10.631  35.628  1.00  0.00    -0.111 C 
HETATM    3  C3  UNL     1      42.501  -9.630  35.649  1.00  0.00    -0.100 C 
ENDROOT
BRANCH   3   4
HETATM    4  C4  UNL     1      43.320  -8.417  35.703  1.00  0.00     0.096 C 
HETATM    5  C5  UNL     1      44.609  -8.633  36.427  1.00  0.00     0.034 C 
HETATM    6  C6  UNL     1      44.394  -8.232  37.880  1.00  0.00     0.086 C 
HETATM    7  C21 UNL     1      42.949  -7.870  37.991  1.00  0.00     0.043 C 
HETATM    8  C22 UNL     1      42.687  -6.612  38.752  1.00  0.00     0.089 C 
HETATM    9  C25 UNL     1      42.617  -7.414  36.563  1.00  0.00     0.153 C 
HETATM   10  C23 UNL     1      41.262  -6.638  39.265  1.00  0.00     0.021 C 
HETATM   11  C24 UNL     1      42.862  -5.522  37.730  1.00  0.00     0.263 C 
HETATM   12  O4  UNL     1      42.694  -4.286  37.967  1.00  0.00    -0.265 OA
HETATM   13  O5  UNL     1      43.228  -6.139  36.538  1.00  0.00    -0.314 OA
BRANCH   6  14
HETATM   14  C7  UNL     1      44.828  -9.313  38.765  1.00  0.00     0.222 C 
HETATM   15  O1  UNL     1      45.212 -10.399  38.264  1.00  0.00    -0.273 OA
HETATM   16  N1  UNL     1      44.838  -9.199  40.169  1.00  0.00    -0.359 N 
ATOM     17  H1  UNL     1      44.530  -8.326  40.596  1.00  0.00     0.162 HD
BRANCH  16  18
HETATM   18  C8  UNL     1      45.279 -10.298  41.038  1.00  0.00     0.152 C 
BRANCH  18  19
HETATM   19  C9  UNL     1      44.100 -11.171  41.393  1.00  0.00     0.291 C 
BRANCH  19  20
HETATM   20  N2  UNL     1      44.489 -12.522  41.718  1.00  0.00     0.089 N 
HETATM   21  C10 UNL     1      44.970 -12.646  43.076  1.00  0.00     0.310 C 
BRANCH  20  22
HETATM   22  C11 UNL     1      43.438 -13.477  41.434  1.00  0.00     0.310 C 
BRANCH  22  23
HETATM   23  C12 UNL     1      43.863 -14.287  40.263  1.00  0.00    -0.027 A 
HETATM   24  C13 UNL     1      44.612 -15.436  40.402  1.00  0.00     0.018 A 
HETATM   25  C14 UNL     1      45.002 -16.195  39.305  1.00  0.00    -0.024 A 
HETATM   26  C15 UNL     1      45.815 -17.428  39.532  1.00  0.00     0.051 C 
HETATM   27  C16 UNL     1      44.623 -15.776  38.052  1.00  0.00     0.123 A 
HETATM   28  C19 UNL     1      43.877 -14.639  37.862  1.00  0.00     0.151 A 
HETATM   29  F1  UNL     1      43.516 -14.247  36.620  1.00  0.00    -0.203 F 
HETATM   30  C20 UNL     1      43.505 -13.908  38.962  1.00  0.00     0.054 A 
BRANCH  27  31
HETATM   31  O2  UNL     1      44.993 -16.509  36.930  1.00  0.00    -0.276 OA
BRANCH  31  32
HETATM   32  C17 UNL     1      44.139 -17.367  36.295  1.00  0.00     0.260 C 
HETATM   33  C18 UNL     1      43.820 -18.731  36.773  1.00  0.00     0.126 C 
HETATM   34  O3  UNL     1      43.586 -16.973  35.229  1.00  0.00    -0.265 OA
ENDBRANCH  31  32
ENDBRANCH  27  31
ENDBRANCH  22  23
ENDBRANCH  20  22
ENDBRANCH  19  20
ENDBRANCH  18  19
ENDBRANCH  16  18
ENDBRANCH   6  14
ENDBRANCH   3   4
TORSDOF 9
ENDMDL
MODEL 5
REMARK VINA RESULT: -8.201177442      3.200      8.410
REMARK  9 active torsions:
REMARK  status: ('A' for Active; 'I' for Inactive)
REMARK    1  A    between atoms: C3_3  and  C4_4 
REMARK    2  A    between atoms: C6_6  and  C7_7 
REMARK       I    between atoms: C7_7  and  N1_9 
REMARK    3  A    between atoms: N1_9  and  C8_11 
REMARK    4  A    between atoms: C8_11  and  C9_12 
REMARK    5  A    between atoms: C9_12  and  N2_13 
REMARK    6  A    between atoms: N2_13  and  C11_15 
REMARK    7  A    between atoms: C11_15  and  C12_16 
REMARK    8  A    between atoms: C16_20  and  O2_21 
REMARK    9  A    between atoms: O2_21  and  C17_22 
ROOT
HETATM    1  C1  UNL     1      42.368 -12.859  41.146  1.00  0.00     0.112 C 
HETATM    2  C2  UNL     1      43.352 -13.275  40.119  1.00  0.00    -0.111 C 
HETATM    3  C3  UNL     1      44.168 -13.617  39.296  1.00  0.00    -0.100 C 
ENDROOT
BRANCH   3   4
HETATM    4  C4  UNL     1      45.176 -14.033  38.319  1.00  0.00     0.096 C 
HETATM    5  C5  UNL     1      45.108 -13.235  37.057  1.00  0.00     0.034 C 
HETATM    6  C6  UNL     1      44.228 -13.997  36.077  1.00  0.00     0.086 C 
HETATM    7  C21 UNL     1      43.728 -15.190  36.824  1.00  0.00     0.043 C 
HETATM    8  C22 UNL     1      43.798 -16.470  36.056  1.00  0.00     0.089 C 
HETATM    9  C25 UNL     1      44.840 -15.417  37.857  1.00  0.00     0.153 C 
HETATM   10  C23 UNL     1      42.805 -17.450  36.647  1.00  0.00     0.021 C 
HETATM   11  C24 UNL     1      45.207 -16.949  36.271  1.00  0.00     0.263 C 
HETATM   12  O4  UNL     1      45.672 -18.036  35.805  1.00  0.00    -0.265 OA
HETATM   13  O5  UNL     1      45.848 -15.990  37.049  1.00  0.00    -0.314 OA
BRANCH   6  14
HETATM   14  C7  UNL     1      43.184 -13.116  35.553  1.00  0.00     0.222 C 
HETATM   15  O1  UNL     1      42.616 -13.412  34.473  1.00  0.00    -0.273 OA
HETATM   16  N1  UNL     1      42.778 -11.935  36.204  1.00  0.00    -0.359 N 
ATOM     17  H1  UNL     1      43.228 -11.675  37.082  1.00  0.00     0.162 HD
BRANCH  16  18
HETATM   18  C8  UNL     1      41.728 -11.064  35.660  1.00  0.00     0.152 C 
BRANCH  18  19
HETATM   19  C9  UNL     1      42.353  -9.840  35.038  1.00  0.00     0.291 C 
BRANCH  19  20
HETATM   20  N2  UNL     1      43.118  -9.066  35.984  1.00  0.00     0.089 N 
HETATM   21  C10 UNL     1      43.825  -7.971  35.359  1.00  0.00     0.310 C 
BRANCH  20  22
HETATM   22  C11 UNL     1      42.314  -8.614  37.100  1.00  0.00     0.310 C 
BRANCH  22  23
HETATM   23  C12 UNL     1      43.014  -9.000  38.352  1.00  0.00    -0.027 A 
HETATM   24  C13 UNL     1      42.470  -8.765  39.597  1.00  0.00     0.018 A 
HETATM   25  C14 UNL     1      43.126  -9.134  40.766  1.00  0.00    -0.024 A 
HETATM   26  C15 UNL     1      42.476  -8.844  42.080  1.00  0.00     0.051 C 
HETATM   27  C16 UNL     1      44.350  -9.750  40.663  1.00  0.00     0.123 A 
HETATM   28  C19 UNL     1      44.933 -10.006  39.446  1.00  0.00     0.151 A 
HETATM   29  F1  UNL     1      46.137 -10.614  39.371  1.00  0.00    -0.203 F 
HETATM   30  C20 UNL     1      44.265  -9.632  38.308  1.00  0.00     0.054 A 
BRANCH  27  31
HETATM   31  O2  UNL     1      45.036 -10.134  41.809  1.00  0.00    -0.276 OA
BRANCH  31  32
HETATM   32  C17 UNL     1      46.031  -9.376  42.362  1.00  0.00     0.260 C 
HETATM   33  C18 UNL     1      47.473  -9.566  42.090  1.00  0.00     0.126 C 
HETATM   34  O3  UNL     1      45.699  -8.453  43.159  1.00  0.00    -0.265 OA
ENDBRANCH  31  32
ENDBRANCH  27  31
ENDBRANCH  22  23
ENDBRANCH  20  22
ENDBRANCH  19  20
ENDBRANCH  18  19
ENDBRANCH  16  18
ENDBRANCH   6  14
ENDBRANCH   3   4
TORSDOF 9
ENDMDL
