MODEL 1
REMARK VINA RESULT: -6.466741858      0.000      0.000
REMARK  8 active torsions:
REMARK  status: ('A' for Active; 'I' for Inactive)
REMARK    1  A    between atoms: C2_2  and  N1_3 
REMARK    2  A    between atoms: N1_3  and  C3_4 
REMARK    3  A    between atoms: C7_8  and  C8_9 
REMARK    4  A    between atoms: C8_9  and  O1_10 
REMARK    5  A    between atoms: C15_19  and  C16_20 
REMARK    6  A    between atoms: C16_20  and  C17_21 
REMARK    7  A    between atoms: C18_24  and  N2_25 
REMARK    8  A    between atoms: N2_25  and  N3_26 
ROOT
HETATM    1  N1  UNL     1      15.336 -14.520  21.599  1.00  0.00    -0.063 N 
HETATM    2  C5  UNL     1      16.187 -13.643  22.379  1.00  0.00     0.239 C 
HETATM    3  C6  UNL     1      16.236 -12.210  21.840  1.00  0.00     0.047 C 
HETATM    4  C7  UNL     1      16.843 -12.133  20.456  1.00  0.00     0.039 C 
HETATM    5  C9  UNL     1      16.766 -13.604  19.992  1.00  0.00     0.053 C 
HETATM    6  C10 UNL     1      15.334 -13.944  20.241  1.00  0.00     0.198 C 
HETATM    7  C11 UNL     1      14.651 -14.748  19.208  1.00  0.00     0.043 C 
HETATM    8  C12 UNL     1      13.182 -14.317  18.994  1.00  0.00     0.175 C 
HETATM    9  O2  UNL     1      13.393 -12.930  18.842  1.00  0.00    -0.385 OA
HETATM   10  C13 UNL     1      14.465 -12.830  17.921  1.00  0.00     0.133 C 
HETATM   11  C14 UNL     1      15.045 -14.164  17.836  1.00  0.00     0.041 C 
HETATM   12  C15 UNL     1      15.311 -11.644  18.155  1.00  0.00     0.087 C 
HETATM   13  C18 UNL     1      15.891 -11.467  19.484  1.00  0.00     0.103 C 
ENDROOT
BRANCH   1  14
HETATM   14  C2  UNL     1      13.979 -14.508  22.096  1.00  0.00     0.233 C 
HETATM   15  C1  UNL     1      13.363 -13.176  22.281  1.00  0.00     0.035 C 
ENDBRANCH   1  14
BRANCH   1  16
HETATM   16  C3  UNL     1      15.807 -15.867  21.515  1.00  0.00     0.233 C 
HETATM   17  C4  UNL     1      15.449 -16.750  22.657  1.00  0.00     0.035 C 
ENDBRANCH   1  16
BRANCH   4  18
HETATM   18  C8  UNL     1      18.212 -11.584  20.400  1.00  0.00     0.180 C 
BRANCH  18  19
HETATM   19  O1  UNL     1      18.176 -10.277  20.880  1.00  0.00    -0.400 OA
ATOM     20  H1  UNL     1      19.065  -9.945  20.904  1.00  0.00     0.209 HD
ENDBRANCH  18  19
ENDBRANCH   4  18
BRANCH  13  21
HETATM   21  N2  UNL     1      15.508 -10.411  20.089  1.00  0.00    -0.341 NA
BRANCH  21  22
HETATM   22  N3  UNL     1      15.319  -9.244  20.495  1.00  0.00    -0.280 N 
ATOM     23  H32 UNL     1      16.078  -8.882  19.918  1.00  0.00     0.191 HD
ATOM     24  H31 UNL     1      14.989  -8.395  20.955  1.00  0.00     0.191 HD
ENDBRANCH  21  22
ENDBRANCH  13  21
BRANCH  12  25
HETATM   25  C16 UNL     1      16.305 -11.490  17.037  1.00  0.00     0.127 C 
BRANCH  25  26
HETATM   26  C17 UNL     1      16.028 -10.299  16.198  1.00  0.00     0.173 C 
HETATM   27  O3  UNL     1      16.899  -9.465  15.833  1.00  0.00    -0.648 OA
HETATM   28  O4  UNL     1      14.713 -10.053  15.763  1.00  0.00    -0.648 OA
ENDBRANCH  25  26
ENDBRANCH  12  25
TORSDOF 8
ENDMDL
MODEL 2
REMARK VINA RESULT: -6.294489583      2.363      4.877
REMARK  8 active torsions:
REMARK  status: ('A' for Active; 'I' for Inactive)
REMARK    1  A    between atoms: C2_2  and  N1_3 
REMARK    2  A    between atoms: N1_3  and  C3_4 
REMARK    3  A    between atoms: C7_8  and  C8_9 
REMARK    4  A    between atoms: C8_9  and  O1_10 
REMARK    5  A    between atoms: C15_19  and  C16_20 
REMARK    6  A    between atoms: C16_20  and  C17_21 
REMARK    7  A    between atoms: C18_24  and  N2_25 
REMARK    8  A    between atoms: N2_25  and  N3_26 
ROOT
HETATM    1  N1  UNL     1      18.870 -12.370  21.284  1.00  0.00    -0.063 N 
HETATM    2  C5  UNL     1      18.283 -11.100  20.901  1.00  0.00     0.239 C 
HETATM    3  C6  UNL     1      16.765 -11.051  21.095  1.00  0.00     0.047 C 
HETATM    4  C7  UNL     1      16.037 -12.043  20.214  1.00  0.00     0.039 C 
HETATM    5  C9  UNL     1      17.178 -12.995  19.796  1.00  0.00     0.053 C 
HETATM    6  C10 UNL     1      17.790 -13.359  21.108  1.00  0.00     0.198 C 
HETATM    7  C11 UNL     1      18.180 -14.771  21.290  1.00  0.00     0.043 C 
HETATM    8  C12 UNL     1      17.912 -15.281  22.725  1.00  0.00     0.175 C 
HETATM    9  O2  UNL     1      16.572 -14.856  22.849  1.00  0.00    -0.385 OA
HETATM   10  C13 UNL     1      15.949 -15.283  21.650  1.00  0.00     0.133 C 
HETATM   11  C14 UNL     1      17.032 -15.641  20.743  1.00  0.00     0.041 C 
HETATM   12  C15 UNL     1      14.860 -14.384  21.221  1.00  0.00     0.087 C 
HETATM   13  C18 UNL     1      15.170 -12.967  21.043  1.00  0.00     0.103 C 
ENDROOT
BRANCH   1  14
HETATM   14  C2  UNL     1      19.256 -12.368  22.676  1.00  0.00     0.233 C 
HETATM   15  C1  UNL     1      20.674 -12.674  22.962  1.00  0.00     0.035 C 
ENDBRANCH   1  14
BRANCH   1  16
HETATM   16  C3  UNL     1      19.979 -12.768  20.475  1.00  0.00     0.233 C 
HETATM   17  C4  UNL     1      20.492 -11.740  19.531  1.00  0.00     0.035 C 
ENDBRANCH   1  16
BRANCH   4  18
HETATM   18  C8  UNL     1      15.326 -11.455  19.061  1.00  0.00     0.180 C 
BRANCH  18  19
HETATM   19  O1  UNL     1      14.533 -10.409  19.527  1.00  0.00    -0.400 OA
ATOM     20  H1  UNL     1      14.248 -10.622  20.407  1.00  0.00     0.209 HD
ENDBRANCH  18  19
ENDBRANCH   4  18
BRANCH  13  21
HETATM   21  N2  UNL     1      14.525 -12.187  21.819  1.00  0.00    -0.341 NA
BRANCH  21  22
HETATM   22  N3  UNL     1      13.682 -11.451  22.376  1.00  0.00    -0.280 N 
ATOM     23  H32 UNL     1      12.906 -11.998  22.005  1.00  0.00     0.191 HD
ATOM     24  H31 UNL     1      13.189 -10.733  22.909  1.00  0.00     0.191 HD
ENDBRANCH  21  22
ENDBRANCH  13  21
BRANCH  12  25
HETATM   25  C16 UNL     1      14.118 -14.990  20.061  1.00  0.00     0.127 C 
BRANCH  25  26
HETATM   26  C17 UNL     1      12.658 -14.741  20.137  1.00  0.00     0.173 C 
HETATM   27  O3  UNL     1      11.839 -15.481  20.745  1.00  0.00    -0.648 OA
HETATM   28  O4  UNL     1      12.117 -13.612  19.496  1.00  0.00    -0.648 OA
ENDBRANCH  25  26
ENDBRANCH  12  25
TORSDOF 8
ENDMDL
MODEL 3
REMARK VINA RESULT: -6.182057428      6.268      8.826
REMARK  8 active torsions:
REMARK  status: ('A' for Active; 'I' for Inactive)
REMARK    1  A    between atoms: C2_2  and  N1_3 
REMARK    2  A    between atoms: N1_3  and  C3_4 
REMARK    3  A    between atoms: C7_8  and  C8_9 
REMARK    4  A    between atoms: C8_9  and  O1_10 
REMARK    5  A    between atoms: C15_19  and  C16_20 
REMARK    6  A    between atoms: C16_20  and  C17_21 
REMARK    7  A    between atoms: C18_24  and  N2_25 
REMARK    8  A    between atoms: N2_25  and  N3_26 
ROOT
HETATM    1  N1  UNL     1      19.513 -13.410  22.120  1.00  0.00    -0.063 N 
HETATM    2  C5  UNL     1      20.021 -12.247  22.822  1.00  0.00     0.239 C 
HETATM    3  C6  UNL     1      21.368 -12.494  23.508  1.00  0.00     0.047 C 
HETATM    4  C7  UNL     1      21.279 -13.540  24.598  1.00  0.00     0.039 C 
HETATM    5  C9  UNL     1      19.939 -14.232  24.267  1.00  0.00     0.053 C 
HETATM    6  C10 UNL     1      20.100 -14.568  22.821  1.00  0.00     0.198 C 
HETATM    7  C11 UNL     1      19.612 -15.892  22.387  1.00  0.00     0.043 C 
HETATM    8  C12 UNL     1      20.525 -16.541  21.322  1.00  0.00     0.175 C 
HETATM    9  O2  UNL     1      21.761 -16.382  21.984  1.00  0.00    -0.385 OA
HETATM   10  C13 UNL     1      21.520 -16.832  23.306  1.00  0.00     0.133 C 
HETATM   11  C14 UNL     1      20.072 -16.919  23.440  1.00  0.00     0.041 C 
HETATM   12  C15 UNL     1      22.338 -16.124  24.308  1.00  0.00     0.087 C 
HETATM   13  C18 UNL     1      22.262 -14.665  24.350  1.00  0.00     0.103 C 
ENDROOT
BRANCH   1  14
HETATM   14  C2  UNL     1      19.971 -13.433  20.749  1.00  0.00     0.233 C 
HETATM   15  C1  UNL     1      20.360 -12.130  20.168  1.00  0.00     0.035 C 
ENDBRANCH   1  14
BRANCH   1  16
HETATM   16  C3  UNL     1      18.090 -13.538  22.155  1.00  0.00     0.233 C 
HETATM   17  C4  UNL     1      17.323 -12.277  21.968  1.00  0.00     0.035 C 
ENDBRANCH   1  16
BRANCH   4  18
HETATM   18  C8  UNL     1      21.329 -13.016  25.977  1.00  0.00     0.180 C 
BRANCH  18  19
HETATM   19  O1  UNL     1      22.536 -13.414  26.549  1.00  0.00    -0.400 OA
ATOM     20  H1  UNL     1      22.907 -14.102  26.009  1.00  0.00     0.209 HD
ENDBRANCH  18  19
ENDBRANCH   4  18
BRANCH  13  21
HETATM   21  N2  UNL     1      23.365 -14.074  24.100  1.00  0.00    -0.341 NA
BRANCH  21  22
HETATM   22  N3  UNL     1      24.542 -13.769  23.811  1.00  0.00    -0.280 N 
ATOM     23  H32 UNL     1      24.795 -14.746  23.660  1.00  0.00     0.191 HD
ATOM     24  H31 UNL     1      25.424 -13.297  23.614  1.00  0.00     0.191 HD
ENDBRANCH  21  22
ENDBRANCH  13  21
BRANCH  12  25
HETATM   25  C16 UNL     1      22.180 -16.774  25.655  1.00  0.00     0.127 C 
BRANCH  25  26
HETATM   26  C17 UNL     1      23.393 -16.628  26.496  1.00  0.00     0.173 C 
HETATM   27  O3  UNL     1      24.550 -16.985  26.148  1.00  0.00    -0.648 OA
HETATM   28  O4  UNL     1      23.280 -16.054  27.776  1.00  0.00    -0.648 OA
ENDBRANCH  25  26
ENDBRANCH  12  25
TORSDOF 8
ENDMDL
MODEL 4
REMARK VINA RESULT: -6.177116221      2.697      4.837
REMARK  8 active torsions:
REMARK  status: ('A' for Active; 'I' for Inactive)
REMARK    1  A    between atoms: C2_2  and  N1_3 
REMARK    2  A    between atoms: N1_3  and  C3_4 
REMARK    3  A    between atoms: C7_8  and  C8_9 
REMARK    4  A    between atoms: C8_9  and  O1_10 
REMARK    5  A    between atoms: C15_19  and  C16_20 
REMARK    6  A    between atoms: C16_20  and  C17_21 
REMARK    7  A    between atoms: C18_24  and  N2_25 
REMARK    8  A    between atoms: N2_25  and  N3_26 
ROOT
HETATM    1  N1  UNL     1      18.016 -12.797  21.600  1.00  0.00    -0.063 N 
HETATM    2  C5  UNL     1      17.339 -11.525  21.436  1.00  0.00     0.239 C 
HETATM    3  C6  UNL     1      15.816 -11.631  21.548  1.00  0.00     0.047 C 
HETATM    4  C7  UNL     1      15.213 -12.482  20.452  1.00  0.00     0.039 C 
HETATM    5  C9  UNL     1      16.448 -13.244  19.924  1.00  0.00     0.053 C 
HETATM    6  C10 UNL     1      17.033 -13.812  21.175  1.00  0.00     0.198 C 
HETATM    7  C11 UNL     1      17.536 -15.198  21.104  1.00  0.00     0.043 C 
HETATM    8  C12 UNL     1      17.253 -15.999  22.396  1.00  0.00     0.175 C 
HETATM    9  O2  UNL     1      15.878 -15.709  22.522  1.00  0.00    -0.385 OA
HETATM   10  C13 UNL     1      15.344 -15.938  21.229  1.00  0.00     0.133 C 
HETATM   11  C14 UNL     1      16.490 -16.028  20.334  1.00  0.00     0.041 C 
HETATM   12  C15 UNL     1      14.201 -15.059  20.920  1.00  0.00     0.087 C 
HETATM   13  C18 UNL     1      14.395 -13.615  21.036  1.00  0.00     0.103 C 
ENDROOT
BRANCH   1  14
HETATM   14  C2  UNL     1      18.343 -13.040  22.987  1.00  0.00     0.233 C 
HETATM   15  C1  UNL     1      19.741 -12.772  23.385  1.00  0.00     0.035 C 
ENDBRANCH   1  14
BRANCH   1  16
HETATM   16  C3  UNL     1      19.188 -12.943  20.795  1.00  0.00     0.233 C 
HETATM   17  C4  UNL     1      19.610 -11.732  20.042  1.00  0.00     0.035 C 
ENDBRANCH   1  16
BRANCH   4  18
HETATM   18  C8  UNL     1      14.503 -11.736  19.395  1.00  0.00     0.180 C 
BRANCH  18  19
HETATM   19  O1  UNL     1      13.135 -11.825  19.643  1.00  0.00    -0.400 OA
ATOM     20  H1  UNL     1      12.745 -10.979  19.460  1.00  0.00     0.209 HD
ENDBRANCH  18  19
ENDBRANCH   4  18
BRANCH  13  21
HETATM   21  N2  UNL     1      13.653 -13.054  21.909  1.00  0.00    -0.341 NA
BRANCH  21  22
HETATM   22  N3  UNL     1      12.711 -12.645  22.622  1.00  0.00    -0.280 N 
ATOM     23  H32 UNL     1      12.695 -13.512  23.160  1.00  0.00     0.191 HD
ATOM     24  H31 UNL     1      11.961 -12.115  23.067  1.00  0.00     0.191 HD
ENDBRANCH  21  22
ENDBRANCH  13  21
BRANCH  12  25
HETATM   25  C16 UNL     1      13.562 -15.479  19.624  1.00  0.00     0.127 C 
BRANCH  25  26
HETATM   26  C17 UNL     1      12.100 -15.229  19.610  1.00  0.00     0.173 C 
HETATM   27  O3  UNL     1      11.558 -14.196  19.133  1.00  0.00    -0.648 OA
HETATM   28  O4  UNL     1      11.231 -16.189  20.159  1.00  0.00    -0.648 OA
ENDBRANCH  25  26
ENDBRANCH  12  25
TORSDOF 8
ENDMDL
MODEL 5
REMARK VINA RESULT: -6.127995507      2.455      4.187
REMARK  8 active torsions:
REMARK  status: ('A' for Active; 'I' for Inactive)
REMARK    1  A    between atoms: C2_2  and  N1_3 
REMARK    2  A    between atoms: N1_3  and  C3_4 
REMARK    3  A    between atoms: C7_8  and  C8_9 
REMARK    4  A    between atoms: C8_9  and  O1_10 
REMARK    5  A    between atoms: C15_19  and  C16_20 
REMARK    6  A    between atoms: C16_20  and  C17_21 
REMARK    7  A    between atoms: C18_24  and  N2_25 
REMARK    8  A    between atoms: N2_25  and  N3_26 
ROOT
HETATM    1  N1  UNL     1      14.506 -14.983  19.288  1.00  0.00    -0.063 N 
HETATM    2  C5  UNL     1      15.490 -14.540  18.319  1.00  0.00     0.239 C 
HETATM    3  C6  UNL     1      16.150 -13.209  18.690  1.00  0.00     0.047 C 
HETATM    4  C7  UNL     1      15.163 -12.062  18.722  1.00  0.00     0.039 C 
HETATM    5  C9  UNL     1      13.811 -12.808  18.783  1.00  0.00     0.053 C 
HETATM    6  C10 UNL     1      14.014 -13.747  19.926  1.00  0.00     0.198 C 
HETATM    7  C11 UNL     1      12.881 -13.916  20.857  1.00  0.00     0.043 C 
HETATM    8  C12 UNL     1      13.337 -14.056  22.328  1.00  0.00     0.175 C 
HETATM    9  O2  UNL     1      14.190 -12.934  22.388  1.00  0.00    -0.385 OA
HETATM   10  C13 UNL     1      13.437 -11.880  21.813  1.00  0.00     0.133 C 
HETATM   11  C14 UNL     1      12.308 -12.514  21.145  1.00  0.00     0.041 C 
HETATM   12  C15 UNL     1      14.280 -10.891  21.116  1.00  0.00     0.087 C 
HETATM   13  C18 UNL     1      15.180 -11.372  20.070  1.00  0.00     0.103 C 
ENDROOT
BRANCH   1  14
HETATM   14  C2  UNL     1      15.113 -15.806  20.309  1.00  0.00     0.233 C 
HETATM   15  C1  UNL     1      16.386 -16.465  19.945  1.00  0.00     0.035 C 
ENDBRANCH   1  14
BRANCH   1  16
HETATM   16  C3  UNL     1      13.390 -15.667  18.715  1.00  0.00     0.233 C 
HETATM   17  C4  UNL     1      13.702 -16.573  17.577  1.00  0.00     0.035 C 
ENDBRANCH   1  16
BRANCH   4  18
HETATM   18  C8  UNL     1      15.251 -11.125  17.585  1.00  0.00     0.180 C 
BRANCH  18  19
HETATM   19  O1  UNL     1      16.532 -10.579  17.572  1.00  0.00    -0.400 OA
ATOM     20  H1  UNL     1      16.478  -9.687  17.895  1.00  0.00     0.209 HD
ENDBRANCH  18  19
ENDBRANCH   4  18
BRANCH  13  21
HETATM   21  N2  UNL     1      16.417 -11.174  20.310  1.00  0.00    -0.341 NA
BRANCH  21  22
HETATM   22  N3  UNL     1      17.546 -10.699  20.561  1.00  0.00    -0.280 N 
ATOM     23  H32 UNL     1      17.854 -11.569  20.996  1.00  0.00     0.191 HD
ATOM     24  H31 UNL     1      18.376 -10.115  20.660  1.00  0.00     0.191 HD
ENDBRANCH  21  22
ENDBRANCH  13  21
BRANCH  12  25
HETATM   25  C16 UNL     1      13.449  -9.708  20.699  1.00  0.00     0.127 C 
BRANCH  25  26
HETATM   26  C17 UNL     1      12.707  -9.114  21.838  1.00  0.00     0.173 C 
HETATM   27  O3  UNL     1      11.453  -9.133  21.960  1.00  0.00    -0.648 OA
HETATM   28  O4  UNL     1      13.421  -8.478  22.870  1.00  0.00    -0.648 OA
ENDBRANCH  25  26
ENDBRANCH  12  25
TORSDOF 8
ENDMDL
