MODEL 1
REMARK VINA RESULT: -6.726742932      0.000      0.000
REMARK  9 active torsions:
REMARK  status: ('A' for Active; 'I' for Inactive)
REMARK    1  A    between atoms: N1_2  and  C3_4 
REMARK    2  A    between atoms: C3_4  and  N2_6 
REMARK    3  A    between atoms: N2_6  and  C4_8 
REMARK    4  A    between atoms: C4_8  and  C5_9 
REMARK    5  A    between atoms: C5_9  and  C6_10 
REMARK    6  A    between atoms: C6_10  and  C7_11 
REMARK    7  A    between atoms: C7_11  and  C8_12 
REMARK    8  A    between atoms: C8_12  and  C9_13 
REMARK    9  A    between atoms: C9_13  and  N4_17 
ROOT
HETATM    1  C9  UNL     1      16.330 -12.857  20.294  1.00  0.00     0.074 C 
HETATM    2  N3  UNL     1      16.865 -13.957  20.758  1.00  0.00    -0.389 N 
ATOM      3  H31 UNL     1      16.274 -14.641  21.230  1.00  0.00     0.157 HD
ATOM      4  H32 UNL     1      17.866 -14.082  20.600  1.00  0.00     0.157 HD
ENDROOT
BRANCH   1   5
HETATM    5  C8  UNL     1      17.180 -11.874  19.616  1.00  0.00     0.076 C 
BRANCH   5   6
HETATM    6  C7  UNL     1      18.152 -11.155  20.456  1.00  0.00     0.007 C 
BRANCH   6   7
HETATM    7  C6  UNL     1      19.577 -11.159  20.124  1.00  0.00     0.002 C 
BRANCH   7   8
HETATM    8  C5  UNL     1      20.351 -12.392  20.076  1.00  0.00     0.020 C 
BRANCH   8   9
HETATM    9  C4  UNL     1      20.350 -13.331  21.207  1.00  0.00     0.122 C 
BRANCH   9  10
HETATM   10  N2  UNL     1      21.211 -12.741  22.267  1.00  0.00    -0.367 N 
ATOM     11  H2  UNL     1      22.101 -12.290  22.056  1.00  0.00     0.161 HD
BRANCH  10  12
HETATM   12  C3  UNL     1      20.710 -12.850  23.591  1.00  0.00     0.169 C 
HETATM   13  S1  UNL     1      19.203 -13.391  23.896  1.00  0.00    -0.041 SA
BRANCH  12  14
HETATM   14  N1  UNL     1      21.589 -12.460  24.655  1.00  0.00    -0.367 N 
HETATM   15  C1  UNL     1      23.016 -12.660  24.440  1.00  0.00     0.151 C 
HETATM   16  C2  UNL     1      21.073 -11.893  25.884  1.00  0.00     0.151 C 
ENDBRANCH  12  14
ENDBRANCH  10  12
ENDBRANCH   9  10
ENDBRANCH   8   9
ENDBRANCH   7   8
ENDBRANCH   6   7
ENDBRANCH   5   6
ENDBRANCH   1   5
BRANCH   1  17
HETATM   17  N4  UNL     1      14.954 -12.686  20.510  1.00  0.00    -0.346 N 
HETATM   18  C10 UNL     1      13.902 -12.439  19.543  1.00  0.00     0.154 C 
HETATM   19  C11 UNL     1      12.859 -11.671  20.349  1.00  0.00     0.259 C 
HETATM   20  N5  UNL     1      13.460 -11.474  21.620  1.00  0.00    -0.046 N 
HETATM   21  C12 UNL     1      12.528 -11.305  22.707  1.00  0.00     0.265 C 
HETATM   22  C15 UNL     1      14.406 -10.376  21.643  1.00  0.00     0.265 C 
HETATM   23  C16 UNL     1      14.242 -12.702  21.812  1.00  0.00     0.363 C 
HETATM   24  C13 UNL     1      11.866  -9.958  22.560  1.00  0.00     0.195 C 
HETATM   25  O1  UNL     1      12.853  -8.981  22.766  1.00  0.00    -0.388 OA
HETATM   26  C14 UNL     1      13.707  -9.035  21.665  1.00  0.00     0.195 C 
ENDBRANCH   1  17
TORSDOF 9
ENDMDL
MODEL 2
REMARK VINA RESULT: -6.649346388      1.139      1.327
REMARK  9 active torsions:
REMARK  status: ('A' for Active; 'I' for Inactive)
REMARK    1  A    between atoms: N1_2  and  C3_4 
REMARK    2  A    between atoms: C3_4  and  N2_6 
REMARK    3  A    between atoms: N2_6  and  C4_8 
REMARK    4  A    between atoms: C4_8  and  C5_9 
REMARK    5  A    between atoms: C5_9  and  C6_10 
REMARK    6  A    between atoms: C6_10  and  C7_11 
REMARK    7  A    between atoms: C7_11  and  C8_12 
REMARK    8  A    between atoms: C8_12  and  C9_13 
REMARK    9  A    between atoms: C9_13  and  N4_17 
ROOT
HETATM    1  C9  UNL     1      16.650 -11.289  19.339  1.00  0.00     0.074 C 
HETATM    2  N3  UNL     1      16.590 -10.848  18.108  1.00  0.00    -0.389 N 
ATOM      3  H31 UNL     1      15.709 -10.906  17.598  1.00  0.00     0.157 HD
ATOM      4  H32 UNL     1      17.444 -10.442  17.726  1.00  0.00     0.157 HD
ENDROOT
BRANCH   1   5
HETATM    5  C8  UNL     1      17.915 -11.204  20.072  1.00  0.00     0.076 C 
BRANCH   5   6
HETATM    6  C7  UNL     1      19.131 -11.585  19.333  1.00  0.00     0.007 C 
BRANCH   6   7
HETATM    7  C6  UNL     1      20.438 -11.587  19.990  1.00  0.00     0.002 C 
BRANCH   7   8
HETATM    8  C5  UNL     1      20.647 -12.229  21.281  1.00  0.00     0.020 C 
BRANCH   8   9
HETATM    9  C4  UNL     1      20.311 -13.645  21.485  1.00  0.00     0.122 C 
BRANCH   9  10
HETATM   10  N2  UNL     1      21.042 -14.098  22.699  1.00  0.00    -0.367 N 
ATOM     11  H2  UNL     1      21.813 -14.764  22.653  1.00  0.00     0.161 HD
BRANCH  10  12
HETATM   12  C3  UNL     1      20.593 -13.540  23.925  1.00  0.00     0.169 C 
HETATM   13  S1  UNL     1      19.083 -13.795  24.482  1.00  0.00    -0.041 SA
BRANCH  12  14
HETATM   14  N1  UNL     1      21.530 -12.737  24.657  1.00  0.00    -0.367 N 
HETATM   15  C1  UNL     1      22.934 -12.860  24.292  1.00  0.00     0.151 C 
HETATM   16  C2  UNL     1      21.089 -11.845  25.711  1.00  0.00     0.151 C 
ENDBRANCH  12  14
ENDBRANCH  10  12
ENDBRANCH   9  10
ENDBRANCH   8   9
ENDBRANCH   7   8
ENDBRANCH   6   7
ENDBRANCH   5   6
ENDBRANCH   1   5
BRANCH   1  17
HETATM   17  N4  UNL     1      15.475 -11.847  19.866  1.00  0.00    -0.346 N 
HETATM   18  C10 UNL     1      14.368 -12.470  19.166  1.00  0.00     0.154 C 
HETATM   19  C11 UNL     1      13.183 -12.219  20.094  1.00  0.00     0.259 C 
HETATM   20  N5  UNL     1      13.706 -11.410  21.136  1.00  0.00    -0.046 N 
HETATM   21  C12 UNL     1      12.996 -11.505  22.388  1.00  0.00     0.265 C 
HETATM   22  C15 UNL     1      13.823 -10.012  20.772  1.00  0.00     0.265 C 
HETATM   23  C16 UNL     1      15.077 -11.916  21.293  1.00  0.00     0.363 C 
HETATM   24  C13 UNL     1      11.659 -10.828  22.227  1.00  0.00     0.195 C 
HETATM   25  O1  UNL     1      11.901  -9.457  22.045  1.00  0.00    -0.388 OA
HETATM   26  C14 UNL     1      12.480  -9.316  20.784  1.00  0.00     0.195 C 
ENDBRANCH   1  17
TORSDOF 9
ENDMDL
MODEL 3
REMARK VINA RESULT: -6.555780809      2.031      2.879
REMARK  9 active torsions:
REMARK  status: ('A' for Active; 'I' for Inactive)
REMARK    1  A    between atoms: N1_2  and  C3_4 
REMARK    2  A    between atoms: C3_4  and  N2_6 
REMARK    3  A    between atoms: N2_6  and  C4_8 
REMARK    4  A    between atoms: C4_8  and  C5_9 
REMARK    5  A    between atoms: C5_9  and  C6_10 
REMARK    6  A    between atoms: C6_10  and  C7_11 
REMARK    7  A    between atoms: C7_11  and  C8_12 
REMARK    8  A    between atoms: C8_12  and  C9_13 
REMARK    9  A    between atoms: C9_13  and  N4_17 
ROOT
HETATM    1  C9  UNL     1      15.670 -10.923  20.093  1.00  0.00     0.074 C 
HETATM    2  N3  UNL     1      15.705  -9.676  20.491  1.00  0.00    -0.389 N 
ATOM      3  H31 UNL     1      14.833  -9.195  20.708  1.00  0.00     0.157 HD
ATOM      4  H32 UNL     1      16.628  -9.252  20.583  1.00  0.00     0.157 HD
ENDROOT
BRANCH   1   5
HETATM    5  C8  UNL     1      16.923 -11.614  19.781  1.00  0.00     0.076 C 
BRANCH   5   6
HETATM    6  C7  UNL     1      18.083 -11.287  20.628  1.00  0.00     0.007 C 
BRANCH   6   7
HETATM    7  C6  UNL     1      19.423 -11.173  20.052  1.00  0.00     0.002 C 
BRANCH   7   8
HETATM    8  C5  UNL     1      20.356 -12.291  20.050  1.00  0.00     0.020 C 
BRANCH   8   9
HETATM    9  C4  UNL     1      20.353 -13.281  21.135  1.00  0.00     0.122 C 
BRANCH   9  10
HETATM   10  N2  UNL     1      21.224 -12.749  22.217  1.00  0.00    -0.367 N 
ATOM     11  H2  UNL     1      22.134 -12.331  22.026  1.00  0.00     0.161 HD
BRANCH  10  12
HETATM   12  C3  UNL     1      20.701 -12.862  23.532  1.00  0.00     0.169 C 
HETATM   13  S1  UNL     1      19.191 -13.408  23.811  1.00  0.00    -0.041 SA
BRANCH  12  14
HETATM   14  N1  UNL     1      21.562 -12.473  24.612  1.00  0.00    -0.367 N 
HETATM   15  C1  UNL     1      22.992 -12.672  24.421  1.00  0.00     0.151 C 
HETATM   16  C2  UNL     1      21.024 -11.908  25.833  1.00  0.00     0.151 C 
ENDBRANCH  12  14
ENDBRANCH  10  12
ENDBRANCH   9  10
ENDBRANCH   8   9
ENDBRANCH   7   8
ENDBRANCH   6   7
ENDBRANCH   5   6
ENDBRANCH   1   5
BRANCH   1  17
HETATM   17  N4  UNL     1      14.400 -11.508  19.967  1.00  0.00    -0.346 N 
HETATM   18  C10 UNL     1      13.150 -11.119  20.592  1.00  0.00     0.154 C 
HETATM   19  C11 UNL     1      12.376 -12.432  20.669  1.00  0.00     0.259 C 
HETATM   20  N5  UNL     1      13.284 -13.414  20.193  1.00  0.00    -0.046 N 
HETATM   21  C12 UNL     1      12.662 -14.588  19.632  1.00  0.00     0.265 C 
HETATM   22  C15 UNL     1      14.250 -13.831  21.190  1.00  0.00     0.265 C 
HETATM   23  C16 UNL     1      14.037 -12.696  19.157  1.00  0.00     0.363 C 
HETATM   24  C13 UNL     1      12.041 -15.379  20.755  1.00  0.00     0.195 C 
HETATM   25  O1  UNL     1      13.088 -15.865  21.555  1.00  0.00    -0.388 OA
HETATM   26  C14 UNL     1      13.636 -14.763  22.210  1.00  0.00     0.195 C 
ENDBRANCH   1  17
TORSDOF 9
ENDMDL
MODEL 4
REMARK VINA RESULT: -6.532679663      1.631      2.014
REMARK  9 active torsions:
REMARK  status: ('A' for Active; 'I' for Inactive)
REMARK    1  A    between atoms: N1_2  and  C3_4 
REMARK    2  A    between atoms: C3_4  and  N2_6 
REMARK    3  A    between atoms: N2_6  and  C4_8 
REMARK    4  A    between atoms: C4_8  and  C5_9 
REMARK    5  A    between atoms: C5_9  and  C6_10 
REMARK    6  A    between atoms: C6_10  and  C7_11 
REMARK    7  A    between atoms: C7_11  and  C8_12 
REMARK    8  A    between atoms: C8_12  and  C9_13 
REMARK    9  A    between atoms: C9_13  and  N4_17 
ROOT
HETATM    1  C9  UNL     1      16.869 -11.454  19.456  1.00  0.00     0.074 C 
HETATM    2  N3  UNL     1      17.127 -11.170  18.205  1.00  0.00    -0.389 N 
ATOM      3  H31 UNL     1      16.381 -11.234  17.513  1.00  0.00     0.157 HD
ATOM      4  H32 UNL     1      18.079 -10.872  17.991  1.00  0.00     0.157 HD
ENDROOT
BRANCH   1   5
HETATM    5  C8  UNL     1      17.941 -11.361  20.451  1.00  0.00     0.076 C 
BRANCH   5   6
HETATM    6  C7  UNL     1      19.307 -11.188  19.931  1.00  0.00     0.007 C 
BRANCH   6   7
HETATM    7  C6  UNL     1      20.299 -12.256  20.060  1.00  0.00     0.002 C 
BRANCH   7   8
HETATM    8  C5  UNL     1      20.365 -13.103  21.243  1.00  0.00     0.020 C 
BRANCH   8   9
HETATM    9  C4  UNL     1      21.079 -12.663  22.450  1.00  0.00     0.122 C 
BRANCH   9  10
HETATM   10  N2  UNL     1      20.056 -12.444  23.508  1.00  0.00    -0.367 N 
ATOM     11  H2  UNL     1      19.211 -11.897  23.343  1.00  0.00     0.161 HD
BRANCH  10  12
HETATM   12  C3  UNL     1      20.337 -13.047  24.762  1.00  0.00     0.169 C 
HETATM   13  S1  UNL     1      21.002 -12.205  25.989  1.00  0.00    -0.041 SA
BRANCH  12  14
HETATM   14  N1  UNL     1      20.011 -14.437  24.905  1.00  0.00    -0.367 N 
HETATM   15  C1  UNL     1      18.598 -14.788  24.897  1.00  0.00     0.151 C 
HETATM   16  C2  UNL     1      21.048 -15.439  25.048  1.00  0.00     0.151 C 
ENDBRANCH  12  14
ENDBRANCH  10  12
ENDBRANCH   9  10
ENDBRANCH   8   9
ENDBRANCH   7   8
ENDBRANCH   6   7
ENDBRANCH   5   6
ENDBRANCH   1   5
BRANCH   1  17
HETATM   17  N4  UNL     1      15.559 -11.862  19.752  1.00  0.00    -0.346 N 
HETATM   18  C10 UNL     1      14.360 -11.736  18.945  1.00  0.00     0.154 C 
HETATM   19  C11 UNL     1      13.245 -11.671  19.985  1.00  0.00     0.259 C 
HETATM   20  N5  UNL     1      13.918 -11.658  21.234  1.00  0.00    -0.046 N 
HETATM   21  C12 UNL     1      13.145 -12.166  22.341  1.00  0.00     0.265 C 
HETATM   22  C15 UNL     1      14.438 -10.352  21.591  1.00  0.00     0.265 C 
HETATM   23  C16 UNL     1      15.083 -12.519  20.994  1.00  0.00     0.363 C 
HETATM   24  C13 UNL     1      12.060 -11.168  22.658  1.00  0.00     0.195 C 
HETATM   25  O1  UNL     1      12.683 -10.010  23.147  1.00  0.00    -0.388 OA
HETATM   26  C14 UNL     1      13.344  -9.424  22.068  1.00  0.00     0.195 C 
ENDBRANCH   1  17
TORSDOF 9
ENDMDL
MODEL 5
REMARK VINA RESULT: -6.525007030      1.351      1.662
REMARK  9 active torsions:
REMARK  status: ('A' for Active; 'I' for Inactive)
REMARK    1  A    between atoms: N1_2  and  C3_4 
REMARK    2  A    between atoms: C3_4  and  N2_6 
REMARK    3  A    between atoms: N2_6  and  C4_8 
REMARK    4  A    between atoms: C4_8  and  C5_9 
REMARK    5  A    between atoms: C5_9  and  C6_10 
REMARK    6  A    between atoms: C6_10  and  C7_11 
REMARK    7  A    between atoms: C7_11  and  C8_12 
REMARK    8  A    between atoms: C8_12  and  C9_13 
REMARK    9  A    between atoms: C9_13  and  N4_17 
ROOT
HETATM    1  C9  UNL     1      16.913 -11.517  19.516  1.00  0.00     0.074 C 
HETATM    2  N3  UNL     1      17.178 -11.223  18.268  1.00  0.00    -0.389 N 
ATOM      3  H31 UNL     1      16.440 -11.298  17.568  1.00  0.00     0.157 HD
ATOM      4  H32 UNL     1      18.127 -10.908  18.064  1.00  0.00     0.157 HD
ENDROOT
BRANCH   1   5
HETATM    5  C8  UNL     1      17.973 -11.409  20.521  1.00  0.00     0.076 C 
BRANCH   5   6
HETATM    6  C7  UNL     1      19.340 -11.198  20.015  1.00  0.00     0.007 C 
BRANCH   6   7
HETATM    7  C6  UNL     1      20.359 -12.238  20.156  1.00  0.00     0.002 C 
BRANCH   7   8
HETATM    8  C5  UNL     1      20.076 -13.507  20.812  1.00  0.00     0.020 C 
BRANCH   8   9
HETATM    9  C4  UNL     1      20.439 -13.730  22.218  1.00  0.00     0.122 C 
BRANCH   9  10
HETATM   10  N2  UNL     1      21.415 -12.672  22.592  1.00  0.00    -0.367 N 
ATOM     11  H2  UNL     1      21.699 -11.939  21.942  1.00  0.00     0.161 HD
BRANCH  10  12
HETATM   12  C3  UNL     1      21.925 -12.751  23.915  1.00  0.00     0.169 C 
HETATM   13  S1  UNL     1      21.197 -11.993  25.160  1.00  0.00    -0.041 SA
BRANCH  12  14
HETATM   14  N1  UNL     1      23.114 -13.529  24.110  1.00  0.00    -0.367 N 
HETATM   15  C1  UNL     1      24.383 -12.885  23.803  1.00  0.00     0.151 C 
HETATM   16  C2  UNL     1      23.046 -14.894  24.592  1.00  0.00     0.151 C 
ENDBRANCH  12  14
ENDBRANCH  10  12
ENDBRANCH   9  10
ENDBRANCH   8   9
ENDBRANCH   7   8
ENDBRANCH   6   7
ENDBRANCH   5   6
ENDBRANCH   1   5
BRANCH   1  17
HETATM   17  N4  UNL     1      15.608 -11.950  19.797  1.00  0.00    -0.346 N 
HETATM   18  C10 UNL     1      14.430 -11.907  18.951  1.00  0.00     0.154 C 
HETATM   19  C11 UNL     1      13.283 -11.820  19.954  1.00  0.00     0.259 C 
HETATM   20  N5  UNL     1      13.918 -11.715  21.219  1.00  0.00    -0.046 N 
HETATM   21  C12 UNL     1      13.128 -12.184  22.330  1.00  0.00     0.265 C 
HETATM   22  C15 UNL     1      14.387 -10.375  21.515  1.00  0.00     0.265 C 
HETATM   23  C16 UNL     1      15.115 -12.550  21.061  1.00  0.00     0.363 C 
HETATM   24  C13 UNL     1      12.004 -11.206  22.560  1.00  0.00     0.195 C 
HETATM   25  O1  UNL     1      12.577 -10.003  23.000  1.00  0.00    -0.388 OA
HETATM   26  C14 UNL     1      13.251  -9.458  21.907  1.00  0.00     0.195 C 
ENDBRANCH   1  17
TORSDOF 9
ENDMDL
