MODEL 1
REMARK VINA RESULT: -8.131672407      0.000      0.000
REMARK  6 active torsions:
REMARK  status: ('A' for Active; 'I' for Inactive)
REMARK    1  A    between atoms: C4_4  and  N1_5 
REMARK    2  A    between atoms: N2_8  and  C7_9 
REMARK    3  A    between atoms: C7_9  and  C8_10 
REMARK       I    between atoms: C8_10  and  N3_12 
REMARK    4  A    between atoms: N3_12  and  C9_14 
REMARK    5  A    between atoms: C9_14  and  C10_15 
REMARK    6  A    between atoms: C10_15  and  N4_16 
ROOT
HETATM    1  N1  UNL     1      13.313 -11.136  21.376  1.00  0.00    -0.056 N 
HETATM    2  C5  UNL     1      13.514 -12.497  21.862  1.00  0.00     0.266 C 
HETATM    3  C6  UNL     1      14.888 -12.970  21.410  1.00  0.00     0.271 C 
HETATM    4  N2  UNL     1      15.264 -12.320  20.196  1.00  0.00    -0.037 N 
HETATM    5  C16 UNL     1      14.041 -12.273  19.370  1.00  0.00     0.271 C 
HETATM    6  C17 UNL     1      13.070 -11.294  19.941  1.00  0.00     0.266 C 
HETATM    7  C18 UNL     1      15.561 -10.897  20.485  1.00  0.00     0.271 C 
HETATM    8  C19 UNL     1      14.600 -10.442  21.560  1.00  0.00     0.266 C 
ENDROOT
BRANCH   4   9
HETATM    9  C7  UNL     1      16.355 -12.839  19.482  1.00  0.00     0.276 C 
BRANCH   9  10
HETATM   10  C8  UNL     1      17.714 -12.654  19.954  1.00  0.00     0.264 C 
HETATM   11  O1  UNL     1      18.472 -11.800  19.496  1.00  0.00    -0.267 OA
HETATM   12  N3  UNL     1      18.185 -13.500  20.994  1.00  0.00    -0.355 N 
ATOM     13  H3  UNL     1      17.556 -14.210  21.369  1.00  0.00     0.162 HD
BRANCH  12  14
HETATM   14  C9  UNL     1      19.510 -13.396  21.541  1.00  0.00     0.151 C 
BRANCH  14  15
HETATM   15  C10 UNL     1      19.508 -12.831  22.919  1.00  0.00     0.256 C 
BRANCH  15  16
HETATM   16  N4  UNL     1      20.157 -13.664  23.892  1.00  0.00    -0.069 N 
HETATM   17  C11 UNL     1      19.922 -15.072  23.632  1.00  0.00     0.272 C 
HETATM   18  C12 UNL     1      21.593 -13.454  23.789  1.00  0.00     0.237 C 
HETATM   19  C13 UNL     1      21.984 -12.428  24.797  1.00  0.00     0.029 C 
HETATM   20  C14 UNL     1      20.835 -12.417  25.780  1.00  0.00     0.029 C 
HETATM   21  C15 UNL     1      19.814 -13.410  25.255  1.00  0.00     0.237 C 
ENDBRANCH  15  16
ENDBRANCH  14  15
ENDBRANCH  12  14
ENDBRANCH   9  10
ENDBRANCH   4   9
BRANCH   1  22
HETATM   22  C4  UNL     1      12.329 -10.392  22.055  1.00  0.00     0.218 C 
HETATM   23  C3  UNL     1      12.805  -9.061  22.620  1.00  0.00     0.067 C 
HETATM   24  C2  UNL     1      11.599  -8.695  23.476  1.00  0.00     0.184 C 
HETATM   25  C1  UNL     1      11.984  -7.790  24.610  1.00  0.00     0.040 C 
HETATM   26  N5  UNL     1      10.988  -9.926  23.898  1.00  0.00    -0.069 N 
HETATM   27  C20 UNL     1      11.734 -11.019  23.284  1.00  0.00     0.266 C 
ATOM     28  H52 UNL     1      10.922 -10.009  24.913  1.00  0.00     0.277 HD
ATOM     29  H51 UNL     1       9.988  -9.964  23.696  1.00  0.00     0.277 HD
ENDBRANCH   1  22
TORSDOF 6
ENDMDL
MODEL 2
REMARK VINA RESULT: -7.963539439      0.819      1.372
REMARK  6 active torsions:
REMARK  status: ('A' for Active; 'I' for Inactive)
REMARK    1  A    between atoms: C4_4  and  N1_5 
REMARK    2  A    between atoms: N2_8  and  C7_9 
REMARK    3  A    between atoms: C7_9  and  C8_10 
REMARK       I    between atoms: C8_10  and  N3_12 
REMARK    4  A    between atoms: N3_12  and  C9_14 
REMARK    5  A    between atoms: C9_14  and  C10_15 
REMARK    6  A    between atoms: C10_15  and  N4_16 
ROOT
HETATM    1  N1  UNL     1      13.460 -11.096  21.251  1.00  0.00    -0.056 N 
HETATM    2  C5  UNL     1      13.198 -11.344  19.838  1.00  0.00     0.266 C 
HETATM    3  C6  UNL     1      14.080 -12.496  19.380  1.00  0.00     0.271 C 
HETATM    4  N2  UNL     1      15.277 -12.546  20.156  1.00  0.00    -0.037 N 
HETATM    5  C16 UNL     1      15.698 -11.142  20.336  1.00  0.00     0.271 C 
HETATM    6  C17 UNL     1      14.769 -10.440  21.270  1.00  0.00     0.266 C 
HETATM    7  C18 UNL     1      14.943 -13.002  21.526  1.00  0.00     0.271 C 
HETATM    8  C19 UNL     1      13.592 -12.423  21.880  1.00  0.00     0.266 C 
ENDROOT
BRANCH   4   9
HETATM    9  C7  UNL     1      16.330 -13.349  19.692  1.00  0.00     0.276 C 
BRANCH   9  10
HETATM   10  C8  UNL     1      17.354 -13.835  20.598  1.00  0.00     0.264 C 
HETATM   11  O1  UNL     1      17.251 -14.893  21.219  1.00  0.00    -0.267 OA
HETATM   12  N3  UNL     1      18.527 -13.053  20.769  1.00  0.00    -0.355 N 
ATOM     13  H3  UNL     1      18.608 -12.175  20.257  1.00  0.00     0.162 HD
BRANCH  12  14
HETATM   14  C9  UNL     1      19.605 -13.446  21.635  1.00  0.00     0.151 C 
BRANCH  14  15
HETATM   15  C10 UNL     1      19.468 -12.871  23.002  1.00  0.00     0.256 C 
BRANCH  15  16
HETATM   16  N4  UNL     1      20.097 -13.651  24.029  1.00  0.00    -0.069 N 
HETATM   17  C11 UNL     1      19.771 -15.061  23.905  1.00  0.00     0.272 C 
HETATM   18  C12 UNL     1      21.539 -13.541  23.870  1.00  0.00     0.237 C 
HETATM   19  C13 UNL     1      22.021 -12.454  24.770  1.00  0.00     0.029 C 
HETATM   20  C14 UNL     1      20.906 -12.285  25.777  1.00  0.00     0.029 C 
HETATM   21  C15 UNL     1      19.813 -13.257  25.372  1.00  0.00     0.237 C 
ENDBRANCH  15  16
ENDBRANCH  14  15
ENDBRANCH  12  14
ENDBRANCH   9  10
ENDBRANCH   4   9
BRANCH   1  22
HETATM   22  C4  UNL     1      12.450 -10.399  21.940  1.00  0.00     0.218 C 
HETATM   23  C3  UNL     1      12.890  -9.087  22.574  1.00  0.00     0.067 C 
HETATM   24  C2  UNL     1      11.661  -8.779  23.418  1.00  0.00     0.184 C 
HETATM   25  C1  UNL     1      12.006  -7.918  24.599  1.00  0.00     0.040 C 
HETATM   26  N5  UNL     1      11.062 -10.037  23.772  1.00  0.00    -0.069 N 
HETATM   27  C20 UNL     1      11.840 -11.090  23.127  1.00  0.00     0.266 C 
ATOM     28  H52 UNL     1      10.976 -10.166  24.780  1.00  0.00     0.277 HD
ATOM     29  H51 UNL     1      10.067 -10.082  23.547  1.00  0.00     0.277 HD
ENDBRANCH   1  22
TORSDOF 6
ENDMDL
MODEL 3
REMARK VINA RESULT: -7.761914547      0.982      1.108
REMARK  6 active torsions:
REMARK  status: ('A' for Active; 'I' for Inactive)
REMARK    1  A    between atoms: C4_4  and  N1_5 
REMARK    2  A    between atoms: N2_8  and  C7_9 
REMARK    3  A    between atoms: C7_9  and  C8_10 
REMARK       I    between atoms: C8_10  and  N3_12 
REMARK    4  A    between atoms: N3_12  and  C9_14 
REMARK    5  A    between atoms: C9_14  and  C10_15 
REMARK    6  A    between atoms: C10_15  and  N4_16 
ROOT
HETATM    1  N1  UNL     1      13.944 -11.553  20.684  1.00  0.00    -0.056 N 
HETATM    2  C5  UNL     1      14.256 -12.976  20.615  1.00  0.00     0.266 C 
HETATM    3  C6  UNL     1      15.750 -13.129  20.366  1.00  0.00     0.271 C 
HETATM    4  N2  UNL     1      16.253 -12.002  19.650  1.00  0.00    -0.037 N 
HETATM    5  C16 UNL     1      15.228 -11.678  18.638  1.00  0.00     0.271 C 
HETATM    6  C17 UNL     1      14.020 -11.096  19.294  1.00  0.00     0.266 C 
HETATM    7  C18 UNL     1      16.258 -10.824  20.549  1.00  0.00     0.271 C 
HETATM    8  C19 UNL     1      15.043 -10.930  21.443  1.00  0.00     0.266 C 
ENDROOT
BRANCH   4   9
HETATM    9  C7  UNL     1      17.532 -12.100  19.082  1.00  0.00     0.276 C 
BRANCH   9  10
HETATM   10  C8  UNL     1      18.717 -12.177  19.915  1.00  0.00     0.264 C 
HETATM   11  O1  UNL     1      19.635 -11.359  19.851  1.00  0.00    -0.267 OA
HETATM   12  N3  UNL     1      18.815 -13.244  20.848  1.00  0.00    -0.355 N 
ATOM     13  H3  UNL     1      18.055 -13.922  20.896  1.00  0.00     0.162 HD
BRANCH  12  14
HETATM   14  C9  UNL     1      19.941 -13.408  21.726  1.00  0.00     0.151 C 
BRANCH  14  15
HETATM   15  C10 UNL     1      19.670 -12.882  23.093  1.00  0.00     0.256 C 
BRANCH  15  16
HETATM   16  N4  UNL     1      20.244 -13.672  24.145  1.00  0.00    -0.069 N 
HETATM   17  C11 UNL     1      19.905 -15.076  24.007  1.00  0.00     0.272 C 
HETATM   18  C12 UNL     1      21.693 -13.581  24.048  1.00  0.00     0.237 C 
HETATM   19  C13 UNL     1      22.152 -12.501  24.968  1.00  0.00     0.029 C 
HETATM   20  C14 UNL     1      20.997 -12.316  25.927  1.00  0.00     0.029 C 
HETATM   21  C15 UNL     1      19.909 -13.273  25.475  1.00  0.00     0.237 C 
ENDBRANCH  15  16
ENDBRANCH  14  15
ENDBRANCH  12  14
ENDBRANCH   9  10
ENDBRANCH   4   9
BRANCH   1  22
HETATM   22  C4  UNL     1      12.740 -11.230  21.338  1.00  0.00     0.218 C 
HETATM   23  C3  UNL     1      12.817 -10.029  22.269  1.00  0.00     0.067 C 
HETATM   24  C2  UNL     1      11.469 -10.153  22.967  1.00  0.00     0.184 C 
HETATM   25  C1  UNL     1      11.493  -9.521  24.329  1.00  0.00     0.040 C 
HETATM   26  N5  UNL     1      11.124 -11.549  22.981  1.00  0.00    -0.069 N 
HETATM   27  C20 UNL     1      12.175 -12.267  22.268  1.00  0.00     0.266 C 
ATOM     28  H52 UNL     1      10.965 -11.909  23.922  1.00  0.00     0.277 HD
ATOM     29  H51 UNL     1      10.193 -11.733  22.608  1.00  0.00     0.277 HD
ENDBRANCH   1  22
TORSDOF 6
ENDMDL
MODEL 4
REMARK VINA RESULT: -7.537754683      0.676      1.335
REMARK  6 active torsions:
REMARK  status: ('A' for Active; 'I' for Inactive)
REMARK    1  A    between atoms: C4_4  and  N1_5 
REMARK    2  A    between atoms: N2_8  and  C7_9 
REMARK    3  A    between atoms: C7_9  and  C8_10 
REMARK       I    between atoms: C8_10  and  N3_12 
REMARK    4  A    between atoms: N3_12  and  C9_14 
REMARK    5  A    between atoms: C9_14  and  C10_15 
REMARK    6  A    between atoms: C10_15  and  N4_16 
ROOT
HETATM    1  N1  UNL     1      13.313 -11.134  21.369  1.00  0.00    -0.056 N 
HETATM    2  C5  UNL     1      13.509 -12.502  21.838  1.00  0.00     0.266 C 
HETATM    3  C6  UNL     1      14.889 -12.968  21.396  1.00  0.00     0.271 C 
HETATM    4  N2  UNL     1      15.279 -12.301  20.196  1.00  0.00    -0.037 N 
HETATM    5  C16 UNL     1      14.066 -12.243  19.356  1.00  0.00     0.271 C 
HETATM    6  C17 UNL     1      13.087 -11.272  19.929  1.00  0.00     0.266 C 
HETATM    7  C18 UNL     1      15.571 -10.882  20.508  1.00  0.00     0.271 C 
HETATM    8  C19 UNL     1      14.598 -10.443  21.578  1.00  0.00     0.266 C 
ENDROOT
BRANCH   4   9
HETATM    9  C7  UNL     1      16.378 -12.809  19.487  1.00  0.00     0.276 C 
BRANCH   9  10
HETATM   10  C8  UNL     1      17.736 -12.514  19.902  1.00  0.00     0.264 C 
HETATM   11  O1  UNL     1      18.464 -11.724  19.301  1.00  0.00    -0.267 OA
HETATM   12  N3  UNL     1      18.243 -13.166  21.058  1.00  0.00    -0.355 N 
ATOM     13  H3  UNL     1      17.640 -13.823  21.552  1.00  0.00     0.162 HD
BRANCH  12  14
HETATM   14  C9  UNL     1      19.571 -12.940  21.560  1.00  0.00     0.151 C 
BRANCH  14  15
HETATM   15  C10 UNL     1      20.158 -14.165  22.171  1.00  0.00     0.256 C 
BRANCH  15  16
HETATM   16  N4  UNL     1      20.590 -13.990  23.528  1.00  0.00    -0.069 N 
HETATM   17  C11 UNL     1      21.803 -13.197  23.606  1.00  0.00     0.272 C 
HETATM   18  C12 UNL     1      19.562 -13.251  24.244  1.00  0.00     0.237 C 
HETATM   19  C13 UNL     1      18.678 -14.236  24.932  1.00  0.00     0.029 C 
HETATM   20  C14 UNL     1      19.503 -15.502  24.981  1.00  0.00     0.029 C 
HETATM   21  C15 UNL     1      20.808 -15.191  24.271  1.00  0.00     0.237 C 
ENDBRANCH  15  16
ENDBRANCH  14  15
ENDBRANCH  12  14
ENDBRANCH   9  10
ENDBRANCH   4   9
BRANCH   1  22
HETATM   22  C4  UNL     1      12.321 -10.400  22.046  1.00  0.00     0.218 C 
HETATM   23  C3  UNL     1      12.789  -9.078  22.637  1.00  0.00     0.067 C 
HETATM   24  C2  UNL     1      11.573  -8.724  23.483  1.00  0.00     0.184 C 
HETATM   25  C1  UNL     1      11.944  -7.835  24.634  1.00  0.00     0.040 C 
HETATM   26  N5  UNL     1      10.957  -9.961  23.880  1.00  0.00    -0.069 N 
HETATM   27  C20 UNL     1      11.711 -11.045  23.259  1.00  0.00     0.266 C 
ATOM     28  H52 UNL     1      10.879 -10.059  24.892  1.00  0.00     0.277 HD
ATOM     29  H51 UNL     1       9.960  -9.996  23.665  1.00  0.00     0.277 HD
ENDBRANCH   1  22
TORSDOF 6
ENDMDL
MODEL 5
REMARK VINA RESULT: -7.506678854      1.266      1.270
REMARK  6 active torsions:
REMARK  status: ('A' for Active; 'I' for Inactive)
REMARK    1  A    between atoms: C4_4  and  N1_5 
REMARK    2  A    between atoms: N2_8  and  C7_9 
REMARK    3  A    between atoms: C7_9  and  C8_10 
REMARK       I    between atoms: C8_10  and  N3_12 
REMARK    4  A    between atoms: N3_12  and  C9_14 
REMARK    5  A    between atoms: C9_14  and  C10_15 
REMARK    6  A    between atoms: C10_15  and  N4_16 
ROOT
HETATM    1  N1  UNL     1      13.179 -11.619  21.369  1.00  0.00    -0.056 N 
HETATM    2  C5  UNL     1      12.946 -13.024  21.687  1.00  0.00     0.266 C 
HETATM    3  C6  UNL     1      14.227 -13.798  21.412  1.00  0.00     0.271 C 
HETATM    4  N2  UNL     1      14.982 -13.161  20.382  1.00  0.00    -0.037 N 
HETATM    5  C16 UNL     1      13.996 -12.719  19.375  1.00  0.00     0.271 C 
HETATM    6  C17 UNL     1      13.195 -11.575  19.905  1.00  0.00     0.266 C 
HETATM    7  C18 UNL     1      15.550 -11.899  20.911  1.00  0.00     0.271 C 
HETATM    8  C19 UNL     1      14.533 -11.308  21.862  1.00  0.00     0.266 C 
ENDROOT
BRANCH   4   9
HETATM    9  C7  UNL     1      16.035 -13.880  19.796  1.00  0.00     0.276 C 
BRANCH   9  10
HETATM   10  C8  UNL     1      16.895 -14.731  20.596  1.00  0.00     0.264 C 
HETATM   11  O1  UNL     1      16.833 -15.960  20.571  1.00  0.00    -0.267 OA
HETATM   12  N3  UNL     1      17.853 -14.112  21.444  1.00  0.00    -0.355 N 
ATOM     13  H3  UNL     1      17.900 -13.094  21.466  1.00  0.00     0.162 HD
BRANCH  12  14
HETATM   14  C9  UNL     1      18.759 -14.861  22.271  1.00  0.00     0.151 C 
BRANCH  14  15
HETATM   15  C10 UNL     1      19.928 -14.046  22.706  1.00  0.00     0.256 C 
BRANCH  15  16
HETATM   16  N4  UNL     1      20.335 -14.287  24.060  1.00  0.00    -0.069 N 
HETATM   17  C11 UNL     1      20.017 -15.639  24.483  1.00  0.00     0.272 C 
HETATM   18  C12 UNL     1      21.782 -14.157  24.135  1.00  0.00     0.237 C 
HETATM   19  C13 UNL     1      22.100 -12.766  24.566  1.00  0.00     0.029 C 
HETATM   20  C14 UNL     1      20.815 -12.269  25.189  1.00  0.00     0.029 C 
HETATM   21  C15 UNL     1      19.805 -13.391  25.038  1.00  0.00     0.237 C 
ENDBRANCH  15  16
ENDBRANCH  14  15
ENDBRANCH  12  14
ENDBRANCH   9  10
ENDBRANCH   4   9
BRANCH   1  22
HETATM   22  C4  UNL     1      12.289 -10.708  21.969  1.00  0.00     0.218 C 
HETATM   23  C3  UNL     1      12.928  -9.421  22.470  1.00  0.00     0.067 C 
HETATM   24  C2  UNL     1      11.762  -8.842  23.261  1.00  0.00     0.184 C 
HETATM   25  C1  UNL     1      12.238  -7.926  24.351  1.00  0.00     0.040 C 
HETATM   26  N5  UNL     1      10.979  -9.950  23.736  1.00  0.00    -0.069 N 
HETATM   27  C20 UNL     1      11.585 -11.171  23.213  1.00  0.00     0.266 C 
ATOM     28  H52 UNL     1      10.877  -9.959  24.751  1.00  0.00     0.277 HD
ATOM     29  H51 UNL     1       9.989  -9.866  23.503  1.00  0.00     0.277 HD
ENDBRANCH   1  22
TORSDOF 6
ENDMDL
