MODEL 1
REMARK VINA RESULT: -7.351010334      0.000      0.000
REMARK  6 active torsions:
REMARK  status: ('A' for Active; 'I' for Inactive)
REMARK    1  A    between atoms: C2_2  and  C3_3 
REMARK    2  A    between atoms: N2_13  and  C11_15 
REMARK    3  A    between atoms: C11_15  and  C12_16 
REMARK    4  A    between atoms: C12_16  and  N3_17 
REMARK    5  A    between atoms: N3_17  and  S1_19 
REMARK    6  A    between atoms: S1_19  and  N4_22 
ROOT
HETATM    1  C11 UNL     1      17.625 -13.257  22.475  1.00  0.00     0.258 C 
ENDROOT
BRANCH   1   2
HETATM    2  N2  UNL     1      18.527 -14.356  22.569  1.00  0.00    -0.059 N 
HETATM    3  C2  UNL     1      19.206 -14.339  23.803  1.00  0.00     0.154 C 
HETATM    4  C1  UNL     1      18.151 -14.129  24.906  1.00  0.00     0.049 C 
HETATM    5  C7  UNL     1      19.688 -15.758  24.008  1.00  0.00     0.043 C 
HETATM    6  C8  UNL     1      18.469 -16.535  23.537  1.00  0.00     0.030 C 
HETATM    7  C9  UNL     1      17.704 -15.575  22.690  1.00  0.00     0.238 C 
HETATM    8  C10 UNL     1      19.336 -14.556  21.403  1.00  0.00     0.273 C 
BRANCH   3   9
HETATM    9  C3  UNL     1      20.227 -13.311  24.055  1.00  0.00     0.221 C 
HETATM   10  C4  UNL     1      21.644 -13.662  23.958  1.00  0.00     0.037 C 
HETATM   11  C5  UNL     1      22.314 -12.558  24.782  1.00  0.00     0.029 C 
HETATM   12  C6  UNL     1      21.164 -11.934  25.570  1.00  0.00     0.233 C 
HETATM   13  N1  UNL     1      20.087 -12.902  25.464  1.00  0.00    -0.069 N 
ATOM     14  H12 UNL     1      19.163 -12.565  25.736  1.00  0.00     0.277 HD
ATOM     15  H11 UNL     1      20.106 -13.659  26.147  1.00  0.00     0.277 HD
ENDBRANCH   3   9
ENDBRANCH   1   2
BRANCH   1  16
HETATM   16  C12 UNL     1      17.674 -12.547  21.146  1.00  0.00     0.161 C 
BRANCH  16  17
HETATM   17  N3  UNL     1      17.188 -11.183  21.244  1.00  0.00    -0.301 N 
ATOM     18  H3  UNL     1      17.562 -10.449  21.845  1.00  0.00     0.173 HD
BRANCH  17  19
HETATM   19  S1  UNL     1      15.862 -11.032  20.157  1.00  0.00     0.317 S 
HETATM   20  O1  UNL     1      15.150  -9.738  20.514  1.00  0.00    -0.183 OA
HETATM   21  O2  UNL     1      16.344 -10.872  18.748  1.00  0.00    -0.183 OA
BRANCH  19  22
HETATM   22  N4  UNL     1      14.748 -12.295  20.243  1.00  0.00    -0.291 N 
HETATM   23  C13 UNL     1      14.307 -12.816  18.992  1.00  0.00     0.164 C 
HETATM   24  C14 UNL     1      13.264 -13.885  19.236  1.00  0.00     0.257 C 
HETATM   25  N5  UNL     1      13.433 -14.504  20.542  1.00  0.00    -0.072 N 
HETATM   26  C15 UNL     1      14.744 -15.121  20.609  1.00  0.00     0.272 C 
HETATM   27  C16 UNL     1      12.441 -15.573  20.631  1.00  0.00     0.272 C 
HETATM   28  C17 UNL     1      13.274 -13.557  21.625  1.00  0.00     0.257 C 
HETATM   29  C18 UNL     1      13.733 -12.161  21.238  1.00  0.00     0.164 C 
ENDBRANCH  19  22
ENDBRANCH  17  19
ENDBRANCH  16  17
ENDBRANCH   1  16
TORSDOF 6
ENDMDL
MODEL 2
REMARK VINA RESULT: -7.239805644      1.160      1.310
REMARK  6 active torsions:
REMARK  status: ('A' for Active; 'I' for Inactive)
REMARK    1  A    between atoms: C2_2  and  C3_3 
REMARK    2  A    between atoms: N2_13  and  C11_15 
REMARK    3  A    between atoms: C11_15  and  C12_16 
REMARK    4  A    between atoms: C12_16  and  N3_17 
REMARK    5  A    between atoms: N3_17  and  S1_19 
REMARK    6  A    between atoms: S1_19  and  N4_22 
ROOT
HETATM    1  C11 UNL     1      18.224 -11.749  21.638  1.00  0.00     0.258 C 
ENDROOT
BRANCH   1   2
HETATM    2  N2  UNL     1      18.997 -12.936  21.481  1.00  0.00    -0.059 N 
HETATM    3  C2  UNL     1      19.351 -13.470  22.736  1.00  0.00     0.154 C 
HETATM    4  C1  UNL     1      18.074 -13.507  23.597  1.00  0.00     0.049 C 
HETATM    5  C7  UNL     1      19.668 -14.925  22.470  1.00  0.00     0.043 C 
HETATM    6  C8  UNL     1      18.551 -15.278  21.500  1.00  0.00     0.030 C 
HETATM    7  C9  UNL     1      18.087 -13.971  20.954  1.00  0.00     0.238 C 
HETATM    8  C10 UNL     1      20.052 -12.828  20.518  1.00  0.00     0.273 C 
BRANCH   3   9
HETATM    9  C3  UNL     1      20.347 -12.776  23.565  1.00  0.00     0.221 C 
HETATM   10  C4  UNL     1      21.726 -13.263  23.597  1.00  0.00     0.037 C 
HETATM   11  C5  UNL     1      22.256 -12.667  24.904  1.00  0.00     0.029 C 
HETATM   12  C6  UNL     1      20.997 -12.234  25.651  1.00  0.00     0.233 C 
HETATM   13  N1  UNL     1      19.917 -12.922  24.967  1.00  0.00    -0.069 N 
ATOM     14  H12 UNL     1      18.977 -12.585  25.177  1.00  0.00     0.277 HD
ATOM     15  H11 UNL     1      19.737 -13.877  25.276  1.00  0.00     0.277 HD
ENDBRANCH   3   9
ENDBRANCH   1   2
BRANCH   1  16
HETATM   16  C12 UNL     1      17.328 -11.450  20.463  1.00  0.00     0.161 C 
BRANCH  16  17
HETATM   17  N3  UNL     1      16.055 -10.892  20.882  1.00  0.00    -0.301 N 
ATOM     18  H3  UNL     1      15.873 -10.386  21.748  1.00  0.00     0.173 HD
BRANCH  17  19
HETATM   19  S1  UNL     1      14.910 -11.244  19.646  1.00  0.00     0.317 S 
HETATM   20  O1  UNL     1      13.880 -10.126  19.676  1.00  0.00    -0.183 OA
HETATM   21  O2  UNL     1      15.552 -11.189  18.294  1.00  0.00    -0.183 OA
BRANCH  19  22
HETATM   22  N4  UNL     1      14.108 -12.714  19.843  1.00  0.00    -0.291 N 
HETATM   23  C13 UNL     1      14.142 -13.591  18.720  1.00  0.00     0.164 C 
HETATM   24  C14 UNL     1      13.322 -14.826  19.026  1.00  0.00     0.257 C 
HETATM   25  N5  UNL     1      13.259 -15.080  20.457  1.00  0.00    -0.072 N 
HETATM   26  C15 UNL     1      14.603 -15.287  20.963  1.00  0.00     0.272 C 
HETATM   27  C16 UNL     1      12.530 -16.335  20.628  1.00  0.00     0.272 C 
HETATM   28  C17 UNL     1      12.617 -14.003  21.180  1.00  0.00     0.257 C 
HETATM   29  C18 UNL     1      12.857 -12.652  20.528  1.00  0.00     0.164 C 
ENDBRANCH  19  22
ENDBRANCH  17  19
ENDBRANCH  16  17
ENDBRANCH   1  16
TORSDOF 6
ENDMDL
MODEL 3
REMARK VINA RESULT: -7.161721400      2.488      3.823
REMARK  6 active torsions:
REMARK  status: ('A' for Active; 'I' for Inactive)
REMARK    1  A    between atoms: C2_2  and  C3_3 
REMARK    2  A    between atoms: N2_13  and  C11_15 
REMARK    3  A    between atoms: C11_15  and  C12_16 
REMARK    4  A    between atoms: C12_16  and  N3_17 
REMARK    5  A    between atoms: N3_17  and  S1_19 
REMARK    6  A    between atoms: S1_19  and  N4_22 
ROOT
HETATM    1  C11 UNL     1      17.641 -13.772  20.894  1.00  0.00     0.258 C 
ENDROOT
BRANCH   1   2
HETATM    2  N2  UNL     1      18.584 -12.718  21.064  1.00  0.00    -0.059 N 
HETATM    3  C2  UNL     1      19.723 -13.175  21.756  1.00  0.00     0.154 C 
HETATM    4  C1  UNL     1      20.170 -14.489  21.087  1.00  0.00     0.049 C 
HETATM    5  C7  UNL     1      20.817 -12.187  21.411  1.00  0.00     0.043 C 
HETATM    6  C8  UNL     1      20.549 -11.984  19.929  1.00  0.00     0.030 C 
HETATM    7  C9  UNL     1      19.137 -12.418  19.729  1.00  0.00     0.238 C 
HETATM    8  C10 UNL     1      18.015 -11.487  21.527  1.00  0.00     0.273 C 
BRANCH   3   9
HETATM    9  C3  UNL     1      19.624 -13.493  23.187  1.00  0.00     0.221 C 
HETATM   10  C4  UNL     1      20.381 -12.701  24.157  1.00  0.00     0.037 C 
HETATM   11  C5  UNL     1      20.444 -13.637  25.369  1.00  0.00     0.029 C 
HETATM   12  C6  UNL     1      20.051 -15.000  24.805  1.00  0.00     0.233 C 
HETATM   13  N1  UNL     1      20.180 -14.847  23.367  1.00  0.00    -0.069 N 
ATOM     14  H12 UNL     1      19.746 -15.580  22.805  1.00  0.00     0.277 HD
ATOM     15  H11 UNL     1      21.116 -14.993  22.990  1.00  0.00     0.277 HD
ENDBRANCH   3   9
ENDBRANCH   1   2
BRANCH   1  16
HETATM   16  C12 UNL     1      16.386 -13.598  21.710  1.00  0.00     0.161 C 
BRANCH  16  17
HETATM   17  N3  UNL     1      15.687 -14.855  21.903  1.00  0.00    -0.301 N 
ATOM     18  H3  UNL     1      16.035 -15.668  22.411  1.00  0.00     0.173 HD
BRANCH  17  19
HETATM   19  S1  UNL     1      14.164 -14.722  21.115  1.00  0.00     0.317 S 
HETATM   20  O1  UNL     1      14.307 -15.414  19.768  1.00  0.00    -0.183 OA
HETATM   21  O2  UNL     1      13.108 -15.475  21.864  1.00  0.00    -0.183 OA
BRANCH  19  22
HETATM   22  N4  UNL     1      13.658 -13.135  20.847  1.00  0.00    -0.291 N 
HETATM   23  C13 UNL     1      12.656 -12.648  21.735  1.00  0.00     0.164 C 
HETATM   24  C14 UNL     1      12.261 -11.247  21.323  1.00  0.00     0.257 C 
HETATM   25  N5  UNL     1      13.341 -10.577  20.614  1.00  0.00    -0.072 N 
HETATM   26  C15 UNL     1      14.497 -10.488  21.487  1.00  0.00     0.272 C 
HETATM   27  C16 UNL     1      12.887  -9.214  20.350  1.00  0.00     0.272 C 
HETATM   28  C17 UNL     1      13.697 -11.255  19.386  1.00  0.00     0.257 C 
HETATM   29  C18 UNL     1      13.495 -12.758  19.480  1.00  0.00     0.164 C 
ENDBRANCH  19  22
ENDBRANCH  17  19
ENDBRANCH  16  17
ENDBRANCH   1  16
TORSDOF 6
ENDMDL
MODEL 4
REMARK VINA RESULT: -7.103169363      2.346      7.217
REMARK  6 active torsions:
REMARK  status: ('A' for Active; 'I' for Inactive)
REMARK    1  A    between atoms: C2_2  and  C3_3 
REMARK    2  A    between atoms: N2_13  and  C11_15 
REMARK    3  A    between atoms: C11_15  and  C12_16 
REMARK    4  A    between atoms: C12_16  and  N3_17 
REMARK    5  A    between atoms: N3_17  and  S1_19 
REMARK    6  A    between atoms: S1_19  and  N4_22 
ROOT
HETATM    1  C11 UNL     1      15.808 -10.904  20.885  1.00  0.00     0.258 C 
ENDROOT
BRANCH   1   2
HETATM    2  N2  UNL     1      14.855 -11.963  20.885  1.00  0.00    -0.059 N 
HETATM    3  C2  UNL     1      13.544 -11.455  20.973  1.00  0.00     0.154 C 
HETATM    4  C1  UNL     1      13.419 -10.325  19.933  1.00  0.00     0.049 C 
HETATM    5  C7  UNL     1      12.657 -12.558  20.438  1.00  0.00     0.043 C 
HETATM    6  C8  UNL     1      13.482 -13.025  19.250  1.00  0.00     0.030 C 
HETATM    7  C9  UNL     1      14.867 -12.548  19.530  1.00  0.00     0.238 C 
HETATM    8  C10 UNL     1      15.176 -13.044  21.771  1.00  0.00     0.273 C 
BRANCH   3   9
HETATM    9  C3  UNL     1      13.079 -10.862  22.235  1.00  0.00     0.221 C 
HETATM   10  C4  UNL     1      11.830 -11.330  22.836  1.00  0.00     0.037 C 
HETATM   11  C5  UNL     1      11.446 -10.164  23.751  1.00  0.00     0.029 C 
HETATM   12  C6  UNL     1      12.320  -9.010  23.265  1.00  0.00     0.233 C 
HETATM   13  N1  UNL     1      12.797  -9.440  21.964  1.00  0.00    -0.069 N 
ATOM     14  H12 UNL     1      13.574  -8.902  21.579  1.00  0.00     0.277 HD
ATOM     15  H11 UNL     1      12.169  -9.256  21.181  1.00  0.00     0.277 HD
ENDBRANCH   3   9
ENDBRANCH   1   2
BRANCH   1  16
HETATM   16  C12 UNL     1      17.127 -11.277  20.258  1.00  0.00     0.161 C 
BRANCH  16  17
HETATM   17  N3  UNL     1      18.207 -11.270  21.227  1.00  0.00    -0.301 N 
ATOM     18  H3  UNL     1      18.398 -10.541  21.914  1.00  0.00     0.173 HD
BRANCH  17  19
HETATM   19  S1  UNL     1      19.107 -12.719  21.002  1.00  0.00     0.317 S 
HETATM   20  O1  UNL     1      18.136 -13.756  20.463  1.00  0.00    -0.183 OA
HETATM   21  O2  UNL     1      20.156 -12.537  19.948  1.00  0.00    -0.183 OA
BRANCH  19  22
HETATM   22  N4  UNL     1      19.808 -13.326  22.411  1.00  0.00    -0.291 N 
HETATM   23  C13 UNL     1      20.429 -14.603  22.292  1.00  0.00     0.164 C 
HETATM   24  C14 UNL     1      20.941 -15.038  23.647  1.00  0.00     0.257 C 
HETATM   25  N5  UNL     1      21.227 -13.893  24.500  1.00  0.00    -0.072 N 
HETATM   26  C15 UNL     1      22.244 -13.073  23.868  1.00  0.00     0.272 C 
HETATM   27  C16 UNL     1      21.798 -14.423  25.735  1.00  0.00     0.272 C 
HETATM   28  C17 UNL     1      20.047 -13.101  24.770  1.00  0.00     0.257 C 
HETATM   29  C18 UNL     1      19.063 -13.121  23.612  1.00  0.00     0.164 C 
ENDBRANCH  19  22
ENDBRANCH  17  19
ENDBRANCH  16  17
ENDBRANCH   1  16
TORSDOF 6
ENDMDL
MODEL 5
REMARK VINA RESULT: -7.076034285      1.196      1.697
REMARK  6 active torsions:
REMARK  status: ('A' for Active; 'I' for Inactive)
REMARK    1  A    between atoms: C2_2  and  C3_3 
REMARK    2  A    between atoms: N2_13  and  C11_15 
REMARK    3  A    between atoms: C11_15  and  C12_16 
REMARK    4  A    between atoms: C12_16  and  N3_17 
REMARK    5  A    between atoms: N3_17  and  S1_19 
REMARK    6  A    between atoms: S1_19  and  N4_22 
ROOT
HETATM    1  C11 UNL     1      18.037 -12.134  21.916  1.00  0.00     0.258 C 
ENDROOT
BRANCH   1   2
HETATM    2  N2  UNL     1      18.960 -13.190  21.660  1.00  0.00    -0.059 N 
HETATM    3  C2  UNL     1      19.480 -13.701  22.865  1.00  0.00     0.154 C 
HETATM    4  C1  UNL     1      18.289 -13.950  23.810  1.00  0.00     0.049 C 
HETATM    5  C7  UNL     1      19.984 -15.086  22.521  1.00  0.00     0.043 C 
HETATM    6  C8  UNL     1      18.862 -15.572  21.618  1.00  0.00     0.030 C 
HETATM    7  C9  UNL     1      18.174 -14.332  21.156  1.00  0.00     0.238 C 
HETATM    8  C10 UNL     1      19.915 -12.900  20.630  1.00  0.00     0.273 C 
BRANCH   3   9
HETATM    9  C3  UNL     1      20.423 -12.891  23.649  1.00  0.00     0.221 C 
HETATM   10  C4  UNL     1      21.834 -13.276  23.705  1.00  0.00     0.037 C 
HETATM   11  C5  UNL     1      22.319 -12.571  24.975  1.00  0.00     0.029 C 
HETATM   12  C6  UNL     1      21.031 -12.186  25.700  1.00  0.00     0.233 C 
HETATM   13  N1  UNL     1      20.003 -12.987  25.060  1.00  0.00    -0.069 N 
ATOM     14  H12 UNL     1      19.042 -12.708  25.253  1.00  0.00     0.277 HD
ATOM     15  H11 UNL     1      19.892 -13.934  25.423  1.00  0.00     0.277 HD
ENDBRANCH   3   9
ENDBRANCH   1   2
BRANCH   1  16
HETATM   16  C12 UNL     1      17.643 -11.363  20.682  1.00  0.00     0.161 C 
BRANCH  16  17
HETATM   17  N3  UNL     1      16.322 -10.776  20.811  1.00  0.00    -0.301 N 
ATOM     18  H3  UNL     1      16.012 -10.141  21.546  1.00  0.00     0.173 HD
BRANCH  17  19
HETATM   19  S1  UNL     1      15.375 -11.349  19.493  1.00  0.00     0.317 S 
HETATM   20  O1  UNL     1      14.162 -10.439  19.399  1.00  0.00    -0.183 OA
HETATM   21  O2  UNL     1      16.115 -11.198  18.200  1.00  0.00    -0.183 OA
BRANCH  19  22
HETATM   22  N4  UNL     1      14.837 -12.938  19.666  1.00  0.00    -0.291 N 
HETATM   23  C13 UNL     1      14.583 -13.363  21.002  1.00  0.00     0.164 C 
HETATM   24  C14 UNL     1      14.181 -14.821  20.995  1.00  0.00     0.257 C 
HETATM   25  N5  UNL     1      13.582 -15.201  19.724  1.00  0.00    -0.072 N 
HETATM   26  C15 UNL     1      12.395 -14.398  19.499  1.00  0.00     0.272 C 
HETATM   27  C16 UNL     1      13.151 -16.590  19.862  1.00  0.00     0.272 C 
HETATM   28  C17 UNL     1      14.501 -15.050  18.616  1.00  0.00     0.257 C 
HETATM   29  C18 UNL     1      15.476 -13.904  18.831  1.00  0.00     0.164 C 
ENDBRANCH  19  22
ENDBRANCH  17  19
ENDBRANCH  16  17
ENDBRANCH   1  16
TORSDOF 6
ENDMDL
