MODEL 1
REMARK VINA RESULT: -7.503755684      0.000      0.000
REMARK  6 active torsions:
REMARK  status: ('A' for Active; 'I' for Inactive)
REMARK       I    between atoms: N1_4  and  C4_5 
REMARK       I    between atoms: C4_5  and  N2_7 
REMARK    1  A    between atoms: N2_7  and  N3_9 
REMARK    2  A    between atoms: C10_16  and  C11_17 
REMARK    3  A    between atoms: C11_17  and  C12_18 
REMARK    4  A    between atoms: C12_18  and  N4_19 
REMARK    5  A    between atoms: N4_19  and  C15_22 
REMARK    6  A    between atoms: C15_22  and  N5_23 
ROOT
HETATM    1  C1  UNL     1      16.890 -12.820  22.271  1.00  0.00     0.015 C 
HETATM    2  C2  UNL     1      17.563 -13.379  21.026  1.00  0.00     0.037 C 
HETATM    3  C3  UNL     1      18.638 -14.314  21.419  1.00  0.00     0.135 C 
HETATM    4  N1  UNL     1      19.911 -13.659  21.620  1.00  0.00    -0.330 N 
HETATM    5  C4  UNL     1      20.717 -13.946  22.787  1.00  0.00     0.342 C 
HETATM    6  O1  UNL     1      20.211 -14.767  23.579  1.00  0.00    -0.245 OA
HETATM    7  N2  UNL     1      21.974 -13.352  23.023  1.00  0.00    -0.168 N 
ATOM      8  H2  UNL     1      22.309 -12.688  22.325  1.00  0.00     0.198 HD
HETATM    9  C8  UNL     1      20.353 -12.732  20.632  1.00  0.00     0.162 C 
HETATM   10  C9  UNL     1      19.286 -11.862  20.039  1.00  0.00     0.175 A 
HETATM   11  O2  UNL     1      18.485 -11.113  20.889  1.00  0.00    -0.367 OA
HETATM   12  C10 UNL     1      17.934 -12.255  20.128  1.00  0.00     0.095 A 
ENDROOT
BRANCH  12  13
HETATM   13  C11 UNL     1      16.971 -11.781  19.060  1.00  0.00     0.069 C 
BRANCH  13  14
HETATM   14  C12 UNL     1      15.780 -11.117  19.636  1.00  0.00     0.241 C 
BRANCH  14  15
HETATM   15  N4  UNL     1      14.512 -11.554  19.019  1.00  0.00    -0.051 N 
HETATM   16  C13 UNL     1      14.730 -11.478  17.607  1.00  0.00     0.274 C 
HETATM   17  C14 UNL     1      14.358 -13.008  19.271  1.00  0.00     0.274 C 
BRANCH  15  18
HETATM   18  C15 UNL     1      13.434 -10.901  19.605  1.00  0.00     0.471 C 
BRANCH  18  19
HETATM   19  N5  UNL     1      13.430 -10.502  20.972  1.00  0.00    -0.047 N 
HETATM   20  C16 UNL     1      14.159  -9.265  21.211  1.00  0.00     0.274 C 
HETATM   21  C17 UNL     1      13.512 -11.474  21.994  1.00  0.00     0.240 C 
HETATM   22  C18 UNL     1      12.029 -11.484  22.263  1.00  0.00     0.056 C 
HETATM   23  C19 UNL     1      12.033 -10.258  21.390  1.00  0.00     0.240 C 
ENDBRANCH  18  19
ENDBRANCH  15  18
ENDBRANCH  14  15
ENDBRANCH  13  14
ENDBRANCH  12  13
BRANCH   7  24
HETATM   24  N3  UNL     1      22.788 -13.582  24.100  1.00  0.00     0.004 N 
HETATM   25  C5  UNL     1      24.092 -12.959  23.842  1.00  0.00     0.301 C 
HETATM   26  C6  UNL     1      23.007 -14.946  24.432  1.00  0.00     0.301 C 
HETATM   27  C7  UNL     1      22.230 -12.932  25.289  1.00  0.00     0.301 C 
ENDBRANCH   7  24
TORSDOF 6
ENDMDL
MODEL 2
REMARK VINA RESULT: -7.451467708      1.782      7.968
REMARK  6 active torsions:
REMARK  status: ('A' for Active; 'I' for Inactive)
REMARK       I    between atoms: N1_4  and  C4_5 
REMARK       I    between atoms: C4_5  and  N2_7 
REMARK    1  A    between atoms: N2_7  and  N3_9 
REMARK    2  A    between atoms: C10_16  and  C11_17 
REMARK    3  A    between atoms: C11_17  and  C12_18 
REMARK    4  A    between atoms: C12_18  and  N4_19 
REMARK    5  A    between atoms: N4_19  and  C15_22 
REMARK    6  A    between atoms: C15_22  and  N5_23 
ROOT
HETATM    1  C1  UNL     1      19.137 -11.281  20.097  1.00  0.00     0.015 C 
HETATM    2  C2  UNL     1      18.535 -12.678  20.134  1.00  0.00     0.037 C 
HETATM    3  C3  UNL     1      17.132 -12.627  19.672  1.00  0.00     0.135 C 
HETATM    4  N1  UNL     1      16.194 -12.367  20.741  1.00  0.00    -0.330 N 
HETATM    5  C4  UNL     1      15.146 -11.382  20.585  1.00  0.00     0.342 C 
HETATM    6  O1  UNL     1      15.147 -10.791  19.486  1.00  0.00    -0.245 OA
HETATM    7  N2  UNL     1      14.193 -11.103  21.587  1.00  0.00    -0.168 N 
ATOM      8  H2  UNL     1      14.269 -11.630  22.456  1.00  0.00     0.198 HD
HETATM    9  C8  UNL     1      16.326 -13.114  21.947  1.00  0.00     0.162 C 
HETATM   10  C9  UNL     1      17.733 -13.376  22.395  1.00  0.00     0.175 A 
HETATM   11  O2  UNL     1      18.594 -12.299  22.554  1.00  0.00    -0.367 OA
HETATM   12  C10 UNL     1      18.790 -13.282  21.467  1.00  0.00     0.095 A 
ENDROOT
BRANCH  12  13
HETATM   13  C11 UNL     1      20.036 -14.111  21.703  1.00  0.00     0.069 C 
BRANCH  13  14
HETATM   14  C12 UNL     1      19.723 -15.452  22.243  1.00  0.00     0.241 C 
BRANCH  14  15
HETATM   15  N4  UNL     1      20.505 -15.795  23.447  1.00  0.00    -0.051 N 
HETATM   16  C13 UNL     1      19.545 -16.241  24.410  1.00  0.00     0.274 C 
HETATM   17  C14 UNL     1      21.293 -17.017  23.147  1.00  0.00     0.274 C 
BRANCH  15  18
HETATM   18  C15 UNL     1      21.397 -14.775  23.756  1.00  0.00     0.471 C 
BRANCH  18  19
HETATM   19  N5  UNL     1      21.448 -14.165  25.042  1.00  0.00    -0.047 N 
HETATM   20  C16 UNL     1      22.103 -14.993  26.044  1.00  0.00     0.274 C 
HETATM   21  C17 UNL     1      20.364 -13.383  25.498  1.00  0.00     0.240 C 
HETATM   22  C18 UNL     1      21.008 -12.069  25.136  1.00  0.00     0.056 C 
HETATM   23  C19 UNL     1      22.236 -12.917  24.942  1.00  0.00     0.240 C 
ENDBRANCH  18  19
ENDBRANCH  15  18
ENDBRANCH  14  15
ENDBRANCH  13  14
ENDBRANCH  12  13
BRANCH   7  24
HETATM   24  N3  UNL     1      13.174 -10.191  21.502  1.00  0.00     0.004 N 
HETATM   25  C5  UNL     1      11.913 -10.866  21.832  1.00  0.00     0.301 C 
HETATM   26  C6  UNL     1      13.019  -9.549  20.245  1.00  0.00     0.301 C 
HETATM   27  C7  UNL     1      13.371  -9.138  22.503  1.00  0.00     0.301 C 
ENDBRANCH   7  24
TORSDOF 6
ENDMDL
MODEL 3
REMARK VINA RESULT: -7.336020070      1.205      2.034
REMARK  6 active torsions:
REMARK  status: ('A' for Active; 'I' for Inactive)
REMARK       I    between atoms: N1_4  and  C4_5 
REMARK       I    between atoms: C4_5  and  N2_7 
REMARK    1  A    between atoms: N2_7  and  N3_9 
REMARK    2  A    between atoms: C10_16  and  C11_17 
REMARK    3  A    between atoms: C11_17  and  C12_18 
REMARK    4  A    between atoms: C12_18  and  N4_19 
REMARK    5  A    between atoms: N4_19  and  C15_22 
REMARK    6  A    between atoms: C15_22  and  N5_23 
ROOT
HETATM    1  C1  UNL     1      16.954 -12.774  22.171  1.00  0.00     0.015 C 
HETATM    2  C2  UNL     1      17.655 -13.312  20.932  1.00  0.00     0.037 C 
HETATM    3  C3  UNL     1      18.715 -14.262  21.334  1.00  0.00     0.135 C 
HETATM    4  N1  UNL     1      19.986 -13.620  21.580  1.00  0.00    -0.330 N 
HETATM    5  C4  UNL     1      20.760 -13.935  22.761  1.00  0.00     0.342 C 
HETATM    6  O1  UNL     1      20.230 -14.769  23.523  1.00  0.00    -0.245 OA
HETATM    7  N2  UNL     1      22.015 -13.354  23.041  1.00  0.00    -0.168 N 
ATOM      8  H2  UNL     1      22.371 -12.679  22.365  1.00  0.00     0.198 HD
HETATM    9  C8  UNL     1      20.459 -12.675  20.623  1.00  0.00     0.162 C 
HETATM   10  C9  UNL     1      19.412 -11.787  20.020  1.00  0.00     0.175 A 
HETATM   11  O2  UNL     1      18.595 -11.050  20.866  1.00  0.00    -0.367 OA
HETATM   12  C10 UNL     1      18.057 -12.173  20.068  1.00  0.00     0.095 A 
ENDROOT
BRANCH  12  13
HETATM   13  C11 UNL     1      17.123 -11.670  18.986  1.00  0.00     0.069 C 
BRANCH  13  14
HETATM   14  C12 UNL     1      16.103 -12.676  18.616  1.00  0.00     0.241 C 
BRANCH  14  15
HETATM   15  N4  UNL     1      14.721 -12.168  18.707  1.00  0.00    -0.051 N 
HETATM   16  C13 UNL     1      14.747 -11.178  19.740  1.00  0.00     0.274 C 
HETATM   17  C14 UNL     1      14.439 -11.383  17.479  1.00  0.00     0.274 C 
BRANCH  15  18
HETATM   18  C15 UNL     1      13.815 -13.222  18.759  1.00  0.00     0.471 C 
BRANCH  18  19
HETATM   19  N5  UNL     1      13.269 -13.703  19.983  1.00  0.00    -0.047 N 
HETATM   20  C16 UNL     1      12.394 -12.742  20.638  1.00  0.00     0.274 C 
HETATM   21  C17 UNL     1      14.050 -14.511  20.837  1.00  0.00     0.240 C 
HETATM   22  C18 UNL     1      13.445 -15.806  20.359  1.00  0.00     0.056 C 
HETATM   23  C19 UNL     1      12.445 -14.898  19.694  1.00  0.00     0.240 C 
ENDBRANCH  18  19
ENDBRANCH  15  18
ENDBRANCH  14  15
ENDBRANCH  13  14
ENDBRANCH  12  13
BRANCH   7  24
HETATM   24  N3  UNL     1      22.800 -13.612  24.133  1.00  0.00     0.004 N 
HETATM   25  C5  UNL     1      24.113 -12.991  23.922  1.00  0.00     0.301 C 
HETATM   26  C6  UNL     1      23.003 -14.983  24.442  1.00  0.00     0.301 C 
HETATM   27  C7  UNL     1      22.214 -12.984  25.321  1.00  0.00     0.301 C 
ENDBRANCH   7  24
TORSDOF 6
ENDMDL
MODEL 4
REMARK VINA RESULT: -7.244332648      2.271      3.102
REMARK  6 active torsions:
REMARK  status: ('A' for Active; 'I' for Inactive)
REMARK       I    between atoms: N1_4  and  C4_5 
REMARK       I    between atoms: C4_5  and  N2_7 
REMARK    1  A    between atoms: N2_7  and  N3_9 
REMARK    2  A    between atoms: C10_16  and  C11_17 
REMARK    3  A    between atoms: C11_17  and  C12_18 
REMARK    4  A    between atoms: C12_18  and  N4_19 
REMARK    5  A    between atoms: N4_19  and  C15_22 
REMARK    6  A    between atoms: C15_22  and  N5_23 
ROOT
HETATM    1  C1  UNL     1      20.541 -12.489  24.262  1.00  0.00     0.015 C 
HETATM    2  C2  UNL     1      19.517 -13.410  23.616  1.00  0.00     0.037 C 
HETATM    3  C3  UNL     1      19.795 -14.810  24.001  1.00  0.00     0.135 C 
HETATM    4  N1  UNL     1      20.718 -15.470  23.105  1.00  0.00    -0.330 N 
HETATM    5  C4  UNL     1      21.825 -16.247  23.621  1.00  0.00     0.342 C 
HETATM    6  O1  UNL     1      21.908 -16.271  24.866  1.00  0.00    -0.245 OA
HETATM    7  N2  UNL     1      22.743 -16.927  22.793  1.00  0.00    -0.168 N 
ATOM      8  H2  UNL     1      22.601 -16.849  21.786  1.00  0.00     0.198 HD
HETATM    9  C8  UNL     1      20.501 -15.341  21.703  1.00  0.00     0.162 C 
HETATM   10  C9  UNL     1      20.033 -13.994  21.242  1.00  0.00     0.175 A 
HETATM   11  O2  UNL     1      20.778 -12.875  21.586  1.00  0.00    -0.367 OA
HETATM   12  C10 UNL     1      19.438 -13.108  22.164  1.00  0.00     0.095 A 
ENDROOT
BRANCH  12  13
HETATM   13  C11 UNL     1      18.441 -12.090  21.649  1.00  0.00     0.069 C 
BRANCH  13  14
HETATM   14  C12 UNL     1      17.046 -12.453  21.986  1.00  0.00     0.241 C 
BRANCH  14  15
HETATM   15  N4  UNL     1      16.089 -12.167  20.900  1.00  0.00    -0.051 N 
HETATM   16  C13 UNL     1      16.731 -11.191  20.075  1.00  0.00     0.274 C 
HETATM   17  C14 UNL     1      16.016 -13.367  20.028  1.00  0.00     0.274 C 
BRANCH  15  18
HETATM   18  C15 UNL     1      14.820 -11.935  21.416  1.00  0.00     0.471 C 
BRANCH  18  19
HETATM   19  N5  UNL     1      13.962 -10.916  20.911  1.00  0.00    -0.047 N 
HETATM   20  C16 UNL     1      13.547 -11.145  19.536  1.00  0.00     0.274 C 
HETATM   21  C17 UNL     1      14.172  -9.568  21.277  1.00  0.00     0.240 C 
HETATM   22  C18 UNL     1      13.109  -9.572  22.346  1.00  0.00     0.056 C 
HETATM   23  C19 UNL     1      12.729 -10.890  21.728  1.00  0.00     0.240 C 
ENDBRANCH  18  19
ENDBRANCH  15  18
ENDBRANCH  14  15
ENDBRANCH  13  14
ENDBRANCH  12  13
BRANCH   7  24
HETATM   24  N3  UNL     1      23.805 -17.682  23.214  1.00  0.00     0.004 N 
HETATM   25  C5  UNL     1      24.495 -18.217  22.034  1.00  0.00     0.301 C 
HETATM   26  C6  UNL     1      23.492 -18.768  24.075  1.00  0.00     0.301 C 
HETATM   27  C7  UNL     1      24.765 -16.831  23.924  1.00  0.00     0.301 C 
ENDBRANCH   7  24
TORSDOF 6
ENDMDL
MODEL 5
REMARK VINA RESULT: -7.201716255      1.791      3.485
REMARK  6 active torsions:
REMARK  status: ('A' for Active; 'I' for Inactive)
REMARK       I    between atoms: N1_4  and  C4_5 
REMARK       I    between atoms: C4_5  and  N2_7 
REMARK    1  A    between atoms: N2_7  and  N3_9 
REMARK    2  A    between atoms: C10_16  and  C11_17 
REMARK    3  A    between atoms: C11_17  and  C12_18 
REMARK    4  A    between atoms: C12_18  and  N4_19 
REMARK    5  A    between atoms: N4_19  and  C15_22 
REMARK    6  A    between atoms: C15_22  and  N5_23 
ROOT
HETATM    1  C1  UNL     1      16.742 -12.911  22.304  1.00  0.00     0.015 C 
HETATM    2  C2  UNL     1      17.445 -13.261  21.001  1.00  0.00     0.037 C 
HETATM    3  C3  UNL     1      18.538 -14.220  21.269  1.00  0.00     0.135 C 
HETATM    4  N1  UNL     1      19.792 -13.575  21.588  1.00  0.00    -0.330 N 
HETATM    5  C4  UNL     1      20.588 -14.015  22.712  1.00  0.00     0.342 C 
HETATM    6  O1  UNL     1      20.092 -14.957  23.363  1.00  0.00    -0.245 OA
HETATM    7  N2  UNL     1      21.828 -13.435  23.056  1.00  0.00    -0.168 N 
ATOM      8  H2  UNL     1      22.155 -12.667  22.471  1.00  0.00     0.198 HD
HETATM    9  C8  UNL     1      20.224 -12.500  20.757  1.00  0.00     0.162 C 
HETATM   10  C9  UNL     1      19.144 -11.576  20.282  1.00  0.00     0.175 A 
HETATM   11  O2  UNL     1      18.313 -10.981  21.222  1.00  0.00    -0.367 OA
HETATM   12  C10 UNL     1      17.801 -12.007  20.289  1.00  0.00     0.095 A 
ENDROOT
BRANCH  12  13
HETATM   13  C11 UNL     1      16.841 -11.400  19.288  1.00  0.00     0.069 C 
BRANCH  13  14
HETATM   14  C12 UNL     1      16.610 -12.285  18.125  1.00  0.00     0.241 C 
BRANCH  14  15
HETATM   15  N4  UNL     1      15.196 -12.344  17.707  1.00  0.00    -0.051 N 
HETATM   16  C13 UNL     1      14.843 -13.730  17.753  1.00  0.00     0.274 C 
HETATM   17  C14 UNL     1      14.375 -11.738  18.785  1.00  0.00     0.274 C 
BRANCH  15  18
HETATM   18  C15 UNL     1      14.998 -11.601  16.548  1.00  0.00     0.471 C 
BRANCH  18  19
HETATM   19  N5  UNL     1      15.953 -11.558  15.493  1.00  0.00    -0.047 N 
HETATM   20  C16 UNL     1      16.073 -12.819  14.777  1.00  0.00     0.274 C 
HETATM   21  C17 UNL     1      17.146 -10.819  15.647  1.00  0.00     0.240 C 
HETATM   22  C18 UNL     1      16.638  -9.620  14.887  1.00  0.00     0.056 C 
HETATM   23  C19 UNL     1      15.518 -10.549  14.503  1.00  0.00     0.240 C 
ENDBRANCH  18  19
ENDBRANCH  15  18
ENDBRANCH  14  15
ENDBRANCH  13  14
ENDBRANCH  12  13
BRANCH   7  24
HETATM   24  N3  UNL     1      22.632 -13.807  24.100  1.00  0.00     0.004 N 
HETATM   25  C5  UNL     1      23.934 -13.146  23.945  1.00  0.00     0.301 C 
HETATM   26  C6  UNL     1      22.857 -15.201  24.245  1.00  0.00     0.301 C 
HETATM   27  C7  UNL     1      22.057 -13.329  25.361  1.00  0.00     0.301 C 
ENDBRANCH   7  24
TORSDOF 6
ENDMDL
