MODEL 1
REMARK VINA RESULT: -8.742716911      0.000      0.000
REMARK  14 active torsions:
REMARK  status: ('A' for Active; 'I' for Inactive)
REMARK    1  A    between atoms: C2_2  and  C3_3 
REMARK    2  A    between atoms: C3_3  and  N1_4 
REMARK       I    between atoms: N1_4  and  C4_6 
REMARK    3  A    between atoms: C4_6  and  C5_8 
REMARK    4  A    between atoms: C6_9  and  O2_10 
REMARK    5  A    between atoms: O2_10  and  C7_11 
REMARK    6  A    between atoms: C7_11  and  C8_13 
REMARK    7  A    between atoms: C8_13  and  N2_14 
REMARK    8  A    between atoms: C8_13  and  C25_40 
REMARK       I    between atoms: N2_14  and  C9_16 
REMARK    9  A    between atoms: C9_16  and  C10_18 
REMARK   10  A    between atoms: C10_18  and  N3_19 
REMARK   11  A    between atoms: C10_18  and  C21_36 
REMARK       I    between atoms: N3_19  and  C11_21 
REMARK       I    between atoms: C11_21  and  N4_23 
REMARK       I    between atoms: N5_26  and  C14_27 
REMARK   12  A    between atoms: C14_27  and  O7_29 
REMARK   13  A    between atoms: O7_29  and  C15_30 
REMARK   14  A    between atoms: N6_46  and  S1_47 
ROOT
HETATM    1  N2  UNL     1     -35.633  -3.401 -18.671  1.00  0.00    -0.345 N 
ATOM      2  H2  UNL     1     -35.127  -3.172 -19.526  1.00  0.00     0.163 HD
HETATM    3  C9  UNL     1     -36.816  -2.705 -18.405  1.00  0.00     0.242 C 
HETATM    4  O4  UNL     1     -37.421  -3.020 -17.324  1.00  0.00    -0.271 OA
ENDROOT
BRANCH   1   5
HETATM    5  C8  UNL     1     -35.079  -4.431 -17.804  1.00  0.00     0.191 C 
BRANCH   5   6
HETATM    6  C7  UNL     1     -34.762  -5.656 -18.571  1.00  0.00     0.284 C 
HETATM    7  O3  UNL     1     -33.652  -5.804 -19.150  1.00  0.00    -0.263 OA
BRANCH   6   8
HETATM    8  O2  UNL     1     -35.676  -6.672 -18.675  1.00  0.00    -0.286 OA
BRANCH   8   9
HETATM    9  C6  UNL     1     -37.052  -6.499 -18.336  1.00  0.00     0.298 C 
HETATM   10  C5  UNL     1     -37.926  -6.914 -19.535  1.00  0.00     0.223 C 
HETATM   11  N6  UNL     1     -37.570  -8.280 -19.618  1.00  0.00    -0.170 NA
HETATM   12  C29 UNL     1     -37.527  -8.674 -18.225  1.00  0.00     0.280 C 
HETATM   13  O8  UNL     1     -37.380  -7.520 -17.458  1.00  0.00    -0.344 OA
BRANCH  10  14
HETATM   14  C4  UNL     1     -39.331  -6.654 -19.241  1.00  0.00     0.241 C 
HETATM   15  N1  UNL     1     -39.852  -6.366 -17.949  1.00  0.00    -0.356 N 
ATOM     16  H1  UNL     1     -39.206  -6.342 -17.160  1.00  0.00     0.162 HD
HETATM   17  O1  UNL     1     -40.179  -6.676 -20.168  1.00  0.00    -0.272 OA
BRANCH  15  18
HETATM   18  C3  UNL     1     -41.246  -6.108 -17.700  1.00  0.00     0.149 C 
BRANCH  18  19
HETATM   19  C2  UNL     1     -41.531  -5.380 -16.458  1.00  0.00    -0.018 C 
HETATM   20  C1  UNL     1     -42.042  -4.157 -16.467  1.00  0.00     0.008 C 
ENDBRANCH  18  19
ENDBRANCH  15  18
ENDBRANCH  10  14
BRANCH  11  21
HETATM   21  S1  UNL     1     -38.354  -9.321 -20.661  1.00  0.00     0.210 S 
HETATM   22  C30 UNL     1     -38.213  -8.710 -22.331  1.00  0.00     0.180 C 
HETATM   23  O9  UNL     1     -39.715  -9.771 -20.309  1.00  0.00    -0.211 OA
HETATM   24  O10 UNL     1     -37.502 -10.621 -20.683  1.00  0.00    -0.211 OA
ENDBRANCH  11  21
ENDBRANCH   8   9
ENDBRANCH   6   8
ENDBRANCH   5   6
BRANCH   5  25
HETATM   25  C25 UNL     1     -33.859  -3.902 -17.107  1.00  0.00    -0.022 C 
HETATM   26  C26 UNL     1     -33.078  -5.013 -16.443  1.00  0.00     0.017 C 
HETATM   27  C27 UNL     1     -32.961  -3.132 -18.074  1.00  0.00     0.017 C 
HETATM   28  C28 UNL     1     -34.236  -2.928 -16.012  1.00  0.00     0.017 C 
ENDBRANCH   5  25
ENDBRANCH   1   5
BRANCH   3  29
HETATM   29  C10 UNL     1     -37.407  -1.667 -19.244  1.00  0.00     0.185 C 
BRANCH  29  30
HETATM   30  N3  UNL     1     -37.387  -0.372 -18.551  1.00  0.00    -0.329 N 
HETATM   31  C11 UNL     1     -36.187   0.260 -18.165  1.00  0.00     0.319 C 
HETATM   32  O5  UNL     1     -35.121  -0.374 -18.455  1.00  0.00    -0.247 OA
HETATM   33  N4  UNL     1     -36.067   1.499 -17.505  1.00  0.00    -0.331 N 
HETATM   34  C12 UNL     1     -37.268   2.237 -17.183  1.00  0.00     0.147 C 
HETATM   35  C20 UNL     1     -34.748   1.979 -17.178  1.00  0.00     0.147 C 
HETATM   36  C13 UNL     1     -37.050   3.729 -17.344  1.00  0.00     0.148 C 
HETATM   37  N5  UNL     1     -35.799   4.152 -16.768  1.00  0.00    -0.325 N 
HETATM   38  C14 UNL     1     -35.802   5.263 -15.880  1.00  0.00     0.363 C 
HETATM   39  C19 UNL     1     -34.593   3.450 -17.110  1.00  0.00     0.148 C 
HETATM   40  O6  UNL     1     -36.868   5.886 -15.603  1.00  0.00    -0.238 OA
ATOM     41  H3  UNL     1     -38.274   0.086 -18.341  1.00  0.00     0.165 HD
BRANCH  38  42
HETATM   42  O7  UNL     1     -34.640   5.725 -15.265  1.00  0.00    -0.294 OA
BRANCH  42  43
HETATM   43  C15 UNL     1     -34.533   5.876 -13.867  1.00  0.00     0.061 C 
HETATM   44  C16 UNL     1     -35.328   4.855 -13.093  1.00  0.00     0.046 C 
HETATM   45  C17 UNL     1     -34.883   7.253 -13.393  1.00  0.00     0.046 C 
HETATM   46  C18 UNL     1     -33.064   5.632 -13.512  1.00  0.00     0.046 C 
ENDBRANCH  42  43
ENDBRANCH  38  42
ENDBRANCH  29  30
BRANCH  29  47
HETATM   47  C21 UNL     1     -38.840  -1.886 -19.639  1.00  0.00    -0.022 C 
HETATM   48  C22 UNL     1     -39.763  -1.958 -18.457  1.00  0.00     0.017 C 
HETATM   49  C23 UNL     1     -39.078  -3.069 -20.527  1.00  0.00     0.017 C 
HETATM   50  C24 UNL     1     -39.287  -0.649 -20.441  1.00  0.00     0.017 C 
ENDBRANCH  29  47
ENDBRANCH   3  29
TORSDOF 14
ENDMDL
MODEL 2
REMARK VINA RESULT: -8.592600021      4.123      6.634
REMARK  14 active torsions:
REMARK  status: ('A' for Active; 'I' for Inactive)
REMARK    1  A    between atoms: C2_2  and  C3_3 
REMARK    2  A    between atoms: C3_3  and  N1_4 
REMARK       I    between atoms: N1_4  and  C4_6 
REMARK    3  A    between atoms: C4_6  and  C5_8 
REMARK    4  A    between atoms: C6_9  and  O2_10 
REMARK    5  A    between atoms: O2_10  and  C7_11 
REMARK    6  A    between atoms: C7_11  and  C8_13 
REMARK    7  A    between atoms: C8_13  and  N2_14 
REMARK    8  A    between atoms: C8_13  and  C25_40 
REMARK       I    between atoms: N2_14  and  C9_16 
REMARK    9  A    between atoms: C9_16  and  C10_18 
REMARK   10  A    between atoms: C10_18  and  N3_19 
REMARK   11  A    between atoms: C10_18  and  C21_36 
REMARK       I    between atoms: N3_19  and  C11_21 
REMARK       I    between atoms: C11_21  and  N4_23 
REMARK       I    between atoms: N5_26  and  C14_27 
REMARK   12  A    between atoms: C14_27  and  O7_29 
REMARK   13  A    between atoms: O7_29  and  C15_30 
REMARK   14  A    between atoms: N6_46  and  S1_47 
ROOT
HETATM    1  N2  UNL     1     -39.414  -4.566 -18.374  1.00  0.00    -0.345 N 
ATOM      2  H2  UNL     1     -39.093  -4.520 -17.407  1.00  0.00     0.163 HD
HETATM    3  C9  UNL     1     -39.058  -3.520 -19.232  1.00  0.00     0.242 C 
HETATM    4  O4  UNL     1     -39.480  -3.614 -20.435  1.00  0.00    -0.271 OA
ENDROOT
BRANCH   1   5
HETATM    5  C8  UNL     1     -40.214  -5.715 -18.776  1.00  0.00     0.191 C 
BRANCH   5   6
HETATM    6  C7  UNL     1     -39.355  -6.809 -19.281  1.00  0.00     0.284 C 
HETATM    7  O3  UNL     1     -38.325  -7.182 -18.659  1.00  0.00    -0.263 OA
BRANCH   6   8
HETATM    8  O2  UNL     1     -39.660  -7.451 -20.454  1.00  0.00    -0.286 OA
BRANCH   8   9
HETATM    9  C6  UNL     1     -40.899  -8.131 -20.652  1.00  0.00     0.298 C 
HETATM   10  C5  UNL     1     -40.935  -8.714 -22.079  1.00  0.00     0.223 C 
HETATM   11  N6  UNL     1     -39.847  -9.613 -21.988  1.00  0.00    -0.170 NA
HETATM   12  C29 UNL     1     -40.025 -10.182 -20.668  1.00  0.00     0.280 C 
HETATM   13  O8  UNL     1     -40.828  -9.313 -19.931  1.00  0.00    -0.344 OA
BRANCH  10  14
HETATM   14  C4  UNL     1     -42.233  -9.331 -22.332  1.00  0.00     0.241 C 
HETATM   15  N1  UNL     1     -42.660 -10.577 -21.795  1.00  0.00    -0.356 N 
ATOM     16  H1  UNL     1     -42.018 -11.089 -21.189  1.00  0.00     0.162 HD
HETATM   17  O1  UNL     1     -43.066  -8.753 -23.074  1.00  0.00    -0.272 OA
BRANCH  15  18
HETATM   18  C3  UNL     1     -43.952 -11.151 -22.062  1.00  0.00     0.149 C 
BRANCH  18  19
HETATM   19  C2  UNL     1     -44.332 -12.264 -21.185  1.00  0.00    -0.018 C 
HETATM   20  C1  UNL     1     -43.441 -12.899 -20.436  1.00  0.00     0.008 C 
ENDBRANCH  18  19
ENDBRANCH  15  18
ENDBRANCH  10  14
BRANCH  11  21
HETATM   21  S1  UNL     1     -39.501 -10.686 -23.219  1.00  0.00     0.210 S 
HETATM   22  C30 UNL     1     -38.669  -9.826 -24.542  1.00  0.00     0.180 C 
HETATM   23  O9  UNL     1     -40.572 -11.589 -23.681  1.00  0.00    -0.211 OA
HETATM   24  O10 UNL     1     -38.401 -11.631 -22.661  1.00  0.00    -0.211 OA
ENDBRANCH  11  21
ENDBRANCH   8   9
ENDBRANCH   6   8
ENDBRANCH   5   6
BRANCH   5  25
HETATM   25  C25 UNL     1     -41.048  -6.178 -17.616  1.00  0.00    -0.022 C 
HETATM   26  C26 UNL     1     -42.449  -6.539 -18.055  1.00  0.00     0.017 C 
HETATM   27  C27 UNL     1     -40.397  -7.363 -16.906  1.00  0.00     0.017 C 
HETATM   28  C28 UNL     1     -41.191  -5.088 -16.577  1.00  0.00     0.017 C 
ENDBRANCH   5  25
ENDBRANCH   1   5
BRANCH   3  29
HETATM   29  C10 UNL     1     -38.260  -2.353 -18.873  1.00  0.00     0.185 C 
BRANCH  29  30
HETATM   30  N3  UNL     1     -36.928  -2.764 -18.406  1.00  0.00    -0.329 N 
HETATM   31  C11 UNL     1     -35.753  -2.479 -19.131  1.00  0.00     0.319 C 
HETATM   32  O5  UNL     1     -35.926  -1.845 -20.222  1.00  0.00    -0.247 OA
HETATM   33  N4  UNL     1     -34.437  -2.825 -18.763  1.00  0.00    -0.331 N 
HETATM   34  C12 UNL     1     -34.223  -3.532 -17.521  1.00  0.00     0.147 C 
HETATM   35  C20 UNL     1     -33.358  -2.457 -19.645  1.00  0.00     0.147 C 
HETATM   36  C13 UNL     1     -32.947  -3.071 -16.844  1.00  0.00     0.148 C 
HETATM   37  N5  UNL     1     -31.855  -2.963 -17.779  1.00  0.00    -0.325 N 
HETATM   38  C14 UNL     1     -30.618  -3.584 -17.452  1.00  0.00     0.363 C 
HETATM   39  C19 UNL     1     -32.044  -2.230 -19.001  1.00  0.00     0.148 C 
HETATM   40  O6  UNL     1     -30.459  -4.208 -16.363  1.00  0.00    -0.238 OA
ATOM     41  H3  UNL     1     -36.852  -3.275 -17.526  1.00  0.00     0.165 HD
BRANCH  38  42
HETATM   42  O7  UNL     1     -29.519  -3.543 -18.307  1.00  0.00    -0.294 OA
BRANCH  42  43
HETATM   43  C15 UNL     1     -28.422  -2.684 -18.088  1.00  0.00     0.061 C 
HETATM   44  C16 UNL     1     -27.259  -3.361 -17.408  1.00  0.00     0.046 C 
HETATM   45  C17 UNL     1     -28.787  -1.438 -17.340  1.00  0.00     0.046 C 
HETATM   46  C18 UNL     1     -27.918  -2.255 -19.468  1.00  0.00     0.046 C 
ENDBRANCH  42  43
ENDBRANCH  38  42
ENDBRANCH  29  30
BRANCH  29  47
HETATM   47  C21 UNL     1     -38.818  -1.494 -17.774  1.00  0.00    -0.022 C 
HETATM   48  C22 UNL     1     -38.149  -1.735 -16.452  1.00  0.00     0.017 C 
HETATM   49  C23 UNL     1     -40.304  -1.576 -17.601  1.00  0.00     0.017 C 
HETATM   50  C24 UNL     1     -38.508  -0.029 -18.137  1.00  0.00     0.017 C 
ENDBRANCH  29  47
ENDBRANCH   3  29
TORSDOF 14
ENDMDL
MODEL 3
REMARK VINA RESULT: -8.505710492      4.272      6.920
REMARK  14 active torsions:
REMARK  status: ('A' for Active; 'I' for Inactive)
REMARK    1  A    between atoms: C2_2  and  C3_3 
REMARK    2  A    between atoms: C3_3  and  N1_4 
REMARK       I    between atoms: N1_4  and  C4_6 
REMARK    3  A    between atoms: C4_6  and  C5_8 
REMARK    4  A    between atoms: C6_9  and  O2_10 
REMARK    5  A    between atoms: O2_10  and  C7_11 
REMARK    6  A    between atoms: C7_11  and  C8_13 
REMARK    7  A    between atoms: C8_13  and  N2_14 
REMARK    8  A    between atoms: C8_13  and  C25_40 
REMARK       I    between atoms: N2_14  and  C9_16 
REMARK    9  A    between atoms: C9_16  and  C10_18 
REMARK   10  A    between atoms: C10_18  and  N3_19 
REMARK   11  A    between atoms: C10_18  and  C21_36 
REMARK       I    between atoms: N3_19  and  C11_21 
REMARK       I    between atoms: C11_21  and  N4_23 
REMARK       I    between atoms: N5_26  and  C14_27 
REMARK   12  A    between atoms: C14_27  and  O7_29 
REMARK   13  A    between atoms: O7_29  and  C15_30 
REMARK   14  A    between atoms: N6_46  and  S1_47 
ROOT
HETATM    1  N2  UNL     1     -38.886  -4.918 -18.899  1.00  0.00    -0.345 N 
ATOM      2  H2  UNL     1     -38.463  -5.096 -17.988  1.00  0.00     0.163 HD
HETATM    3  C9  UNL     1     -38.820  -3.617 -19.408  1.00  0.00     0.242 C 
HETATM    4  O4  UNL     1     -39.362  -3.435 -20.551  1.00  0.00    -0.271 OA
ENDROOT
BRANCH   1   5
HETATM    5  C8  UNL     1     -39.521  -6.033 -19.588  1.00  0.00     0.191 C 
BRANCH   5   6
HETATM    6  C7  UNL     1     -38.514  -6.883 -20.261  1.00  0.00     0.284 C 
HETATM    7  O3  UNL     1     -37.363  -7.053 -19.779  1.00  0.00    -0.263 OA
BRANCH   6   8
HETATM    8  O2  UNL     1     -38.810  -7.515 -21.442  1.00  0.00    -0.286 OA
BRANCH   8   9
HETATM    9  C6  UNL     1     -38.266  -8.789 -21.783  1.00  0.00     0.298 C 
HETATM   10  C5  UNL     1     -39.237  -9.895 -21.325  1.00  0.00     0.223 C 
HETATM   11  N6  UNL     1     -40.355  -9.565 -22.127  1.00  0.00    -0.170 NA
HETATM   12  C29 UNL     1     -39.740  -9.234 -23.395  1.00  0.00     0.280 C 
HETATM   13  O8  UNL     1     -38.401  -8.929 -23.156  1.00  0.00    -0.344 OA
BRANCH  10  14
HETATM   14  C4  UNL     1     -38.655 -11.208 -21.581  1.00  0.00     0.241 C 
HETATM   15  N1  UNL     1     -38.978 -12.041 -22.688  1.00  0.00    -0.356 N 
ATOM     16  H1  UNL     1     -39.672 -11.708 -23.357  1.00  0.00     0.162 HD
HETATM   17  O1  UNL     1     -37.798 -11.677 -20.789  1.00  0.00    -0.272 OA
BRANCH  15  18
HETATM   18  C3  UNL     1     -38.376 -13.328 -22.909  1.00  0.00     0.149 C 
BRANCH  18  19
HETATM   19  C2  UNL     1     -39.133 -14.468 -22.380  1.00  0.00    -0.018 C 
HETATM   20  C1  UNL     1     -40.455 -14.447 -22.290  1.00  0.00     0.008 C 
ENDBRANCH  18  19
ENDBRANCH  15  18
ENDBRANCH  10  14
BRANCH  11  21
HETATM   21  S1  UNL     1     -41.701 -10.551 -22.189  1.00  0.00     0.210 S 
HETATM   22  C30 UNL     1     -41.933 -11.343 -20.607  1.00  0.00     0.180 C 
HETATM   23  O9  UNL     1     -41.845 -11.467 -23.336  1.00  0.00    -0.211 OA
HETATM   24  O10 UNL     1     -42.922  -9.595 -22.291  1.00  0.00    -0.211 OA
ENDBRANCH  11  21
ENDBRANCH   8   9
ENDBRANCH   6   8
ENDBRANCH   5   6
BRANCH   5  25
HETATM   25  C25 UNL     1     -40.332  -6.833 -18.610  1.00  0.00    -0.022 C 
HETATM   26  C26 UNL     1     -39.471  -7.821 -17.856  1.00  0.00     0.017 C 
HETATM   27  C27 UNL     1     -41.071  -5.923 -17.630  1.00  0.00     0.017 C 
HETATM   28  C28 UNL     1     -41.395  -7.644 -19.319  1.00  0.00     0.017 C 
ENDBRANCH   5  25
ENDBRANCH   1   5
BRANCH   3  29
HETATM   29  C10 UNL     1     -38.195  -2.472 -18.754  1.00  0.00     0.185 C 
BRANCH  29  30
HETATM   30  N3  UNL     1     -36.952  -2.879 -18.083  1.00  0.00    -0.329 N 
HETATM   31  C11 UNL     1     -35.687  -2.741 -18.690  1.00  0.00     0.319 C 
HETATM   32  O5  UNL     1     -35.696  -2.244 -19.863  1.00  0.00    -0.247 OA
HETATM   33  N4  UNL     1     -34.444  -3.094 -18.127  1.00  0.00    -0.331 N 
HETATM   34  C12 UNL     1     -34.415  -3.646 -16.791  1.00  0.00     0.147 C 
HETATM   35  C20 UNL     1     -33.251  -2.890 -18.910  1.00  0.00     0.147 C 
HETATM   36  C13 UNL     1     -33.200  -3.158 -16.026  1.00  0.00     0.148 C 
HETATM   37  N5  UNL     1     -32.004  -3.218 -16.829  1.00  0.00    -0.325 N 
HETATM   38  C14 UNL     1     -30.851  -3.846 -16.282  1.00  0.00     0.363 C 
HETATM   39  C19 UNL     1     -32.009  -2.640 -18.144  1.00  0.00     0.148 C 
HETATM   40  O6  UNL     1     -30.854  -4.333 -15.114  1.00  0.00    -0.238 OA
ATOM     41  H3  UNL     1     -37.007  -3.276 -17.145  1.00  0.00     0.165 HD
BRANCH  38  42
HETATM   42  O7  UNL     1     -29.661  -3.963 -16.997  1.00  0.00    -0.294 OA
BRANCH  42  43
HETATM   43  C15 UNL     1     -28.557  -3.115 -16.770  1.00  0.00     0.061 C 
HETATM   44  C16 UNL     1     -27.468  -3.757 -15.948  1.00  0.00     0.046 C 
HETATM   45  C17 UNL     1     -28.937  -1.799 -16.163  1.00  0.00     0.046 C 
HETATM   46  C18 UNL     1     -27.941  -2.822 -18.141  1.00  0.00     0.046 C 
ENDBRANCH  42  43
ENDBRANCH  38  42
ENDBRANCH  29  30
BRANCH  29  47
HETATM   47  C21 UNL     1     -39.017  -1.799 -17.692  1.00  0.00    -0.022 C 
HETATM   48  C22 UNL     1     -38.225  -1.486 -16.456  1.00  0.00     0.017 C 
HETATM   49  C23 UNL     1     -40.270  -2.525 -17.308  1.00  0.00     0.017 C 
HETATM   50  C24 UNL     1     -39.465  -0.438 -18.256  1.00  0.00     0.017 C 
ENDBRANCH  29  47
ENDBRANCH   3  29
TORSDOF 14
ENDMDL
MODEL 4
REMARK VINA RESULT: -8.501045091      3.258     11.660
REMARK  14 active torsions:
REMARK  status: ('A' for Active; 'I' for Inactive)
REMARK    1  A    between atoms: C2_2  and  C3_3 
REMARK    2  A    between atoms: C3_3  and  N1_4 
REMARK       I    between atoms: N1_4  and  C4_6 
REMARK    3  A    between atoms: C4_6  and  C5_8 
REMARK    4  A    between atoms: C6_9  and  O2_10 
REMARK    5  A    between atoms: O2_10  and  C7_11 
REMARK    6  A    between atoms: C7_11  and  C8_13 
REMARK    7  A    between atoms: C8_13  and  N2_14 
REMARK    8  A    between atoms: C8_13  and  C25_40 
REMARK       I    between atoms: N2_14  and  C9_16 
REMARK    9  A    between atoms: C9_16  and  C10_18 
REMARK   10  A    between atoms: C10_18  and  N3_19 
REMARK   11  A    between atoms: C10_18  and  C21_36 
REMARK       I    between atoms: N3_19  and  C11_21 
REMARK       I    between atoms: C11_21  and  N4_23 
REMARK       I    between atoms: N5_26  and  C14_27 
REMARK   12  A    between atoms: C14_27  and  O7_29 
REMARK   13  A    between atoms: O7_29  and  C15_30 
REMARK   14  A    between atoms: N6_46  and  S1_47 
ROOT
HETATM    1  N2  UNL     1     -35.939  -1.533 -17.776  1.00  0.00    -0.345 N 
ATOM      2  H2  UNL     1     -36.616  -0.844 -17.447  1.00  0.00     0.163 HD
HETATM    3  C9  UNL     1     -36.418  -2.625 -18.505  1.00  0.00     0.242 C 
HETATM    4  O4  UNL     1     -35.539  -3.465 -18.899  1.00  0.00    -0.271 OA
ENDROOT
BRANCH   1   5
HETATM    5  C8  UNL     1     -34.534  -1.315 -17.459  1.00  0.00     0.191 C 
BRANCH   5   6
HETATM    6  C7  UNL     1     -34.084   0.016 -17.923  1.00  0.00     0.284 C 
HETATM    7  O3  UNL     1     -32.880   0.242 -18.215  1.00  0.00    -0.263 OA
BRANCH   6   8
HETATM    8  O2  UNL     1     -34.976   1.050 -18.047  1.00  0.00    -0.286 OA
BRANCH   8   9
HETATM    9  C6  UNL     1     -35.124   2.055 -17.044  1.00  0.00     0.298 C 
HETATM   10  C5  UNL     1     -34.473   3.363 -17.535  1.00  0.00     0.223 C 
HETATM   11  N6  UNL     1     -35.289   3.616 -18.662  1.00  0.00    -0.170 NA
HETATM   12  C29 UNL     1     -36.609   3.276 -18.172  1.00  0.00     0.280 C 
HETATM   13  O8  UNL     1     -36.453   2.447 -17.063  1.00  0.00    -0.344 OA
BRANCH  10  14
HETATM   14  C4  UNL     1     -34.532   4.373 -16.485  1.00  0.00     0.241 C 
HETATM   15  N1  UNL     1     -35.730   4.933 -15.959  1.00  0.00    -0.356 N 
ATOM     16  H1  UNL     1     -36.621   4.615 -16.341  1.00  0.00     0.162 HD
HETATM   17  O1  UNL     1     -33.468   4.811 -15.978  1.00  0.00    -0.272 OA
BRANCH  15  18
HETATM   18  C3  UNL     1     -35.747   5.924 -14.917  1.00  0.00     0.149 C 
BRANCH  18  19
HETATM   19  C2  UNL     1     -36.101   5.420 -13.585  1.00  0.00    -0.018 C 
HETATM   20  C1  UNL     1     -35.180   5.174 -12.664  1.00  0.00     0.008 C 
ENDBRANCH  18  19
ENDBRANCH  15  18
ENDBRANCH  10  14
BRANCH  11  21
HETATM   21  S1  UNL     1     -35.162   5.040 -19.525  1.00  0.00     0.210 S 
HETATM   22  C30 UNL     1     -35.740   4.779 -21.193  1.00  0.00     0.180 C 
HETATM   23  O9  UNL     1     -33.895   5.793 -19.449  1.00  0.00    -0.211 OA
HETATM   24  O10 UNL     1     -36.227   5.998 -18.924  1.00  0.00    -0.211 OA
ENDBRANCH  11  21
ENDBRANCH   8   9
ENDBRANCH   6   8
ENDBRANCH   5   6
BRANCH   5  25
HETATM   25  C25 UNL     1     -34.322  -1.469 -15.980  1.00  0.00    -0.022 C 
HETATM   26  C26 UNL     1     -35.531  -1.007 -15.199  1.00  0.00     0.017 C 
HETATM   27  C27 UNL     1     -33.981  -2.913 -15.618  1.00  0.00     0.017 C 
HETATM   28  C28 UNL     1     -33.157  -0.627 -15.506  1.00  0.00     0.017 C 
ENDBRANCH   5  25
ENDBRANCH   1   5
BRANCH   3  29
HETATM   29  C10 UNL     1     -37.814  -2.882 -18.846  1.00  0.00     0.185 C 
BRANCH  29  30
HETATM   30  N3  UNL     1     -37.962  -4.220 -19.434  1.00  0.00    -0.329 N 
HETATM   31  C11 UNL     1     -39.033  -5.075 -19.104  1.00  0.00     0.319 C 
HETATM   32  O5  UNL     1     -39.862  -4.609 -18.256  1.00  0.00    -0.247 OA
HETATM   33  N4  UNL     1     -39.263  -6.367 -19.618  1.00  0.00    -0.331 N 
HETATM   34  C12 UNL     1     -38.340  -6.905 -20.592  1.00  0.00     0.147 C 
HETATM   35  C20 UNL     1     -40.412  -7.099 -19.148  1.00  0.00     0.147 C 
HETATM   36  C13 UNL     1     -39.069  -7.729 -21.636  1.00  0.00     0.148 C 
HETATM   37  N5  UNL     1     -40.040  -8.610 -21.038  1.00  0.00    -0.325 N 
HETATM   38  C14 UNL     1     -40.030  -9.983 -21.411  1.00  0.00     0.363 C 
HETATM   39  C19 UNL     1     -40.987  -8.080 -20.097  1.00  0.00     0.148 C 
HETATM   40  O6  UNL     1     -39.204 -10.432 -22.258  1.00  0.00    -0.238 OA
ATOM     41  H3  UNL     1     -37.264  -4.542 -20.104  1.00  0.00     0.165 HD
BRANCH  38  42
HETATM   42  O7  UNL     1     -40.922 -10.905 -20.868  1.00  0.00    -0.294 OA
BRANCH  42  43
HETATM   43  C15 UNL     1     -41.979 -11.464 -21.616  1.00  0.00     0.061 C 
HETATM   44  C16 UNL     1     -41.529 -12.527 -22.586  1.00  0.00     0.046 C 
HETATM   45  C17 UNL     1     -42.801 -10.439 -22.335  1.00  0.00     0.046 C 
HETATM   46  C18 UNL     1     -42.902 -12.164 -20.614  1.00  0.00     0.046 C 
ENDBRANCH  42  43
ENDBRANCH  38  42
ENDBRANCH  29  30
BRANCH  29  47
HETATM   47  C21 UNL     1     -38.425  -1.939 -19.844  1.00  0.00    -0.022 C 
HETATM   48  C22 UNL     1     -37.410  -1.041 -20.490  1.00  0.00     0.017 C 
HETATM   49  C23 UNL     1     -39.558  -1.111 -19.319  1.00  0.00     0.017 C 
HETATM   50  C24 UNL     1     -39.009  -2.795 -20.983  1.00  0.00     0.017 C 
ENDBRANCH  29  47
ENDBRANCH   3  29
TORSDOF 14
ENDMDL
MODEL 5
REMARK VINA RESULT: -8.493034478      4.042      6.788
REMARK  14 active torsions:
REMARK  status: ('A' for Active; 'I' for Inactive)
REMARK    1  A    between atoms: C2_2  and  C3_3 
REMARK    2  A    between atoms: C3_3  and  N1_4 
REMARK       I    between atoms: N1_4  and  C4_6 
REMARK    3  A    between atoms: C4_6  and  C5_8 
REMARK    4  A    between atoms: C6_9  and  O2_10 
REMARK    5  A    between atoms: O2_10  and  C7_11 
REMARK    6  A    between atoms: C7_11  and  C8_13 
REMARK    7  A    between atoms: C8_13  and  N2_14 
REMARK    8  A    between atoms: C8_13  and  C25_40 
REMARK       I    between atoms: N2_14  and  C9_16 
REMARK    9  A    between atoms: C9_16  and  C10_18 
REMARK   10  A    between atoms: C10_18  and  N3_19 
REMARK   11  A    between atoms: C10_18  and  C21_36 
REMARK       I    between atoms: N3_19  and  C11_21 
REMARK       I    between atoms: C11_21  and  N4_23 
REMARK       I    between atoms: N5_26  and  C14_27 
REMARK   12  A    between atoms: C14_27  and  O7_29 
REMARK   13  A    between atoms: O7_29  and  C15_30 
REMARK   14  A    between atoms: N6_46  and  S1_47 
ROOT
HETATM    1  N2  UNL     1     -38.905  -4.950 -18.911  1.00  0.00    -0.345 N 
ATOM      2  H2  UNL     1     -38.505  -5.099 -17.985  1.00  0.00     0.163 HD
HETATM    3  C9  UNL     1     -38.850  -3.661 -19.449  1.00  0.00     0.242 C 
HETATM    4  O4  UNL     1     -39.362  -3.516 -20.611  1.00  0.00    -0.271 OA
ENDROOT
BRANCH   1   5
HETATM    5  C8  UNL     1     -39.497  -6.094 -19.591  1.00  0.00     0.191 C 
BRANCH   5   6
HETATM    6  C7  UNL     1     -38.456  -6.932 -20.226  1.00  0.00     0.284 C 
HETATM    7  O3  UNL     1     -37.322  -7.091 -19.699  1.00  0.00    -0.263 OA
BRANCH   6   8
HETATM    8  O2  UNL     1     -38.698  -7.564 -21.419  1.00  0.00    -0.286 OA
BRANCH   8   9
HETATM    9  C6  UNL     1     -38.179  -8.860 -21.716  1.00  0.00     0.298 C 
HETATM   10  C5  UNL     1     -39.207  -9.927 -21.293  1.00  0.00     0.223 C 
HETATM   11  N6  UNL     1     -40.272  -9.574 -22.154  1.00  0.00    -0.170 NA
HETATM   12  C29 UNL     1     -39.584  -9.281 -23.394  1.00  0.00     0.280 C 
HETATM   13  O8  UNL     1     -38.250  -9.015 -23.091  1.00  0.00    -0.344 OA
BRANCH  10  14
HETATM   14  C4  UNL     1     -38.655 -11.261 -21.502  1.00  0.00     0.241 C 
HETATM   15  N1  UNL     1     -38.966 -12.108 -22.602  1.00  0.00    -0.356 N 
ATOM     16  H1  UNL     1     -39.628 -11.771 -23.301  1.00  0.00     0.162 HD
HETATM   17  O1  UNL     1     -37.839 -11.737 -20.672  1.00  0.00    -0.272 OA
BRANCH  15  18
HETATM   18  C3  UNL     1     -38.394 -13.417 -22.776  1.00  0.00     0.149 C 
BRANCH  18  19
HETATM   19  C2  UNL     1     -39.236 -14.529 -22.320  1.00  0.00    -0.018 C 
HETATM   20  C1  UNL     1     -40.557 -14.432 -22.272  1.00  0.00     0.008 C 
ENDBRANCH  18  19
ENDBRANCH  15  18
ENDBRANCH  10  14
BRANCH  11  21
HETATM   21  S1  UNL     1     -41.645 -10.518 -22.272  1.00  0.00     0.210 S 
HETATM   22  C30 UNL     1     -41.966 -11.299 -20.701  1.00  0.00     0.180 C 
HETATM   23  O9  UNL     1     -41.769 -11.431 -23.424  1.00  0.00    -0.211 OA
HETATM   24  O10 UNL     1     -42.830  -9.525 -22.425  1.00  0.00    -0.211 OA
ENDBRANCH  11  21
ENDBRANCH   8   9
ENDBRANCH   6   8
ENDBRANCH   5   6
BRANCH   5  25
HETATM   25  C25 UNL     1     -40.310  -6.895 -18.616  1.00  0.00    -0.022 C 
HETATM   26  C26 UNL     1     -41.376  -7.705 -19.320  1.00  0.00     0.017 C 
HETATM   27  C27 UNL     1     -39.421  -7.811 -17.777  1.00  0.00     0.017 C 
HETATM   28  C28 UNL     1     -41.032  -5.994 -17.638  1.00  0.00     0.017 C 
ENDBRANCH   5  25
ENDBRANCH   1   5
BRANCH   3  29
HETATM   29  C10 UNL     1     -38.267  -2.489 -18.805  1.00  0.00     0.185 C 
BRANCH  29  30
HETATM   30  N3  UNL     1     -37.026  -2.850 -18.106  1.00  0.00    -0.329 N 
HETATM   31  C11 UNL     1     -35.805  -2.187 -18.344  1.00  0.00     0.319 C 
HETATM   32  O5  UNL     1     -35.851  -1.255 -19.212  1.00  0.00    -0.247 OA
HETATM   33  N4  UNL     1     -34.569  -2.456 -17.722  1.00  0.00    -0.331 N 
HETATM   34  C12 UNL     1     -34.504  -3.501 -16.725  1.00  0.00     0.147 C 
HETATM   35  C20 UNL     1     -33.420  -1.676 -18.108  1.00  0.00     0.147 C 
HETATM   36  C13 UNL     1     -33.555  -3.124 -15.603  1.00  0.00     0.148 C 
HETATM   37  N5  UNL     1     -32.325  -2.567 -16.108  1.00  0.00    -0.325 N 
HETATM   38  C14 UNL     1     -31.094  -3.091 -15.624  1.00  0.00     0.363 C 
HETATM   39  C19 UNL     1     -32.377  -1.502 -17.072  1.00  0.00     0.148 C 
HETATM   40  O6  UNL     1     -31.062  -4.013 -14.759  1.00  0.00    -0.238 OA
ATOM     41  H3  UNL     1     -37.049  -3.609 -17.424  1.00  0.00     0.165 HD
BRANCH  38  42
HETATM   42  O7  UNL     1     -29.861  -2.622 -16.073  1.00  0.00    -0.294 OA
BRANCH  42  43
HETATM   43  C15 UNL     1     -29.109  -3.296 -17.057  1.00  0.00     0.061 C 
HETATM   44  C16 UNL     1     -29.944  -4.186 -17.943  1.00  0.00     0.046 C 
HETATM   45  C17 UNL     1     -27.963  -4.078 -16.492  1.00  0.00     0.046 C 
HETATM   46  C18 UNL     1     -28.517  -2.219 -17.971  1.00  0.00     0.046 C 
ENDBRANCH  42  43
ENDBRANCH  38  42
ENDBRANCH  29  30
BRANCH  29  47
HETATM   47  C21 UNL     1     -39.125  -1.819 -17.769  1.00  0.00    -0.022 C 
HETATM   48  C22 UNL     1     -38.374  -1.503 -16.509  1.00  0.00     0.017 C 
HETATM   49  C23 UNL     1     -40.386  -2.552 -17.424  1.00  0.00     0.017 C 
HETATM   50  C24 UNL     1     -39.562  -0.460 -18.346  1.00  0.00     0.017 C 
ENDBRANCH  29  47
ENDBRANCH   3  29
TORSDOF 14
ENDMDL
