MODEL 1
REMARK VINA RESULT: -8.114610476      0.000      0.000
REMARK  12 active torsions:
REMARK  status: ('A' for Active; 'I' for Inactive)
REMARK    1  A    between atoms: N1_6  and  C5_7 
REMARK    2  A    between atoms: C5_7  and  O1_8 
REMARK    3  A    between atoms: C5_7  and  C6_10 
REMARK    4  A    between atoms: C6_10  and  N2_11 
REMARK    5  A    between atoms: C6_10  and  C12_21 
REMARK       I    between atoms: N2_11  and  C7_13 
REMARK       I    between atoms: C7_13  and  N3_15 
REMARK       I    between atoms: C12_21  and  N4_23 
REMARK    6  A    between atoms: C15_27  and  C16_28 
REMARK    7  A    between atoms: C18_32  and  O7_33 
REMARK    8  A    between atoms: C18_32  and  N5_35 
REMARK    9  A    between atoms: N5_35  and  C19_37 
REMARK   10  A    between atoms: C19_37  and  C20_38 
REMARK   11  A    between atoms: C20_38  and  C21_39 
REMARK   12  A    between atoms: C21_39  and  S3_40 
ROOT
HETATM    1  C1  UNL     1     -33.527  -2.774 -16.355  1.00  0.00     0.034 C 
HETATM    2  C2  UNL     1     -33.463  -3.665 -17.551  1.00  0.00     0.049 C 
HETATM    3  C3  UNL     1     -33.563  -5.117 -17.272  1.00  0.00     0.034 C 
HETATM    4  S1  UNL     1     -31.791  -3.375 -18.318  1.00  0.00    -0.133 SA
HETATM    5  C4  UNL     1     -32.412  -2.334 -19.728  1.00  0.00     0.205 C 
HETATM    6  N1  UNL     1     -33.663  -1.889 -19.074  1.00  0.00    -0.318 N 
HETATM    7  C17 UNL     1     -34.267  -3.172 -18.718  1.00  0.00     0.083 C 
HETATM    8  C18 UNL     1     -35.672  -3.385 -18.732  1.00  0.00     0.161 C 
ENDROOT
BRANCH   6   9
HETATM    9  C5  UNL     1     -34.113  -0.598 -18.836  1.00  0.00     0.151 C 
BRANCH   9  10
HETATM   10  O1  UNL     1     -35.138  -0.250 -19.570  1.00  0.00    -0.347 OA
ATOM     11  H1  UNL     1     -35.091   0.639 -19.900  1.00  0.00     0.219 HD
ENDBRANCH   9  10
BRANCH   9  12
HETATM   12  C6  UNL     1     -33.681   0.450 -17.943  1.00  0.00     0.253 C 
BRANCH  12  13
HETATM   13  N2  UNL     1     -34.176   1.710 -18.569  1.00  0.00    -0.322 N 
HETATM   14  C7  UNL     1     -34.828   2.721 -17.848  1.00  0.00     0.319 C 
HETATM   15  O2  UNL     1     -34.995   2.532 -16.616  1.00  0.00    -0.247 OA
HETATM   16  N3  UNL     1     -35.298   3.919 -18.436  1.00  0.00    -0.330 N 
HETATM   17  C8  UNL     1     -35.083   4.118 -19.857  1.00  0.00     0.153 C 
HETATM   18  C11 UNL     1     -35.973   4.896 -17.630  1.00  0.00     0.153 C 
HETATM   19  C9  UNL     1     -35.273   5.565 -20.253  1.00  0.00     0.187 C 
HETATM   20  O3  UNL     1     -36.261   6.204 -19.540  1.00  0.00    -0.388 OA
HETATM   21  C10 UNL     1     -35.808   6.304 -18.204  1.00  0.00     0.187 C 
ATOM     22  H2  UNL     1     -34.033   1.844 -19.570  1.00  0.00     0.165 HD
ENDBRANCH  12  13
BRANCH  12  23
HETATM   23  C12 UNL     1     -32.314   0.607 -17.529  1.00  0.00     0.252 C 
HETATM   24  O4  UNL     1     -31.427   0.611 -18.459  1.00  0.00    -0.270 OA
HETATM   25  N4  UNL     1     -31.800   0.770 -16.205  1.00  0.00    -0.326 N 
HETATM   26  C13 UNL     1     -32.689   0.779 -15.061  1.00  0.00     0.201 C 
HETATM   27  C15 UNL     1     -30.418   0.948 -15.820  1.00  0.00     0.198 C 
HETATM   28  S2  UNL     1     -31.813   1.951 -13.948  1.00  0.00    -0.147 SA
HETATM   29  C14 UNL     1     -30.362   2.268 -15.031  1.00  0.00     0.112 C 
BRANCH  27  30
HETATM   30  C16 UNL     1     -29.901  -0.102 -14.945  1.00  0.00     0.197 C 
HETATM   31  O5  UNL     1     -29.107   0.103 -14.010  1.00  0.00    -0.646 OA
HETATM   32  O6  UNL     1     -30.316  -1.405 -15.164  1.00  0.00    -0.646 OA
ENDBRANCH  27  30
ENDBRANCH  12  23
ENDBRANCH   9  12
ENDBRANCH   6   9
BRANCH   8  33
HETATM   33  O7  UNL     1     -36.097  -4.298 -17.902  1.00  0.00    -0.345 OA
ATOM     34  H7  UNL     1     -35.809  -4.187 -17.004  1.00  0.00     0.219 HD
ENDBRANCH   8  33
BRANCH   8  35
HETATM   35  N5  UNL     1     -36.678  -2.781 -19.505  1.00  0.00    -0.360 N 
ATOM     36  H5  UNL     1     -36.451  -2.623 -20.487  1.00  0.00     0.162 HD
BRANCH  35  37
HETATM   37  C19 UNL     1     -37.982  -2.359 -19.090  1.00  0.00     0.033 C 
HETATM   38  C23 UNL     1     -38.412  -1.193 -19.989  1.00  0.00     0.031 C 
HETATM   39  C24 UNL     1     -39.663  -0.531 -19.562  1.00  0.00     0.002 C 
HETATM   40  C25 UNL     1     -39.829  -0.238 -18.119  1.00  0.00     0.000 C 
HETATM   41  C26 UNL     1     -39.120  -1.172 -17.191  1.00  0.00     0.002 C 
HETATM   42  C27 UNL     1     -37.834  -1.708 -17.718  1.00  0.00     0.031 C 
BRANCH  37  43
HETATM   43  C20 UNL     1     -39.047  -3.365 -19.143  1.00  0.00     0.046 C 
BRANCH  43  44
HETATM   44  C21 UNL     1     -39.023  -4.395 -20.208  1.00  0.00     0.142 C 
BRANCH  44  45
HETATM   45  S3  UNL     1     -39.028  -6.021 -19.415  1.00  0.00     0.140 S 
HETATM   46  C22 UNL     1     -39.597  -7.253 -20.551  1.00  0.00     0.161 C 
HETATM   47  O8  UNL     1     -37.676  -6.380 -18.923  1.00  0.00    -0.228 OA
HETATM   48  O9  UNL     1     -39.970  -6.009 -18.244  1.00  0.00    -0.228 OA
ENDBRANCH  44  45
ENDBRANCH  43  44
ENDBRANCH  37  43
ENDBRANCH  35  37
ENDBRANCH   8  35
TORSDOF 12
ENDMDL
MODEL 2
REMARK VINA RESULT: -8.012952921      1.936      5.069
REMARK  12 active torsions:
REMARK  status: ('A' for Active; 'I' for Inactive)
REMARK    1  A    between atoms: N1_6  and  C5_7 
REMARK    2  A    between atoms: C5_7  and  O1_8 
REMARK    3  A    between atoms: C5_7  and  C6_10 
REMARK    4  A    between atoms: C6_10  and  N2_11 
REMARK    5  A    between atoms: C6_10  and  C12_21 
REMARK       I    between atoms: N2_11  and  C7_13 
REMARK       I    between atoms: C7_13  and  N3_15 
REMARK       I    between atoms: C12_21  and  N4_23 
REMARK    6  A    between atoms: C15_27  and  C16_28 
REMARK    7  A    between atoms: C18_32  and  O7_33 
REMARK    8  A    between atoms: C18_32  and  N5_35 
REMARK    9  A    between atoms: N5_35  and  C19_37 
REMARK   10  A    between atoms: C19_37  and  C20_38 
REMARK   11  A    between atoms: C20_38  and  C21_39 
REMARK   12  A    between atoms: C21_39  and  S3_40 
ROOT
HETATM    1  C1  UNL     1     -39.368  -1.655 -20.063  1.00  0.00     0.034 C 
HETATM    2  C2  UNL     1     -39.037  -2.462 -18.852  1.00  0.00     0.049 C 
HETATM    3  C3  UNL     1     -39.506  -3.868 -18.873  1.00  0.00     0.034 C 
HETATM    4  S1  UNL     1     -39.897  -1.626 -17.428  1.00  0.00    -0.133 SA
HETATM    5  C4  UNL     1     -38.367  -0.836 -16.725  1.00  0.00     0.205 C 
HETATM    6  N1  UNL     1     -37.582  -0.839 -17.980  1.00  0.00    -0.318 N 
HETATM    7  C17 UNL     1     -37.640  -2.252 -18.347  1.00  0.00     0.083 C 
HETATM    8  C18 UNL     1     -36.563  -2.920 -18.989  1.00  0.00     0.161 C 
ENDROOT
BRANCH   6   9
HETATM    9  C5  UNL     1     -36.987   0.227 -18.640  1.00  0.00     0.151 C 
BRANCH   9  10
HETATM   10  O1  UNL     1     -37.410   0.395 -19.867  1.00  0.00    -0.347 OA
ATOM     11  H1  UNL     1     -36.936  -0.118 -20.510  1.00  0.00     0.219 HD
ENDBRANCH   9  10
BRANCH   9  12
HETATM   12  C6  UNL     1     -35.989   1.196 -18.253  1.00  0.00     0.253 C 
BRANCH  12  13
HETATM   13  N2  UNL     1     -35.968   2.185 -19.370  1.00  0.00    -0.322 N 
HETATM   14  C7  UNL     1     -35.862   3.569 -19.167  1.00  0.00     0.319 C 
HETATM   15  O2  UNL     1     -35.785   3.972 -17.979  1.00  0.00    -0.247 OA
HETATM   16  N3  UNL     1     -35.838   4.512 -20.223  1.00  0.00    -0.330 N 
HETATM   17  C8  UNL     1     -35.916   4.019 -21.586  1.00  0.00     0.153 C 
HETATM   18  C11 UNL     1     -35.746   5.913 -19.929  1.00  0.00     0.153 C 
HETATM   19  C9  UNL     1     -35.491   5.073 -22.583  1.00  0.00     0.187 C 
HETATM   20  O3  UNL     1     -35.846   6.351 -22.218  1.00  0.00    -0.388 OA
HETATM   21  C10 UNL     1     -35.083   6.681 -21.074  1.00  0.00     0.187 C 
ATOM     22  H2  UNL     1     -36.033   1.839 -20.327  1.00  0.00     0.165 HD
ENDBRANCH  12  13
BRANCH  12  23
HETATM   23  C12 UNL     1     -34.648   0.831 -17.890  1.00  0.00     0.252 C 
HETATM   24  O4  UNL     1     -33.999   0.108 -18.731  1.00  0.00    -0.270 OA
HETATM   25  N4  UNL     1     -33.924   1.174 -16.705  1.00  0.00    -0.326 N 
HETATM   26  C13 UNL     1     -34.537   1.981 -15.670  1.00  0.00     0.201 C 
HETATM   27  C15 UNL     1     -32.565   0.809 -16.376  1.00  0.00     0.198 C 
HETATM   28  S2  UNL     1     -33.080   2.912 -15.045  1.00  0.00    -0.147 SA
HETATM   29  C14 UNL     1     -31.817   2.131 -16.129  1.00  0.00     0.112 C 
BRANCH  27  30
HETATM   30  C16 UNL     1     -32.439   0.006 -15.162  1.00  0.00     0.197 C 
HETATM   31  O5  UNL     1     -33.364  -0.668 -14.677  1.00  0.00    -0.646 OA
HETATM   32  O6  UNL     1     -31.218  -0.010 -14.507  1.00  0.00    -0.646 OA
ENDBRANCH  27  30
ENDBRANCH  12  23
ENDBRANCH   9  12
ENDBRANCH   6   9
BRANCH   8  33
HETATM   33  O7  UNL     1     -36.911  -3.930 -19.739  1.00  0.00    -0.345 OA
ATOM     34  H7  UNL     1     -37.421  -3.701 -20.507  1.00  0.00     0.219 HD
ENDBRANCH   8  33
BRANCH   8  35
HETATM   35  N5  UNL     1     -35.179  -2.677 -18.939  1.00  0.00    -0.360 N 
ATOM     36  H5  UNL     1     -34.870  -1.786 -19.328  1.00  0.00     0.162 HD
BRANCH  35  37
HETATM   37  C19 UNL     1     -34.149  -3.521 -18.412  1.00  0.00     0.033 C 
HETATM   38  C23 UNL     1     -34.749  -4.913 -18.182  1.00  0.00     0.031 C 
HETATM   39  C24 UNL     1     -33.853  -5.847 -17.468  1.00  0.00     0.002 C 
HETATM   40  C25 UNL     1     -33.121  -5.331 -16.287  1.00  0.00     0.000 C 
HETATM   41  C26 UNL     1     -32.813  -3.868 -16.313  1.00  0.00     0.002 C 
HETATM   42  C27 UNL     1     -33.839  -3.033 -17.000  1.00  0.00     0.031 C 
BRANCH  37  43
HETATM   43  C20 UNL     1     -32.953  -3.695 -19.242  1.00  0.00     0.046 C 
BRANCH  43  44
HETATM   44  C21 UNL     1     -32.471  -2.566 -20.070  1.00  0.00     0.142 C 
BRANCH  44  45
HETATM   45  S3  UNL     1     -30.764  -2.207 -19.588  1.00  0.00     0.140 S 
HETATM   46  C22 UNL     1     -30.053  -3.605 -18.770  1.00  0.00     0.161 C 
HETATM   47  O8  UNL     1     -29.941  -1.844 -20.766  1.00  0.00    -0.228 OA
HETATM   48  O9  UNL     1     -30.745  -1.055 -18.623  1.00  0.00    -0.228 OA
ENDBRANCH  44  45
ENDBRANCH  43  44
ENDBRANCH  37  43
ENDBRANCH  35  37
ENDBRANCH   8  35
TORSDOF 12
ENDMDL
MODEL 3
REMARK VINA RESULT: -7.908889138      2.888      8.250
REMARK  12 active torsions:
REMARK  status: ('A' for Active; 'I' for Inactive)
REMARK    1  A    between atoms: N1_6  and  C5_7 
REMARK    2  A    between atoms: C5_7  and  O1_8 
REMARK    3  A    between atoms: C5_7  and  C6_10 
REMARK    4  A    between atoms: C6_10  and  N2_11 
REMARK    5  A    between atoms: C6_10  and  C12_21 
REMARK       I    between atoms: N2_11  and  C7_13 
REMARK       I    between atoms: C7_13  and  N3_15 
REMARK       I    between atoms: C12_21  and  N4_23 
REMARK    6  A    between atoms: C15_27  and  C16_28 
REMARK    7  A    between atoms: C18_32  and  O7_33 
REMARK    8  A    between atoms: C18_32  and  N5_35 
REMARK    9  A    between atoms: N5_35  and  C19_37 
REMARK   10  A    between atoms: C19_37  and  C20_38 
REMARK   11  A    between atoms: C20_38  and  C21_39 
REMARK   12  A    between atoms: C21_39  and  S3_40 
ROOT
HETATM    1  C1  UNL     1     -33.371  -0.221 -18.229  1.00  0.00     0.034 C 
HETATM    2  C2  UNL     1     -32.711  -0.382 -16.900  1.00  0.00     0.049 C 
HETATM    3  C3  UNL     1     -31.324  -0.902 -16.933  1.00  0.00     0.034 C 
HETATM    4  S1  UNL     1     -33.734  -1.627 -15.966  1.00  0.00    -0.133 SA
HETATM    5  C4  UNL     1     -34.571  -0.389 -14.860  1.00  0.00     0.205 C 
HETATM    6  N1  UNL     1     -34.398   0.781 -15.751  1.00  0.00    -0.318 N 
HETATM    7  C17 UNL     1     -32.951   0.765 -15.961  1.00  0.00     0.083 C 
HETATM    8  C18 UNL     1     -32.187   1.953 -16.108  1.00  0.00     0.161 C 
ENDROOT
BRANCH   6   9
HETATM    9  C5  UNL     1     -35.362   1.633 -16.270  1.00  0.00     0.151 C 
BRANCH   9  10
HETATM   10  O1  UNL     1     -35.646   2.647 -15.494  1.00  0.00    -0.347 OA
ATOM     11  H1  UNL     1     -36.192   2.421 -14.750  1.00  0.00     0.219 HD
ENDBRANCH   9  10
BRANCH   9  12
HETATM   12  C6  UNL     1     -36.124   1.633 -17.496  1.00  0.00     0.253 C 
BRANCH  12  13
HETATM   13  N2  UNL     1     -35.971   3.015 -18.038  1.00  0.00    -0.322 N 
HETATM   14  C7  UNL     1     -35.606   3.282 -19.366  1.00  0.00     0.319 C 
HETATM   15  O2  UNL     1     -35.401   2.294 -20.116  1.00  0.00    -0.247 OA
HETATM   16  N3  UNL     1     -35.461   4.590 -19.886  1.00  0.00    -0.330 N 
HETATM   17  C8  UNL     1     -35.715   5.713 -19.002  1.00  0.00     0.153 C 
HETATM   18  C11 UNL     1     -35.066   4.777 -21.253  1.00  0.00     0.153 C 
HETATM   19  C9  UNL     1     -35.906   6.998 -19.776  1.00  0.00     0.187 C 
HETATM   20  O3  UNL     1     -35.120   7.083 -20.902  1.00  0.00    -0.388 OA
HETATM   21  C10 UNL     1     -35.589   6.103 -21.808  1.00  0.00     0.187 C 
ATOM     22  H2  UNL     1     -36.139   3.803 -17.413  1.00  0.00     0.165 HD
ENDBRANCH  12  13
BRANCH  12  23
HETATM   23  C12 UNL     1     -37.501   1.228 -17.558  1.00  0.00     0.252 C 
HETATM   24  O4  UNL     1     -38.372   2.078 -17.147  1.00  0.00    -0.270 OA
HETATM   25  N4  UNL     1     -38.042  -0.010 -18.029  1.00  0.00    -0.326 N 
HETATM   26  C13 UNL     1     -37.173  -1.061 -18.516  1.00  0.00     0.201 C 
HETATM   27  C15 UNL     1     -39.437  -0.382 -18.099  1.00  0.00     0.198 C 
HETATM   28  S2  UNL     1     -38.230  -1.812 -19.819  1.00  0.00    -0.147 SA
HETATM   29  C14 UNL     1     -39.707  -0.745 -19.570  1.00  0.00     0.112 C 
BRANCH  27  30
HETATM   30  C16 UNL     1     -39.785  -1.550 -17.294  1.00  0.00     0.197 C 
HETATM   31  O5  UNL     1     -39.062  -2.014 -16.395  1.00  0.00    -0.646 OA
HETATM   32  O6  UNL     1     -40.993  -2.184 -17.540  1.00  0.00    -0.646 OA
ENDBRANCH  27  30
ENDBRANCH  12  23
ENDBRANCH   9  12
ENDBRANCH   6   9
BRANCH   8  33
HETATM   33  O7  UNL     1     -31.100   1.823 -16.820  1.00  0.00    -0.345 OA
ATOM     34  H7  UNL     1     -30.830   2.606 -17.283  1.00  0.00     0.219 HD
ENDBRANCH   8  33
BRANCH   8  35
HETATM   35  N5  UNL     1     -32.405   3.246 -15.601  1.00  0.00    -0.360 N 
ATOM     36  H5  UNL     1     -32.828   3.911 -16.248  1.00  0.00     0.162 HD
BRANCH  35  37
HETATM   37  C19 UNL     1     -32.108   3.746 -14.293  1.00  0.00     0.033 C 
HETATM   38  C23 UNL     1     -30.933   4.724 -14.414  1.00  0.00     0.031 C 
HETATM   39  C24 UNL     1     -30.393   5.185 -13.117  1.00  0.00     0.002 C 
HETATM   40  C25 UNL     1     -30.193   4.171 -12.056  1.00  0.00     0.000 C 
HETATM   41  C26 UNL     1     -31.117   2.996 -12.110  1.00  0.00     0.002 C 
HETATM   42  C27 UNL     1     -31.523   2.592 -13.485  1.00  0.00     0.031 C 
BRANCH  37  43
HETATM   43  C20 UNL     1     -33.190   4.451 -13.598  1.00  0.00     0.046 C 
BRANCH  43  44
HETATM   44  C21 UNL     1     -33.827   5.623 -14.242  1.00  0.00     0.142 C 
BRANCH  44  45
HETATM   45  S3  UNL     1     -35.544   5.708 -13.677  1.00  0.00     0.140 S 
HETATM   46  C22 UNL     1     -35.718   6.957 -12.436  1.00  0.00     0.161 C 
HETATM   47  O8  UNL     1     -36.464   5.990 -14.804  1.00  0.00    -0.228 OA
HETATM   48  O9  UNL     1     -35.938   4.395 -13.061  1.00  0.00    -0.228 OA
ENDBRANCH  44  45
ENDBRANCH  43  44
ENDBRANCH  37  43
ENDBRANCH  35  37
ENDBRANCH   8  35
TORSDOF 12
ENDMDL
MODEL 4
REMARK VINA RESULT: -7.866232455      1.717      4.812
REMARK  12 active torsions:
REMARK  status: ('A' for Active; 'I' for Inactive)
REMARK    1  A    between atoms: N1_6  and  C5_7 
REMARK    2  A    between atoms: C5_7  and  O1_8 
REMARK    3  A    between atoms: C5_7  and  C6_10 
REMARK    4  A    between atoms: C6_10  and  N2_11 
REMARK    5  A    between atoms: C6_10  and  C12_21 
REMARK       I    between atoms: N2_11  and  C7_13 
REMARK       I    between atoms: C7_13  and  N3_15 
REMARK       I    between atoms: C12_21  and  N4_23 
REMARK    6  A    between atoms: C15_27  and  C16_28 
REMARK    7  A    between atoms: C18_32  and  O7_33 
REMARK    8  A    between atoms: C18_32  and  N5_35 
REMARK    9  A    between atoms: N5_35  and  C19_37 
REMARK   10  A    between atoms: C19_37  and  C20_38 
REMARK   11  A    between atoms: C20_38  and  C21_39 
REMARK   12  A    between atoms: C21_39  and  S3_40 
ROOT
HETATM    1  C1  UNL     1     -33.703  -3.001 -16.254  1.00  0.00     0.034 C 
HETATM    2  C2  UNL     1     -33.587  -3.834 -17.487  1.00  0.00     0.049 C 
HETATM    3  C3  UNL     1     -33.683  -5.298 -17.280  1.00  0.00     0.034 C 
HETATM    4  S1  UNL     1     -31.891  -3.496 -18.177  1.00  0.00    -0.133 SA
HETATM    5  C4  UNL     1     -32.469  -2.394 -19.559  1.00  0.00     0.205 C 
HETATM    6  N1  UNL     1     -33.748  -1.991 -18.932  1.00  0.00    -0.318 N 
HETATM    7  C17 UNL     1     -34.352  -3.293 -18.659  1.00  0.00     0.083 C 
HETATM    8  C18 UNL     1     -35.753  -3.518 -18.735  1.00  0.00     0.161 C 
ENDROOT
BRANCH   6   9
HETATM    9  C5  UNL     1     -34.219  -0.716 -18.652  1.00  0.00     0.151 C 
BRANCH   9  10
HETATM   10  O1  UNL     1     -35.259  -0.367 -19.363  1.00  0.00    -0.347 OA
ATOM     11  H1  UNL     1     -35.345  -0.844 -20.180  1.00  0.00     0.219 HD
ENDBRANCH   9  10
BRANCH   9  12
HETATM   12  C6  UNL     1     -33.795   0.314 -17.734  1.00  0.00     0.253 C 
BRANCH  12  13
HETATM   13  N2  UNL     1     -32.618  -0.269 -17.026  1.00  0.00    -0.322 N 
HETATM   14  C7  UNL     1     -31.308   0.200 -17.199  1.00  0.00     0.319 C 
HETATM   15  O2  UNL     1     -31.141   1.159 -17.996  1.00  0.00    -0.247 OA
HETATM   16  N3  UNL     1     -30.188  -0.348 -16.529  1.00  0.00    -0.330 N 
HETATM   17  C8  UNL     1     -30.410  -1.445 -15.606  1.00  0.00     0.153 C 
HETATM   18  C11 UNL     1     -28.877   0.180 -16.776  1.00  0.00     0.153 C 
HETATM   19  C9  UNL     1     -29.221  -1.655 -14.695  1.00  0.00     0.187 C 
HETATM   20  O3  UNL     1     -28.012  -1.410 -15.303  1.00  0.00    -0.388 OA
HETATM   21  C10 UNL     1     -27.958  -0.022 -15.570  1.00  0.00     0.187 C 
ATOM     22  H2  UNL     1     -32.774  -1.048 -16.386  1.00  0.00     0.165 HD
ENDBRANCH  12  13
BRANCH  12  23
HETATM   23  C12 UNL     1     -34.684   0.931 -16.790  1.00  0.00     0.252 C 
HETATM   24  O4  UNL     1     -35.069   0.207 -15.801  1.00  0.00    -0.270 OA
HETATM   25  N4  UNL     1     -35.200   2.265 -16.796  1.00  0.00    -0.326 N 
HETATM   26  C13 UNL     1     -34.852   3.189 -17.856  1.00  0.00     0.201 C 
HETATM   27  C15 UNL     1     -36.078   2.867 -15.818  1.00  0.00     0.198 C 
HETATM   28  S2  UNL     1     -34.843   4.783 -16.940  1.00  0.00    -0.147 SA
HETATM   29  C14 UNL     1     -35.347   4.118 -15.302  1.00  0.00     0.112 C 
BRANCH  27  30
HETATM   30  C16 UNL     1     -37.363   3.307 -16.358  1.00  0.00     0.197 C 
HETATM   31  O5  UNL     1     -37.849   2.885 -17.422  1.00  0.00    -0.646 OA
HETATM   32  O6  UNL     1     -38.087   4.250 -15.648  1.00  0.00    -0.646 OA
ENDBRANCH  27  30
ENDBRANCH  12  23
ENDBRANCH   9  12
ENDBRANCH   6   9
BRANCH   8  33
HETATM   33  O7  UNL     1     -36.199  -4.471 -17.964  1.00  0.00    -0.345 OA
ATOM     34  H7  UNL     1     -35.774  -5.312 -18.080  1.00  0.00     0.219 HD
ENDBRANCH   8  33
BRANCH   8  35
HETATM   35  N5  UNL     1     -36.736  -2.886 -19.516  1.00  0.00    -0.360 N 
ATOM     36  H5  UNL     1     -36.491  -2.720 -20.492  1.00  0.00     0.162 HD
BRANCH  35  37
HETATM   37  C19 UNL     1     -38.039  -2.446 -19.116  1.00  0.00     0.033 C 
HETATM   38  C23 UNL     1     -38.425  -1.249 -19.994  1.00  0.00     0.031 C 
HETATM   39  C24 UNL     1     -39.671  -0.570 -19.575  1.00  0.00     0.002 C 
HETATM   40  C25 UNL     1     -39.859  -0.310 -18.129  1.00  0.00     0.000 C 
HETATM   41  C26 UNL     1     -39.189  -1.281 -17.210  1.00  0.00     0.002 C 
HETATM   42  C27 UNL     1     -37.904  -1.832 -17.725  1.00  0.00     0.031 C 
BRANCH  37  43
HETATM   43  C20 UNL     1     -39.124  -3.427 -19.215  1.00  0.00     0.046 C 
BRANCH  43  44
HETATM   44  C21 UNL     1     -39.038  -4.507 -20.224  1.00  0.00     0.142 C 
BRANCH  44  45
HETATM   45  S3  UNL     1     -39.182  -6.091 -19.362  1.00  0.00     0.140 S 
HETATM   46  C22 UNL     1     -39.853  -7.318 -20.447  1.00  0.00     0.161 C 
HETATM   47  O8  UNL     1     -37.867  -6.542 -18.849  1.00  0.00    -0.228 OA
HETATM   48  O9  UNL     1     -40.121  -5.949 -18.198  1.00  0.00    -0.228 OA
ENDBRANCH  44  45
ENDBRANCH  43  44
ENDBRANCH  37  43
ENDBRANCH  35  37
ENDBRANCH   8  35
TORSDOF 12
ENDMDL
MODEL 5
REMARK VINA RESULT: -7.832913968      3.492      8.965
REMARK  12 active torsions:
REMARK  status: ('A' for Active; 'I' for Inactive)
REMARK    1  A    between atoms: N1_6  and  C5_7 
REMARK    2  A    between atoms: C5_7  and  O1_8 
REMARK    3  A    between atoms: C5_7  and  C6_10 
REMARK    4  A    between atoms: C6_10  and  N2_11 
REMARK    5  A    between atoms: C6_10  and  C12_21 
REMARK       I    between atoms: N2_11  and  C7_13 
REMARK       I    between atoms: C7_13  and  N3_15 
REMARK       I    between atoms: C12_21  and  N4_23 
REMARK    6  A    between atoms: C15_27  and  C16_28 
REMARK    7  A    between atoms: C18_32  and  O7_33 
REMARK    8  A    between atoms: C18_32  and  N5_35 
REMARK    9  A    between atoms: N5_35  and  C19_37 
REMARK   10  A    between atoms: C19_37  and  C20_38 
REMARK   11  A    between atoms: C20_38  and  C21_39 
REMARK   12  A    between atoms: C21_39  and  S3_40 
ROOT
HETATM    1  C1  UNL     1     -32.600   1.342 -17.832  1.00  0.00     0.034 C 
HETATM    2  C2  UNL     1     -32.155   1.133 -16.422  1.00  0.00     0.049 C 
HETATM    3  C3  UNL     1     -30.688   1.104 -16.213  1.00  0.00     0.034 C 
HETATM    4  S1  UNL     1     -32.806  -0.538 -15.921  1.00  0.00    -0.133 SA
HETATM    5  C4  UNL     1     -34.199   0.112 -14.874  1.00  0.00     0.205 C 
HETATM    6  N1  UNL     1     -34.308   1.432 -15.537  1.00  0.00    -0.318 N 
HETATM    7  C17 UNL     1     -32.938   1.924 -15.415  1.00  0.00     0.083 C 
HETATM    8  C18 UNL     1     -32.633   3.298 -15.224  1.00  0.00     0.161 C 
ENDROOT
BRANCH   6   9
HETATM    9  C5  UNL     1     -35.413   2.017 -16.139  1.00  0.00     0.151 C 
BRANCH   9  10
HETATM   10  O1  UNL     1     -35.975   2.954 -15.420  1.00  0.00    -0.347 OA
ATOM     11  H1  UNL     1     -35.380   3.646 -15.156  1.00  0.00     0.219 HD
ENDBRANCH   9  10
BRANCH   9  12
HETATM   12  C6  UNL     1     -36.078   1.804 -17.402  1.00  0.00     0.253 C 
BRANCH  12  13
HETATM   13  N2  UNL     1     -35.868   3.072 -18.160  1.00  0.00    -0.322 N 
HETATM   14  C7  UNL     1     -35.679   3.114 -19.549  1.00  0.00     0.319 C 
HETATM   15  O2  UNL     1     -35.688   2.017 -20.164  1.00  0.00    -0.247 OA
HETATM   16  N3  UNL     1     -35.482   4.314 -20.273  1.00  0.00    -0.330 N 
HETATM   17  C8  UNL     1     -35.488   5.567 -19.541  1.00  0.00     0.153 C 
HETATM   18  C11 UNL     1     -35.278   4.268 -21.693  1.00  0.00     0.153 C 
HETATM   19  C9  UNL     1     -35.661   6.751 -20.466  1.00  0.00     0.187 C 
HETATM   20  O3  UNL     1     -35.046   6.590 -21.686  1.00  0.00    -0.388 OA
HETATM   21  C10 UNL     1     -35.741   5.561 -22.365  1.00  0.00     0.187 C 
ATOM     22  H2  UNL     1     -35.862   3.951 -17.643  1.00  0.00     0.165 HD
ENDBRANCH  12  13
BRANCH  12  23
HETATM   23  C12 UNL     1     -37.450   1.390 -17.501  1.00  0.00     0.252 C 
HETATM   24  O4  UNL     1     -38.337   2.235 -17.113  1.00  0.00    -0.270 OA
HETATM   25  N4  UNL     1     -37.971   0.150 -17.987  1.00  0.00    -0.326 N 
HETATM   26  C13 UNL     1     -37.083  -0.895 -18.452  1.00  0.00     0.201 C 
HETATM   27  C15 UNL     1     -39.362  -0.231 -18.095  1.00  0.00     0.198 C 
HETATM   28  S2  UNL     1     -38.101  -1.651 -19.783  1.00  0.00    -0.147 SA
HETATM   29  C14 UNL     1     -39.590  -0.594 -19.572  1.00  0.00     0.112 C 
BRANCH  27  30
HETATM   30  C16 UNL     1     -39.724  -1.402 -17.299  1.00  0.00     0.197 C 
HETATM   31  O5  UNL     1     -38.999  -1.892 -16.417  1.00  0.00    -0.646 OA
HETATM   32  O6  UNL     1     -40.948  -2.006 -17.538  1.00  0.00    -0.646 OA
ENDBRANCH  27  30
ENDBRANCH  12  23
ENDBRANCH   9  12
ENDBRANCH   6   9
BRANCH   8  33
HETATM   33  O7  UNL     1     -31.469   3.671 -15.683  1.00  0.00    -0.345 OA
ATOM     34  H7  UNL     1     -30.728   3.192 -15.333  1.00  0.00     0.219 HD
ENDBRANCH   8  33
BRANCH   8  35
HETATM   35  N5  UNL     1     -33.376   4.320 -14.609  1.00  0.00    -0.360 N 
ATOM     36  H5  UNL     1     -34.029   4.819 -15.212  1.00  0.00     0.162 HD
BRANCH  35  37
HETATM   37  C19 UNL     1     -33.334   4.748 -13.243  1.00  0.00     0.033 C 
HETATM   38  C23 UNL     1     -33.397   3.500 -12.353  1.00  0.00     0.031 C 
HETATM   39  C24 UNL     1     -33.546   3.793 -10.911  1.00  0.00     0.002 C 
HETATM   40  C25 UNL     1     -34.526   4.834 -10.518  1.00  0.00     0.000 C 
HETATM   41  C26 UNL     1     -34.758   5.909 -11.531  1.00  0.00     0.002 C 
HETATM   42  C27 UNL     1     -34.651   5.458 -12.947  1.00  0.00     0.031 C 
BRANCH  37  43
HETATM   43  C20 UNL     1     -32.154   5.515 -12.831  1.00  0.00     0.046 C 
BRANCH  43  44
HETATM   44  C21 UNL     1     -31.839   6.790 -13.516  1.00  0.00     0.142 C 
BRANCH  44  45
HETATM   45  S3  UNL     1     -30.121   6.715 -14.077  1.00  0.00     0.140 S 
HETATM   46  C22 UNL     1     -29.042   7.352 -12.827  1.00  0.00     0.161 C 
HETATM   47  O8  UNL     1     -29.729   5.326 -14.416  1.00  0.00    -0.228 OA
HETATM   48  O9  UNL     1     -29.952   7.568 -15.303  1.00  0.00    -0.228 OA
ENDBRANCH  44  45
ENDBRANCH  43  44
ENDBRANCH  37  43
ENDBRANCH  35  37
ENDBRANCH   8  35
TORSDOF 12
ENDMDL
