MODEL 1
REMARK VINA RESULT: -9.722141288      0.000      0.000
REMARK  14 active torsions:
REMARK  status: ('A' for Active; 'I' for Inactive)
REMARK    1  A    between atoms: O1_2  and  C2_3 
REMARK    2  A    between atoms: C5_6  and  C6_7 
REMARK       I    between atoms: N1_12  and  C11_14 
REMARK    3  A    between atoms: C11_14  and  C12_16 
REMARK    4  A    between atoms: C12_16  and  N2_17 
REMARK    5  A    between atoms: N2_17  and  N3_18 
REMARK    6  A    between atoms: N2_17  and  C26_49 
REMARK       I    between atoms: N3_18  and  C13_20 
REMARK    7  A    between atoms: C13_20  and  C14_22 
REMARK    8  A    between atoms: C17_25  and  C18_26 
REMARK       I    between atoms: C18_26  and  N4_28 
REMARK    9  A    between atoms: C21_34  and  C22_35 
REMARK   10  A    between atoms: C22_35  and  C23_36 
REMARK   11  A    between atoms: C23_36  and  S1_37 
REMARK   12  A    between atoms: S1_37  and  N6_38 
REMARK   13  A    between atoms: C26_49  and  O7_50 
REMARK   14  A    between atoms: C26_49  and  N9_52 
ROOT
HETATM    1  N3  UNL     1     -37.350  -7.398 -19.578  1.00  0.00    -0.260 N 
ATOM      2  H3  UNL     1     -37.287  -6.770 -20.379  1.00  0.00     0.190 HD
HETATM    3  C13 UNL     1     -36.605  -7.159 -18.388  1.00  0.00     0.270 C 
HETATM    4  O3  UNL     1     -36.675  -7.937 -17.385  1.00  0.00    -0.266 OA
ENDROOT
BRANCH   3   5
HETATM    5  C14 UNL     1     -35.728  -6.012 -18.266  1.00  0.00     0.033 A 
HETATM    6  C15 UNL     1     -34.426  -6.155 -17.768  1.00  0.00     0.018 A 
HETATM    7  C16 UNL     1     -33.559  -5.109 -17.632  1.00  0.00     0.018 A 
HETATM    8  C17 UNL     1     -33.945  -3.815 -17.996  1.00  0.00     0.032 A 
HETATM    9  C24 UNL     1     -35.217  -3.658 -18.486  1.00  0.00     0.018 A 
HETATM   10  C25 UNL     1     -36.084  -4.738 -18.615  1.00  0.00     0.018 A 
BRANCH   8  11
HETATM   11  C18 UNL     1     -33.021  -2.699 -17.852  1.00  0.00     0.257 C 
HETATM   12  O4  UNL     1     -31.922  -2.720 -18.429  1.00  0.00    -0.267 OA
HETATM   13  N4  UNL     1     -33.377  -1.590 -17.055  1.00  0.00    -0.307 N 
HETATM   14  C19 UNL     1     -33.871  -0.543 -17.614  1.00  0.00     0.138 A 
ATOM     15  H4  UNL     1     -33.243  -1.619 -16.044  1.00  0.00     0.170 HD
HETATM   16  C20 UNL     1     -34.056  -0.493 -18.978  1.00  0.00     0.139 A 
HETATM   17  N8  UNL     1     -34.221   0.528 -16.884  1.00  0.00    -0.283 N 
HETATM   18  N5  UNL     1     -34.570   0.586 -19.588  1.00  0.00    -0.351 N 
HETATM   19  C21 UNL     1     -34.913   1.648 -18.834  1.00  0.00     0.096 A 
ATOM     20  H5  UNL     1     -34.697   0.602 -20.600  1.00  0.00     0.166 HD
HETATM   21  N7  UNL     1     -34.726   1.589 -17.484  1.00  0.00    -0.287 N 
ATOM     22  H7  UNL     1     -34.986   2.395 -16.916  1.00  0.00     0.188 HD
ATOM     23  H8  UNL     1     -34.096   0.522 -15.872  1.00  0.00     0.188 HD
BRANCH  19  24
HETATM   24  C22 UNL     1     -35.484   2.888 -19.359  1.00  0.00     0.094 C 
BRANCH  24  25
HETATM   25  C23 UNL     1     -34.920   4.172 -18.892  1.00  0.00     0.170 C 
BRANCH  25  26
HETATM   26  S1  UNL     1     -35.230   5.577 -19.898  1.00  0.00     0.224 S 
HETATM   27  O5  UNL     1     -36.084   5.157 -21.081  1.00  0.00    -0.206 OA
HETATM   28  O6  UNL     1     -36.056   6.552 -19.084  1.00  0.00    -0.206 OA
BRANCH  26  29
HETATM   29  N6  UNL     1     -33.831   6.389 -20.403  1.00  0.00    -0.328 N 
ATOM     30  H62 UNL     1     -33.303   6.098 -21.226  1.00  0.00     0.168 HD
ATOM     31  H61 UNL     1     -33.573   7.182 -19.814  1.00  0.00     0.168 HD
ENDBRANCH  26  29
ENDBRANCH  25  26
ENDBRANCH  24  25
ENDBRANCH  19  24
ENDBRANCH   8  11
ENDBRANCH   3   5
BRANCH   1  32
HETATM   32  N2  UNL     1     -38.165  -8.519 -19.603  1.00  0.00    -0.245 N 
BRANCH  32  33
HETATM   33  C12 UNL     1     -39.292  -8.501 -18.644  1.00  0.00     0.256 C 
BRANCH  33  34
HETATM   34  C11 UNL     1     -40.210  -7.377 -18.961  1.00  0.00     0.242 C 
HETATM   35  N1  UNL     1     -40.250  -6.170 -18.240  1.00  0.00    -0.320 N 
HETATM   36  C10 UNL     1     -39.870  -5.020 -18.703  1.00  0.00     0.077 A 
ATOM     37  H1  UNL     1     -40.604  -6.201 -17.284  1.00  0.00     0.169 HD
HETATM   38  C9  UNL     1     -39.384  -4.922 -19.990  1.00  0.00     0.037 A 
HETATM   39  S2  UNL     1     -39.915  -3.561 -17.842  1.00  0.00    -0.072 SA
HETATM   40  C8  UNL     1     -38.954  -3.778 -20.590  1.00  0.00     0.004 A 
HETATM   41  C7  UNL     1     -38.931  -2.522 -20.018  1.00  0.00     0.020 A 
HETATM   42  C6  UNL     1     -39.334  -2.212 -18.751  1.00  0.00     0.017 A 
HETATM   43  O2  UNL     1     -41.008  -7.496 -19.934  1.00  0.00    -0.271 OA
BRANCH  42  44
HETATM   44  C5  UNL     1     -39.289  -0.865 -18.191  1.00  0.00    -0.019 A 
HETATM   45  C4  UNL     1     -38.082  -0.205 -18.144  1.00  0.00     0.015 A 
HETATM   46  C3  UNL     1     -38.012   1.082 -17.618  1.00  0.00     0.037 A 
HETATM   47  C2  UNL     1     -39.135   1.724 -17.136  1.00  0.00     0.068 A 
HETATM   48  C30 UNL     1     -40.332   1.043 -17.193  1.00  0.00     0.037 A 
HETATM   49  C29 UNL     1     -40.393  -0.259 -17.727  1.00  0.00     0.015 A 
BRANCH  47  50
HETATM   50  O1  UNL     1     -39.072   3.014 -16.608  1.00  0.00    -0.356 OA
HETATM   51  C1  UNL     1     -37.779   3.547 -16.320  1.00  0.00     0.210 C 
ENDBRANCH  47  50
ENDBRANCH  42  44
ENDBRANCH  33  34
ENDBRANCH  32  33
BRANCH  32  52
HETATM   52  C26 UNL     1     -37.965  -9.603 -20.441  1.00  0.00     0.236 C 
BRANCH  52  53
HETATM   53  O7  UNL     1     -37.364 -10.644 -19.938  1.00  0.00    -0.331 OA
ATOM     54  H7  UNL     1     -37.033 -11.293 -20.548  1.00  0.00     0.221 HD
ENDBRANCH  52  53
BRANCH  52  55
HETATM   55  N9  UNL     1     -38.328  -9.735 -21.773  1.00  0.00    -0.355 N 
HETATM   56  C27 UNL     1     -39.052 -10.940 -22.253  1.00  0.00     0.152 C 
HETATM   57  C28 UNL     1     -38.069  -8.762 -22.787  1.00  0.00     0.152 C 
ENDBRANCH  52  55
ENDBRANCH  32  52
ENDBRANCH   1  32
TORSDOF 14
ENDMDL
MODEL 2
REMARK VINA RESULT: -9.673875260      2.643     10.504
REMARK  14 active torsions:
REMARK  status: ('A' for Active; 'I' for Inactive)
REMARK    1  A    between atoms: O1_2  and  C2_3 
REMARK    2  A    between atoms: C5_6  and  C6_7 
REMARK       I    between atoms: N1_12  and  C11_14 
REMARK    3  A    between atoms: C11_14  and  C12_16 
REMARK    4  A    between atoms: C12_16  and  N2_17 
REMARK    5  A    between atoms: N2_17  and  N3_18 
REMARK    6  A    between atoms: N2_17  and  C26_49 
REMARK       I    between atoms: N3_18  and  C13_20 
REMARK    7  A    between atoms: C13_20  and  C14_22 
REMARK    8  A    between atoms: C17_25  and  C18_26 
REMARK       I    between atoms: C18_26  and  N4_28 
REMARK    9  A    between atoms: C21_34  and  C22_35 
REMARK   10  A    between atoms: C22_35  and  C23_36 
REMARK   11  A    between atoms: C23_36  and  S1_37 
REMARK   12  A    between atoms: S1_37  and  N6_38 
REMARK   13  A    between atoms: C26_49  and  O7_50 
REMARK   14  A    between atoms: C26_49  and  N9_52 
ROOT
HETATM    1  N3  UNL     1     -37.713   2.369 -18.083  1.00  0.00    -0.260 N 
ATOM      2  H3  UNL     1     -38.605   2.461 -18.569  1.00  0.00     0.190 HD
HETATM    3  C13 UNL     1     -37.419   1.230 -17.280  1.00  0.00     0.270 C 
HETATM    4  O3  UNL     1     -36.312   1.107 -16.668  1.00  0.00    -0.266 OA
ENDROOT
BRANCH   3   5
HETATM    5  C14 UNL     1     -38.375   0.152 -17.123  1.00  0.00     0.033 A 
HETATM    6  C15 UNL     1     -39.747   0.380 -17.299  1.00  0.00     0.018 A 
HETATM    7  C16 UNL     1     -40.690  -0.599 -17.164  1.00  0.00     0.018 A 
HETATM    8  C17 UNL     1     -40.315  -1.906 -16.836  1.00  0.00     0.032 A 
HETATM    9  C24 UNL     1     -38.975  -2.145 -16.660  1.00  0.00     0.018 A 
HETATM   10  C25 UNL     1     -38.032  -1.132 -16.803  1.00  0.00     0.018 A 
BRANCH   8  11
HETATM   11  C18 UNL     1     -41.319  -2.950 -16.692  1.00  0.00     0.257 C 
HETATM   12  O4  UNL     1     -42.483  -2.754 -17.077  1.00  0.00    -0.267 OA
HETATM   13  N4  UNL     1     -40.968  -4.188 -16.113  1.00  0.00    -0.307 N 
HETATM   14  C19 UNL     1     -40.674  -5.181 -16.875  1.00  0.00     0.138 A 
ATOM     15  H4  UNL     1     -40.947  -4.294 -15.099  1.00  0.00     0.170 HD
HETATM   16  C20 UNL     1     -40.699  -5.048 -18.246  1.00  0.00     0.139 A 
HETATM   17  N8  UNL     1     -40.335  -6.372 -16.356  1.00  0.00    -0.283 N 
HETATM   18  N5  UNL     1     -40.397  -6.067 -19.066  1.00  0.00    -0.351 N 
HETATM   19  C21 UNL     1     -40.059  -7.252 -18.521  1.00  0.00     0.096 A 
ATOM     20  H5  UNL     1     -40.422  -5.948 -20.078  1.00  0.00     0.166 HD
HETATM   21  N7  UNL     1     -40.038  -7.373 -17.161  1.00  0.00    -0.287 N 
ATOM     22  H7  UNL     1     -39.782  -8.271 -16.752  1.00  0.00     0.188 HD
ATOM     23  H8  UNL     1     -40.307  -6.501 -15.345  1.00  0.00     0.188 HD
BRANCH  19  24
HETATM   24  C22 UNL     1     -39.705  -8.446 -19.287  1.00  0.00     0.094 C 
BRANCH  24  25
HETATM   25  C23 UNL     1     -38.993  -8.269 -20.569  1.00  0.00     0.170 C 
BRANCH  25  26
HETATM   26  S1  UNL     1     -39.787  -8.900 -22.002  1.00  0.00     0.224 S 
HETATM   27  O5  UNL     1     -39.461 -10.378 -22.136  1.00  0.00    -0.206 OA
HETATM   28  O6  UNL     1     -41.283  -8.799 -21.780  1.00  0.00    -0.206 OA
BRANCH  26  29
HETATM   29  N6  UNL     1     -39.424  -8.056 -23.425  1.00  0.00    -0.328 N 
ATOM     30  H62 UNL     1     -38.515  -8.132 -23.882  1.00  0.00     0.168 HD
ATOM     31  H61 UNL     1     -40.187  -7.475 -23.773  1.00  0.00     0.168 HD
ENDBRANCH  26  29
ENDBRANCH  25  26
ENDBRANCH  24  25
ENDBRANCH  19  24
ENDBRANCH   8  11
ENDBRANCH   3   5
BRANCH   1  32
HETATM   32  N2  UNL     1     -36.736   3.348 -18.176  1.00  0.00    -0.245 N 
BRANCH  32  33
HETATM   33  C12 UNL     1     -36.464   3.840 -19.546  1.00  0.00     0.256 C 
BRANCH  33  34
HETATM   34  C11 UNL     1     -35.743   2.800 -20.324  1.00  0.00     0.242 C 
HETATM   35  N1  UNL     1     -35.029   1.738 -19.740  1.00  0.00    -0.320 N 
HETATM   36  C10 UNL     1     -35.380   0.492 -19.800  1.00  0.00     0.077 A 
ATOM     37  H1  UNL     1     -34.174   1.965 -19.232  1.00  0.00     0.169 HD
HETATM   38  C9  UNL     1     -36.527   0.130 -20.473  1.00  0.00     0.037 A 
HETATM   39  S2  UNL     1     -34.526  -0.794 -19.099  1.00  0.00    -0.072 SA
HETATM   40  C8  UNL     1     -37.001  -1.140 -20.607  1.00  0.00     0.004 A 
HETATM   41  C7  UNL     1     -36.418  -2.281 -20.094  1.00  0.00     0.020 A 
HETATM   42  C6  UNL     1     -35.266  -2.332 -19.364  1.00  0.00     0.017 A 
HETATM   43  O2  UNL     1     -35.763   2.858 -21.586  1.00  0.00    -0.271 OA
BRANCH  42  44
HETATM   44  C5  UNL     1     -34.690  -3.568 -18.843  1.00  0.00    -0.019 A 
HETATM   45  C4  UNL     1     -35.533  -4.588 -18.467  1.00  0.00     0.015 A 
HETATM   46  C3  UNL     1     -35.009  -5.777 -17.970  1.00  0.00     0.037 A 
HETATM   47  C2  UNL     1     -33.647  -5.966 -17.842  1.00  0.00     0.068 A 
HETATM   48  C30 UNL     1     -32.823  -4.931 -18.225  1.00  0.00     0.037 A 
HETATM   49  C29 UNL     1     -33.362  -3.729 -18.727  1.00  0.00     0.015 A 
BRANCH  47  50
HETATM   50  O1  UNL     1     -33.115  -7.156 -17.345  1.00  0.00    -0.356 OA
HETATM   51  C1  UNL     1     -32.789  -7.203 -15.956  1.00  0.00     0.210 C 
ENDBRANCH  47  50
ENDBRANCH  42  44
ENDBRANCH  33  34
ENDBRANCH  32  33
BRANCH  32  52
HETATM   52  C26 UNL     1     -36.035   3.849 -17.092  1.00  0.00     0.236 C 
BRANCH  52  53
HETATM   53  O7  UNL     1     -34.784   3.503 -16.978  1.00  0.00    -0.331 OA
ATOM     54  H7  UNL     1     -34.331   3.761 -16.184  1.00  0.00     0.221 HD
ENDBRANCH  52  53
BRANCH  52  55
HETATM   55  N9  UNL     1     -36.494   4.688 -16.088  1.00  0.00    -0.355 N 
HETATM   56  C27 UNL     1     -35.871   6.017 -15.857  1.00  0.00     0.152 C 
HETATM   57  C28 UNL     1     -37.579   4.388 -15.209  1.00  0.00     0.152 C 
ENDBRANCH  52  55
ENDBRANCH  32  52
ENDBRANCH   1  32
TORSDOF 14
ENDMDL
MODEL 3
REMARK VINA RESULT: -9.584903597      3.726      7.209
REMARK  14 active torsions:
REMARK  status: ('A' for Active; 'I' for Inactive)
REMARK    1  A    between atoms: O1_2  and  C2_3 
REMARK    2  A    between atoms: C5_6  and  C6_7 
REMARK       I    between atoms: N1_12  and  C11_14 
REMARK    3  A    between atoms: C11_14  and  C12_16 
REMARK    4  A    between atoms: C12_16  and  N2_17 
REMARK    5  A    between atoms: N2_17  and  N3_18 
REMARK    6  A    between atoms: N2_17  and  C26_49 
REMARK       I    between atoms: N3_18  and  C13_20 
REMARK    7  A    between atoms: C13_20  and  C14_22 
REMARK    8  A    between atoms: C17_25  and  C18_26 
REMARK       I    between atoms: C18_26  and  N4_28 
REMARK    9  A    between atoms: C21_34  and  C22_35 
REMARK   10  A    between atoms: C22_35  and  C23_36 
REMARK   11  A    between atoms: C23_36  and  S1_37 
REMARK   12  A    between atoms: S1_37  and  N6_38 
REMARK   13  A    between atoms: C26_49  and  O7_50 
REMARK   14  A    between atoms: C26_49  and  N9_52 
ROOT
HETATM    1  N3  UNL     1     -39.968  -9.012 -20.794  1.00  0.00    -0.260 N 
ATOM      2  H3  UNL     1     -40.446  -9.330 -19.952  1.00  0.00     0.190 HD
HETATM    3  C13 UNL     1     -39.588  -7.649 -20.961  1.00  0.00     0.270 C 
HETATM    4  O3  UNL     1     -38.993  -7.243 -22.009  1.00  0.00    -0.266 OA
ENDROOT
BRANCH   3   5
HETATM    5  C14 UNL     1     -39.864  -6.659 -19.941  1.00  0.00     0.033 A 
HETATM    6  C15 UNL     1     -40.714  -6.955 -18.866  1.00  0.00     0.018 A 
HETATM    7  C16 UNL     1     -41.008  -6.060 -17.877  1.00  0.00     0.018 A 
HETATM    8  C17 UNL     1     -40.455  -4.775 -17.896  1.00  0.00     0.032 A 
HETATM    9  C24 UNL     1     -39.620  -4.470 -18.941  1.00  0.00     0.018 A 
HETATM   10  C25 UNL     1     -39.335  -5.398 -19.938  1.00  0.00     0.018 A 
BRANCH   8  11
HETATM   11  C18 UNL     1     -40.767  -3.820 -16.842  1.00  0.00     0.257 C 
HETATM   12  O4  UNL     1     -40.622  -4.137 -15.651  1.00  0.00    -0.267 OA
HETATM   13  N4  UNL     1     -41.233  -2.532 -17.177  1.00  0.00    -0.307 N 
HETATM   14  C19 UNL     1     -40.403  -1.550 -17.221  1.00  0.00     0.138 A 
ATOM     15  H4  UNL     1     -42.221  -2.379 -17.382  1.00  0.00     0.170 HD
HETATM   16  C20 UNL     1     -39.068  -1.745 -16.945  1.00  0.00     0.139 A 
HETATM   17  N8  UNL     1     -40.815  -0.312 -17.536  1.00  0.00    -0.283 N 
HETATM   18  N5  UNL     1     -38.179  -0.740 -16.983  1.00  0.00    -0.351 N 
HETATM   19  C21 UNL     1     -38.617   0.493 -17.303  1.00  0.00     0.096 A 
ATOM     20  H5  UNL     1     -37.195  -0.906 -16.775  1.00  0.00     0.166 HD
HETATM   21  N7  UNL     1     -39.942   0.675 -17.574  1.00  0.00    -0.287 N 
ATOM     22  H7  UNL     1     -40.270   1.610 -17.816  1.00  0.00     0.188 HD
ATOM     23  H8  UNL     1     -41.798  -0.137 -17.746  1.00  0.00     0.188 HD
BRANCH  19  24
HETATM   24  C22 UNL     1     -37.766   1.680 -17.385  1.00  0.00     0.094 C 
BRANCH  24  25
HETATM   25  C23 UNL     1     -38.330   2.977 -16.958  1.00  0.00     0.170 C 
BRANCH  25  26
HETATM   26  S1  UNL     1     -37.257   4.043 -16.067  1.00  0.00     0.224 S 
HETATM   27  O5  UNL     1     -38.054   4.753 -14.986  1.00  0.00    -0.206 OA
HETATM   28  O6  UNL     1     -36.232   3.178 -15.361  1.00  0.00    -0.206 OA
BRANCH  26  29
HETATM   29  N6  UNL     1     -36.412   5.146 -17.037  1.00  0.00    -0.328 N 
ATOM     30  H62 UNL     1     -36.454   5.113 -18.056  1.00  0.00     0.168 HD
ATOM     31  H61 UNL     1     -35.869   5.832 -16.513  1.00  0.00     0.168 HD
ENDBRANCH  26  29
ENDBRANCH  25  26
ENDBRANCH  24  25
ENDBRANCH  19  24
ENDBRANCH   8  11
ENDBRANCH   3   5
BRANCH   1  32
HETATM   32  N2  UNL     1     -39.660  -9.888 -21.824  1.00  0.00    -0.245 N 
BRANCH  32  33
HETATM   33  C12 UNL     1     -38.384 -10.622 -21.666  1.00  0.00     0.256 C 
BRANCH  33  34
HETATM   34  C11 UNL     1     -38.315 -11.236 -20.315  1.00  0.00     0.242 C 
HETATM   35  N1  UNL     1     -37.170 -11.209 -19.499  1.00  0.00    -0.320 N 
HETATM   36  C10 UNL     1     -37.067 -10.540 -18.394  1.00  0.00     0.077 A 
ATOM     37  H1  UNL     1     -36.362 -11.755 -19.799  1.00  0.00     0.169 HD
HETATM   38  C9  UNL     1     -38.130  -9.786 -17.943  1.00  0.00     0.037 A 
HETATM   39  S2  UNL     1     -35.691 -10.501 -17.404  1.00  0.00    -0.072 SA
HETATM   40  C8  UNL     1     -38.147  -9.042 -16.803  1.00  0.00     0.004 A 
HETATM   41  C7  UNL     1     -37.108  -8.914 -15.903  1.00  0.00     0.020 A 
HETATM   42  C6  UNL     1     -35.884  -9.511 -16.003  1.00  0.00     0.017 A 
HETATM   43  O2  UNL     1     -39.337 -11.821 -19.857  1.00  0.00    -0.271 OA
BRANCH  42  44
HETATM   44  C5  UNL     1     -34.817  -9.343 -15.022  1.00  0.00    -0.019 A 
HETATM   45  C4  UNL     1     -33.552  -9.030 -15.464  1.00  0.00     0.015 A 
HETATM   46  C3  UNL     1     -32.516  -8.860 -14.550  1.00  0.00     0.037 A 
HETATM   47  C2  UNL     1     -32.725  -9.000 -13.192  1.00  0.00     0.068 A 
HETATM   48  C30 UNL     1     -34.000  -9.313 -12.773  1.00  0.00     0.037 A 
HETATM   49  C29 UNL     1     -35.042  -9.483 -13.706  1.00  0.00     0.015 A 
BRANCH  47  50
HETATM   50  O1  UNL     1     -31.692  -8.831 -12.269  1.00  0.00    -0.356 OA
HETATM   51  C1  UNL     1     -31.218  -7.503 -12.045  1.00  0.00     0.210 C 
ENDBRANCH  47  50
ENDBRANCH  42  44
ENDBRANCH  33  34
ENDBRANCH  32  33
BRANCH  32  52
HETATM   52  C26 UNL     1     -40.455 -10.082 -22.939  1.00  0.00     0.236 C 
BRANCH  52  53
HETATM   53  O7  UNL     1     -40.206  -9.348 -23.987  1.00  0.00    -0.331 OA
ATOM     54  H7  UNL     1     -40.249  -9.770 -24.836  1.00  0.00     0.221 HD
ENDBRANCH  52  53
BRANCH  52  55
HETATM   55  N9  UNL     1     -41.507 -10.973 -23.098  1.00  0.00    -0.355 N 
HETATM   56  C27 UNL     1     -42.855 -10.671 -22.551  1.00  0.00     0.152 C 
HETATM   57  C28 UNL     1     -41.419 -12.220 -23.788  1.00  0.00     0.152 C 
ENDBRANCH  52  55
ENDBRANCH  32  52
ENDBRANCH   1  32
TORSDOF 14
ENDMDL
MODEL 4
REMARK VINA RESULT: -9.478512513      2.659      9.741
REMARK  14 active torsions:
REMARK  status: ('A' for Active; 'I' for Inactive)
REMARK    1  A    between atoms: O1_2  and  C2_3 
REMARK    2  A    between atoms: C5_6  and  C6_7 
REMARK       I    between atoms: N1_12  and  C11_14 
REMARK    3  A    between atoms: C11_14  and  C12_16 
REMARK    4  A    between atoms: C12_16  and  N2_17 
REMARK    5  A    between atoms: N2_17  and  N3_18 
REMARK    6  A    between atoms: N2_17  and  C26_49 
REMARK       I    between atoms: N3_18  and  C13_20 
REMARK    7  A    between atoms: C13_20  and  C14_22 
REMARK    8  A    between atoms: C17_25  and  C18_26 
REMARK       I    between atoms: C18_26  and  N4_28 
REMARK    9  A    between atoms: C21_34  and  C22_35 
REMARK   10  A    between atoms: C22_35  and  C23_36 
REMARK   11  A    between atoms: C23_36  and  S1_37 
REMARK   12  A    between atoms: S1_37  and  N6_38 
REMARK   13  A    between atoms: C26_49  and  O7_50 
REMARK   14  A    between atoms: C26_49  and  N9_52 
ROOT
HETATM    1  N3  UNL     1     -35.462   1.634 -17.369  1.00  0.00    -0.260 N 
ATOM      2  H3  UNL     1     -34.990   1.429 -16.488  1.00  0.00     0.190 HD
HETATM    3  C13 UNL     1     -35.209   0.868 -18.542  1.00  0.00     0.270 C 
HETATM    4  O3  UNL     1     -35.791   1.118 -19.645  1.00  0.00    -0.266 OA
ENDROOT
BRANCH   3   5
HETATM    5  C14 UNL     1     -34.272  -0.236 -18.534  1.00  0.00     0.033 A 
HETATM    6  C15 UNL     1     -34.391  -1.285 -19.456  1.00  0.00     0.018 A 
HETATM    7  C16 UNL     1     -33.536  -2.349 -19.492  1.00  0.00     0.018 A 
HETATM    8  C17 UNL     1     -32.474  -2.438 -18.586  1.00  0.00     0.032 A 
HETATM    9  C24 UNL     1     -32.343  -1.419 -17.676  1.00  0.00     0.018 A 
HETATM   10  C25 UNL     1     -33.227  -0.344 -17.657  1.00  0.00     0.018 A 
BRANCH   8  11
HETATM   11  C18 UNL     1     -31.562  -3.571 -18.623  1.00  0.00     0.257 C 
HETATM   12  O4  UNL     1     -30.392  -3.443 -18.227  1.00  0.00    -0.267 OA
HETATM   13  N4  UNL     1     -32.007  -4.818 -19.111  1.00  0.00    -0.307 N 
HETATM   14  C19 UNL     1     -32.399  -5.718 -18.281  1.00  0.00     0.138 A 
ATOM     15  H4  UNL     1     -32.019  -5.003 -20.114  1.00  0.00     0.170 HD
HETATM   16  C20 UNL     1     -32.386  -5.478 -16.924  1.00  0.00     0.139 A 
HETATM   17  N8  UNL     1     -32.829  -6.914 -18.713  1.00  0.00    -0.283 N 
HETATM   18  N5  UNL     1     -32.788  -6.399 -16.035  1.00  0.00    -0.351 N 
HETATM   19  C21 UNL     1     -33.217  -7.592 -16.493  1.00  0.00     0.096 A 
ATOM     20  H5  UNL     1     -32.770  -6.201 -15.035  1.00  0.00     0.166 HD
HETATM   21  N7  UNL     1     -33.225  -7.819 -17.839  1.00  0.00    -0.287 N 
ATOM     22  H7  UNL     1     -33.550  -8.722 -18.182  1.00  0.00     0.188 HD
ATOM     23  H8  UNL     1     -32.851  -7.121 -19.711  1.00  0.00     0.188 HD
BRANCH  19  24
HETATM   24  C22 UNL     1     -33.685  -8.686 -15.644  1.00  0.00     0.094 C 
BRANCH  24  25
HETATM   25  C23 UNL     1     -34.294  -9.866 -16.294  1.00  0.00     0.170 C 
BRANCH  25  26
HETATM   26  S1  UNL     1     -36.009  -9.766 -16.652  1.00  0.00     0.224 S 
HETATM   27  O5  UNL     1     -36.750  -9.332 -15.399  1.00  0.00    -0.206 OA
HETATM   28  O6  UNL     1     -36.202  -8.668 -17.679  1.00  0.00    -0.206 OA
BRANCH  26  29
HETATM   29  N6  UNL     1     -36.667 -11.188 -17.297  1.00  0.00    -0.328 N 
ATOM     30  H62 UNL     1     -36.094 -12.010 -17.490  1.00  0.00     0.168 HD
ATOM     31  H61 UNL     1     -37.671 -11.143 -17.471  1.00  0.00     0.168 HD
ENDBRANCH  26  29
ENDBRANCH  25  26
ENDBRANCH  24  25
ENDBRANCH  19  24
ENDBRANCH   8  11
ENDBRANCH   3   5
BRANCH   1  32
HETATM   32  N2  UNL     1     -36.377   2.671 -17.472  1.00  0.00    -0.245 N 
BRANCH  32  33
HETATM   33  C12 UNL     1     -37.618   2.497 -16.684  1.00  0.00     0.256 C 
BRANCH  33  34
HETATM   34  C11 UNL     1     -38.677   1.892 -17.533  1.00  0.00     0.242 C 
HETATM   35  N1  UNL     1     -38.477   0.766 -18.352  1.00  0.00    -0.320 N 
HETATM   36  C10 UNL     1     -39.005  -0.400 -18.146  1.00  0.00     0.077 A 
ATOM     37  H1  UNL     1     -37.874   0.875 -19.167  1.00  0.00     0.169 HD
HETATM   38  C9  UNL     1     -39.829  -0.602 -17.059  1.00  0.00     0.037 A 
HETATM   39  S2  UNL     1     -38.770  -1.761 -19.128  1.00  0.00    -0.072 SA
HETATM   40  C8  UNL     1     -40.441  -1.774 -16.735  1.00  0.00     0.004 A 
HETATM   41  C7  UNL     1     -40.344  -2.960 -17.435  1.00  0.00     0.020 A 
HETATM   42  C6  UNL     1     -39.616  -3.160 -18.573  1.00  0.00     0.017 A 
HETATM   43  O2  UNL     1     -39.832   2.406 -17.528  1.00  0.00    -0.271 OA
BRANCH  42  44
HETATM   44  C5  UNL     1     -39.546  -4.437 -19.277  1.00  0.00    -0.019 A 
HETATM   45  C4  UNL     1     -39.088  -4.456 -20.574  1.00  0.00     0.015 A 
HETATM   46  C3  UNL     1     -39.008  -5.660 -21.267  1.00  0.00     0.037 A 
HETATM   47  C2  UNL     1     -39.379  -6.854 -20.681  1.00  0.00     0.068 A 
HETATM   48  C30 UNL     1     -39.834  -6.809 -19.381  1.00  0.00     0.037 A 
HETATM   49  C29 UNL     1     -39.912  -5.585 -18.687  1.00  0.00     0.015 A 
BRANCH  47  50
HETATM   50  O1  UNL     1     -39.301  -8.065 -21.369  1.00  0.00    -0.356 OA
HETATM   51  C1  UNL     1     -39.223  -8.010 -22.793  1.00  0.00     0.210 C 
ENDBRANCH  47  50
ENDBRANCH  42  44
ENDBRANCH  33  34
ENDBRANCH  32  33
BRANCH  32  52
HETATM   52  C26 UNL     1     -36.186   3.797 -18.253  1.00  0.00     0.236 C 
BRANCH  52  53
HETATM   53  O7  UNL     1     -36.662   3.772 -19.466  1.00  0.00    -0.331 OA
ATOM     54  H7  UNL     1     -37.563   4.050 -19.587  1.00  0.00     0.221 HD
ENDBRANCH  52  53
BRANCH  52  55
HETATM   55  N9  UNL     1     -35.542   4.978 -17.913  1.00  0.00    -0.355 N 
HETATM   56  C27 UNL     1     -35.252   6.014 -18.937  1.00  0.00     0.152 C 
HETATM   57  C28 UNL     1     -35.115   5.320 -16.593  1.00  0.00     0.152 C 
ENDBRANCH  52  55
ENDBRANCH  32  52
ENDBRANCH   1  32
TORSDOF 14
ENDMDL
MODEL 5
REMARK VINA RESULT: -9.421360544      3.400      9.877
REMARK  14 active torsions:
REMARK  status: ('A' for Active; 'I' for Inactive)
REMARK    1  A    between atoms: O1_2  and  C2_3 
REMARK    2  A    between atoms: C5_6  and  C6_7 
REMARK       I    between atoms: N1_12  and  C11_14 
REMARK    3  A    between atoms: C11_14  and  C12_16 
REMARK    4  A    between atoms: C12_16  and  N2_17 
REMARK    5  A    between atoms: N2_17  and  N3_18 
REMARK    6  A    between atoms: N2_17  and  C26_49 
REMARK       I    between atoms: N3_18  and  C13_20 
REMARK    7  A    between atoms: C13_20  and  C14_22 
REMARK    8  A    between atoms: C17_25  and  C18_26 
REMARK       I    between atoms: C18_26  and  N4_28 
REMARK    9  A    between atoms: C21_34  and  C22_35 
REMARK   10  A    between atoms: C22_35  and  C23_36 
REMARK   11  A    between atoms: C23_36  and  S1_37 
REMARK   12  A    between atoms: S1_37  and  N6_38 
REMARK   13  A    between atoms: C26_49  and  O7_50 
REMARK   14  A    between atoms: C26_49  and  N9_52 
ROOT
HETATM    1  N3  UNL     1     -35.374   1.473 -17.556  1.00  0.00    -0.260 N 
ATOM      2  H3  UNL     1     -34.826   1.298 -16.714  1.00  0.00     0.190 HD
HETATM    3  C13 UNL     1     -35.240   0.651 -18.712  1.00  0.00     0.270 C 
HETATM    4  O3  UNL     1     -35.917   0.863 -19.767  1.00  0.00    -0.266 OA
ENDROOT
BRANCH   3   5
HETATM    5  C14 UNL     1     -34.321  -0.469 -18.738  1.00  0.00     0.033 A 
HETATM    6  C15 UNL     1     -34.714  -1.706 -19.267  1.00  0.00     0.018 A 
HETATM    7  C16 UNL     1     -33.888  -2.793 -19.317  1.00  0.00     0.018 A 
HETATM    8  C17 UNL     1     -32.580  -2.714 -18.830  1.00  0.00     0.032 A 
HETATM    9  C24 UNL     1     -32.180  -1.509 -18.309  1.00  0.00     0.018 A 
HETATM   10  C25 UNL     1     -33.038  -0.414 -18.268  1.00  0.00     0.018 A 
BRANCH   8  11
HETATM   11  C18 UNL     1     -31.699  -3.872 -18.882  1.00  0.00     0.257 C 
HETATM   12  O4  UNL     1     -30.469  -3.723 -18.808  1.00  0.00    -0.267 OA
HETATM   13  N4  UNL     1     -32.245  -5.165 -19.018  1.00  0.00    -0.307 N 
HETATM   14  C19 UNL     1     -32.419  -5.891 -17.971  1.00  0.00     0.138 A 
ATOM     15  H4  UNL     1     -32.500  -5.522 -19.939  1.00  0.00     0.170 HD
HETATM   16  C20 UNL     1     -32.077  -5.419 -16.722  1.00  0.00     0.139 A 
HETATM   17  N8  UNL     1     -32.937  -7.126 -18.066  1.00  0.00    -0.283 N 
HETATM   18  N5  UNL     1     -32.247  -6.154 -15.612  1.00  0.00    -0.351 N 
HETATM   19  C21 UNL     1     -32.769  -7.390 -15.734  1.00  0.00     0.096 A 
ATOM     20  H5  UNL     1     -31.987  -5.786 -14.698  1.00  0.00     0.166 HD
HETATM   21  N7  UNL     1     -33.104  -7.848 -16.975  1.00  0.00    -0.287 N 
ATOM     22  H7  UNL     1     -33.499  -8.784 -17.063  1.00  0.00     0.188 HD
ATOM     23  H8  UNL     1     -33.200  -7.503 -18.976  1.00  0.00     0.188 HD
BRANCH  19  24
HETATM   24  C22 UNL     1     -33.012  -8.301 -14.615  1.00  0.00     0.094 C 
BRANCH  24  25
HETATM   25  C23 UNL     1     -32.534  -7.905 -13.274  1.00  0.00     0.170 C 
BRANCH  25  26
HETATM   26  S1  UNL     1     -33.115  -8.862 -11.921  1.00  0.00     0.224 S 
HETATM   27  O5  UNL     1     -32.685 -10.306 -12.118  1.00  0.00    -0.206 OA
HETATM   28  O6  UNL     1     -32.418  -8.362 -10.672  1.00  0.00    -0.206 OA
BRANCH  26  29
HETATM   29  N6  UNL     1     -34.784  -8.745 -11.655  1.00  0.00    -0.328 N 
ATOM     30  H62 UNL     1     -35.187  -8.029 -11.051  1.00  0.00     0.168 HD
ATOM     31  H61 UNL     1     -35.336  -9.448 -12.148  1.00  0.00     0.168 HD
ENDBRANCH  26  29
ENDBRANCH  25  26
ENDBRANCH  24  25
ENDBRANCH  19  24
ENDBRANCH   8  11
ENDBRANCH   3   5
BRANCH   1  32
HETATM   32  N2  UNL     1     -36.280   2.520 -17.623  1.00  0.00    -0.245 N 
BRANCH  32  33
HETATM   33  C12 UNL     1     -37.480   2.371 -16.769  1.00  0.00     0.256 C 
BRANCH  33  34
HETATM   34  C11 UNL     1     -38.589   1.769 -17.553  1.00  0.00     0.242 C 
HETATM   35  N1  UNL     1     -38.441   0.645 -18.385  1.00  0.00    -0.320 N 
HETATM   36  C10 UNL     1     -38.958  -0.520 -18.150  1.00  0.00     0.077 A 
ATOM     37  H1  UNL     1     -37.888   0.755 -19.235  1.00  0.00     0.169 HD
HETATM   38  C9  UNL     1     -39.715  -0.723 -17.016  1.00  0.00     0.037 A 
HETATM   39  S2  UNL     1     -38.785  -1.880 -19.147  1.00  0.00    -0.072 SA
HETATM   40  C8  UNL     1     -40.309  -1.895 -16.658  1.00  0.00     0.004 A 
HETATM   41  C7  UNL     1     -40.256  -3.080 -17.364  1.00  0.00     0.020 A 
HETATM   42  C6  UNL     1     -39.599  -3.279 -18.544  1.00  0.00     0.017 A 
HETATM   43  O2  UNL     1     -39.740   2.285 -17.478  1.00  0.00    -0.271 OA
BRANCH  42  44
HETATM   44  C5  UNL     1     -39.573  -4.554 -19.253  1.00  0.00    -0.019 A 
HETATM   45  C4  UNL     1     -40.064  -5.675 -18.624  1.00  0.00     0.015 A 
HETATM   46  C3  UNL     1     -40.055  -6.903 -19.279  1.00  0.00     0.037 A 
HETATM   47  C2  UNL     1     -39.560  -7.030 -20.562  1.00  0.00     0.068 A 
HETATM   48  C30 UNL     1     -39.074  -5.894 -21.171  1.00  0.00     0.037 A 
HETATM   49  C29 UNL     1     -39.087  -4.655 -20.500  1.00  0.00     0.015 A 
BRANCH  47  50
HETATM   50  O1  UNL     1     -39.547  -8.258 -21.225  1.00  0.00    -0.356 OA
HETATM   51  C1  UNL     1     -38.394  -8.574 -22.005  1.00  0.00     0.210 C 
ENDBRANCH  47  50
ENDBRANCH  42  44
ENDBRANCH  33  34
ENDBRANCH  32  33
BRANCH  32  52
HETATM   52  C26 UNL     1     -36.116   3.635 -18.426  1.00  0.00     0.236 C 
BRANCH  52  53
HETATM   53  O7  UNL     1     -36.571   3.566 -19.645  1.00  0.00    -0.331 OA
ATOM     54  H7  UNL     1     -37.241   4.191 -19.897  1.00  0.00     0.221 HD
ENDBRANCH  52  53
BRANCH  52  55
HETATM   55  N9  UNL     1     -35.520   4.845 -18.101  1.00  0.00    -0.355 N 
HETATM   56  C27 UNL     1     -35.794   6.070 -18.895  1.00  0.00     0.152 C 
HETATM   57  C28 UNL     1     -34.625   5.043 -17.006  1.00  0.00     0.152 C 
ENDBRANCH  52  55
ENDBRANCH  32  52
ENDBRANCH   1  32
TORSDOF 14
ENDMDL
