MODEL 1
REMARK VINA RESULT: -9.178533626      0.000      0.000
REMARK  15 active torsions:
REMARK  status: ('A' for Active; 'I' for Inactive)
REMARK    1  A    between atoms: C2_2  and  C4_4 
REMARK    2  A    between atoms: C4_4  and  N1_5 
REMARK       I    between atoms: N1_5  and  C5_6 
REMARK    3  A    between atoms: C5_6  and  O2_8 
REMARK    4  A    between atoms: O2_8  and  C6_9 
REMARK    5  A    between atoms: C10_13  and  O3_14 
REMARK    6  A    between atoms: C10_13  and  N2_16 
REMARK    7  A    between atoms: C13_20  and  O4_21 
REMARK    8  A    between atoms: C13_20  and  N4_23 
REMARK    9  A    between atoms: N4_23  and  C14_25 
REMARK   10  A    between atoms: C14_25  and  C15_26 
REMARK   11  A    between atoms: C14_25  and  C20_32 
REMARK   12  A    between atoms: C15_26  and  N5_27 
REMARK   13  A    between atoms: N5_27  and  C17_29 
REMARK   14  A    between atoms: C20_32  and  O5_33 
REMARK   15  A    between atoms: C20_32  and  N6_35 
ROOT
HETATM    1  N4  UNL     1     -37.926  -2.915 -19.720  1.00  0.00    -0.343 N 
ATOM      2  H4  UNL     1     -37.987  -2.754 -20.725  1.00  0.00     0.164 HD
ENDROOT
BRANCH   1   3
HETATM    3  C13 UNL     1     -37.700  -4.220 -19.266  1.00  0.00     0.215 C 
HETATM    4  N3  UNL     1     -38.014  -5.480 -19.456  1.00  0.00    -0.345 N 
HETATM    5  C12 UNL     1     -37.297  -6.679 -19.095  1.00  0.00     0.146 C 
HETATM    6  C32 UNL     1     -39.440  -5.816 -19.893  1.00  0.00     0.146 C 
HETATM    7  C11 UNL     1     -38.053  -7.935 -19.668  1.00  0.00     0.145 C 
HETATM    8  N2  UNL     1     -39.344  -8.047 -19.107  1.00  0.00    -0.356 N 
HETATM    9  C33 UNL     1     -39.892  -6.703 -18.668  1.00  0.00     0.145 C 
BRANCH   8  10
HETATM   10  C10 UNL     1     -40.269  -9.076 -19.095  1.00  0.00     0.176 C 
HETATM   11  C4  UNL     1     -40.872  -9.820 -20.167  1.00  0.00     0.144 C 
BRANCH  11  12
HETATM   12  C2  UNL     1     -40.961  -9.080 -21.506  1.00  0.00     0.046 C 
HETATM   13  C1  UNL     1     -39.955  -9.645 -22.498  1.00  0.00     0.017 C 
HETATM   14  C3  UNL     1     -42.397  -9.242 -22.038  1.00  0.00     0.017 C 
ENDBRANCH  11  12
BRANCH  11  15
HETATM   15  N1  UNL     1     -41.054 -11.123 -20.311  1.00  0.00    -0.345 NA
HETATM   16  C5  UNL     1     -41.249 -12.521 -20.460  1.00  0.00     0.441 C 
HETATM   17  O1  UNL     1     -41.223 -13.430 -19.677  1.00  0.00    -0.221 OA
BRANCH  16  18
HETATM   18  O2  UNL     1     -41.534 -12.903 -21.801  1.00  0.00    -0.282 OA
BRANCH  18  19
HETATM   19  C6  UNL     1     -42.737 -13.071 -22.396  1.00  0.00     0.062 C 
HETATM   20  C7  UNL     1     -42.588 -12.487 -23.836  1.00  0.00     0.046 C 
HETATM   21  C8  UNL     1     -42.964 -14.589 -22.693  1.00  0.00     0.046 C 
HETATM   22  C9  UNL     1     -43.966 -12.579 -21.805  1.00  0.00     0.046 C 
ENDBRANCH  18  19
ENDBRANCH  16  18
ENDBRANCH  11  15
BRANCH  10  23
HETATM   23  O3  UNL     1     -40.697  -9.413 -17.898  1.00  0.00    -0.344 OA
ATOM     24  H3  UNL     1     -40.166  -9.078 -17.185  1.00  0.00     0.219 HD
ENDBRANCH  10  23
ENDBRANCH   8  10
BRANCH   3  25
HETATM   25  O4  UNL     1     -36.757  -4.081 -18.205  1.00  0.00    -0.333 OA
ATOM     26  H4  UNL     1     -37.166  -3.708 -17.432  1.00  0.00     0.220 HD
ENDBRANCH   3  25
ENDBRANCH   1   3
BRANCH   1  27
HETATM   27  C14 UNL     1     -38.087  -1.720 -18.785  1.00  0.00     0.188 C 
BRANCH  27  28
HETATM   28  C15 UNL     1     -39.577  -1.668 -18.651  1.00  0.00     0.305 C 
BRANCH  28  29
HETATM   29  N5  UNL     1     -40.179  -1.290 -17.439  1.00  0.00     0.090 N 
HETATM   30  C16 UNL     1     -40.911  -2.377 -16.842  1.00  0.00     0.310 C 
BRANCH  29  31
HETATM   31  C17 UNL     1     -40.877  -0.039 -17.432  1.00  0.00     0.214 C 
HETATM   32  C18 UNL     1     -39.950   1.126 -17.100  1.00  0.00     0.042 C 
HETATM   33  C19 UNL     1     -41.976  -0.005 -16.369  1.00  0.00     0.042 C 
ENDBRANCH  29  31
ENDBRANCH  28  29
ENDBRANCH  27  28
BRANCH  27  34
HETATM   34  C20 UNL     1     -37.604  -0.545 -19.568  1.00  0.00     0.138 C 
BRANCH  34  35
HETATM   35  O5  UNL     1     -38.635  -0.024 -20.199  1.00  0.00    -0.348 OA
ATOM     36  H5  UNL     1     -38.393   0.096 -21.109  1.00  0.00     0.219 HD
ENDBRANCH  34  35
BRANCH  34  37
HETATM   37  N6  UNL     1     -36.344   0.009 -19.702  1.00  0.00    -0.362 N 
HETATM   38  C21 UNL     1     -35.278   0.049 -18.775  1.00  0.00     0.127 C 
HETATM   39  C22 UNL     1     -35.496   0.339 -17.356  1.00  0.00     0.046 C 
HETATM   40  C23 UNL     1     -35.525   1.827 -17.068  1.00  0.00     0.169 C 
HETATM   41  O6  UNL     1     -35.531   2.122 -15.741  1.00  0.00    -0.389 OA
HETATM   42  C24 UNL     1     -36.174   3.330 -15.463  1.00  0.00     0.193 C 
HETATM   43  C25 UNL     1     -36.338   4.186 -16.670  1.00  0.00     0.193 C 
HETATM   44  O7  UNL     1     -36.188   5.554 -16.443  1.00  0.00    -0.387 OA
HETATM   45  C26 UNL     1     -35.572   6.129 -17.559  1.00  0.00     0.193 C 
HETATM   46  C27 UNL     1     -36.249   5.710 -18.863  1.00  0.00     0.193 C 
HETATM   47  O8  UNL     1     -35.451   5.861 -19.970  1.00  0.00    -0.387 OA
HETATM   48  C28 UNL     1     -35.034   4.651 -20.537  1.00  0.00     0.193 C 
HETATM   49  C29 UNL     1     -35.946   4.155 -21.596  1.00  0.00     0.193 C 
HETATM   50  O9  UNL     1     -35.782   2.832 -21.973  1.00  0.00    -0.387 OA
HETATM   51  C30 UNL     1     -35.545   2.026 -20.887  1.00  0.00     0.187 C 
HETATM   52  C31 UNL     1     -36.094   0.656 -21.024  1.00  0.00     0.151 C 
ENDBRANCH  34  37
ENDBRANCH  27  34
ENDBRANCH   1  27
TORSDOF 15
ENDMDL
MODEL 2
REMARK VINA RESULT: -8.759409783      0.943      1.330
REMARK  15 active torsions:
REMARK  status: ('A' for Active; 'I' for Inactive)
REMARK    1  A    between atoms: C2_2  and  C4_4 
REMARK    2  A    between atoms: C4_4  and  N1_5 
REMARK       I    between atoms: N1_5  and  C5_6 
REMARK    3  A    between atoms: C5_6  and  O2_8 
REMARK    4  A    between atoms: O2_8  and  C6_9 
REMARK    5  A    between atoms: C10_13  and  O3_14 
REMARK    6  A    between atoms: C10_13  and  N2_16 
REMARK    7  A    between atoms: C13_20  and  O4_21 
REMARK    8  A    between atoms: C13_20  and  N4_23 
REMARK    9  A    between atoms: N4_23  and  C14_25 
REMARK   10  A    between atoms: C14_25  and  C15_26 
REMARK   11  A    between atoms: C14_25  and  C20_32 
REMARK   12  A    between atoms: C15_26  and  N5_27 
REMARK   13  A    between atoms: N5_27  and  C17_29 
REMARK   14  A    between atoms: C20_32  and  O5_33 
REMARK   15  A    between atoms: C20_32  and  N6_35 
ROOT
HETATM    1  N4  UNL     1     -37.829  -2.927 -19.903  1.00  0.00    -0.343 N 
ATOM      2  H4  UNL     1     -37.891  -2.838 -20.917  1.00  0.00     0.164 HD
ENDROOT
BRANCH   1   3
HETATM    3  C13 UNL     1     -37.650  -4.204 -19.356  1.00  0.00     0.215 C 
HETATM    4  N3  UNL     1     -37.963  -5.471 -19.491  1.00  0.00    -0.345 N 
HETATM    5  C12 UNL     1     -37.286  -6.650 -19.007  1.00  0.00     0.146 C 
HETATM    6  C32 UNL     1     -39.357  -5.825 -20.010  1.00  0.00     0.146 C 
HETATM    7  C11 UNL     1     -38.011  -7.934 -19.556  1.00  0.00     0.145 C 
HETATM    8  N2  UNL     1     -39.340  -8.004 -19.085  1.00  0.00    -0.356 N 
HETATM    9  C33 UNL     1     -39.905  -6.633 -18.769  1.00  0.00     0.145 C 
BRANCH   8  10
HETATM   10  C10 UNL     1     -40.275  -9.025 -19.078  1.00  0.00     0.176 C 
HETATM   11  C4  UNL     1     -40.880  -9.762 -20.153  1.00  0.00     0.144 C 
BRANCH  11  12
HETATM   12  C2  UNL     1     -40.958  -9.019 -21.492  1.00  0.00     0.046 C 
HETATM   13  C1  UNL     1     -39.929  -9.567 -22.469  1.00  0.00     0.017 C 
HETATM   14  C3  UNL     1     -42.382  -9.199 -22.047  1.00  0.00     0.017 C 
ENDBRANCH  11  12
BRANCH  11  15
HETATM   15  N1  UNL     1     -41.073 -11.063 -20.300  1.00  0.00    -0.345 NA
HETATM   16  C5  UNL     1     -41.279 -12.459 -20.452  1.00  0.00     0.441 C 
HETATM   17  O1  UNL     1     -41.241 -13.372 -19.675  1.00  0.00    -0.221 OA
BRANCH  16  18
HETATM   18  O2  UNL     1     -41.597 -12.832 -21.788  1.00  0.00    -0.282 OA
BRANCH  18  19
HETATM   19  C6  UNL     1     -42.814 -13.001 -22.353  1.00  0.00     0.062 C 
HETATM   20  C7  UNL     1     -42.679 -12.496 -23.824  1.00  0.00     0.046 C 
HETATM   21  C8  UNL     1     -43.083 -14.526 -22.567  1.00  0.00     0.046 C 
HETATM   22  C9  UNL     1     -44.021 -12.449 -21.768  1.00  0.00     0.046 C 
ENDBRANCH  18  19
ENDBRANCH  16  18
ENDBRANCH  11  15
BRANCH  10  23
HETATM   23  O3  UNL     1     -40.710  -9.360 -17.883  1.00  0.00    -0.344 OA
ATOM     24  H3  UNL     1     -40.159  -9.986 -17.428  1.00  0.00     0.219 HD
ENDBRANCH  10  23
ENDBRANCH   8  10
BRANCH   3  25
HETATM   25  O4  UNL     1     -36.785  -4.006 -18.239  1.00  0.00    -0.333 OA
ATOM     26  H4  UNL     1     -36.761  -3.091 -17.984  1.00  0.00     0.220 HD
ENDBRANCH   3  25
ENDBRANCH   1   3
BRANCH   1  27
HETATM   27  C14 UNL     1     -37.938  -1.662 -19.057  1.00  0.00     0.188 C 
BRANCH  27  28
HETATM   28  C15 UNL     1     -39.417  -1.597 -18.839  1.00  0.00     0.305 C 
BRANCH  28  29
HETATM   29  N5  UNL     1     -39.947  -1.209 -17.596  1.00  0.00     0.090 N 
HETATM   30  C16 UNL     1     -40.603  -2.302 -16.928  1.00  0.00     0.310 C 
BRANCH  29  31
HETATM   31  C17 UNL     1     -40.680   0.022 -17.568  1.00  0.00     0.214 C 
HETATM   32  C18 UNL     1     -39.775   1.215 -17.280  1.00  0.00     0.042 C 
HETATM   33  C19 UNL     1     -41.736   0.031 -16.461  1.00  0.00     0.042 C 
ENDBRANCH  29  31
ENDBRANCH  28  29
ENDBRANCH  27  28
BRANCH  27  34
HETATM   34  C20 UNL     1     -37.506  -0.553 -19.958  1.00  0.00     0.138 C 
BRANCH  34  35
HETATM   35  O5  UNL     1     -38.563  -0.128 -20.616  1.00  0.00    -0.348 OA
ATOM     36  H5  UNL     1     -38.581  -0.567 -21.458  1.00  0.00     0.219 HD
ENDBRANCH  34  35
BRANCH  34  37
HETATM   37  N6  UNL     1     -36.267   0.024 -20.168  1.00  0.00    -0.362 N 
HETATM   38  C21 UNL     1     -34.992  -0.406 -19.735  1.00  0.00     0.127 C 
HETATM   39  C22 UNL     1     -34.767  -0.925 -18.384  1.00  0.00     0.046 C 
HETATM   40  C23 UNL     1     -34.505   0.178 -17.377  1.00  0.00     0.169 C 
HETATM   41  O6  UNL     1     -34.103  -0.282 -16.163  1.00  0.00    -0.389 OA
HETATM   42  C24 UNL     1     -34.468   0.570 -15.118  1.00  0.00     0.193 C 
HETATM   43  C25 UNL     1     -34.836   1.933 -15.591  1.00  0.00     0.193 C 
HETATM   44  O7  UNL     1     -34.438   2.973 -14.750  1.00  0.00    -0.387 OA
HETATM   45  C26 UNL     1     -34.080   4.073 -15.534  1.00  0.00     0.193 C 
HETATM   46  C27 UNL     1     -35.142   4.396 -16.584  1.00  0.00     0.193 C 
HETATM   47  O8  UNL     1     -34.668   5.138 -17.637  1.00  0.00    -0.387 OA
HETATM   48  C28 UNL     1     -34.599   4.432 -18.843  1.00  0.00     0.193 C 
HETATM   49  C29 UNL     1     -35.828   4.551 -19.664  1.00  0.00     0.193 C 
HETATM   50  O9  UNL     1     -35.962   3.638 -20.698  1.00  0.00    -0.387 OA
HETATM   51  C30 UNL     1     -35.550   2.385 -20.320  1.00  0.00     0.187 C 
HETATM   52  C31 UNL     1     -36.303   1.284 -20.967  1.00  0.00     0.151 C 
ENDBRANCH  34  37
ENDBRANCH  27  34
ENDBRANCH   1  27
TORSDOF 15
ENDMDL
MODEL 3
REMARK VINA RESULT: -8.555836577      2.699     13.214
REMARK  15 active torsions:
REMARK  status: ('A' for Active; 'I' for Inactive)
REMARK    1  A    between atoms: C2_2  and  C4_4 
REMARK    2  A    between atoms: C4_4  and  N1_5 
REMARK       I    between atoms: N1_5  and  C5_6 
REMARK    3  A    between atoms: C5_6  and  O2_8 
REMARK    4  A    between atoms: O2_8  and  C6_9 
REMARK    5  A    between atoms: C10_13  and  O3_14 
REMARK    6  A    between atoms: C10_13  and  N2_16 
REMARK    7  A    between atoms: C13_20  and  O4_21 
REMARK    8  A    between atoms: C13_20  and  N4_23 
REMARK    9  A    between atoms: N4_23  and  C14_25 
REMARK   10  A    between atoms: C14_25  and  C15_26 
REMARK   11  A    between atoms: C14_25  and  C20_32 
REMARK   12  A    between atoms: C15_26  and  N5_27 
REMARK   13  A    between atoms: N5_27  and  C17_29 
REMARK   14  A    between atoms: C20_32  and  O5_33 
REMARK   15  A    between atoms: C20_32  and  N6_35 
ROOT
HETATM    1  N4  UNL     1     -36.906  -3.751 -19.364  1.00  0.00    -0.343 N 
ATOM      2  H4  UNL     1     -36.303  -4.565 -19.246  1.00  0.00     0.164 HD
ENDROOT
BRANCH   1   3
HETATM    3  C13 UNL     1     -36.312  -2.484 -19.417  1.00  0.00     0.215 C 
HETATM    4  N3  UNL     1     -35.656  -1.588 -18.717  1.00  0.00    -0.345 N 
HETATM    5  C12 UNL     1     -34.793  -0.518 -19.156  1.00  0.00     0.146 C 
HETATM    6  C32 UNL     1     -35.994  -1.434 -17.233  1.00  0.00     0.146 C 
HETATM    7  C11 UNL     1     -34.153   0.187 -17.904  1.00  0.00     0.145 C 
HETATM    8  N2  UNL     1     -35.147   0.772 -17.089  1.00  0.00    -0.356 N 
HETATM    9  C33 UNL     1     -36.482   0.067 -17.226  1.00  0.00     0.145 C 
BRANCH   8  10
HETATM   10  C10 UNL     1     -35.084   1.685 -16.051  1.00  0.00     0.176 C 
HETATM   11  C4  UNL     1     -35.371   3.092 -16.009  1.00  0.00     0.144 C 
BRANCH  11  12
HETATM   12  C2  UNL     1     -35.203   3.833 -17.340  1.00  0.00     0.046 C 
HETATM   13  C1  UNL     1     -36.545   3.989 -18.040  1.00  0.00     0.017 C 
HETATM   14  C3  UNL     1     -34.587   5.212 -17.037  1.00  0.00     0.017 C 
ENDBRANCH  11  12
BRANCH  11  15
HETATM   15  N1  UNL     1     -36.072   3.800 -15.136  1.00  0.00    -0.345 NA
HETATM   16  C5  UNL     1     -36.827   4.557 -14.203  1.00  0.00     0.441 C 
HETATM   17  O1  UNL     1     -37.963   4.940 -14.203  1.00  0.00    -0.221 OA
BRANCH  16  18
HETATM   18  O2  UNL     1     -36.079   4.920 -13.048  1.00  0.00    -0.282 OA
BRANCH  18  19
HETATM   19  C6  UNL     1     -35.164   5.906 -12.908  1.00  0.00     0.062 C 
HETATM   20  C7  UNL     1     -35.192   6.306 -11.399  1.00  0.00     0.046 C 
HETATM   21  C8  UNL     1     -33.726   5.307 -13.048  1.00  0.00     0.046 C 
HETATM   22  C9  UNL     1     -35.190   7.107 -13.721  1.00  0.00     0.046 C 
ENDBRANCH  18  19
ENDBRANCH  16  18
ENDBRANCH  11  15
BRANCH  10  23
HETATM   23  O3  UNL     1     -34.657   1.188 -14.911  1.00  0.00    -0.344 OA
ATOM     24  H3  UNL     1     -35.288   0.634 -14.466  1.00  0.00     0.219 HD
ENDBRANCH  10  23
ENDBRANCH   8  10
BRANCH   3  25
HETATM   25  O4  UNL     1     -36.510  -2.042 -20.758  1.00  0.00    -0.333 OA
ATOM     26  H4  UNL     1     -35.683  -1.811 -21.166  1.00  0.00     0.220 HD
ENDBRANCH   3  25
ENDBRANCH   1   3
BRANCH   1  27
HETATM   27  C14 UNL     1     -38.410  -3.975 -19.475  1.00  0.00     0.188 C 
BRANCH  27  28
HETATM   28  C15 UNL     1     -38.884  -3.324 -18.214  1.00  0.00     0.305 C 
BRANCH  28  29
HETATM   29  N5  UNL     1     -39.928  -2.382 -18.236  1.00  0.00     0.090 N 
HETATM   30  C16 UNL     1     -39.620  -1.263 -19.088  1.00  0.00     0.310 C 
BRANCH  29  31
HETATM   31  C17 UNL     1     -40.492  -2.018 -16.970  1.00  0.00     0.214 C 
HETATM   32  C18 UNL     1     -41.700  -2.880 -16.620  1.00  0.00     0.042 C 
HETATM   33  C19 UNL     1     -41.001  -0.576 -16.966  1.00  0.00     0.042 C 
ENDBRANCH  29  31
ENDBRANCH  28  29
ENDBRANCH  27  28
BRANCH  27  34
HETATM   34  C20 UNL     1     -38.592  -5.454 -19.385  1.00  0.00     0.138 C 
BRANCH  34  35
HETATM   35  O5  UNL     1     -37.571  -5.949 -18.718  1.00  0.00    -0.348 OA
ATOM     36  H5  UNL     1     -37.823  -6.802 -18.385  1.00  0.00     0.219 HD
ENDBRANCH  34  35
BRANCH  34  37
HETATM   37  N6  UNL     1     -39.590  -6.283 -19.862  1.00  0.00    -0.362 N 
HETATM   38  C21 UNL     1     -40.727  -6.794 -19.196  1.00  0.00     0.127 C 
HETATM   39  C22 UNL     1     -40.658  -7.301 -17.824  1.00  0.00     0.046 C 
HETATM   40  C23 UNL     1     -40.229  -8.755 -17.765  1.00  0.00     0.169 C 
HETATM   41  O6  UNL     1     -40.344  -9.303 -16.527  1.00  0.00    -0.389 OA
HETATM   42  C24 UNL     1     -39.420 -10.327 -16.306  1.00  0.00     0.193 C 
HETATM   43  C25 UNL     1     -38.820 -10.842 -17.567  1.00  0.00     0.193 C 
HETATM   44  O7  UNL     1     -38.586 -12.217 -17.587  1.00  0.00    -0.387 OA
HETATM   45  C26 UNL     1     -38.818 -12.693 -18.881  1.00  0.00     0.193 C 
HETATM   46  C27 UNL     1     -38.102 -11.851 -19.935  1.00  0.00     0.193 C 
HETATM   47  O8  UNL     1     -38.634 -11.978 -21.195  1.00  0.00    -0.387 OA
HETATM   48  C28 UNL     1     -39.299 -10.832 -21.647  1.00  0.00     0.193 C 
HETATM   49  C29 UNL     1     -38.424  -9.905 -22.403  1.00  0.00     0.193 C 
HETATM   50  O9  UNL     1     -38.916  -8.625 -22.601  1.00  0.00    -0.387 OA
HETATM   51  C30 UNL     1     -39.551  -8.152 -21.480  1.00  0.00     0.187 C 
HETATM   52  C31 UNL     1     -39.423  -6.687 -21.289  1.00  0.00     0.151 C 
ENDBRANCH  34  37
ENDBRANCH  27  34
ENDBRANCH   1  27
TORSDOF 15
ENDMDL
MODEL 4
REMARK VINA RESULT: -8.549411738      1.823      3.666
REMARK  15 active torsions:
REMARK  status: ('A' for Active; 'I' for Inactive)
REMARK    1  A    between atoms: C2_2  and  C4_4 
REMARK    2  A    between atoms: C4_4  and  N1_5 
REMARK       I    between atoms: N1_5  and  C5_6 
REMARK    3  A    between atoms: C5_6  and  O2_8 
REMARK    4  A    between atoms: O2_8  and  C6_9 
REMARK    5  A    between atoms: C10_13  and  O3_14 
REMARK    6  A    between atoms: C10_13  and  N2_16 
REMARK    7  A    between atoms: C13_20  and  O4_21 
REMARK    8  A    between atoms: C13_20  and  N4_23 
REMARK    9  A    between atoms: N4_23  and  C14_25 
REMARK   10  A    between atoms: C14_25  and  C15_26 
REMARK   11  A    between atoms: C14_25  and  C20_32 
REMARK   12  A    between atoms: C15_26  and  N5_27 
REMARK   13  A    between atoms: N5_27  and  C17_29 
REMARK   14  A    between atoms: C20_32  and  O5_33 
REMARK   15  A    between atoms: C20_32  and  N6_35 
ROOT
HETATM    1  N4  UNL     1     -37.889  -2.887 -19.719  1.00  0.00    -0.343 N 
ATOM      2  H4  UNL     1     -37.902  -2.715 -20.724  1.00  0.00     0.164 HD
ENDROOT
BRANCH   1   3
HETATM    3  C13 UNL     1     -37.665  -4.194 -19.270  1.00  0.00     0.215 C 
HETATM    4  N3  UNL     1     -37.993  -5.452 -19.454  1.00  0.00    -0.345 N 
HETATM    5  C12 UNL     1     -37.279  -6.656 -19.105  1.00  0.00     0.146 C 
HETATM    6  C32 UNL     1     -39.428  -5.776 -19.869  1.00  0.00     0.146 C 
HETATM    7  C11 UNL     1     -38.053  -7.906 -19.666  1.00  0.00     0.145 C 
HETATM    8  N2  UNL     1     -39.336  -8.008 -19.085  1.00  0.00    -0.356 N 
HETATM    9  C33 UNL     1     -39.867  -6.660 -18.637  1.00  0.00     0.145 C 
BRANCH   8  10
HETATM   10  C10 UNL     1     -40.269  -9.030 -19.058  1.00  0.00     0.176 C 
HETATM   11  C4  UNL     1     -40.867  -9.794 -20.118  1.00  0.00     0.144 C 
BRANCH  11  12
HETATM   12  C2  UNL     1     -40.939  -9.083 -21.475  1.00  0.00     0.046 C 
HETATM   13  C1  UNL     1     -39.944  -9.692 -22.451  1.00  0.00     0.017 C 
HETATM   14  C3  UNL     1     -42.377  -9.228 -22.006  1.00  0.00     0.017 C 
ENDBRANCH  11  12
BRANCH  11  15
HETATM   15  N1  UNL     1     -41.057 -11.098 -20.234  1.00  0.00    -0.345 NA
HETATM   16  C5  UNL     1     -41.262 -12.498 -20.354  1.00  0.00     0.441 C 
HETATM   17  O1  UNL     1     -41.355 -13.375 -19.541  1.00  0.00    -0.221 OA
BRANCH  16  18
HETATM   18  O2  UNL     1     -41.384 -12.928 -21.705  1.00  0.00    -0.282 OA
BRANCH  18  19
HETATM   19  C6  UNL     1     -42.506 -13.117 -22.435  1.00  0.00     0.062 C 
HETATM   20  C7  UNL     1     -42.215 -12.495 -23.837  1.00  0.00     0.046 C 
HETATM   21  C8  UNL     1     -42.652 -14.633 -22.788  1.00  0.00     0.046 C 
HETATM   22  C9  UNL     1     -43.809 -12.674 -21.978  1.00  0.00     0.046 C 
ENDBRANCH  18  19
ENDBRANCH  16  18
ENDBRANCH  11  15
BRANCH  10  23
HETATM   23  O3  UNL     1     -40.710  -9.337 -17.857  1.00  0.00    -0.344 OA
ATOM     24  H3  UNL     1     -40.088  -9.171 -17.159  1.00  0.00     0.219 HD
ENDBRANCH  10  23
ENDBRANCH   8  10
BRANCH   3  25
HETATM   25  O4  UNL     1     -36.705  -4.062 -18.223  1.00  0.00    -0.333 OA
ATOM     26  H4  UNL     1     -36.057  -3.400 -18.436  1.00  0.00     0.220 HD
ENDBRANCH   3  25
ENDBRANCH   1   3
BRANCH   1  27
HETATM   27  C14 UNL     1     -38.115  -1.706 -18.780  1.00  0.00     0.188 C 
BRANCH  27  28
HETATM   28  C15 UNL     1     -39.605  -1.736 -18.647  1.00  0.00     0.305 C 
BRANCH  28  29
HETATM   29  N5  UNL     1     -40.229  -1.366 -17.443  1.00  0.00     0.090 N 
HETATM   30  C16 UNL     1     -40.964  -2.458 -16.862  1.00  0.00     0.310 C 
BRANCH  29  31
HETATM   31  C17 UNL     1     -40.933  -0.118 -17.442  1.00  0.00     0.214 C 
HETATM   32  C18 UNL     1     -40.005   1.057 -17.150  1.00  0.00     0.042 C 
HETATM   33  C19 UNL     1     -42.009  -0.071 -16.356  1.00  0.00     0.042 C 
ENDBRANCH  29  31
ENDBRANCH  28  29
ENDBRANCH  27  28
BRANCH  27  34
HETATM   34  C20 UNL     1     -37.696  -0.503 -19.559  1.00  0.00     0.138 C 
BRANCH  34  35
HETATM   35  O5  UNL     1     -38.706  -0.140 -20.321  1.00  0.00    -0.348 OA
ATOM     36  H5  UNL     1     -39.443   0.061 -19.755  1.00  0.00     0.219 HD
ENDBRANCH  34  35
BRANCH  34  37
HETATM   37  N6  UNL     1     -36.508   0.204 -19.581  1.00  0.00    -0.362 N 
HETATM   38  C21 UNL     1     -35.336  -0.034 -20.333  1.00  0.00     0.127 C 
HETATM   39  C22 UNL     1     -34.793  -1.381 -20.516  1.00  0.00     0.046 C 
HETATM   40  C23 UNL     1     -33.892  -1.802 -19.372  1.00  0.00     0.169 C 
HETATM   41  O6  UNL     1     -33.223  -2.963 -19.607  1.00  0.00    -0.389 OA
HETATM   42  C24 UNL     1     -32.936  -3.664 -18.434  1.00  0.00     0.193 C 
HETATM   43  C25 UNL     1     -33.056  -2.818 -17.215  1.00  0.00     0.193 C 
HETATM   44  O7  UNL     1     -32.111  -3.080 -16.223  1.00  0.00    -0.387 OA
HETATM   45  C26 UNL     1     -31.769  -1.877 -15.599  1.00  0.00     0.193 C 
HETATM   46  C27 UNL     1     -33.004  -1.077 -15.187  1.00  0.00     0.193 C 
HETATM   47  O8  UNL     1     -32.754   0.259 -14.995  1.00  0.00    -0.387 OA
HETATM   48  C28 UNL     1     -33.323   1.088 -15.969  1.00  0.00     0.193 C 
HETATM   49  C29 UNL     1     -34.680   1.566 -15.613  1.00  0.00     0.193 C 
HETATM   50  O9  UNL     1     -35.426   2.114 -16.645  1.00  0.00    -0.387 OA
HETATM   51  C30 UNL     1     -35.270   1.404 -17.810  1.00  0.00     0.187 C 
HETATM   52  C31 UNL     1     -36.479   1.384 -18.667  1.00  0.00     0.151 C 
ENDBRANCH  34  37
ENDBRANCH  27  34
ENDBRANCH   1  27
TORSDOF 15
ENDMDL
MODEL 5
REMARK VINA RESULT: -8.414319865      2.402     12.888
REMARK  15 active torsions:
REMARK  status: ('A' for Active; 'I' for Inactive)
REMARK    1  A    between atoms: C2_2  and  C4_4 
REMARK    2  A    between atoms: C4_4  and  N1_5 
REMARK       I    between atoms: N1_5  and  C5_6 
REMARK    3  A    between atoms: C5_6  and  O2_8 
REMARK    4  A    between atoms: O2_8  and  C6_9 
REMARK    5  A    between atoms: C10_13  and  O3_14 
REMARK    6  A    between atoms: C10_13  and  N2_16 
REMARK    7  A    between atoms: C13_20  and  O4_21 
REMARK    8  A    between atoms: C13_20  and  N4_23 
REMARK    9  A    between atoms: N4_23  and  C14_25 
REMARK   10  A    between atoms: C14_25  and  C15_26 
REMARK   11  A    between atoms: C14_25  and  C20_32 
REMARK   12  A    between atoms: C15_26  and  N5_27 
REMARK   13  A    between atoms: N5_27  and  C17_29 
REMARK   14  A    between atoms: C20_32  and  O5_33 
REMARK   15  A    between atoms: C20_32  and  N6_35 
ROOT
HETATM    1  N4  UNL     1     -36.916  -6.130 -18.494  1.00  0.00    -0.343 N 
ATOM      2  H4  UNL     1     -37.211  -6.858 -17.843  1.00  0.00     0.164 HD
ENDROOT
BRANCH   1   3
HETATM    3  C13 UNL     1     -35.717  -5.453 -18.236  1.00  0.00     0.215 C 
HETATM    4  N3  UNL     1     -35.205  -4.299 -17.875  1.00  0.00    -0.345 N 
HETATM    5  C12 UNL     1     -33.925  -3.998 -17.282  1.00  0.00     0.146 C 
HETATM    6  C32 UNL     1     -35.899  -3.018 -18.340  1.00  0.00     0.146 C 
HETATM    7  C11 UNL     1     -33.859  -2.467 -16.926  1.00  0.00     0.145 C 
HETATM    8  N2  UNL     1     -33.968  -1.672 -18.088  1.00  0.00    -0.356 N 
HETATM    9  C33 UNL     1     -34.733  -2.378 -19.190  1.00  0.00     0.145 C 
BRANCH   8  10
HETATM   10  C10 UNL     1     -33.724  -0.331 -18.326  1.00  0.00     0.176 C 
HETATM   11  C4  UNL     1     -34.622   0.777 -18.506  1.00  0.00     0.144 C 
BRANCH  11  12
HETATM   12  C2  UNL     1     -36.008   0.414 -19.051  1.00  0.00     0.046 C 
HETATM   13  C1  UNL     1     -37.098   1.077 -18.223  1.00  0.00     0.017 C 
HETATM   14  C3  UNL     1     -36.076   0.886 -20.514  1.00  0.00     0.017 C 
ENDBRANCH  11  12
BRANCH  11  15
HETATM   15  N1  UNL     1     -34.602   1.991 -17.979  1.00  0.00    -0.345 NA
HETATM   16  C5  UNL     1     -34.580   3.291 -17.410  1.00  0.00     0.441 C 
HETATM   17  O1  UNL     1     -34.783   3.691 -16.297  1.00  0.00    -0.221 OA
BRANCH  16  18
HETATM   18  O2  UNL     1     -34.250   4.306 -18.352  1.00  0.00    -0.282 OA
BRANCH  18  19
HETATM   19  C6  UNL     1     -35.063   5.210 -18.942  1.00  0.00     0.062 C 
HETATM   20  C7  UNL     1     -34.174   5.982 -19.967  1.00  0.00     0.046 C 
HETATM   21  C8  UNL     1     -36.066   4.472 -19.888  1.00  0.00     0.046 C 
HETATM   22  C9  UNL     1     -35.845   6.162 -18.176  1.00  0.00     0.046 C 
ENDBRANCH  18  19
ENDBRANCH  16  18
ENDBRANCH  11  15
BRANCH  10  23
HETATM   23  O3  UNL     1     -32.452  -0.018 -18.441  1.00  0.00    -0.344 OA
ATOM     24  H3  UNL     1     -31.858  -0.659 -18.069  1.00  0.00     0.219 HD
ENDBRANCH  10  23
ENDBRANCH   8  10
BRANCH   3  25
HETATM   25  O4  UNL     1     -34.694  -6.424 -18.448  1.00  0.00    -0.333 OA
ATOM     26  H4  UNL     1     -34.873  -7.219 -17.961  1.00  0.00     0.220 HD
ENDBRANCH   3  25
ENDBRANCH   1   3
BRANCH   1  27
HETATM   27  C14 UNL     1     -37.801  -5.835 -19.700  1.00  0.00     0.188 C 
BRANCH  27  28
HETATM   28  C15 UNL     1     -38.936  -5.112 -19.043  1.00  0.00     0.305 C 
BRANCH  28  29
HETATM   29  N5  UNL     1     -39.410  -3.893 -19.558  1.00  0.00     0.090 N 
HETATM   30  C16 UNL     1     -39.022  -3.705 -20.931  1.00  0.00     0.310 C 
BRANCH  29  31
HETATM   31  C17 UNL     1     -39.230  -2.735 -18.734  1.00  0.00     0.214 C 
HETATM   32  C18 UNL     1     -40.240  -2.690 -17.592  1.00  0.00     0.042 C 
HETATM   33  C19 UNL     1     -39.437  -1.439 -19.518  1.00  0.00     0.042 C 
ENDBRANCH  29  31
ENDBRANCH  28  29
ENDBRANCH  27  28
BRANCH  27  34
HETATM   34  C20 UNL     1     -38.259  -7.171 -20.184  1.00  0.00     0.138 C 
BRANCH  34  35
HETATM   35  O5  UNL     1     -37.409  -8.075 -19.745  1.00  0.00    -0.348 OA
ATOM     36  H5  UNL     1     -37.909  -8.818 -19.428  1.00  0.00     0.219 HD
ENDBRANCH  34  35
BRANCH  34  37
HETATM   37  N6  UNL     1     -39.347  -7.540 -20.953  1.00  0.00    -0.362 N 
HETATM   38  C21 UNL     1     -40.621  -7.993 -20.546  1.00  0.00     0.127 C 
HETATM   39  C22 UNL     1     -40.790  -8.952 -19.452  1.00  0.00     0.046 C 
HETATM   40  C23 UNL     1     -40.661 -10.389 -19.918  1.00  0.00     0.169 C 
HETATM   41  O6  UNL     1     -41.004 -11.299 -18.969  1.00  0.00    -0.389 OA
HETATM   42  C24 UNL     1     -40.324 -12.510 -19.115  1.00  0.00     0.193 C 
HETATM   43  C25 UNL     1     -39.712 -12.666 -20.464  1.00  0.00     0.193 C 
HETATM   44  O7  UNL     1     -39.749 -13.961 -20.979  1.00  0.00    -0.387 OA
HETATM   45  C26 UNL     1     -39.938 -13.889 -22.362  1.00  0.00     0.193 C 
HETATM   46  C27 UNL     1     -38.970 -12.908 -23.020  1.00  0.00     0.193 C 
HETATM   47  O8  UNL     1     -39.387 -12.464 -24.250  1.00  0.00    -0.387 OA
HETATM   48  C28 UNL     1     -39.768 -11.118 -24.268  1.00  0.00     0.193 C 
HETATM   49  C29 UNL     1     -38.658 -10.198 -24.614  1.00  0.00     0.193 C 
HETATM   50  O9  UNL     1     -38.869  -8.856 -24.342  1.00  0.00    -0.387 OA
HETATM   51  C30 UNL     1     -39.510  -8.681 -23.140  1.00  0.00     0.187 C 
HETATM   52  C31 UNL     1     -39.119  -7.442 -22.425  1.00  0.00     0.151 C 
ENDBRANCH  34  37
ENDBRANCH  27  34
ENDBRANCH   1  27
TORSDOF 15
ENDMDL
