MODEL 1
REMARK VINA RESULT: -9.817625496      0.000      0.000
REMARK  17 active torsions:
REMARK  status: ('A' for Active; 'I' for Inactive)
REMARK    1  A    between atoms: C2_2  and  C3_3 
REMARK    2  A    between atoms: C6_6  and  C7_7 
REMARK    3  A    between atoms: C7_7  and  C8_8 
REMARK    4  A    between atoms: C8_8  and  N1_9 
REMARK    5  A    between atoms: N1_9  and  C9_11 
REMARK    6  A    between atoms: C10_14  and  N3_15 
REMARK    7  A    between atoms: N3_15  and  C11_17 
REMARK    8  A    between atoms: C11_17  and  C12_18 
REMARK    9  A    between atoms: C12_18  and  C13_19 
REMARK   10  A    between atoms: C13_19  and  C14_20 
REMARK   11  A    between atoms: C14_20  and  N4_21 
REMARK   12  A    between atoms: N4_21  and  C15_23 
REMARK   13  A    between atoms: C21_34  and  N7_35 
REMARK   14  A    between atoms: N7_35  and  C22_37 
REMARK   15  A    between atoms: C22_37  and  C23_38 
REMARK   16  A    between atoms: C23_38  and  C24_39 
REMARK   17  A    between atoms: C24_39  and  N8_40 
REMARK       I    between atoms: N8_40  and  C25_42 
ROOT
HETATM    1  C9  UNL     1      18.384  44.805  44.396  1.00  0.00     0.710 A 
HETATM    2  N2  UNL     1      18.768  46.073  44.492  1.00  0.00    -0.021 N 
ATOM      3  H2  UNL     1      18.180  46.780  44.051  1.00  0.00     0.203 HD
HETATM    4  C10 UNL     1      19.902  46.502  45.144  1.00  0.00     0.707 A 
HETATM    5  N6  UNL     1      20.638  45.534  45.704  1.00  0.00    -0.022 N 
ATOM      6  H6  UNL     1      21.491  45.799  46.197  1.00  0.00     0.203 HD
HETATM    7  C21 UNL     1      20.316  44.244  45.650  1.00  0.00     0.707 A 
HETATM    8  N9  UNL     1      19.184  43.887  44.993  1.00  0.00    -0.021 N 
ATOM      9  H9  UNL     1      18.928  42.900  44.946  1.00  0.00     0.203 HD
ENDROOT
BRANCH   4  10
HETATM   10  N3  UNL     1      20.167  47.694  45.208  1.00  0.00    -0.225 N 
ATOM     11  H3  UNL     1      20.050  47.953  46.187  1.00  0.00     0.177 HD
BRANCH  10  12
HETATM   12  C11 UNL     1      20.542  48.816  44.574  1.00  0.00     0.138 C 
BRANCH  12  13
HETATM   13  C12 UNL     1      21.856  49.370  45.143  1.00  0.00     0.025 C 
BRANCH  13  14
HETATM   14  C13 UNL     1      22.133  50.785  44.705  1.00  0.00     0.046 C 
BRANCH  14  15
HETATM   15  C14 UNL     1      22.813  51.472  45.873  1.00  0.00     0.062 C 
BRANCH  15  16
HETATM   16  N4  UNL     1      22.885  52.838  45.875  1.00  0.00    -0.356 N 
ATOM     17  H4  UNL     1      21.941  53.200  46.016  1.00  0.00     0.166 HD
BRANCH  16  18
HETATM   18  C15 UNL     1      23.646  53.800  45.771  1.00  0.00     0.104 A 
HETATM   19  C16 UNL     1      23.335  55.061  45.298  1.00  0.00     0.050 A 
HETATM   20  C17 UNL     1      24.265  56.040  45.242  1.00  0.00     0.029 A 
HETATM   21  C18 UNL     1      25.563  55.816  45.657  1.00  0.00     0.056 A 
HETATM   22 CL1  UNL     1      26.815  57.033  45.623  1.00  0.00    -0.082 Cl
HETATM   23  C19 UNL     1      25.868  54.557  46.128  1.00  0.00     0.028 A 
HETATM   24  C20 UNL     1      27.271  54.255  46.596  1.00  0.00     0.070 C 
HETATM   25  N5  UNL     1      24.936  53.615  46.173  1.00  0.00    -0.345 N 
ATOM     26  H5  UNL     1      25.200  52.697  46.529  1.00  0.00     0.167 HD
ENDBRANCH  16  18
ENDBRANCH  15  16
ENDBRANCH  14  15
ENDBRANCH  13  14
ENDBRANCH  12  13
ENDBRANCH  10  12
ENDBRANCH   4  10
BRANCH   1  27
HETATM   27  N1  UNL     1      17.361  44.380  43.757  1.00  0.00    -0.204 N 
ATOM     28  H1  UNL     1      16.535  44.188  44.325  1.00  0.00     0.183 HD
BRANCH  27  29
HETATM   29  C8  UNL     1      17.220  44.145  42.399  1.00  0.00     0.083 C 
BRANCH  29  30
HETATM   30  C7  UNL     1      17.542  45.271  41.453  1.00  0.00     0.083 C 
BRANCH  30  31
HETATM   31  C6  UNL     1      16.312  45.989  41.100  1.00  0.00    -0.053 A 
HETATM   32  C5  UNL     1      16.375  47.255  40.510  1.00  0.00     0.008 A 
HETATM   33  C4  UNL     1      15.208  47.922  40.180  1.00  0.00     0.007 A 
HETATM   34  C3  UNL     1      14.000  47.352  40.426  1.00  0.00    -0.059 A 
HETATM   35  C28 UNL     1      13.931  46.081  41.021  1.00  0.00     0.007 A 
HETATM   36  C27 UNL     1      15.090  45.426  41.346  1.00  0.00     0.008 A 
BRANCH  34  37
HETATM   37  C2  UNL     1      12.718  47.981  40.054  1.00  0.00     0.034 C 
HETATM   38  C1  UNL     1      12.632  47.970  38.542  1.00  0.00     0.010 C 
ENDBRANCH  34  37
ENDBRANCH  30  31
ENDBRANCH  29  30
ENDBRANCH  27  29
ENDBRANCH   1  27
BRANCH   7  39
HETATM   39  N7  UNL     1      21.061  43.368  46.156  1.00  0.00    -0.225 N 
ATOM     40  H7  UNL     1      20.717  43.044  47.061  1.00  0.00     0.177 HD
BRANCH  39  41
HETATM   41  C22 UNL     1      22.246  42.731  45.781  1.00  0.00     0.139 C 
BRANCH  41  42
HETATM   42  C23 UNL     1      23.296  43.809  45.495  1.00  0.00     0.040 C 
BRANCH  42  43
HETATM   43  C24 UNL     1      23.478  43.851  44.011  1.00  0.00     0.124 C 
BRANCH  43  44
HETATM   44  N8  UNL     1      23.829  45.189  43.543  1.00  0.00    -0.361 N 
HETATM   45  C25 UNL     1      22.818  45.961  42.891  1.00  0.00     0.213 C 
HETATM   46  C26 UNL     1      23.171  47.330  42.418  1.00  0.00     0.117 C 
HETATM   47  O1  UNL     1      21.647  45.534  42.701  1.00  0.00    -0.274 OA
ATOM     48  H8  UNL     1      24.768  45.562  43.677  1.00  0.00     0.162 HD
ENDBRANCH  43  44
ENDBRANCH  42  43
ENDBRANCH  41  42
ENDBRANCH  39  41
ENDBRANCH   7  39
TORSDOF 17
ENDMDL
MODEL 2
REMARK VINA RESULT: -9.661776834      2.726      3.254
REMARK  17 active torsions:
REMARK  status: ('A' for Active; 'I' for Inactive)
REMARK    1  A    between atoms: C2_2  and  C3_3 
REMARK    2  A    between atoms: C6_6  and  C7_7 
REMARK    3  A    between atoms: C7_7  and  C8_8 
REMARK    4  A    between atoms: C8_8  and  N1_9 
REMARK    5  A    between atoms: N1_9  and  C9_11 
REMARK    6  A    between atoms: C10_14  and  N3_15 
REMARK    7  A    between atoms: N3_15  and  C11_17 
REMARK    8  A    between atoms: C11_17  and  C12_18 
REMARK    9  A    between atoms: C12_18  and  C13_19 
REMARK   10  A    between atoms: C13_19  and  C14_20 
REMARK   11  A    between atoms: C14_20  and  N4_21 
REMARK   12  A    between atoms: N4_21  and  C15_23 
REMARK   13  A    between atoms: C21_34  and  N7_35 
REMARK   14  A    between atoms: N7_35  and  C22_37 
REMARK   15  A    between atoms: C22_37  and  C23_38 
REMARK   16  A    between atoms: C23_38  and  C24_39 
REMARK   17  A    between atoms: C24_39  and  N8_40 
REMARK       I    between atoms: N8_40  and  C25_42 
ROOT
HETATM    1  C9  UNL     1      18.733  44.492  43.696  1.00  0.00     0.710 A 
HETATM    2  N2  UNL     1      18.805  45.795  43.943  1.00  0.00    -0.021 N 
ATOM      3  H2  UNL     1      18.222  46.416  43.381  1.00  0.00     0.203 HD
HETATM    4  C10 UNL     1      19.609  46.369  44.902  1.00  0.00     0.707 A 
HETATM    5  N6  UNL     1      20.353  45.511  45.610  1.00  0.00    -0.022 N 
ATOM      6  H6  UNL     1      20.969  45.886  46.332  1.00  0.00     0.203 HD
HETATM    7  C21 UNL     1      20.333  44.194  45.420  1.00  0.00     0.707 A 
HETATM    8  N9  UNL     1      19.518  43.691  44.459  1.00  0.00    -0.021 N 
ATOM      9  H9  UNL     1      19.495  42.682  44.306  1.00  0.00     0.203 HD
ENDROOT
BRANCH   4  10
HETATM   10  N3  UNL     1      19.592  47.578  45.082  1.00  0.00    -0.225 N 
ATOM     11  H3  UNL     1      19.190  47.717  46.009  1.00  0.00     0.177 HD
BRANCH  10  12
HETATM   12  C11 UNL     1      19.864  48.807  44.613  1.00  0.00     0.138 C 
BRANCH  12  13
HETATM   13  C12 UNL     1      21.374  49.084  44.608  1.00  0.00     0.025 C 
BRANCH  13  14
HETATM   14  C13 UNL     1      21.698  50.556  44.611  1.00  0.00     0.046 C 
BRANCH  14  15
HETATM   15  C14 UNL     1      23.148  50.676  45.038  1.00  0.00     0.062 C 
BRANCH  15  16
HETATM   16  N4  UNL     1      23.425  50.838  46.368  1.00  0.00    -0.356 N 
ATOM     17  H4  UNL     1      23.882  51.743  46.484  1.00  0.00     0.166 HD
BRANCH  16  18
HETATM   18  C15 UNL     1      23.337  50.316  47.479  1.00  0.00     0.104 A 
HETATM   19  C16 UNL     1      22.977  49.012  47.760  1.00  0.00     0.050 A 
HETATM   20  C17 UNL     1      22.925  48.554  49.031  1.00  0.00     0.029 A 
HETATM   21  C18 UNL     1      23.233  49.376  50.098  1.00  0.00     0.056 A 
HETATM   22 CL1  UNL     1      23.198  48.855  51.764  1.00  0.00    -0.082 Cl
HETATM   23  C19 UNL     1      23.591  50.676  49.812  1.00  0.00     0.028 A 
HETATM   24  C20 UNL     1      23.938  51.619  50.939  1.00  0.00     0.070 C 
HETATM   25  N5  UNL     1      23.634  51.098  48.557  1.00  0.00    -0.345 N 
ATOM     26  H5  UNL     1      23.906  52.066  48.385  1.00  0.00     0.167 HD
ENDBRANCH  16  18
ENDBRANCH  15  16
ENDBRANCH  14  15
ENDBRANCH  13  14
ENDBRANCH  12  13
ENDBRANCH  10  12
ENDBRANCH   4  10
BRANCH   1  27
HETATM   27  N1  UNL     1      18.030  43.942  42.780  1.00  0.00    -0.204 N 
ATOM     28  H1  UNL     1      18.310  42.997  42.518  1.00  0.00     0.183 HD
BRANCH  27  29
HETATM   29  C8  UNL     1      16.940  44.454  42.096  1.00  0.00     0.083 C 
BRANCH  29  30
HETATM   30  C7  UNL     1      17.201  45.472  41.018  1.00  0.00     0.083 C 
BRANCH  30  31
HETATM   31  C6  UNL     1      15.974  46.228  40.742  1.00  0.00    -0.053 A 
HETATM   32  C5  UNL     1      16.041  47.508  40.186  1.00  0.00     0.008 A 
HETATM   33  C4  UNL     1      14.877  48.211  39.928  1.00  0.00     0.007 A 
HETATM   34  C3  UNL     1      13.667  47.662  40.213  1.00  0.00    -0.059 A 
HETATM   35  C28 UNL     1      13.594  46.376  40.775  1.00  0.00     0.007 A 
HETATM   36  C27 UNL     1      14.751  45.686  41.027  1.00  0.00     0.008 A 
BRANCH  34  37
HETATM   37  C2  UNL     1      12.386  48.331  39.919  1.00  0.00     0.034 C 
HETATM   38  C1  UNL     1      12.050  48.046  38.469  1.00  0.00     0.010 C 
ENDBRANCH  34  37
ENDBRANCH  30  31
ENDBRANCH  29  30
ENDBRANCH  27  29
ENDBRANCH   1  27
BRANCH   7  39
HETATM   39  N7  UNL     1      21.081  43.432  46.083  1.00  0.00    -0.225 N 
ATOM     40  H7  UNL     1      20.745  43.294  47.036  1.00  0.00     0.177 HD
BRANCH  39  41
HETATM   41  C22 UNL     1      22.261  42.729  45.830  1.00  0.00     0.139 C 
BRANCH  41  42
HETATM   42  C23 UNL     1      23.379  43.747  45.587  1.00  0.00     0.040 C 
BRANCH  42  43
HETATM   43  C24 UNL     1      23.624  43.776  44.112  1.00  0.00     0.124 C 
BRANCH  43  44
HETATM   44  N8  UNL     1      23.952  45.119  43.641  1.00  0.00    -0.361 N 
HETATM   45  C25 UNL     1      22.947  45.849  42.934  1.00  0.00     0.213 C 
HETATM   46  C26 UNL     1      23.277  47.223  42.458  1.00  0.00     0.117 C 
HETATM   47  O1  UNL     1      21.800  45.382  42.698  1.00  0.00    -0.274 OA
ATOM     48  H8  UNL     1      24.872  45.525  43.812  1.00  0.00     0.162 HD
ENDBRANCH  43  44
ENDBRANCH  42  43
ENDBRANCH  41  42
ENDBRANCH  39  41
ENDBRANCH   7  39
TORSDOF 17
ENDMDL
MODEL 3
REMARK VINA RESULT: -9.560177758      3.969      9.957
REMARK  17 active torsions:
REMARK  status: ('A' for Active; 'I' for Inactive)
REMARK    1  A    between atoms: C2_2  and  C3_3 
REMARK    2  A    between atoms: C6_6  and  C7_7 
REMARK    3  A    between atoms: C7_7  and  C8_8 
REMARK    4  A    between atoms: C8_8  and  N1_9 
REMARK    5  A    between atoms: N1_9  and  C9_11 
REMARK    6  A    between atoms: C10_14  and  N3_15 
REMARK    7  A    between atoms: N3_15  and  C11_17 
REMARK    8  A    between atoms: C11_17  and  C12_18 
REMARK    9  A    between atoms: C12_18  and  C13_19 
REMARK   10  A    between atoms: C13_19  and  C14_20 
REMARK   11  A    between atoms: C14_20  and  N4_21 
REMARK   12  A    between atoms: N4_21  and  C15_23 
REMARK   13  A    between atoms: C21_34  and  N7_35 
REMARK   14  A    between atoms: N7_35  and  C22_37 
REMARK   15  A    between atoms: C22_37  and  C23_38 
REMARK   16  A    between atoms: C23_38  and  C24_39 
REMARK   17  A    between atoms: C24_39  and  N8_40 
REMARK       I    between atoms: N8_40  and  C25_42 
ROOT
HETATM    1  C9  UNL     1      21.316  48.402  44.284  1.00  0.00     0.710 A 
HETATM    2  N2  UNL     1      20.977  47.436  45.131  1.00  0.00    -0.021 N 
ATOM      3  H2  UNL     1      20.408  47.693  45.938  1.00  0.00     0.203 HD
HETATM    4  C10 UNL     1      21.336  46.113  44.998  1.00  0.00     0.707 A 
HETATM    5  N6  UNL     1      22.082  45.831  43.924  1.00  0.00    -0.022 N 
ATOM      6  H6  UNL     1      22.378  44.865  43.780  1.00  0.00     0.203 HD
HETATM    7  C21 UNL     1      22.459  46.744  43.032  1.00  0.00     0.707 A 
HETATM    8  N9  UNL     1      22.071  48.031  43.220  1.00  0.00    -0.021 N 
ATOM      9  H9  UNL     1      22.355  48.738  42.542  1.00  0.00     0.203 HD
ENDROOT
BRANCH   4  10
HETATM   10  N3  UNL     1      20.956  45.283  45.811  1.00  0.00    -0.225 N 
ATOM     11  H3  UNL     1      21.237  45.639  46.725  1.00  0.00     0.177 HD
BRANCH  10  12
HETATM   12  C11 UNL     1      20.336  44.116  46.047  1.00  0.00     0.138 C 
BRANCH  12  13
HETATM   13  C12 UNL     1      19.552  43.637  44.817  1.00  0.00     0.025 C 
BRANCH  13  14
HETATM   14  C13 UNL     1      18.330  44.473  44.539  1.00  0.00     0.046 C 
BRANCH  14  15
HETATM   15  C14 UNL     1      17.315  43.551  43.893  1.00  0.00     0.062 C 
BRANCH  15  16
HETATM   16  N4  UNL     1      16.735  43.940  42.716  1.00  0.00    -0.356 N 
ATOM     17  H4  UNL     1      16.447  43.099  42.218  1.00  0.00     0.166 HD
BRANCH  16  18
HETATM   18  C15 UNL     1      16.427  44.912  42.026  1.00  0.00     0.104 A 
HETATM   19  C16 UNL     1      17.285  45.762  41.354  1.00  0.00     0.050 A 
HETATM   20  C17 UNL     1      16.819  46.795  40.618  1.00  0.00     0.029 A 
HETATM   21  C18 UNL     1      15.464  47.040  40.510  1.00  0.00     0.056 A 
HETATM   22 CL1  UNL     1      14.786  48.347  39.572  1.00  0.00    -0.082 Cl
HETATM   23  C19 UNL     1      14.613  46.189  41.183  1.00  0.00     0.028 A 
HETATM   24  C20 UNL     1      13.120  46.408  41.100  1.00  0.00     0.070 C 
HETATM   25  N5  UNL     1      15.097  45.183  41.897  1.00  0.00    -0.345 N 
ATOM     26  H5  UNL     1      14.435  44.575  42.379  1.00  0.00     0.167 HD
ENDBRANCH  16  18
ENDBRANCH  15  16
ENDBRANCH  14  15
ENDBRANCH  13  14
ENDBRANCH  12  13
ENDBRANCH  10  12
ENDBRANCH   4  10
BRANCH   1  27
HETATM   27  N1  UNL     1      21.033  49.642  44.412  1.00  0.00    -0.204 N 
ATOM     28  H1  UNL     1      20.065  49.895  44.215  1.00  0.00     0.183 HD
BRANCH  27  29
HETATM   29  C8  UNL     1      21.862  50.689  44.782  1.00  0.00     0.083 C 
BRANCH  29  30
HETATM   30  C7  UNL     1      23.281  50.363  45.161  1.00  0.00     0.083 C 
BRANCH  30  31
HETATM   31  C6  UNL     1      23.361  50.104  46.604  1.00  0.00    -0.053 A 
HETATM   32  C5  UNL     1      23.571  48.807  47.080  1.00  0.00     0.008 A 
HETATM   33  C4  UNL     1      23.646  48.576  48.443  1.00  0.00     0.007 A 
HETATM   34  C3  UNL     1      23.518  49.604  49.321  1.00  0.00    -0.059 A 
HETATM   35  C28 UNL     1      23.305  50.910  48.847  1.00  0.00     0.007 A 
HETATM   36  C27 UNL     1      23.231  51.131  47.497  1.00  0.00     0.008 A 
BRANCH  34  37
HETATM   37  C2  UNL     1      23.639  49.440  50.782  1.00  0.00     0.034 C 
HETATM   38  C1  UNL     1      23.714  50.827  51.388  1.00  0.00     0.010 C 
ENDBRANCH  34  37
ENDBRANCH  30  31
ENDBRANCH  29  30
ENDBRANCH  27  29
ENDBRANCH   1  27
BRANCH   7  39
HETATM   39  N7  UNL     1      23.194  46.437  42.061  1.00  0.00    -0.225 N 
ATOM     40  H7  UNL     1      23.874  47.167  41.844  1.00  0.00     0.177 HD
BRANCH  39  41
HETATM   41  C22 UNL     1      23.308  45.337  41.207  1.00  0.00     0.139 C 
BRANCH  41  42
HETATM   42  C23 UNL     1      23.633  45.857  39.803  1.00  0.00     0.040 C 
BRANCH  42  43
HETATM   43  C24 UNL     1      23.112  44.842  38.836  1.00  0.00     0.124 C 
BRANCH  43  44
HETATM   44  N8  UNL     1      23.608  45.075  37.482  1.00  0.00    -0.361 N 
HETATM   45  C25 UNL     1      22.678  45.508  36.489  1.00  0.00     0.213 C 
HETATM   46  C26 UNL     1      23.182  45.754  35.108  1.00  0.00     0.117 C 
HETATM   47  O1  UNL     1      21.453  45.692  36.731  1.00  0.00    -0.274 OA
ATOM     48  H8  UNL     1      24.592  44.932  37.252  1.00  0.00     0.162 HD
ENDBRANCH  43  44
ENDBRANCH  42  43
ENDBRANCH  41  42
ENDBRANCH  39  41
ENDBRANCH   7  39
TORSDOF 17
ENDMDL
MODEL 4
REMARK VINA RESULT: -9.366179863      2.942      3.426
REMARK  17 active torsions:
REMARK  status: ('A' for Active; 'I' for Inactive)
REMARK    1  A    between atoms: C2_2  and  C3_3 
REMARK    2  A    between atoms: C6_6  and  C7_7 
REMARK    3  A    between atoms: C7_7  and  C8_8 
REMARK    4  A    between atoms: C8_8  and  N1_9 
REMARK    5  A    between atoms: N1_9  and  C9_11 
REMARK    6  A    between atoms: C10_14  and  N3_15 
REMARK    7  A    between atoms: N3_15  and  C11_17 
REMARK    8  A    between atoms: C11_17  and  C12_18 
REMARK    9  A    between atoms: C12_18  and  C13_19 
REMARK   10  A    between atoms: C13_19  and  C14_20 
REMARK   11  A    between atoms: C14_20  and  N4_21 
REMARK   12  A    between atoms: N4_21  and  C15_23 
REMARK   13  A    between atoms: C21_34  and  N7_35 
REMARK   14  A    between atoms: N7_35  and  C22_37 
REMARK   15  A    between atoms: C22_37  and  C23_38 
REMARK   16  A    between atoms: C23_38  and  C24_39 
REMARK   17  A    between atoms: C24_39  and  N8_40 
REMARK       I    between atoms: N8_40  and  C25_42 
ROOT
HETATM    1  C9  UNL     1      18.075  44.477  44.179  1.00  0.00     0.710 A 
HETATM    2  N2  UNL     1      18.412  45.752  44.341  1.00  0.00    -0.021 N 
ATOM      3  H2  UNL     1      17.801  46.459  43.930  1.00  0.00     0.203 HD
HETATM    4  C10 UNL     1      19.525  46.189  45.023  1.00  0.00     0.707 A 
HETATM    5  N6  UNL     1      20.292  45.222  45.540  1.00  0.00    -0.022 N 
ATOM      6  H6  UNL     1      21.132  45.493  46.053  1.00  0.00     0.203 HD
HETATM    7  C21 UNL     1      20.017  43.925  45.420  1.00  0.00     0.707 A 
HETATM    8  N9  UNL     1      18.904  43.560  44.737  1.00  0.00    -0.021 N 
ATOM      9  H9  UNL     1      18.685  42.568  44.639  1.00  0.00     0.203 HD
ENDROOT
BRANCH   4  10
HETATM   10  N3  UNL     1      19.746  47.385  45.148  1.00  0.00    -0.225 N 
ATOM     11  H3  UNL     1      19.464  47.622  46.099  1.00  0.00     0.177 HD
BRANCH  10  12
HETATM   12  C11 UNL     1      20.190  48.528  44.602  1.00  0.00     0.138 C 
BRANCH  12  13
HETATM   13  C12 UNL     1      21.518  48.317  43.861  1.00  0.00     0.025 C 
BRANCH  13  14
HETATM   14  C13 UNL     1      22.672  49.033  44.514  1.00  0.00     0.046 C 
BRANCH  14  15
HETATM   15  C14 UNL     1      23.240  48.081  45.549  1.00  0.00     0.062 C 
BRANCH  15  16
HETATM   16  N4  UNL     1      22.937  48.293  46.866  1.00  0.00    -0.356 N 
ATOM     17  H4  UNL     1      22.317  47.542  47.169  1.00  0.00     0.166 HD
BRANCH  16  18
HETATM   18  C15 UNL     1      23.122  49.039  47.828  1.00  0.00     0.104 A 
HETATM   19  C16 UNL     1      23.646  50.317  47.802  1.00  0.00     0.050 A 
HETATM   20  C17 UNL     1      23.792  51.041  48.934  1.00  0.00     0.029 A 
HETATM   21  C18 UNL     1      23.422  50.528  50.162  1.00  0.00     0.056 A 
HETATM   22 CL1  UNL     1      23.572  51.405  51.664  1.00  0.00    -0.082 Cl
HETATM   23  C19 UNL     1      22.901  49.252  50.182  1.00  0.00     0.028 A 
HETATM   24  C20 UNL     1      22.479  48.640  51.497  1.00  0.00     0.070 C 
HETATM   25  N5  UNL     1      22.768  48.565  49.057  1.00  0.00    -0.345 N 
ATOM     26  H5  UNL     1      22.376  47.625  49.113  1.00  0.00     0.167 HD
ENDBRANCH  16  18
ENDBRANCH  15  16
ENDBRANCH  14  15
ENDBRANCH  13  14
ENDBRANCH  12  13
ENDBRANCH  10  12
ENDBRANCH   4  10
BRANCH   1  27
HETATM   27  N1  UNL     1      17.072  44.048  43.511  1.00  0.00    -0.204 N 
ATOM     28  H1  UNL     1      16.325  43.626  44.062  1.00  0.00     0.183 HD
BRANCH  27  29
HETATM   29  C8  UNL     1      16.862  44.078  42.142  1.00  0.00     0.083 C 
BRANCH  29  30
HETATM   30  C7  UNL     1      17.266  45.322  41.396  1.00  0.00     0.083 C 
BRANCH  30  31
HETATM   31  C6  UNL     1      16.069  46.086  41.024  1.00  0.00    -0.053 A 
HETATM   32  C5  UNL     1      16.190  47.336  40.411  1.00  0.00     0.008 A 
HETATM   33  C4  UNL     1      15.054  48.047  40.063  1.00  0.00     0.007 A 
HETATM   34  C3  UNL     1      13.821  47.535  40.314  1.00  0.00    -0.059 A 
HETATM   35  C28 UNL     1      13.694  46.280  40.933  1.00  0.00     0.007 A 
HETATM   36  C27 UNL     1      14.823  45.582  41.275  1.00  0.00     0.008 A 
BRANCH  34  37
HETATM   37  C2  UNL     1      12.569  48.212  39.925  1.00  0.00     0.034 C 
HETATM   38  C1  UNL     1      12.403  48.030  38.431  1.00  0.00     0.010 C 
ENDBRANCH  34  37
ENDBRANCH  30  31
ENDBRANCH  29  30
ENDBRANCH  27  29
ENDBRANCH   1  27
BRANCH   7  39
HETATM   39  N7  UNL     1      20.791  43.053  45.889  1.00  0.00    -0.225 N 
ATOM     40  H7  UNL     1      20.376  42.121  45.877  1.00  0.00     0.177 HD
BRANCH  39  41
HETATM   41  C22 UNL     1      22.082  43.050  46.423  1.00  0.00     0.139 C 
BRANCH  41  42
HETATM   42  C23 UNL     1      23.076  42.920  45.265  1.00  0.00     0.040 C 
BRANCH  42  43
HETATM   43  C24 UNL     1      23.444  44.311  44.854  1.00  0.00     0.124 C 
BRANCH  43  44
HETATM   44  N8  UNL     1      22.975  44.622  43.506  1.00  0.00    -0.361 N 
HETATM   45  C25 UNL     1      23.719  45.568  42.736  1.00  0.00     0.213 C 
HETATM   46  C26 UNL     1      23.247  45.883  41.357  1.00  0.00     0.117 C 
HETATM   47  O1  UNL     1      24.753  46.144  43.172  1.00  0.00    -0.274 OA
ATOM     48  H8  UNL     1      22.140  44.176  43.125  1.00  0.00     0.162 HD
ENDBRANCH  43  44
ENDBRANCH  42  43
ENDBRANCH  41  42
ENDBRANCH  39  41
ENDBRANCH   7  39
TORSDOF 17
ENDMDL
MODEL 5
REMARK VINA RESULT: -9.178299021      3.696      9.874
REMARK  17 active torsions:
REMARK  status: ('A' for Active; 'I' for Inactive)
REMARK    1  A    between atoms: C2_2  and  C3_3 
REMARK    2  A    between atoms: C6_6  and  C7_7 
REMARK    3  A    between atoms: C7_7  and  C8_8 
REMARK    4  A    between atoms: C8_8  and  N1_9 
REMARK    5  A    between atoms: N1_9  and  C9_11 
REMARK    6  A    between atoms: C10_14  and  N3_15 
REMARK    7  A    between atoms: N3_15  and  C11_17 
REMARK    8  A    between atoms: C11_17  and  C12_18 
REMARK    9  A    between atoms: C12_18  and  C13_19 
REMARK   10  A    between atoms: C13_19  and  C14_20 
REMARK   11  A    between atoms: C14_20  and  N4_21 
REMARK   12  A    between atoms: N4_21  and  C15_23 
REMARK   13  A    between atoms: C21_34  and  N7_35 
REMARK   14  A    between atoms: N7_35  and  C22_37 
REMARK   15  A    between atoms: C22_37  and  C23_38 
REMARK   16  A    between atoms: C23_38  and  C24_39 
REMARK   17  A    between atoms: C24_39  and  N8_40 
REMARK       I    between atoms: N8_40  and  C25_42 
ROOT
HETATM    1  C9  UNL     1      21.115  49.426  44.273  1.00  0.00     0.710 A 
HETATM    2  N2  UNL     1      20.261  48.514  44.723  1.00  0.00    -0.021 N 
ATOM      3  H2  UNL     1      19.456  48.842  45.258  1.00  0.00     0.203 HD
HETATM    4  C10 UNL     1      20.382  47.157  44.521  1.00  0.00     0.707 A 
HETATM    5  N6  UNL     1      21.455  46.779  43.816  1.00  0.00    -0.022 N 
ATOM      6  H6  UNL     1      21.593  45.784  43.640  1.00  0.00     0.203 HD
HETATM    7  C21 UNL     1      22.352  47.635  43.331  1.00  0.00     0.707 A 
HETATM    8  N9  UNL     1      22.174  48.960  43.565  1.00  0.00    -0.021 N 
ATOM      9  H9  UNL     1      22.857  49.624  43.198  1.00  0.00     0.203 HD
ENDROOT
BRANCH   4  10
HETATM   10  N3  UNL     1      19.532  46.388  44.948  1.00  0.00    -0.225 N 
ATOM     11  H3  UNL     1      18.638  46.749  44.616  1.00  0.00     0.177 HD
BRANCH  10  12
HETATM   12  C11 UNL     1      19.242  45.285  45.656  1.00  0.00     0.138 C 
BRANCH  12  13
HETATM   13  C12 UNL     1      18.939  44.092  44.739  1.00  0.00     0.025 C 
BRANCH  13  14
HETATM   14  C13 UNL     1      17.683  44.282  43.928  1.00  0.00     0.046 C 
BRANCH  14  15
HETATM   15  C14 UNL     1      18.053  43.992  42.487  1.00  0.00     0.062 C 
BRANCH  15  16
HETATM   16  N4  UNL     1      17.287  44.540  41.494  1.00  0.00    -0.356 N 
ATOM     17  H4  UNL     1      17.729  44.318  40.601  1.00  0.00     0.166 HD
BRANCH  16  18
HETATM   18  C15 UNL     1      16.273  45.196  41.259  1.00  0.00     0.104 A 
HETATM   19  C16 UNL     1      14.963  44.798  41.443  1.00  0.00     0.050 A 
HETATM   20  C17 UNL     1      13.929  45.620  41.153  1.00  0.00     0.029 A 
HETATM   21  C18 UNL     1      14.147  46.892  40.661  1.00  0.00     0.056 A 
HETATM   22 CL1  UNL     1      12.866  48.014  40.273  1.00  0.00    -0.082 Cl
HETATM   23  C19 UNL     1      15.456  47.284  40.479  1.00  0.00     0.028 A 
HETATM   24  C20 UNL     1      15.754  48.665  39.945  1.00  0.00     0.070 C 
HETATM   25  N5  UNL     1      16.450  46.458  40.772  1.00  0.00    -0.345 N 
ATOM     26  H5  UNL     1      17.405  46.785  40.626  1.00  0.00     0.167 HD
ENDBRANCH  16  18
ENDBRANCH  15  16
ENDBRANCH  14  15
ENDBRANCH  13  14
ENDBRANCH  12  13
ENDBRANCH  10  12
ENDBRANCH   4  10
BRANCH   1  27
HETATM   27  N1  UNL     1      21.047  50.684  44.488  1.00  0.00    -0.204 N 
ATOM     28  H1  UNL     1      20.223  51.151  44.110  1.00  0.00     0.183 HD
BRANCH  27  29
HETATM   29  C8  UNL     1      21.940  51.500  45.164  1.00  0.00     0.083 C 
BRANCH  29  30
HETATM   30  C7  UNL     1      23.291  50.932  45.507  1.00  0.00     0.083 C 
BRANCH  30  31
HETATM   31  C6  UNL     1      23.294  50.467  46.899  1.00  0.00    -0.053 A 
HETATM   32  C5  UNL     1      23.347  49.101  47.189  1.00  0.00     0.008 A 
HETATM   33  C4  UNL     1      23.351  48.674  48.506  1.00  0.00     0.007 A 
HETATM   34  C3  UNL     1      23.305  49.578  49.519  1.00  0.00    -0.059 A 
HETATM   35  C28 UNL     1      23.250  50.952  49.233  1.00  0.00     0.007 A 
HETATM   36  C27 UNL     1      23.246  51.367  47.927  1.00  0.00     0.008 A 
BRANCH  34  37
HETATM   37  C2  UNL     1      23.359  49.198  50.944  1.00  0.00     0.034 C 
HETATM   38  C1  UNL     1      23.530  50.473  51.745  1.00  0.00     0.010 C 
ENDBRANCH  34  37
ENDBRANCH  30  31
ENDBRANCH  29  30
ENDBRANCH  27  29
ENDBRANCH   1  27
BRANCH   7  39
HETATM   39  N7  UNL     1      23.365  47.229  42.710  1.00  0.00    -0.225 N 
ATOM     40  H7  UNL     1      23.146  46.953  41.752  1.00  0.00     0.177 HD
BRANCH  39  41
HETATM   41  C22 UNL     1      24.719  47.063  43.012  1.00  0.00     0.139 C 
BRANCH  41  42
HETATM   42  C23 UNL     1      24.827  46.560  44.454  1.00  0.00     0.040 C 
BRANCH  42  43
HETATM   43  C24 UNL     1      25.230  45.121  44.380  1.00  0.00     0.124 C 
BRANCH  43  44
HETATM   44  N8  UNL     1      24.405  44.279  45.242  1.00  0.00    -0.361 N 
HETATM   45  C25 UNL     1      23.113  43.894  44.771  1.00  0.00     0.213 C 
HETATM   46  C26 UNL     1      22.271  43.029  45.646  1.00  0.00     0.117 C 
HETATM   47  O1  UNL     1      22.658  44.252  43.650  1.00  0.00    -0.274 OA
ATOM     48  H8  UNL     1      24.742  43.976  46.156  1.00  0.00     0.162 HD
ENDBRANCH  43  44
ENDBRANCH  42  43
ENDBRANCH  41  42
ENDBRANCH  39  41
ENDBRANCH   7  39
TORSDOF 17
ENDMDL
