MODEL 1
REMARK VINA RESULT: -8.143009389      0.000      0.000
REMARK  13 active torsions:
REMARK  status: ('A' for Active; 'I' for Inactive)
REMARK    1  A    between atoms: C2_2  and  C3_3 
REMARK    2  A    between atoms: C3_3  and  C4_4 
REMARK    3  A    between atoms: C4_4  and  C5_5 
REMARK    4  A    between atoms: C5_5  and  C6_6 
REMARK    5  A    between atoms: C6_6  and  C7_7 
REMARK    6  A    between atoms: C7_7  and  C8_8 
REMARK    7  A    between atoms: C10_13  and  C11_14 
REMARK    8  A    between atoms: C14_23  and  C15_24 
REMARK    9  A    between atoms: C15_24  and  C16_25 
REMARK   10  A    between atoms: C16_25  and  C17_26 
REMARK   11  A    between atoms: C17_26  and  N4_27 
REMARK   12  A    between atoms: N7_32  and  S1_33 
REMARK   13  A    between atoms: S1_33  and  C19_36 
ROOT
HETATM    1  C8  UNL     1      22.844  46.710  43.715  1.00  0.00     0.198 C 
HETATM    2  N1  UNL     1      23.545  45.770  44.555  1.00  0.00    -0.337 N 
ATOM      3  H1  UNL     1      24.449  46.119  44.874  1.00  0.00     0.164 HD
HETATM    4  C9  UNL     1      23.258  44.477  45.032  1.00  0.00     0.247 C 
HETATM    5  O1  UNL     1      24.231  43.775  45.397  1.00  0.00    -0.271 OA
HETATM    6  C10 UNL     1      21.984  43.744  45.200  1.00  0.00     0.221 C 
HETATM    7  N3  UNL     1      20.941  44.544  45.797  1.00  0.00    -0.341 N 
ATOM      8  H3  UNL     1      20.246  43.986  46.292  1.00  0.00     0.163 HD
HETATM    9  C13 UNL     1      20.671  45.924  45.846  1.00  0.00     0.242 C 
HETATM   10  O2  UNL     1      19.929  46.121  46.885  1.00  0.00    -0.271 OA
HETATM   11  C14 UNL     1      20.902  47.187  45.191  1.00  0.00     0.190 C 
HETATM   12  N7  UNL     1      21.844  47.470  44.262  1.00  0.00    -0.271 N 
ENDROOT
BRANCH  12  13
HETATM   13  S1  UNL     1      22.365  49.136  44.424  1.00  0.00     0.263 S 
HETATM   14  O3  UNL     1      21.301  50.112  44.114  1.00  0.00    -0.200 OA
HETATM   15  O4  UNL     1      23.559  49.411  43.589  1.00  0.00    -0.200 OA
BRANCH  13  16
HETATM   16  C19 UNL     1      22.813  49.449  46.111  1.00  0.00     0.079 A 
HETATM   17  C20 UNL     1      23.068  48.411  46.979  1.00  0.00     0.027 A 
HETATM   18  C21 UNL     1      23.409  48.725  48.273  1.00  0.00     0.025 A 
HETATM   19  C22 UNL     1      23.499  50.029  48.712  1.00  0.00     0.034 A 
HETATM   20 CL1  UNL     1      23.940  50.381  50.388  1.00  0.00    -0.084 Cl
HETATM   21  C23 UNL     1      23.244  51.066  47.842  1.00  0.00     0.025 A 
HETATM   22  C24 UNL     1      22.903  50.753  46.550  1.00  0.00     0.027 A 
ENDBRANCH  13  16
ENDBRANCH  12  13
BRANCH   1  23
HETATM   23  C7  UNL     1      22.479  46.004  42.389  1.00  0.00     0.048 C 
BRANCH  23  24
HETATM   24  C6  UNL     1      23.598  46.045  41.420  1.00  0.00     0.004 C 
BRANCH  24  25
HETATM   25  C5  UNL     1      23.376  45.138  40.234  1.00  0.00     0.000 C 
BRANCH  25  26
HETATM   26  C4  UNL     1      23.588  45.845  38.932  1.00  0.00     0.000 C 
BRANCH  26  27
HETATM   27  C3  UNL     1      23.121  44.999  37.791  1.00  0.00    -0.000 C 
BRANCH  27  28
HETATM   28  C2  UNL     1      23.984  45.221  36.582  1.00  0.00    -0.005 C 
HETATM   29  C1  UNL     1      23.122  45.665  35.403  1.00  0.00     0.005 C 
ENDBRANCH  27  28
ENDBRANCH  26  27
ENDBRANCH  25  26
ENDBRANCH  24  25
ENDBRANCH  23  24
ENDBRANCH   1  23
BRANCH  11  30
HETATM   30  C15 UNL     1      19.509  47.649  44.703  1.00  0.00     0.037 C 
BRANCH  30  31
HETATM   31  C16 UNL     1      19.242  47.301  43.283  1.00  0.00     0.022 C 
BRANCH  31  32
HETATM   32  C17 UNL     1      18.647  45.910  43.254  1.00  0.00     0.122 C 
BRANCH  32  33
HETATM   33  N4  UNL     1      18.672  45.319  41.951  1.00  0.00    -0.367 N 
HETATM   34  C18 UNL     1      17.577  45.172  41.302  1.00  0.00     0.196 C 
HETATM   35  N5  UNL     1      16.307  45.564  41.799  1.00  0.00    -0.067 NA
HETATM   36  N6  UNL     1      17.649  44.578  40.007  1.00  0.00    -0.067 NA
ATOM     37  H4  UNL     1      19.556  45.017  41.540  1.00  0.00     0.161 HD
ENDBRANCH  32  33
ENDBRANCH  31  32
ENDBRANCH  30  31
ENDBRANCH  11  30
BRANCH   6  38
HETATM   38  C11 UNL     1      22.212  42.479  45.997  1.00  0.00     0.008 C 
HETATM   39  C12 UNL     1      23.144  42.464  47.151  1.00  0.00     0.065 C 
HETATM   40  N2  UNL     1      21.606  41.402  45.694  1.00  0.00    -0.404 N 
ATOM     41  H22 UNL     1      20.965  41.412  44.901  1.00  0.00     0.155 HD
ATOM     42  H21 UNL     1      21.758  40.549  46.232  1.00  0.00     0.155 HD
ENDBRANCH   6  38
TORSDOF 13
ENDMDL
MODEL 2
REMARK VINA RESULT: -7.216058398      1.106      1.238
REMARK  13 active torsions:
REMARK  status: ('A' for Active; 'I' for Inactive)
REMARK    1  A    between atoms: C2_2  and  C3_3 
REMARK    2  A    between atoms: C3_3  and  C4_4 
REMARK    3  A    between atoms: C4_4  and  C5_5 
REMARK    4  A    between atoms: C5_5  and  C6_6 
REMARK    5  A    between atoms: C6_6  and  C7_7 
REMARK    6  A    between atoms: C7_7  and  C8_8 
REMARK    7  A    between atoms: C10_13  and  C11_14 
REMARK    8  A    between atoms: C14_23  and  C15_24 
REMARK    9  A    between atoms: C15_24  and  C16_25 
REMARK   10  A    between atoms: C16_25  and  C17_26 
REMARK   11  A    between atoms: C17_26  and  N4_27 
REMARK   12  A    between atoms: N7_32  and  S1_33 
REMARK   13  A    between atoms: S1_33  and  C19_36 
ROOT
HETATM    1  C8  UNL     1      23.356  47.741  43.996  1.00  0.00     0.198 C 
HETATM    2  N1  UNL     1      24.051  46.629  44.596  1.00  0.00    -0.337 N 
ATOM      3  H1  UNL     1      24.939  46.899  45.020  1.00  0.00     0.164 HD
HETATM    4  C9  UNL     1      23.778  45.254  44.725  1.00  0.00     0.247 C 
HETATM    5  O1  UNL     1      24.754  44.496  44.934  1.00  0.00    -0.271 OA
HETATM    6  C10 UNL     1      22.515  44.487  44.664  1.00  0.00     0.221 C 
HETATM    7  N3  UNL     1      21.440  45.099  45.409  1.00  0.00    -0.341 N 
ATOM      8  H3  UNL     1      20.743  44.425  45.727  1.00  0.00     0.163 HD
HETATM    9  C13 UNL     1      21.141  46.418  45.793  1.00  0.00     0.242 C 
HETATM   10  O2  UNL     1      20.367  46.339  46.824  1.00  0.00    -0.271 OA
HETATM   11  C14 UNL     1      21.364  47.808  45.482  1.00  0.00     0.190 C 
HETATM   12  N7  UNL     1      22.325  48.326  44.684  1.00  0.00    -0.271 N 
ENDROOT
BRANCH  12  13
HETATM   13  S1  UNL     1      22.808  49.905  45.274  1.00  0.00     0.263 S 
HETATM   14  O3  UNL     1      21.746  50.924  45.149  1.00  0.00    -0.200 OA
HETATM   15  O4  UNL     1      24.041  50.378  44.600  1.00  0.00    -0.200 OA
BRANCH  13  16
HETATM   16  C19 UNL     1      23.158  49.801  47.010  1.00  0.00     0.079 A 
HETATM   17  C20 UNL     1      23.597  48.624  47.573  1.00  0.00     0.027 A 
HETATM   18  C21 UNL     1      23.847  48.613  48.924  1.00  0.00     0.025 A 
HETATM   19  C22 UNL     1      23.671  49.731  49.711  1.00  0.00     0.034 A 
HETATM   20 CL1  UNL     1      24.007  49.666  51.447  1.00  0.00    -0.084 Cl
HETATM   21  C23 UNL     1      23.232  50.908  49.146  1.00  0.00     0.025 A 
HETATM   22  C24 UNL     1      22.982  50.919  47.796  1.00  0.00     0.027 A 
ENDBRANCH  13  16
ENDBRANCH  12  13
BRANCH   1  23
HETATM   23  C7  UNL     1      23.040  47.384  42.525  1.00  0.00     0.048 C 
BRANCH  23  24
HETATM   24  C6  UNL     1      23.925  46.309  42.020  1.00  0.00     0.004 C 
BRANCH  24  25
HETATM   25  C5  UNL     1      23.267  45.462  40.958  1.00  0.00     0.000 C 
BRANCH  25  26
HETATM   26  C4  UNL     1      23.673  45.870  39.577  1.00  0.00     0.000 C 
BRANCH  26  27
HETATM   27  C3  UNL     1      23.078  44.949  38.560  1.00  0.00    -0.000 C 
BRANCH  27  28
HETATM   28  C2  UNL     1      23.499  45.348  37.175  1.00  0.00    -0.005 C 
HETATM   29  C1  UNL     1      22.274  45.458  36.270  1.00  0.00     0.005 C 
ENDBRANCH  27  28
ENDBRANCH  26  27
ENDBRANCH  25  26
ENDBRANCH  24  25
ENDBRANCH  23  24
ENDBRANCH   1  23
BRANCH  11  30
HETATM   30  C15 UNL     1      19.977  48.359  45.082  1.00  0.00     0.037 C 
BRANCH  30  31
HETATM   31  C16 UNL     1      19.554  47.946  43.718  1.00  0.00     0.022 C 
BRANCH  31  32
HETATM   32  C17 UNL     1      19.019  46.534  43.811  1.00  0.00     0.122 C 
BRANCH  32  33
HETATM   33  N4  UNL     1      18.311  46.127  42.635  1.00  0.00    -0.367 N 
HETATM   34  C18 UNL     1      18.114  44.879  42.415  1.00  0.00     0.196 C 
HETATM   35  N5  UNL     1      18.560  43.847  43.280  1.00  0.00    -0.067 NA
HETATM   36  N6  UNL     1      17.405  44.520  41.231  1.00  0.00    -0.067 NA
ATOM     37  H4  UNL     1      17.966  46.825  41.976  1.00  0.00     0.161 HD
ENDBRANCH  32  33
ENDBRANCH  31  32
ENDBRANCH  30  31
ENDBRANCH  11  30
BRANCH   6  38
HETATM   38  C11 UNL     1      22.746  43.065  45.127  1.00  0.00     0.008 C 
HETATM   39  C12 UNL     1      21.888  42.457  46.173  1.00  0.00     0.065 C 
HETATM   40  N2  UNL     1      23.681  42.362  44.625  1.00  0.00    -0.404 N 
ATOM     41  H22 UNL     1      24.271  42.780  43.906  1.00  0.00     0.155 HD
ATOM     42  H21 UNL     1      23.836  41.404  44.937  1.00  0.00     0.155 HD
ENDBRANCH   6  38
TORSDOF 13
ENDMDL
MODEL 3
REMARK VINA RESULT: -6.679945244      2.983      6.663
REMARK  13 active torsions:
REMARK  status: ('A' for Active; 'I' for Inactive)
REMARK    1  A    between atoms: C2_2  and  C3_3 
REMARK    2  A    between atoms: C3_3  and  C4_4 
REMARK    3  A    between atoms: C4_4  and  C5_5 
REMARK    4  A    between atoms: C5_5  and  C6_6 
REMARK    5  A    between atoms: C6_6  and  C7_7 
REMARK    6  A    between atoms: C7_7  and  C8_8 
REMARK    7  A    between atoms: C10_13  and  C11_14 
REMARK    8  A    between atoms: C14_23  and  C15_24 
REMARK    9  A    between atoms: C15_24  and  C16_25 
REMARK   10  A    between atoms: C16_25  and  C17_26 
REMARK   11  A    between atoms: C17_26  and  N4_27 
REMARK   12  A    between atoms: N7_32  and  S1_33 
REMARK   13  A    between atoms: S1_33  and  C19_36 
ROOT
HETATM    1  C8  UNL     1      22.030  47.855  45.362  1.00  0.00     0.198 C 
HETATM    2  N1  UNL     1      20.620  47.694  45.107  1.00  0.00    -0.337 N 
ATOM      3  H1  UNL     1      20.122  48.583  45.055  1.00  0.00     0.164 HD
HETATM    4  C9  UNL     1      19.777  46.582  44.914  1.00  0.00     0.247 C 
HETATM    5  O1  UNL     1      18.553  46.753  45.120  1.00  0.00    -0.271 OA
HETATM    6  C10 UNL     1      20.056  45.191  44.497  1.00  0.00     0.221 C 
HETATM    7  N3  UNL     1      20.964  45.103  43.378  1.00  0.00    -0.341 N 
ATOM      8  H3  UNL     1      20.838  44.252  42.829  1.00  0.00     0.163 HD
HETATM    9  C13 UNL     1      21.985  45.931  42.876  1.00  0.00     0.242 C 
HETATM   10  O2  UNL     1      22.126  45.633  41.627  1.00  0.00    -0.271 OA
HETATM   11  C14 UNL     1      22.923  46.972  43.216  1.00  0.00     0.190 C 
HETATM   12  N7  UNL     1      22.908  47.763  44.313  1.00  0.00    -0.271 N 
ENDROOT
BRANCH  12  13
HETATM   13  S1  UNL     1      23.554  49.345  43.921  1.00  0.00     0.263 S 
HETATM   14  O3  UNL     1      23.534  49.641  42.474  1.00  0.00    -0.200 OA
HETATM   15  O4  UNL     1      24.929  49.512  44.450  1.00  0.00    -0.200 OA
BRANCH  13  16
HETATM   16  C19 UNL     1      22.541  50.594  44.670  1.00  0.00     0.079 A 
HETATM   17  C20 UNL     1      21.192  50.666  44.401  1.00  0.00     0.027 A 
HETATM   18  C21 UNL     1      20.467  51.659  45.014  1.00  0.00     0.025 A 
HETATM   19  C22 UNL     1      21.049  52.566  45.874  1.00  0.00     0.034 A 
HETATM   20 CL1  UNL     1      20.072  53.828  46.639  1.00  0.00    -0.084 Cl
HETATM   21  C23 UNL     1      22.397  52.493  46.142  1.00  0.00     0.025 A 
HETATM   22  C24 UNL     1      23.122  51.501  45.530  1.00  0.00     0.027 A 
ENDBRANCH  13  16
ENDBRANCH  12  13
BRANCH   1  23
HETATM   23  C7  UNL     1      22.403  47.011  46.602  1.00  0.00     0.048 C 
BRANCH  23  24
HETATM   24  C6  UNL     1      23.534  47.606  47.350  1.00  0.00     0.004 C 
BRANCH  24  25
HETATM   25  C5  UNL     1      23.250  49.013  47.816  1.00  0.00     0.000 C 
BRANCH  25  26
HETATM   26  C4  UNL     1      23.613  49.218  49.253  1.00  0.00     0.000 C 
BRANCH  26  27
HETATM   27  C3  UNL     1      23.536  50.667  49.613  1.00  0.00    -0.000 C 
BRANCH  27  28
HETATM   28  C2  UNL     1      23.725  50.855  51.091  1.00  0.00    -0.005 C 
HETATM   29  C1  UNL     1      23.170  49.648  51.844  1.00  0.00     0.005 C 
ENDBRANCH  27  28
ENDBRANCH  26  27
ENDBRANCH  25  26
ENDBRANCH  24  25
ENDBRANCH  23  24
ENDBRANCH   1  23
BRANCH  11  30
HETATM   30  C15 UNL     1      24.318  46.334  43.032  1.00  0.00     0.037 C 
BRANCH  30  31
HETATM   31  C16 UNL     1      24.807  45.634  44.248  1.00  0.00     0.022 C 
BRANCH  31  32
HETATM   32  C17 UNL     1      24.086  44.307  44.336  1.00  0.00     0.122 C 
BRANCH  32  33
HETATM   33  N4  UNL     1      24.158  43.718  45.639  1.00  0.00    -0.367 N 
HETATM   34  C18 UNL     1      23.163  43.042  46.083  1.00  0.00     0.196 C 
HETATM   35  N5  UNL     1      21.964  42.831  45.354  1.00  0.00    -0.067 NA
HETATM   36  N6  UNL     1      23.278  42.474  47.386  1.00  0.00    -0.067 NA
ATOM     37  H4  UNL     1      24.995  43.835  46.210  1.00  0.00     0.161 HD
ENDBRANCH  32  33
ENDBRANCH  31  32
ENDBRANCH  30  31
ENDBRANCH  11  30
BRANCH   6  38
HETATM   38  C11 UNL     1      18.762  44.469  44.195  1.00  0.00     0.008 C 
HETATM   39  C12 UNL     1      18.077  44.648  42.891  1.00  0.00     0.065 C 
HETATM   40  N2  UNL     1      18.236  43.691  45.053  1.00  0.00    -0.404 N 
ATOM     41  H22 UNL     1      18.707  43.568  45.950  1.00  0.00     0.155 HD
ATOM     42  H21 UNL     1      17.364  43.203  44.850  1.00  0.00     0.155 HD
ENDBRANCH   6  38
TORSDOF 13
ENDMDL
MODEL 4
REMARK VINA RESULT: -6.655896287      3.174      7.059
REMARK  13 active torsions:
REMARK  status: ('A' for Active; 'I' for Inactive)
REMARK    1  A    between atoms: C2_2  and  C3_3 
REMARK    2  A    between atoms: C3_3  and  C4_4 
REMARK    3  A    between atoms: C4_4  and  C5_5 
REMARK    4  A    between atoms: C5_5  and  C6_6 
REMARK    5  A    between atoms: C6_6  and  C7_7 
REMARK    6  A    between atoms: C7_7  and  C8_8 
REMARK    7  A    between atoms: C10_13  and  C11_14 
REMARK    8  A    between atoms: C14_23  and  C15_24 
REMARK    9  A    between atoms: C15_24  and  C16_25 
REMARK   10  A    between atoms: C16_25  and  C17_26 
REMARK   11  A    between atoms: C17_26  and  N4_27 
REMARK   12  A    between atoms: N7_32  and  S1_33 
REMARK   13  A    between atoms: S1_33  and  C19_36 
ROOT
HETATM    1  C8  UNL     1      22.024  47.767  45.322  1.00  0.00     0.198 C 
HETATM    2  N1  UNL     1      20.602  47.640  45.117  1.00  0.00    -0.337 N 
ATOM      3  H1  UNL     1      20.122  48.541  45.098  1.00  0.00     0.164 HD
HETATM    4  C9  UNL     1      19.729  46.551  44.936  1.00  0.00     0.247 C 
HETATM    5  O1  UNL     1      18.517  46.743  45.191  1.00  0.00    -0.271 OA
HETATM    6  C10 UNL     1      19.961  45.161  44.486  1.00  0.00     0.221 C 
HETATM    7  N3  UNL     1      20.826  45.073  43.334  1.00  0.00    -0.341 N 
ATOM      8  H3  UNL     1      20.661  44.234  42.776  1.00  0.00     0.163 HD
HETATM    9  C13 UNL     1      21.845  45.887  42.809  1.00  0.00     0.242 C 
HETATM   10  O2  UNL     1      21.934  45.608  41.550  1.00  0.00    -0.271 OA
HETATM   11  C14 UNL     1      22.818  46.902  43.131  1.00  0.00     0.190 C 
HETATM   12  N7  UNL     1      22.860  47.674  44.240  1.00  0.00    -0.271 N 
ENDROOT
BRANCH  12  13
HETATM   13  S1  UNL     1      23.526  49.249  43.850  1.00  0.00     0.263 S 
HETATM   14  O3  UNL     1      23.504  49.549  42.405  1.00  0.00    -0.200 OA
HETATM   15  O4  UNL     1      24.906  49.395  44.374  1.00  0.00    -0.200 OA
BRANCH  13  16
HETATM   16  C19 UNL     1      22.534  50.508  44.608  1.00  0.00     0.079 A 
HETATM   17  C20 UNL     1      21.183  50.593  44.355  1.00  0.00     0.027 A 
HETATM   18  C21 UNL     1      20.475  51.594  44.974  1.00  0.00     0.025 A 
HETATM   19  C22 UNL     1      21.075  52.498  45.826  1.00  0.00     0.034 A 
HETATM   20 CL1  UNL     1      20.120  53.770  46.599  1.00  0.00    -0.084 Cl
HETATM   21  C23 UNL     1      22.426  52.412  46.078  1.00  0.00     0.025 A 
HETATM   22  C24 UNL     1      23.134  51.412  45.460  1.00  0.00     0.027 A 
ENDBRANCH  13  16
ENDBRANCH  12  13
BRANCH   1  23
HETATM   23  C7  UNL     1      22.423  46.893  46.534  1.00  0.00     0.048 C 
BRANCH  23  24
HETATM   24  C6  UNL     1      23.524  47.506  47.312  1.00  0.00     0.004 C 
BRANCH  24  25
HETATM   25  C5  UNL     1      23.207  48.911  47.765  1.00  0.00     0.000 C 
BRANCH  25  26
HETATM   26  C4  UNL     1      23.639  49.162  49.175  1.00  0.00     0.000 C 
BRANCH  26  27
HETATM   27  C3  UNL     1      23.474  50.606  49.527  1.00  0.00    -0.000 C 
BRANCH  27  28
HETATM   28  C2  UNL     1      23.718  50.823  50.993  1.00  0.00    -0.005 C 
HETATM   29  C1  UNL     1      23.163  49.648  51.793  1.00  0.00     0.005 C 
ENDBRANCH  27  28
ENDBRANCH  26  27
ENDBRANCH  25  26
ENDBRANCH  24  25
ENDBRANCH  23  24
ENDBRANCH   1  23
BRANCH  11  30
HETATM   30  C15 UNL     1      24.191  46.237  42.884  1.00  0.00     0.037 C 
BRANCH  30  31
HETATM   31  C16 UNL     1      24.259  44.836  43.374  1.00  0.00     0.022 C 
BRANCH  31  32
HETATM   32  C17 UNL     1      25.035  44.840  44.674  1.00  0.00     0.122 C 
BRANCH  32  33
HETATM   33  N4  UNL     1      26.028  45.870  44.727  1.00  0.00    -0.367 N 
HETATM   34  C18 UNL     1      27.257  45.553  44.911  1.00  0.00     0.196 C 
HETATM   35  N5  UNL     1      27.713  44.219  45.070  1.00  0.00    -0.067 NA
HETATM   36  N6  UNL     1      28.213  46.611  44.957  1.00  0.00    -0.067 NA
ATOM     37  H4  UNL     1      25.761  46.848  44.618  1.00  0.00     0.161 HD
ENDBRANCH  32  33
ENDBRANCH  31  32
ENDBRANCH  30  31
ENDBRANCH  11  30
BRANCH   6  38
HETATM   38  C11 UNL     1      18.642  44.472  44.221  1.00  0.00     0.008 C 
HETATM   39  C12 UNL     1      17.938  44.650  42.927  1.00  0.00     0.065 C 
HETATM   40  N2  UNL     1      18.110  43.724  45.102  1.00  0.00    -0.404 N 
ATOM     41  H22 UNL     1      18.593  43.602  45.992  1.00  0.00     0.155 HD
ATOM     42  H21 UNL     1      17.220  43.259  44.923  1.00  0.00     0.155 HD
ENDBRANCH   6  38
TORSDOF 13
ENDMDL
MODEL 5
REMARK VINA RESULT: -6.502281516      3.491      7.379
REMARK  13 active torsions:
REMARK  status: ('A' for Active; 'I' for Inactive)
REMARK    1  A    between atoms: C2_2  and  C3_3 
REMARK    2  A    between atoms: C3_3  and  C4_4 
REMARK    3  A    between atoms: C4_4  and  C5_5 
REMARK    4  A    between atoms: C5_5  and  C6_6 
REMARK    5  A    between atoms: C6_6  and  C7_7 
REMARK    6  A    between atoms: C7_7  and  C8_8 
REMARK    7  A    between atoms: C10_13  and  C11_14 
REMARK    8  A    between atoms: C14_23  and  C15_24 
REMARK    9  A    between atoms: C15_24  and  C16_25 
REMARK   10  A    between atoms: C16_25  and  C17_26 
REMARK   11  A    between atoms: C17_26  and  N4_27 
REMARK   12  A    between atoms: N7_32  and  S1_33 
REMARK   13  A    between atoms: S1_33  and  C19_36 
ROOT
HETATM    1  C8  UNL     1      23.159  48.371  45.212  1.00  0.00     0.198 C 
HETATM    2  N1  UNL     1      23.572  49.745  45.057  1.00  0.00    -0.337 N 
ATOM      3  H1  UNL     1      24.420  49.843  44.498  1.00  0.00     0.164 HD
HETATM    4  C9  UNL     1      23.066  50.979  45.506  1.00  0.00     0.247 C 
HETATM    5  O1  UNL     1      23.867  51.942  45.548  1.00  0.00    -0.271 OA
HETATM    6  C10 UNL     1      21.719  51.390  45.958  1.00  0.00     0.221 C 
HETATM    7  N3  UNL     1      20.659  50.899  45.111  1.00  0.00    -0.341 N 
ATOM      8  H3  UNL     1      19.824  51.484  45.138  1.00  0.00     0.163 HD
HETATM    9  C13 UNL     1      20.522  49.791  44.255  1.00  0.00     0.242 C 
HETATM   10  O2  UNL     1      19.603  50.093  43.399  1.00  0.00    -0.271 OA
HETATM   11  C14 UNL     1      21.008  48.463  43.970  1.00  0.00     0.190 C 
HETATM   12  N7  UNL     1      22.146  47.891  44.424  1.00  0.00    -0.271 N 
ENDROOT
BRANCH  12  13
HETATM   13  S1  UNL     1      22.784  46.787  43.221  1.00  0.00     0.263 S 
HETATM   14  O3  UNL     1      23.282  47.468  42.010  1.00  0.00    -0.200 OA
HETATM   15  O4  UNL     1      21.781  45.761  42.845  1.00  0.00    -0.200 OA
BRANCH  13  16
HETATM   16  C19 UNL     1      24.188  45.936  43.893  1.00  0.00     0.079 A 
HETATM   17  C20 UNL     1      24.057  44.681  44.446  1.00  0.00     0.027 A 
HETATM   18  C21 UNL     1      25.185  44.081  44.950  1.00  0.00     0.025 A 
HETATM   19  C22 UNL     1      26.420  44.694  44.915  1.00  0.00     0.034 A 
HETATM   20 CL1  UNL     1      27.843  43.879  45.578  1.00  0.00    -0.084 Cl
HETATM   21  C23 UNL     1      26.549  45.948  44.362  1.00  0.00     0.025 A 
HETATM   22  C24 UNL     1      25.422  46.549  43.858  1.00  0.00     0.027 A 
ENDBRANCH  13  16
ENDBRANCH  12  13
BRANCH   1  23
HETATM   23  C7  UNL     1      23.009  48.073  46.722  1.00  0.00     0.048 C 
BRANCH  23  24
HETATM   24  C6  UNL     1      24.281  48.289  47.451  1.00  0.00     0.004 C 
BRANCH  24  25
HETATM   25  C5  UNL     1      24.067  48.756  48.871  1.00  0.00     0.000 C 
BRANCH  25  26
HETATM   26  C4  UNL     1      23.368  50.077  48.933  1.00  0.00     0.000 C 
BRANCH  26  27
HETATM   27  C3  UNL     1      23.600  50.734  50.256  1.00  0.00    -0.000 C 
BRANCH  27  28
HETATM   28  C2  UNL     1      23.863  49.705  51.317  1.00  0.00    -0.005 C 
HETATM   29  C1  UNL     1      22.542  49.136  51.830  1.00  0.00     0.005 C 
ENDBRANCH  27  28
ENDBRANCH  26  27
ENDBRANCH  25  26
ENDBRANCH  24  25
ENDBRANCH  23  24
ENDBRANCH   1  23
BRANCH  11  30
HETATM   30  C15 UNL     1      19.801  47.531  44.216  1.00  0.00     0.037 C 
BRANCH  30  31
HETATM   31  C16 UNL     1      19.926  46.728  45.460  1.00  0.00     0.022 C 
BRANCH  31  32
HETATM   32  C17 UNL     1      19.547  45.301  45.127  1.00  0.00     0.122 C 
BRANCH  32  33
HETATM   33  N4  UNL     1      19.111  45.142  43.773  1.00  0.00    -0.367 N 
HETATM   34  C18 UNL     1      18.163  44.320  43.507  1.00  0.00     0.196 C 
HETATM   35  N5  UNL     1      17.500  43.537  44.487  1.00  0.00    -0.067 NA
HETATM   36  N6  UNL     1      17.761  44.192  42.144  1.00  0.00    -0.067 NA
ATOM     37  H4  UNL     1      19.550  45.678  43.024  1.00  0.00     0.161 HD
ENDBRANCH  32  33
ENDBRANCH  31  32
ENDBRANCH  30  31
ENDBRANCH  11  30
BRANCH   6  38
HETATM   38  C11 UNL     1      21.649  52.896  46.085  1.00  0.00     0.008 C 
HETATM   39  C12 UNL     1      20.421  53.561  46.586  1.00  0.00     0.065 C 
HETATM   40  N2  UNL     1      22.644  53.622  45.767  1.00  0.00    -0.404 N 
ATOM     41  H22 UNL     1      23.489  53.166  45.422  1.00  0.00     0.155 HD
ATOM     42  H21 UNL     1      22.597  54.637  45.852  1.00  0.00     0.155 HD
ENDBRANCH   6  38
TORSDOF 13
ENDMDL
