MODEL 1
REMARK VINA RESULT: -7.214320829      0.000      0.000
REMARK  4 active torsions:
REMARK  status: ('A' for Active; 'I' for Inactive)
REMARK    1  A    between atoms: C2_2  and  N1_4 
REMARK    2  A    between atoms: C4_7  and  C5_8 
REMARK    3  A    between atoms: C5_8  and  O1_9 
REMARK    4  A    between atoms: C5_8  and  C6_11 
ROOT
HETATM    1  N1  UNL     1      -0.083  85.941  24.779  1.00  0.00    -0.291 N 
HETATM    2  N2  UNL     1      -1.383  85.895  24.990  1.00  0.00    -0.299 N 
ATOM      3  H2  UNL     1      -2.054  86.594  24.672  1.00  0.00     0.187 HD
HETATM    4  C4  UNL     1      -1.692  84.798  25.682  1.00  0.00     0.067 A 
HETATM    5  C11 UNL     1      -0.519  84.125  25.915  1.00  0.00     0.016 A 
HETATM    6  C12 UNL     1       0.489  84.863  25.336  1.00  0.00     0.041 A 
HETATM    7  C13 UNL     1       1.916  84.438  25.383  1.00  0.00     0.085 C 
HETATM    8  C14 UNL     1       1.988  83.058  26.053  1.00  0.00     0.174 C 
HETATM    9  O2  UNL     1       1.103  83.017  27.146  1.00  0.00    -0.386 OA
HETATM   10  C15 UNL     1      -0.167  82.870  26.606  1.00  0.00     0.210 C 
ENDROOT
BRANCH   4  11
HETATM   11  C5  UNL     1      -3.032  84.361  26.133  1.00  0.00     0.200 C 
BRANCH  11  12
HETATM   12  O1  UNL     1      -3.528  85.389  26.970  1.00  0.00    -0.387 OA
ATOM     13  H1  UNL     1      -4.415  85.141  27.203  1.00  0.00     0.210 HD
ENDBRANCH  11  12
BRANCH  11  14
HETATM   14  C6  UNL     1      -4.014  84.241  24.997  1.00  0.00     0.220 C 
HETATM   15  C7  UNL     1      -4.315  82.836  24.600  1.00  0.00     0.036 C 
HETATM   16  C8  UNL     1      -5.294  82.907  23.422  1.00  0.00     0.004 C 
HETATM   17  C9  UNL     1      -6.526  83.687  23.782  1.00  0.00     0.027 C 
HETATM   18  C10 UNL     1      -6.104  85.030  24.342  1.00  0.00     0.233 C 
HETATM   19  N3  UNL     1      -5.281  84.802  25.498  1.00  0.00    -0.068 N 
ATOM     20  H32 UNL     1      -5.730  84.221  26.206  1.00  0.00     0.277 HD
ATOM     21  H31 UNL     1      -5.156  85.632  26.078  1.00  0.00     0.277 HD
ENDBRANCH  11  14
ENDBRANCH   4  11
BRANCH   1  22
HETATM   22  C2  UNL     1       0.637  86.998  24.051  1.00  0.00     0.100 C 
HETATM   23  C1  UNL     1      -0.173  87.632  22.976  1.00  0.00     0.034 C 
HETATM   24  C3  UNL     1       1.233  87.998  24.989  1.00  0.00     0.034 C 
ENDBRANCH   1  22
TORSDOF 4
ENDMDL
MODEL 2
REMARK VINA RESULT: -7.074787369      1.197      1.595
REMARK  4 active torsions:
REMARK  status: ('A' for Active; 'I' for Inactive)
REMARK    1  A    between atoms: C2_2  and  N1_4 
REMARK    2  A    between atoms: C4_7  and  C5_8 
REMARK    3  A    between atoms: C5_8  and  O1_9 
REMARK    4  A    between atoms: C5_8  and  C6_11 
ROOT
HETATM    1  N1  UNL     1       0.174  85.971  24.764  1.00  0.00    -0.291 N 
HETATM    2  N2  UNL     1      -1.103  85.968  25.091  1.00  0.00    -0.299 N 
ATOM      3  H2  UNL     1      -1.777  86.687  24.827  1.00  0.00     0.187 HD
HETATM    4  C4  UNL     1      -1.384  84.887  25.819  1.00  0.00     0.067 A 
HETATM    5  C11 UNL     1      -0.217  84.177  25.953  1.00  0.00     0.016 A 
HETATM    6  C12 UNL     1       0.758  84.878  25.279  1.00  0.00     0.041 A 
HETATM    7  C13 UNL     1       2.169  84.407  25.203  1.00  0.00     0.085 C 
HETATM    8  C14 UNL     1       2.256  83.030  25.876  1.00  0.00     0.174 C 
HETATM    9  O2  UNL     1       1.472  83.025  27.044  1.00  0.00    -0.386 OA
HETATM   10  C15 UNL     1       0.155  82.916  26.621  1.00  0.00     0.210 C 
ENDROOT
BRANCH   4  11
HETATM   11  C5  UNL     1      -2.692  84.497  26.391  1.00  0.00     0.200 C 
BRANCH  11  12
HETATM   12  O1  UNL     1      -2.567  84.620  27.795  1.00  0.00    -0.387 OA
ATOM     13  H1  UNL     1      -3.374  84.283  28.167  1.00  0.00     0.210 HD
ENDBRANCH  11  12
BRANCH  11  14
HETATM   14  C6  UNL     1      -3.801  85.432  25.989  1.00  0.00     0.220 C 
HETATM   15  C7  UNL     1      -4.861  84.797  25.154  1.00  0.00     0.036 C 
HETATM   16  C8  UNL     1      -5.877  85.893  24.816  1.00  0.00     0.004 C 
HETATM   17  C9  UNL     1      -6.423  86.536  26.059  1.00  0.00     0.027 C 
HETATM   18  C10 UNL     1      -5.262  86.987  26.921  1.00  0.00     0.233 C 
HETATM   19  N3  UNL     1      -4.461  85.838  27.243  1.00  0.00    -0.068 N 
ATOM     20  H32 UNL     1      -4.990  85.086  27.684  1.00  0.00     0.277 HD
ATOM     21  H31 UNL     1      -3.809  86.000  28.010  1.00  0.00     0.277 HD
ENDBRANCH  11  14
ENDBRANCH   4  11
BRANCH   1  22
HETATM   22  C2  UNL     1       0.859  86.998  23.965  1.00  0.00     0.100 C 
HETATM   23  C1  UNL     1      -0.021  87.646  22.957  1.00  0.00     0.034 C 
HETATM   24  C3  UNL     1       1.563  87.988  24.837  1.00  0.00     0.034 C 
ENDBRANCH   1  22
TORSDOF 4
ENDMDL
MODEL 3
REMARK VINA RESULT: -7.043178262      1.671      3.118
REMARK  4 active torsions:
REMARK  status: ('A' for Active; 'I' for Inactive)
REMARK    1  A    between atoms: C2_2  and  N1_4 
REMARK    2  A    between atoms: C4_7  and  C5_8 
REMARK    3  A    between atoms: C5_8  and  O1_9 
REMARK    4  A    between atoms: C5_8  and  C6_11 
ROOT
HETATM    1  N1  UNL     1       0.960  83.592  26.127  1.00  0.00    -0.291 N 
HETATM    2  N2  UNL     1      -0.138  83.012  26.572  1.00  0.00    -0.299 N 
ATOM      3  H2  UNL     1      -0.169  82.129  27.081  1.00  0.00     0.187 HD
HETATM    4  C4  UNL     1      -1.201  83.752  26.259  1.00  0.00     0.067 A 
HETATM    5  C11 UNL     1      -0.741  84.854  25.581  1.00  0.00     0.016 A 
HETATM    6  C12 UNL     1       0.629  84.735  25.507  1.00  0.00     0.041 A 
HETATM    7  C13 UNL     1       1.482  85.756  24.837  1.00  0.00     0.085 C 
HETATM    8  C14 UNL     1       0.585  86.922  24.397  1.00  0.00     0.174 C 
HETATM    9  O2  UNL     1      -0.621  86.419  23.877  1.00  0.00    -0.386 OA
HETATM   10  C15 UNL     1      -1.380  86.035  24.972  1.00  0.00     0.210 C 
ENDROOT
BRANCH   4  11
HETATM   11  C5  UNL     1      -2.621  83.469  26.566  1.00  0.00     0.200 C 
BRANCH  11  12
HETATM   12  O1  UNL     1      -3.004  84.390  27.569  1.00  0.00    -0.387 OA
ATOM     13  H1  UNL     1      -3.953  84.357  27.615  1.00  0.00     0.210 HD
ENDBRANCH  11  12
BRANCH  11  14
HETATM   14  C6  UNL     1      -3.529  83.729  25.394  1.00  0.00     0.220 C 
HETATM   15  C7  UNL     1      -4.154  82.501  24.823  1.00  0.00     0.036 C 
HETATM   16  C8  UNL     1      -5.008  82.950  23.632  1.00  0.00     0.004 C 
HETATM   17  C9  UNL     1      -6.021  83.981  24.043  1.00  0.00     0.027 C 
HETATM   18  C10 UNL     1      -5.305  85.100  24.772  1.00  0.00     0.233 C 
HETATM   19  N3  UNL     1      -4.640  84.544  25.918  1.00  0.00    -0.068 N 
ATOM     20  H32 UNL     1      -5.265  84.027  26.537  1.00  0.00     0.277 HD
ATOM     21  H31 UNL     1      -4.344  85.246  26.595  1.00  0.00     0.277 HD
ENDBRANCH  11  14
ENDBRANCH   4  11
BRANCH   1  22
HETATM   22  C2  UNL     1       2.330  83.080  26.280  1.00  0.00     0.100 C 
HETATM   23  C1  UNL     1       2.385  81.648  26.679  1.00  0.00     0.034 C 
HETATM   24  C3  UNL     1       3.160  83.372  25.071  1.00  0.00     0.034 C 
ENDBRANCH   1  22
TORSDOF 4
ENDMDL
MODEL 4
REMARK VINA RESULT: -6.630585694      2.365      6.104
REMARK  4 active torsions:
REMARK  status: ('A' for Active; 'I' for Inactive)
REMARK    1  A    between atoms: C2_2  and  N1_4 
REMARK    2  A    between atoms: C4_7  and  C5_8 
REMARK    3  A    between atoms: C5_8  and  O1_9 
REMARK    4  A    between atoms: C5_8  and  C6_11 
ROOT
HETATM    1  N1  UNL     1      -4.104  83.687  25.130  1.00  0.00    -0.291 N 
HETATM    2  N2  UNL     1      -3.201  82.895  25.675  1.00  0.00    -0.299 N 
ATOM      3  H2  UNL     1      -3.096  81.901  25.476  1.00  0.00     0.187 HD
HETATM    4  C4  UNL     1      -2.443  83.588  26.525  1.00  0.00     0.067 A 
HETATM    5  C11 UNL     1      -2.901  84.883  26.510  1.00  0.00     0.016 A 
HETATM    6  C12 UNL     1      -3.951  84.926  25.622  1.00  0.00     0.041 A 
HETATM    7  C13 UNL     1      -4.704  86.180  25.338  1.00  0.00     0.085 C 
HETATM    8  C14 UNL     1      -4.028  87.331  26.096  1.00  0.00     0.174 C 
HETATM    9  O2  UNL     1      -3.652  86.896  27.379  1.00  0.00    -0.386 OA
HETATM   10  C15 UNL     1      -2.512  86.125  27.203  1.00  0.00     0.210 C 
ENDROOT
BRANCH   4  11
HETATM   11  C5  UNL     1      -1.318  83.089  27.347  1.00  0.00     0.200 C 
BRANCH  11  12
HETATM   12  O1  UNL     1      -1.681  81.790  27.775  1.00  0.00    -0.387 OA
ATOM     13  H1  UNL     1      -1.187  81.621  28.569  1.00  0.00     0.210 HD
ENDBRANCH  11  12
BRANCH  11  14
HETATM   14  C6  UNL     1      -0.050  82.927  26.554  1.00  0.00     0.220 C 
HETATM   15  C7  UNL     1       0.571  84.214  26.127  1.00  0.00     0.036 C 
HETATM   16  C8  UNL     1       1.819  83.856  25.312  1.00  0.00     0.004 C 
HETATM   17  C9  UNL     1       2.759  82.991  26.102  1.00  0.00     0.027 C 
HETATM   18  C10 UNL     1       1.988  81.803  26.640  1.00  0.00     0.233 C 
HETATM   19  N3  UNL     1       0.918  82.292  27.466  1.00  0.00    -0.068 N 
ATOM     20  H32 UNL     1       1.234  82.909  28.215  1.00  0.00     0.277 HD
ATOM     21  H31 UNL     1       0.505  81.574  28.061  1.00  0.00     0.277 HD
ENDBRANCH  11  14
ENDBRANCH   4  11
BRANCH   1  22
HETATM   22  C2  UNL     1      -5.119  83.288  24.143  1.00  0.00     0.100 C 
HETATM   23  C1  UNL     1      -4.573  82.454  23.039  1.00  0.00     0.034 C 
HETATM   24  C3  UNL     1      -6.307  82.664  24.803  1.00  0.00     0.034 C 
ENDBRANCH   1  22
TORSDOF 4
ENDMDL
MODEL 5
REMARK VINA RESULT: -6.579693121      1.748      2.437
REMARK  4 active torsions:
REMARK  status: ('A' for Active; 'I' for Inactive)
REMARK    1  A    between atoms: C2_2  and  N1_4 
REMARK    2  A    between atoms: C4_7  and  C5_8 
REMARK    3  A    between atoms: C5_8  and  O1_9 
REMARK    4  A    between atoms: C5_8  and  C6_11 
ROOT
HETATM    1  N1  UNL     1       1.196  84.953  25.123  1.00  0.00    -0.291 N 
HETATM    2  N2  UNL     1       0.023  84.761  25.694  1.00  0.00    -0.299 N 
ATOM      3  H2  UNL     1      -0.787  85.372  25.589  1.00  0.00     0.187 HD
HETATM    4  C4  UNL     1       0.052  83.649  26.428  1.00  0.00     0.067 A 
HETATM    5  C11 UNL     1       1.312  83.119  26.308  1.00  0.00     0.016 A 
HETATM    6  C12 UNL     1       2.022  83.958  25.479  1.00  0.00     0.041 A 
HETATM    7  C13 UNL     1       3.444  83.701  25.113  1.00  0.00     0.085 C 
HETATM    8  C14 UNL     1       3.861  82.351  25.714  1.00  0.00     0.174 C 
HETATM    9  O2  UNL     1       3.333  82.229  27.012  1.00  0.00    -0.386 OA
HETATM   10  C15 UNL     1       1.988  81.927  26.852  1.00  0.00     0.210 C 
ENDROOT
BRANCH   4  11
HETATM   11  C5  UNL     1      -1.046  83.068  27.232  1.00  0.00     0.200 C 
BRANCH  11  12
HETATM   12  O1  UNL     1      -1.043  83.758  28.468  1.00  0.00    -0.387 OA
ATOM     13  H1  UNL     1      -0.219  84.228  28.511  1.00  0.00     0.210 HD
ENDBRANCH  11  12
BRANCH  11  14
HETATM   14  C6  UNL     1      -2.401  83.312  26.624  1.00  0.00     0.220 C 
HETATM   15  C7  UNL     1      -2.439  84.445  25.655  1.00  0.00     0.036 C 
HETATM   16  C8  UNL     1      -3.887  84.566  25.169  1.00  0.00     0.004 C 
HETATM   17  C9  UNL     1      -4.374  83.276  24.574  1.00  0.00     0.027 C 
HETATM   18  C10 UNL     1      -4.127  82.159  25.568  1.00  0.00     0.233 C 
HETATM   19  N3  UNL     1      -2.718  82.102  25.845  1.00  0.00    -0.068 N 
ATOM     20  H32 UNL     1      -2.144  81.997  25.008  1.00  0.00     0.277 HD
ATOM     21  H31 UNL     1      -2.429  81.237  26.304  1.00  0.00     0.277 HD
ENDBRANCH  11  14
ENDBRANCH   4  11
BRANCH   1  22
HETATM   22  C2  UNL     1       1.553  86.072  24.237  1.00  0.00     0.100 C 
HETATM   23  C1  UNL     1       0.554  87.174  24.246  1.00  0.00     0.034 C 
HETATM   24  C3  UNL     1       2.944  86.553  24.500  1.00  0.00     0.034 C 
ENDBRANCH   1  22
TORSDOF 4
ENDMDL
