MODEL 1
REMARK VINA RESULT: -6.096726466      0.000      0.000
REMARK  3 active torsions:
REMARK  status: ('A' for Active; 'I' for Inactive)
REMARK    1  A    between atoms: C4_4  and  N1_5 
REMARK       I    between atoms: N2_9  and  C8_10 
REMARK       I    between atoms: C8_10  and  N4_14 
REMARK    2  A    between atoms: N4_14  and  C9_16 
REMARK    3  A    between atoms: C12_19  and  N5_20 
ROOT
HETATM    1  N1  UNL     1      -2.229  84.476  25.724  1.00  0.00    -0.271 N 
HETATM    2  C5  UNL     1      -3.111  84.165  24.590  1.00  0.00     0.152 C 
HETATM    3  C6  UNL     1      -4.349  83.735  25.415  1.00  0.00     0.044 C 
HETATM    4  C7  UNL     1      -4.436  84.864  26.443  1.00  0.00     0.170 C 
HETATM    5  N2  UNL     1      -3.036  85.215  26.624  1.00  0.00    -0.122 N 
HETATM    6  C8  UNL     1      -2.554  86.151  27.557  1.00  0.00     0.689 C 
HETATM    7  N3  UNL     1      -2.230  85.806  28.749  1.00  0.00    -0.233 N 
ATOM      8  H31 UNL     1      -1.880  86.485  29.425  1.00  0.00     0.174 HD
ATOM      9  H32 UNL     1      -2.326  84.826  29.018  1.00  0.00     0.174 HD
HETATM   10  N4  UNL     1      -2.420  87.510  27.183  1.00  0.00    -0.221 N 
ATOM     11  H4  UNL     1      -1.976  87.715  26.288  1.00  0.00     0.178 HD
ENDROOT
BRANCH   1  12
HETATM   12  C4  UNL     1      -0.888  84.124  25.918  1.00  0.00     0.111 A 
HETATM   13  C3  UNL     1      -0.439  82.987  26.602  1.00  0.00     0.068 A 
HETATM   14  C2  UNL     1       0.918  82.988  26.560  1.00  0.00     0.054 A 
HETATM   15  C1  UNL     1       1.850  81.965  27.159  1.00  0.00     0.077 C 
HETATM   16  O3  UNL     1       1.293  84.045  25.901  1.00  0.00    -0.292 OA
HETATM   17  C12 UNL     1       0.237  84.763  25.493  1.00  0.00     0.243 A 
BRANCH  17  18
HETATM   18  N5  UNL     1       0.386  85.969  24.752  1.00  0.00    -0.088 N 
HETATM   19  O1  UNL     1       1.501  86.319  24.325  1.00  0.00    -0.530 OA
HETATM   20  O2  UNL     1      -0.661  86.792  24.475  1.00  0.00    -0.530 OA
ENDBRANCH  17  18
ENDBRANCH   1  12
BRANCH  10  21
HETATM   21  C9  UNL     1      -2.865  88.615  27.972  1.00  0.00     0.091 C 
HETATM   22  C10 UNL     1      -4.328  88.934  27.760  1.00  0.00     0.032 C 
HETATM   23  C11 UNL     1      -2.074  89.842  27.617  1.00  0.00     0.032 C 
ENDBRANCH  10  21
TORSDOF 3
ENDMDL
MODEL 2
REMARK VINA RESULT: -5.880136611      2.567      5.025
REMARK  3 active torsions:
REMARK  status: ('A' for Active; 'I' for Inactive)
REMARK    1  A    between atoms: C4_4  and  N1_5 
REMARK       I    between atoms: N2_9  and  C8_10 
REMARK       I    between atoms: C8_10  and  N4_14 
REMARK    2  A    between atoms: N4_14  and  C9_16 
REMARK    3  A    between atoms: C12_19  and  N5_20 
ROOT
HETATM    1  N1  UNL     1      -1.364  85.041  25.731  1.00  0.00    -0.271 N 
HETATM    2  C5  UNL     1      -0.268  84.087  25.955  1.00  0.00     0.152 C 
HETATM    3  C6  UNL     1      -0.772  83.522  27.306  1.00  0.00     0.044 C 
HETATM    4  C7  UNL     1      -2.247  83.264  26.996  1.00  0.00     0.170 C 
HETATM    5  N2  UNL     1      -2.545  84.322  26.044  1.00  0.00    -0.122 N 
HETATM    6  C8  UNL     1      -3.818  84.593  25.512  1.00  0.00     0.689 C 
HETATM    7  N3  UNL     1      -4.628  85.402  26.089  1.00  0.00    -0.233 N 
ATOM      8  H31 UNL     1      -5.552  85.599  25.704  1.00  0.00     0.174 HD
ATOM      9  H32 UNL     1      -4.334  85.857  26.954  1.00  0.00     0.174 HD
HETATM   10  N4  UNL     1      -4.227  83.962  24.312  1.00  0.00    -0.221 N 
ATOM     11  H4  UNL     1      -3.568  83.950  23.534  1.00  0.00     0.178 HD
ENDROOT
BRANCH   1  12
HETATM   12  C4  UNL     1      -1.298  86.376  25.316  1.00  0.00     0.111 A 
HETATM   13  C3  UNL     1      -0.604  86.842  24.191  1.00  0.00     0.068 A 
HETATM   14  C2  UNL     1      -0.793  88.185  24.116  1.00  0.00     0.054 A 
HETATM   15  C1  UNL     1      -0.243  89.126  23.075  1.00  0.00     0.077 C 
HETATM   16  O3  UNL     1      -1.547  88.535  25.117  1.00  0.00    -0.292 OA
HETATM   17  C12 UNL     1      -1.878  87.476  25.870  1.00  0.00     0.243 A 
BRANCH  17  18
HETATM   18  N5  UNL     1      -2.697  87.601  27.028  1.00  0.00    -0.088 N 
HETATM   19  O1  UNL     1      -2.408  87.001  28.078  1.00  0.00    -0.530 OA
HETATM   20  O2  UNL     1      -3.821  88.367  27.050  1.00  0.00    -0.530 OA
ENDBRANCH  17  18
ENDBRANCH   1  12
BRANCH  10  21
HETATM   21  C9  UNL     1      -5.498  83.342  24.116  1.00  0.00     0.091 C 
HETATM   22  C10 UNL     1      -5.488  82.328  22.993  1.00  0.00     0.032 C 
HETATM   23  C11 UNL     1      -6.525  84.385  23.780  1.00  0.00     0.032 C 
ENDBRANCH  10  21
TORSDOF 3
ENDMDL
MODEL 3
REMARK VINA RESULT: -5.761693089      4.740      7.067
REMARK  3 active torsions:
REMARK  status: ('A' for Active; 'I' for Inactive)
REMARK    1  A    between atoms: C4_4  and  N1_5 
REMARK       I    between atoms: N2_9  and  C8_10 
REMARK       I    between atoms: C8_10  and  N4_14 
REMARK    2  A    between atoms: N4_14  and  C9_16 
REMARK    3  A    between atoms: C12_19  and  N5_20 
ROOT
HETATM    1  N1  UNL     1      -7.167  83.534  23.815  1.00  0.00    -0.271 N 
HETATM    2  C5  UNL     1      -7.933  83.703  22.571  1.00  0.00     0.152 C 
HETATM    3  C6  UNL     1      -7.843  82.236  22.084  1.00  0.00     0.044 C 
HETATM    4  C7  UNL     1      -8.201  81.470  23.358  1.00  0.00     0.170 C 
HETATM    5  N2  UNL     1      -7.667  82.341  24.393  1.00  0.00    -0.122 N 
HETATM    6  C8  UNL     1      -7.648  82.042  25.767  1.00  0.00     0.689 C 
HETATM    7  N3  UNL     1      -6.662  81.425  26.307  1.00  0.00    -0.233 N 
ATOM      8  H31 UNL     1      -6.648  81.208  27.304  1.00  0.00     0.174 HD
ATOM      9  H32 UNL     1      -5.875  81.149  25.718  1.00  0.00     0.174 HD
HETATM   10  N4  UNL     1      -8.739  82.426  26.585  1.00  0.00    -0.221 N 
ATOM     11  H4  UNL     1      -9.096  83.375  26.484  1.00  0.00     0.178 HD
ENDROOT
BRANCH   1  12
HETATM   12  C4  UNL     1      -6.151  84.341  24.339  1.00  0.00     0.111 A 
HETATM   13  C3  UNL     1      -6.297  85.679  24.730  1.00  0.00     0.068 A 
HETATM   14  C2  UNL     1      -5.097  86.106  25.199  1.00  0.00     0.054 A 
HETATM   15  C1  UNL     1      -4.762  87.475  25.733  1.00  0.00     0.077 C 
HETATM   16  O3  UNL     1      -4.261  85.114  25.109  1.00  0.00    -0.292 OA
HETATM   17  C12 UNL     1      -4.851  84.025  24.595  1.00  0.00     0.243 A 
BRANCH  17  18
HETATM   18  N5  UNL     1      -4.143  82.807  24.395  1.00  0.00    -0.088 N 
HETATM   19  O1  UNL     1      -3.570  82.242  25.343  1.00  0.00    -0.530 OA
HETATM   20  O2  UNL     1      -4.054  82.204  23.179  1.00  0.00    -0.530 OA
ENDBRANCH  17  18
ENDBRANCH   1  12
BRANCH  10  21
HETATM   21  C9  UNL     1      -9.374  81.575  27.540  1.00  0.00     0.091 C 
HETATM   22  C10 UNL     1     -10.196  80.480  26.895  1.00  0.00     0.032 C 
HETATM   23  C11 UNL     1     -10.294  82.385  28.409  1.00  0.00     0.032 C 
ENDBRANCH  10  21
TORSDOF 3
ENDMDL
MODEL 4
REMARK VINA RESULT: -5.689401119      1.424      3.900
REMARK  3 active torsions:
REMARK  status: ('A' for Active; 'I' for Inactive)
REMARK    1  A    between atoms: C4_4  and  N1_5 
REMARK       I    between atoms: N2_9  and  C8_10 
REMARK       I    between atoms: C8_10  and  N4_14 
REMARK    2  A    between atoms: N4_14  and  C9_16 
REMARK    3  A    between atoms: C12_19  and  N5_20 
ROOT
HETATM    1  N1  UNL     1      -2.149  84.914  27.041  1.00  0.00    -0.271 N 
HETATM    2  C5  UNL     1      -2.489  85.754  28.200  1.00  0.00     0.152 C 
HETATM    3  C6  UNL     1      -3.283  86.838  27.431  1.00  0.00     0.044 C 
HETATM    4  C7  UNL     1      -4.187  85.980  26.544  1.00  0.00     0.170 C 
HETATM    5  N2  UNL     1      -3.349  84.818  26.294  1.00  0.00    -0.122 N 
HETATM    6  C8  UNL     1      -3.680  83.754  25.437  1.00  0.00     0.689 C 
HETATM    7  N3  UNL     1      -3.371  83.773  24.192  1.00  0.00    -0.233 N 
ATOM      8  H31 UNL     1      -3.611  83.001  23.570  1.00  0.00     0.174 HD
ATOM      9  H32 UNL     1      -2.870  84.582  23.824  1.00  0.00     0.174 HD
HETATM   10  N4  UNL     1      -4.375  82.630  25.947  1.00  0.00    -0.221 N 
ATOM     11  H4  UNL     1      -4.042  82.224  26.822  1.00  0.00     0.178 HD
ENDROOT
BRANCH   1  12
HETATM   12  C4  UNL     1      -0.920  84.333  26.706  1.00  0.00     0.111 A 
HETATM   13  C3  UNL     1      -0.365  83.200  27.315  1.00  0.00     0.068 A 
HETATM   14  C2  UNL     1       0.819  82.940  26.704  1.00  0.00     0.054 A 
HETATM   15  C1  UNL     1       1.778  81.820  27.014  1.00  0.00     0.077 C 
HETATM   16  O3  UNL     1       0.994  83.841  25.782  1.00  0.00    -0.292 OA
HETATM   17  C12 UNL     1      -0.030  84.705  25.745  1.00  0.00     0.243 A 
BRANCH  17  18
HETATM   18  N5  UNL     1      -0.071  85.786  24.820  1.00  0.00    -0.088 N 
HETATM   19  O1  UNL     1       0.979  86.323  24.423  1.00  0.00    -0.530 OA
HETATM   20  O2  UNL     1      -1.238  86.285  24.329  1.00  0.00    -0.530 OA
ENDBRANCH  17  18
ENDBRANCH   1  12
BRANCH  10  21
HETATM   21  C9  UNL     1      -5.508  82.025  25.323  1.00  0.00     0.091 C 
HETATM   22  C10 UNL     1      -6.508  83.040  24.815  1.00  0.00     0.032 C 
HETATM   23  C11 UNL     1      -6.216  81.138  26.307  1.00  0.00     0.032 C 
ENDBRANCH  10  21
TORSDOF 3
ENDMDL
MODEL 5
REMARK VINA RESULT: -5.662605188      2.348      3.846
REMARK  3 active torsions:
REMARK  status: ('A' for Active; 'I' for Inactive)
REMARK    1  A    between atoms: C4_4  and  N1_5 
REMARK       I    between atoms: N2_9  and  C8_10 
REMARK       I    between atoms: C8_10  and  N4_14 
REMARK    2  A    between atoms: N4_14  and  C9_16 
REMARK    3  A    between atoms: C12_19  and  N5_20 
ROOT
HETATM    1  N1  UNL     1      -1.269  86.015  25.261  1.00  0.00    -0.271 N 
HETATM    2  C5  UNL     1       0.126  86.087  24.803  1.00  0.00     0.152 C 
HETATM    3  C6  UNL     1      -0.087  87.139  23.686  1.00  0.00     0.044 C 
HETATM    4  C7  UNL     1      -0.935  88.185  24.412  1.00  0.00     0.170 C 
HETATM    5  N2  UNL     1      -1.699  87.364  25.338  1.00  0.00    -0.122 N 
HETATM    6  C8  UNL     1      -2.717  87.837  26.184  1.00  0.00     0.689 C 
HETATM    7  N3  UNL     1      -3.941  87.881  25.804  1.00  0.00    -0.233 N 
ATOM      8  H31 UNL     1      -4.679  88.225  26.419  1.00  0.00     0.174 HD
ATOM      9  H32 UNL     1      -4.173  87.561  24.864  1.00  0.00     0.174 HD
HETATM   10  N4  UNL     1      -2.394  88.281  27.490  1.00  0.00    -0.221 N 
ATOM     11  H4  UNL     1      -1.779  87.694  28.052  1.00  0.00     0.178 HD
ENDROOT
BRANCH   1  12
HETATM   12  C4  UNL     1      -2.043  84.886  25.552  1.00  0.00     0.111 A 
HETATM   13  C3  UNL     1      -3.221  84.517  24.890  1.00  0.00     0.068 A 
HETATM   14  C2  UNL     1      -3.663  83.360  25.445  1.00  0.00     0.054 A 
HETATM   15  C1  UNL     1      -4.895  82.579  25.065  1.00  0.00     0.077 C 
HETATM   16  O3  UNL     1      -2.828  83.028  26.385  1.00  0.00    -0.292 OA
HETATM   17  C12 UNL     1      -1.831  83.919  26.487  1.00  0.00     0.243 A 
BRANCH  17  18
HETATM   18  N5  UNL     1      -0.789  83.778  27.446  1.00  0.00    -0.088 N 
HETATM   19  O1  UNL     1      -0.928  84.210  28.605  1.00  0.00    -0.530 OA
HETATM   20  O2  UNL     1       0.396  83.175  27.156  1.00  0.00    -0.530 OA
ENDBRANCH  17  18
ENDBRANCH   1  12
BRANCH  10  21
HETATM   21  C9  UNL     1      -2.871  89.494  28.074  1.00  0.00     0.091 C 
HETATM   22  C10 UNL     1      -2.138  90.717  27.566  1.00  0.00     0.032 C 
HETATM   23  C11 UNL     1      -2.695  89.443  29.565  1.00  0.00     0.032 C 
ENDBRANCH  10  21
TORSDOF 3
ENDMDL
