MODEL 1
REMARK VINA RESULT: -7.268279884      0.000      0.000
REMARK  5 active torsions:
REMARK  status: ('A' for Active; 'I' for Inactive)
REMARK    1  A    between atoms: O1_1  and  C1_3 
REMARK    2  A    between atoms: C3_5  and  C4_6 
REMARK    3  A    between atoms: C4_6  and  O2_7 
REMARK    4  A    between atoms: C4_6  and  N1_9 
REMARK    5  A    between atoms: N2_16  and  C10_17 
ROOT
HETATM    1  C1  UNL     1      -0.600  84.973  25.430  1.00  0.00     0.142 A 
HETATM    2  C2  UNL     1      -1.059  86.267  25.190  1.00  0.00     0.069 A 
HETATM    3  C3  UNL     1       0.026  86.975  24.754  1.00  0.00     0.020 A 
HETATM    4  C9  UNL     1       1.092  86.104  24.743  1.00  0.00     0.105 A 
HETATM    5  N2  UNL     1       0.707  84.883  25.155  1.00  0.00    -0.333 N 
ENDROOT
BRANCH   3   6
HETATM    6  C4  UNL     1       0.129  88.388  24.355  1.00  0.00     0.392 C 
BRANCH   6   7
HETATM    7  O2  UNL     1       1.020  89.074  25.215  1.00  0.00    -0.364 OA
ATOM      8  H2  UNL     1       0.568  89.345  26.006  1.00  0.00     0.212 HD
ENDBRANCH   6   7
BRANCH   6   9
HETATM    9  N1  UNL     1       0.577  88.604  23.006  1.00  0.00     0.125 N 
HETATM   10  C5  UNL     1       2.035  88.780  23.111  1.00  0.00     0.302 C 
HETATM   11  C6  UNL     1       2.657  89.042  21.784  1.00  0.00     0.198 C 
HETATM   12  O3  UNL     1       2.107  90.179  21.223  1.00  0.00    -0.388 OA
HETATM   13  C7  UNL     1       1.183  90.795  22.048  1.00  0.00     0.198 C 
HETATM   14  C8  UNL     1       0.075  89.813  22.416  1.00  0.00     0.302 C 
ENDBRANCH   6   9
ENDBRANCH   3   6
BRANCH   1  15
HETATM   15  O1  UNL     1      -1.426  83.936  25.893  1.00  0.00    -0.346 OA
ATOM     16  H1  UNL     1      -1.237  83.016  25.751  1.00  0.00     0.219 HD
ENDBRANCH   1  15
BRANCH   5  17
HETATM   17  C10 UNL     1       1.546  83.718  25.274  1.00  0.00     0.091 C 
HETATM   18  C11 UNL     1       1.311  83.147  26.655  1.00  0.00     0.026 C 
HETATM   19  C12 UNL     1       2.080  81.896  26.927  1.00  0.00     0.002 C 
HETATM   20  C13 UNL     1       3.566  82.262  26.825  1.00  0.00     0.000 C 
HETATM   21  C14 UNL     1       3.792  82.746  25.432  1.00  0.00     0.002 C 
HETATM   22  C15 UNL     1       3.000  84.000  25.109  1.00  0.00     0.026 C 
ENDBRANCH   5  17
TORSDOF 5
ENDMDL
MODEL 2
REMARK VINA RESULT: -6.993449670      3.356      5.874
REMARK  5 active torsions:
REMARK  status: ('A' for Active; 'I' for Inactive)
REMARK    1  A    between atoms: O1_1  and  C1_3 
REMARK    2  A    between atoms: C3_5  and  C4_6 
REMARK    3  A    between atoms: C4_6  and  O2_7 
REMARK    4  A    between atoms: C4_6  and  N1_9 
REMARK    5  A    between atoms: N2_16  and  C10_17 
ROOT
HETATM    1  C1  UNL     1      -0.141  85.257  25.192  1.00  0.00     0.142 A 
HETATM    2  C2  UNL     1      -1.505  85.457  24.991  1.00  0.00     0.069 A 
HETATM    3  C3  UNL     1      -2.137  84.462  25.684  1.00  0.00     0.020 A 
HETATM    4  C9  UNL     1      -1.153  83.702  26.274  1.00  0.00     0.105 A 
HETATM    5  N2  UNL     1       0.063  84.189  25.973  1.00  0.00    -0.333 N 
ENDROOT
BRANCH   3   6
HETATM    6  C4  UNL     1      -3.575  84.180  25.826  1.00  0.00     0.392 C 
BRANCH   6   7
HETATM    7  O2  UNL     1      -4.154  85.063  26.770  1.00  0.00    -0.364 OA
ATOM      8  H2  UNL     1      -3.528  85.265  27.456  1.00  0.00     0.212 HD
ENDBRANCH   6   7
BRANCH   6   9
HETATM    9  N1  UNL     1      -4.335  84.286  24.611  1.00  0.00     0.125 N 
HETATM   10  C5  UNL     1      -5.633  84.848  25.020  1.00  0.00     0.302 C 
HETATM   11  C6  UNL     1      -6.559  84.999  23.865  1.00  0.00     0.198 C 
HETATM   12  O3  UNL     1      -6.770  83.770  23.268  1.00  0.00    -0.388 OA
HETATM   13  C7  UNL     1      -6.125  82.736  23.921  1.00  0.00     0.198 C 
HETATM   14  C8  UNL     1      -4.629  83.020  24.000  1.00  0.00     0.302 C 
ENDBRANCH   6   9
ENDBRANCH   3   6
BRANCH   1  15
HETATM   15  O1  UNL     1       0.849  86.084  24.637  1.00  0.00    -0.346 OA
ATOM     16  H1  UNL     1       1.374  85.836  23.886  1.00  0.00     0.219 HD
ENDBRANCH   1  15
BRANCH   5  17
HETATM   17  C10 UNL     1       1.329  83.657  26.410  1.00  0.00     0.091 C 
HETATM   18  C11 UNL     1       2.268  83.730  25.227  1.00  0.00     0.026 C 
HETATM   19  C12 UNL     1       3.652  83.254  25.526  1.00  0.00     0.002 C 
HETATM   20  C13 UNL     1       3.531  81.778  25.931  1.00  0.00     0.000 C 
HETATM   21  C14 UNL     1       2.667  81.739  27.147  1.00  0.00     0.002 C 
HETATM   22  C15 UNL     1       1.261  82.246  26.886  1.00  0.00     0.026 C 
ENDBRANCH   5  17
TORSDOF 5
ENDMDL
MODEL 3
REMARK VINA RESULT: -6.987074018      3.868      4.448
REMARK  5 active torsions:
REMARK  status: ('A' for Active; 'I' for Inactive)
REMARK    1  A    between atoms: O1_1  and  C1_3 
REMARK    2  A    between atoms: C3_5  and  C4_6 
REMARK    3  A    between atoms: C4_6  and  O2_7 
REMARK    4  A    between atoms: C4_6  and  N1_9 
REMARK    5  A    between atoms: N2_16  and  C10_17 
ROOT
HETATM    1  C1  UNL     1      -1.234  82.152  26.695  1.00  0.00     0.142 A 
HETATM    2  C2  UNL     1      -2.309  82.917  27.143  1.00  0.00     0.069 A 
HETATM    3  C3  UNL     1      -1.836  84.194  27.269  1.00  0.00     0.020 A 
HETATM    4  C9  UNL     1      -0.510  84.165  26.898  1.00  0.00     0.105 A 
HETATM    5  N2  UNL     1      -0.146  82.919  26.548  1.00  0.00    -0.333 N 
ENDROOT
BRANCH   3   6
HETATM    6  C4  UNL     1      -2.529  85.416  27.706  1.00  0.00     0.392 C 
BRANCH   6   7
HETATM    7  O2  UNL     1      -2.272  85.659  29.077  1.00  0.00    -0.364 OA
ATOM      8  H2  UNL     1      -1.572  86.294  29.171  1.00  0.00     0.212 HD
ENDBRANCH   6   7
BRANCH   6   9
HETATM    9  N1  UNL     1      -2.172  86.605  26.981  1.00  0.00     0.125 N 
HETATM   10  C5  UNL     1      -2.606  87.720  27.839  1.00  0.00     0.302 C 
HETATM   11  C6  UNL     1      -2.328  89.041  27.212  1.00  0.00     0.198 C 
HETATM   12  O3  UNL     1      -2.979  89.131  25.995  1.00  0.00    -0.388 OA
HETATM   13  C7  UNL     1      -3.748  88.016  25.712  1.00  0.00     0.198 C 
HETATM   14  C8  UNL     1      -2.880  86.762  25.742  1.00  0.00     0.302 C 
ENDBRANCH   6   9
ENDBRANCH   3   6
BRANCH   1  15
HETATM   15  O1  UNL     1      -1.321  80.774  26.441  1.00  0.00    -0.346 OA
ATOM     16  H1  UNL     1      -0.719  80.309  25.873  1.00  0.00     0.219 HD
ENDBRANCH   1  15
BRANCH   5  17
HETATM   17  C10 UNL     1       1.161  82.503  26.104  1.00  0.00     0.091 C 
HETATM   18  C11 UNL     1       1.834  81.839  27.284  1.00  0.00     0.026 C 
HETATM   19  C12 UNL     1       3.195  81.304  26.978  1.00  0.00     0.002 C 
HETATM   20  C13 UNL     1       4.057  82.507  26.571  1.00  0.00     0.000 C 
HETATM   21  C14 UNL     1       3.420  83.098  25.358  1.00  0.00     0.002 C 
HETATM   22  C15 UNL     1       2.021  83.623  25.625  1.00  0.00     0.026 C 
ENDBRANCH   5  17
TORSDOF 5
ENDMDL
MODEL 4
REMARK VINA RESULT: -6.785790272      1.968      2.715
REMARK  5 active torsions:
REMARK  status: ('A' for Active; 'I' for Inactive)
REMARK    1  A    between atoms: O1_1  and  C1_3 
REMARK    2  A    between atoms: C3_5  and  C4_6 
REMARK    3  A    between atoms: C4_6  and  O2_7 
REMARK    4  A    between atoms: C4_6  and  N1_9 
REMARK    5  A    between atoms: N2_16  and  C10_17 
ROOT
HETATM    1  C1  UNL     1       2.051  86.166  24.416  1.00  0.00     0.142 A 
HETATM    2  C2  UNL     1       2.100  87.526  24.118  1.00  0.00     0.069 A 
HETATM    3  C3  UNL     1       0.847  88.012  24.371  1.00  0.00     0.020 A 
HETATM    4  C9  UNL     1       0.090  86.949  24.809  1.00  0.00     0.105 A 
HETATM    5  N2  UNL     1       0.827  85.824  24.835  1.00  0.00    -0.333 N 
ENDROOT
BRANCH   3   6
HETATM    6  C4  UNL     1       0.322  89.380  24.233  1.00  0.00     0.392 C 
BRANCH   6   7
HETATM    7  O2  UNL     1       1.250  90.314  24.751  1.00  0.00    -0.364 OA
ATOM      8  H2  UNL     1       1.743  90.712  24.044  1.00  0.00     0.212 HD
ENDBRANCH   6   7
BRANCH   6   9
HETATM    9  N1  UNL     1       0.016  89.776  22.886  1.00  0.00     0.125 N 
HETATM   10  C5  UNL     1       1.036  90.780  22.541  1.00  0.00     0.302 C 
HETATM   11  C6  UNL     1       0.842  91.317  21.166  1.00  0.00     0.198 C 
HETATM   12  O3  UNL     1      -0.410  91.894  21.060  1.00  0.00    -0.388 OA
HETATM   13  C7  UNL     1      -1.116  91.873  22.248  1.00  0.00     0.198 C 
HETATM   14  C8  UNL     1      -1.251  90.439  22.751  1.00  0.00     0.302 C 
ENDBRANCH   6   9
ENDBRANCH   3   6
BRANCH   1  15
HETATM   15  O1  UNL     1       3.155  85.308  24.285  1.00  0.00    -0.346 OA
ATOM     16  H1  UNL     1       3.671  85.006  25.022  1.00  0.00     0.219 HD
ENDBRANCH   1  15
BRANCH   5  17
HETATM   17  C10 UNL     1       0.375  84.516  25.238  1.00  0.00     0.091 C 
HETATM   18  C11 UNL     1      -0.923  84.712  25.988  1.00  0.00     0.026 C 
HETATM   19  C12 UNL     1      -1.555  83.437  26.440  1.00  0.00     0.002 C 
HETATM   20  C13 UNL     1      -0.562  82.772  27.402  1.00  0.00     0.000 C 
HETATM   21  C14 UNL     1       0.682  82.514  26.620  1.00  0.00     0.002 C 
HETATM   22  C15 UNL     1       1.335  83.789  26.116  1.00  0.00     0.026 C 
ENDBRANCH   5  17
TORSDOF 5
ENDMDL
MODEL 5
REMARK VINA RESULT: -6.766040072      2.033      3.185
REMARK  5 active torsions:
REMARK  status: ('A' for Active; 'I' for Inactive)
REMARK    1  A    between atoms: O1_1  and  C1_3 
REMARK    2  A    between atoms: C3_5  and  C4_6 
REMARK    3  A    between atoms: C4_6  and  O2_7 
REMARK    4  A    between atoms: C4_6  and  N1_9 
REMARK    5  A    between atoms: N2_16  and  C10_17 
ROOT
HETATM    1  C1  UNL     1       2.685  85.357  24.578  1.00  0.00     0.142 A 
HETATM    2  C2  UNL     1       3.071  86.589  24.054  1.00  0.00     0.069 A 
HETATM    3  C3  UNL     1       1.932  87.341  23.981  1.00  0.00     0.020 A 
HETATM    4  C9  UNL     1       0.906  86.556  24.456  1.00  0.00     0.105 A 
HETATM    5  N2  UNL     1       1.368  85.346  24.819  1.00  0.00    -0.333 N 
ENDROOT
BRANCH   3   6
HETATM    6  C4  UNL     1       1.743  88.721  23.504  1.00  0.00     0.392 C 
BRANCH   6   7
HETATM    7  O2  UNL     1       1.615  88.737  22.094  1.00  0.00    -0.364 OA
ATOM      8  H2  UNL     1       1.089  89.480  21.822  1.00  0.00     0.212 HD
ENDBRANCH   6   7
BRANCH   6   9
HETATM    9  N1  UNL     1       0.599  89.397  24.050  1.00  0.00     0.125 N 
HETATM   10  C5  UNL     1      -0.390  89.417  22.960  1.00  0.00     0.302 C 
HETATM   11  C6  UNL     1      -1.642  90.116  23.361  1.00  0.00     0.198 C 
HETATM   12  O3  UNL     1      -1.356  91.417  23.732  1.00  0.00    -0.388 OA
HETATM   13  C7  UNL     1      -0.020  91.739  23.582  1.00  0.00     0.198 C 
HETATM   14  C8  UNL     1       0.844  90.772  24.385  1.00  0.00     0.302 C 
ENDBRANCH   6   9
ENDBRANCH   3   6
BRANCH   1  15
HETATM   15  O1  UNL     1       3.582  84.302  24.807  1.00  0.00    -0.346 OA
ATOM     16  H1  UNL     1       4.477  84.300  24.490  1.00  0.00     0.219 HD
ENDBRANCH   1  15
BRANCH   5  17
HETATM   17  C10 UNL     1       0.589  84.262  25.361  1.00  0.00     0.091 C 
HETATM   18  C11 UNL     1      -0.668  84.871  25.940  1.00  0.00     0.026 C 
HETATM   19  C12 UNL     1      -1.617  83.868  26.509  1.00  0.00     0.002 C 
HETATM   20  C13 UNL     1      -0.876  83.161  27.652  1.00  0.00     0.000 C 
HETATM   21  C14 UNL     1       0.315  82.500  27.045  1.00  0.00     0.002 C 
HETATM   22  C15 UNL     1       1.287  83.490  26.428  1.00  0.00     0.026 C 
ENDBRANCH   5  17
TORSDOF 5
ENDMDL
