MODEL 1
REMARK VINA RESULT: -9.301304890      0.000      0.000
REMARK  12 active torsions:
REMARK  status: ('A' for Active; 'I' for Inactive)
REMARK    1  A    between atoms: C2_2  and  C3_3 
REMARK    2  A    between atoms: C3_3  and  C4_4 
REMARK    3  A    between atoms: C4_4  and  C5_5 
REMARK    4  A    between atoms: C5_5  and  N1_6 
REMARK    5  A    between atoms: N1_6  and  C6_8 
REMARK    6  A    between atoms: C12_14  and  N2_15 
REMARK    7  A    between atoms: C16_23  and  N4_24 
REMARK    8  A    between atoms: N4_24  and  C17_26 
REMARK    9  A    between atoms: C17_26  and  C18_27 
REMARK   10  A    between atoms: C18_27  and  N5_28 
REMARK   11  A    between atoms: N7_36  and  C23_37 
REMARK   12  A    between atoms: C23_37  and  C24_38 
ROOT
HETATM    1  C6  UNL     1      -2.009   3.635  10.140  1.00  0.00     0.119 A 
HETATM    2  C7  UNL     1      -1.985   2.966  11.371  1.00  0.00     0.079 A 
HETATM    3  C8  UNL     1      -3.095   2.789  12.152  1.00  0.00     0.063 A 
HETATM    4  C9  UNL     1      -3.147   2.043  13.381  1.00  0.00    -0.003 A 
HETATM    5  C10 UNL     1      -4.381   1.465  13.749  1.00  0.00     0.017 A 
HETATM    6  C11 UNL     1      -4.577   0.775  14.917  1.00  0.00     0.037 A 
HETATM    7  C12 UNL     1      -3.527   0.629  15.788  1.00  0.00     0.103 A 
HETATM    8  C13 UNL     1      -2.329   1.189  15.435  1.00  0.00     0.043 A 
HETATM    9  C14 UNL     1      -2.105   1.900  14.247  1.00  0.00    -0.047 A 
HETATM   10  C15 UNL     1      -0.741   2.510  14.049  1.00  0.00     0.049 C 
HETATM   11  N3  UNL     1      -4.242   3.318  11.632  1.00  0.00    -0.191 N 
ATOM     12  H3  UNL     1      -5.101   3.214  12.171  1.00  0.00     0.184 HD
HETATM   13  C16 UNL     1      -4.313   3.968  10.455  1.00  0.00     0.680 A 
HETATM   14  N8  UNL     1      -3.188   4.114   9.727  1.00  0.00    -0.177 N 
ATOM     15  H8  UNL     1      -3.237   4.606   8.835  1.00  0.00     0.185 HD
ENDROOT
BRANCH  13  16
HETATM   16  N4  UNL     1      -5.446   4.443  10.030  1.00  0.00    -0.224 N 
ATOM     17  H4  UNL     1      -5.572   5.455  10.028  1.00  0.00     0.177 HD
BRANCH  16  18
HETATM   18  C17 UNL     1      -6.517   3.633   9.567  1.00  0.00     0.157 C 
BRANCH  18  19
HETATM   19  C18 UNL     1      -6.282   3.043   8.176  1.00  0.00     0.141 C 
BRANCH  19  20
HETATM   20  N5  UNL     1      -7.074   3.715   7.210  1.00  0.00    -0.370 N 
HETATM   21  C19 UNL     1      -6.678   4.542   6.339  1.00  0.00     0.171 A 
HETATM   22  N6  UNL     1      -7.587   5.092   5.489  1.00  0.00    -0.346 N 
HETATM   23  C26 UNL     1      -5.386   4.928   6.184  1.00  0.00     0.291 A 
HETATM   24  C20 UNL     1      -7.226   5.966   4.552  1.00  0.00     0.114 A 
ATOM     25  H6  UNL     1      -8.569   4.828   5.572  1.00  0.00     0.167 HD
HETATM   26  C21 UNL     1      -5.911   6.332   4.427  1.00  0.00     0.026 A 
HETATM   27  C22 UNL     1      -5.537   7.321   3.357  1.00  0.00     0.070 C 
HETATM   28  N7  UNL     1      -4.970   5.820   5.240  1.00  0.00    -0.314 N 
HETATM   29  O3  UNL     1      -4.472   4.471   6.922  1.00  0.00    -0.264 OA
ATOM     30  H5  UNL     1      -8.073   3.510   7.219  1.00  0.00     0.161 HD
BRANCH  28  31
HETATM   31  C23 UNL     1      -3.586   6.170   5.124  1.00  0.00     0.132 C 
BRANCH  31  32
HETATM   32  C24 UNL     1      -3.079   7.135   6.136  1.00  0.00     0.016 C 
HETATM   33  C25 UNL     1      -3.056   8.569   5.738  1.00  0.00     0.006 C 
ENDBRANCH  31  32
ENDBRANCH  28  31
ENDBRANCH  19  20
ENDBRANCH  18  19
ENDBRANCH  16  18
ENDBRANCH  13  16
BRANCH   1  34
HETATM   34  N1  UNL     1      -0.986   3.800   9.424  1.00  0.00    -0.376 N 
ATOM     35  H1  UNL     1      -1.163   4.044   8.449  1.00  0.00     0.161 HD
BRANCH  34  36
HETATM   36  C5  UNL     1       0.383   3.692   9.792  1.00  0.00     0.121 C 
BRANCH  36  37
HETATM   37  C4  UNL     1       0.756   4.961  10.557  1.00  0.00     0.020 C 
BRANCH  37  38
HETATM   38  C3  UNL     1       1.452   4.580  11.866  1.00  0.00     0.001 C 
BRANCH  38  39
HETATM   39  C2  UNL     1       0.802   5.332  12.990  1.00  0.00    -0.004 C 
HETATM   40  C1  UNL     1      -0.321   6.177  12.424  1.00  0.00     0.005 C 
ENDBRANCH  38  39
ENDBRANCH  37  38
ENDBRANCH  36  37
ENDBRANCH  34  36
ENDBRANCH   1  34
BRANCH   7  41
HETATM   41  N2  UNL     1      -3.720  -0.079  16.989  1.00  0.00    -0.116 N 
HETATM   42  O1  UNL     1      -4.851  -0.439  17.323  1.00  0.00    -0.532 OA
HETATM   43  O2  UNL     1      -2.656  -0.371  17.790  1.00  0.00    -0.532 OA
ENDBRANCH   7  41
TORSDOF 12
ENDMDL
MODEL 2
REMARK VINA RESULT: -9.188465069      2.016      3.965
REMARK  12 active torsions:
REMARK  status: ('A' for Active; 'I' for Inactive)
REMARK    1  A    between atoms: C2_2  and  C3_3 
REMARK    2  A    between atoms: C3_3  and  C4_4 
REMARK    3  A    between atoms: C4_4  and  C5_5 
REMARK    4  A    between atoms: C5_5  and  N1_6 
REMARK    5  A    between atoms: N1_6  and  C6_8 
REMARK    6  A    between atoms: C12_14  and  N2_15 
REMARK    7  A    between atoms: C16_23  and  N4_24 
REMARK    8  A    between atoms: N4_24  and  C17_26 
REMARK    9  A    between atoms: C17_26  and  C18_27 
REMARK   10  A    between atoms: C18_27  and  N5_28 
REMARK   11  A    between atoms: N7_36  and  C23_37 
REMARK   12  A    between atoms: C23_37  and  C24_38 
ROOT
HETATM    1  C6  UNL     1      -4.363   3.128   8.197  1.00  0.00     0.119 A 
HETATM    2  C7  UNL     1      -3.734   2.852   9.420  1.00  0.00     0.079 A 
HETATM    3  C8  UNL     1      -4.419   2.613  10.580  1.00  0.00     0.063 A 
HETATM    4  C9  UNL     1      -3.832   2.246  11.841  1.00  0.00    -0.003 A 
HETATM    5  C10 UNL     1      -4.616   1.490  12.737  1.00  0.00     0.017 A 
HETATM    6  C11 UNL     1      -4.195   1.121  13.988  1.00  0.00     0.037 A 
HETATM    7  C12 UNL     1      -2.944   1.499  14.409  1.00  0.00     0.103 A 
HETATM    8  C13 UNL     1      -2.181   2.234  13.542  1.00  0.00     0.043 A 
HETATM    9  C14 UNL     1      -2.591   2.624  12.258  1.00  0.00    -0.047 A 
HETATM   10  C15 UNL     1      -1.649   3.490  11.462  1.00  0.00     0.049 C 
HETATM   11  N3  UNL     1      -5.778   2.660  10.454  1.00  0.00    -0.191 N 
ATOM     12  H3  UNL     1      -6.340   2.487  11.287  1.00  0.00     0.184 HD
HETATM   13  C16 UNL     1      -6.426   2.920   9.302  1.00  0.00     0.680 A 
HETATM   14  N8  UNL     1      -5.701   3.150   8.190  1.00  0.00    -0.177 N 
ATOM     15  H8  UNL     1      -6.187   3.347   7.315  1.00  0.00     0.185 HD
ENDROOT
BRANCH  13  16
HETATM   16  N4  UNL     1      -7.724   2.947   9.266  1.00  0.00    -0.224 N 
ATOM     17  H4  UNL     1      -8.201   3.737   9.701  1.00  0.00     0.177 HD
BRANCH  16  18
HETATM   18  C17 UNL     1      -8.518   1.940   8.655  1.00  0.00     0.157 C 
BRANCH  18  19
HETATM   19  C18 UNL     1      -8.340   1.857   7.138  1.00  0.00     0.141 C 
BRANCH  19  20
HETATM   20  N5  UNL     1      -9.489   2.358   6.475  1.00  0.00    -0.370 N 
HETATM   21  C19 UNL     1      -9.577   3.422   5.798  1.00  0.00     0.171 A 
HETATM   22  N6  UNL     1     -10.771   3.747   5.229  1.00  0.00    -0.346 N 
HETATM   23  C26 UNL     1      -8.548   4.283   5.591  1.00  0.00     0.291 A 
HETATM   24  C20 UNL     1     -10.920   4.854   4.505  1.00  0.00     0.114 A 
ATOM     25  H6  UNL     1     -11.570   3.127   5.361  1.00  0.00     0.167 HD
HETATM   26  C21 UNL     1      -9.857   5.699   4.318  1.00  0.00     0.026 A 
HETATM   27  C22 UNL     1     -10.059   6.941   3.494  1.00  0.00     0.070 C 
HETATM   28  N7  UNL     1      -8.655   5.428   4.857  1.00  0.00    -0.314 N 
HETATM   29  O3  UNL     1      -7.405   4.066   6.074  1.00  0.00    -0.264 OA
ATOM     30  H5  UNL     1     -10.339   1.799   6.553  1.00  0.00     0.161 HD
BRANCH  28  31
HETATM   31  C23 UNL     1      -7.520   6.283   4.667  1.00  0.00     0.132 C 
BRANCH  31  32
HETATM   32  C24 UNL     1      -6.744   6.054   3.421  1.00  0.00     0.016 C 
HETATM   33  C25 UNL     1      -6.412   7.257   2.610  1.00  0.00     0.006 C 
ENDBRANCH  31  32
ENDBRANCH  28  31
ENDBRANCH  19  20
ENDBRANCH  18  19
ENDBRANCH  16  18
ENDBRANCH  13  16
BRANCH   1  34
HETATM   34  N1  UNL     1      -3.731   3.351   7.131  1.00  0.00    -0.376 N 
ATOM     35  H1  UNL     1      -3.692   2.575   6.469  1.00  0.00     0.161 HD
BRANCH  34  36
HETATM   36  C5  UNL     1      -3.066   4.540   6.725  1.00  0.00     0.121 C 
BRANCH  36  37
HETATM   37  C4  UNL     1      -4.065   5.379   5.929  1.00  0.00     0.020 C 
BRANCH  37  38
HETATM   38  C3  UNL     1      -3.305   6.304   4.974  1.00  0.00     0.001 C 
BRANCH  38  39
HETATM   39  C2  UNL     1      -3.817   7.702   5.153  1.00  0.00    -0.004 C 
HETATM   40  C1  UNL     1      -2.816   8.485   5.976  1.00  0.00     0.005 C 
ENDBRANCH  38  39
ENDBRANCH  37  38
ENDBRANCH  36  37
ENDBRANCH  34  36
ENDBRANCH   1  34
BRANCH   7  41
HETATM   41  N2  UNL     1      -2.505   1.122  15.691  1.00  0.00    -0.116 N 
HETATM   42  O1  UNL     1      -2.211   1.982  16.525  1.00  0.00    -0.532 OA
HETATM   43  O2  UNL     1      -2.400  -0.197  16.018  1.00  0.00    -0.532 OA
ENDBRANCH   7  41
TORSDOF 12
ENDMDL
MODEL 3
REMARK VINA RESULT: -8.757070689      1.451      1.983
REMARK  12 active torsions:
REMARK  status: ('A' for Active; 'I' for Inactive)
REMARK    1  A    between atoms: C2_2  and  C3_3 
REMARK    2  A    between atoms: C3_3  and  C4_4 
REMARK    3  A    between atoms: C4_4  and  C5_5 
REMARK    4  A    between atoms: C5_5  and  N1_6 
REMARK    5  A    between atoms: N1_6  and  C6_8 
REMARK    6  A    between atoms: C12_14  and  N2_15 
REMARK    7  A    between atoms: C16_23  and  N4_24 
REMARK    8  A    between atoms: N4_24  and  C17_26 
REMARK    9  A    between atoms: C17_26  and  C18_27 
REMARK   10  A    between atoms: C18_27  and  N5_28 
REMARK   11  A    between atoms: N7_36  and  C23_37 
REMARK   12  A    between atoms: C23_37  and  C24_38 
ROOT
HETATM    1  C6  UNL     1      -3.178   3.302   9.918  1.00  0.00     0.119 A 
HETATM    2  C7  UNL     1      -2.876   2.756  11.173  1.00  0.00     0.079 A 
HETATM    3  C8  UNL     1      -3.831   2.391  12.083  1.00  0.00     0.063 A 
HETATM    4  C9  UNL     1      -3.584   1.752  13.348  1.00  0.00    -0.003 A 
HETATM    5  C10 UNL     1      -4.603   0.937  13.885  1.00  0.00     0.017 A 
HETATM    6  C11 UNL     1      -4.514   0.315  15.103  1.00  0.00     0.037 A 
HETATM    7  C12 UNL     1      -3.379   0.484  15.856  1.00  0.00     0.103 A 
HETATM    8  C13 UNL     1      -2.389   1.275  15.339  1.00  0.00     0.043 A 
HETATM    9  C14 UNL     1      -2.457   1.922  14.096  1.00  0.00    -0.047 A 
HETATM   10  C15 UNL     1      -1.303   2.812  13.712  1.00  0.00     0.049 C 
HETATM   11  N3  UNL     1      -5.115   2.599  11.669  1.00  0.00    -0.191 N 
ATOM     12  H3  UNL     1      -5.868   2.342  12.307  1.00  0.00     0.184 HD
HETATM   13  C16 UNL     1      -5.453   3.119  10.474  1.00  0.00     0.680 A 
HETATM   14  N8  UNL     1      -4.472   3.463   9.617  1.00  0.00    -0.177 N 
ATOM     15  H8  UNL     1      -4.723   3.857   8.711  1.00  0.00     0.185 HD
ENDROOT
BRANCH  13  16
HETATM   16  N4  UNL     1      -6.702   3.285  10.155  1.00  0.00    -0.224 N 
ATOM     17  H4  UNL     1      -7.095   4.225  10.224  1.00  0.00     0.177 HD
BRANCH  16  18
HETATM   18  C17 UNL     1      -7.551   2.235   9.717  1.00  0.00     0.157 C 
BRANCH  18  19
HETATM   19  C18 UNL     1      -7.192   1.694   8.332  1.00  0.00     0.141 C 
BRANCH  19  20
HETATM   20  N5  UNL     1      -8.251   1.925   7.418  1.00  0.00    -0.370 N 
HETATM   21  C19 UNL     1      -8.348   2.872   6.585  1.00  0.00     0.171 A 
HETATM   22  N6  UNL     1      -9.445   2.935   5.782  1.00  0.00    -0.346 N 
HETATM   23  C26 UNL     1      -7.420   3.850   6.430  1.00  0.00     0.291 A 
HETATM   24  C20 UNL     1      -9.599   3.909   4.887  1.00  0.00     0.114 A 
ATOM     25  H6  UNL     1     -10.167   2.219   5.867  1.00  0.00     0.167 HD
HETATM   26  C21 UNL     1      -8.639   4.879   4.759  1.00  0.00     0.026 A 
HETATM   27  C22 UNL     1      -8.843   5.964   3.737  1.00  0.00     0.070 C 
HETATM   28  N7  UNL     1      -7.536   4.867   5.527  1.00  0.00    -0.314 N 
HETATM   29  O3  UNL     1      -6.370   3.875   7.126  1.00  0.00    -0.264 OA
ATOM     30  H5  UNL     1      -9.019   1.255   7.433  1.00  0.00     0.161 HD
BRANCH  28  31
HETATM   31  C23 UNL     1      -6.508   5.858   5.407  1.00  0.00     0.132 C 
BRANCH  31  32
HETATM   32  C24 UNL     1      -5.400   5.526   4.473  1.00  0.00     0.016 C 
HETATM   33  C25 UNL     1      -5.145   6.492   3.369  1.00  0.00     0.006 C 
ENDBRANCH  31  32
ENDBRANCH  28  31
ENDBRANCH  19  20
ENDBRANCH  18  19
ENDBRANCH  16  18
ENDBRANCH  13  16
BRANCH   1  34
HETATM   34  N1  UNL     1      -2.299   3.641   9.082  1.00  0.00    -0.376 N 
ATOM     35  H1  UNL     1      -2.545   3.505   8.101  1.00  0.00     0.161 HD
BRANCH  34  36
HETATM   36  C5  UNL     1      -1.009   4.188   9.323  1.00  0.00     0.121 C 
BRANCH  36  37
HETATM   37  C4  UNL     1      -1.201   5.605   9.859  1.00  0.00     0.020 C 
BRANCH  37  38
HETATM   38  C3  UNL     1      -0.085   5.929  10.856  1.00  0.00     0.001 C 
BRANCH  38  39
HETATM   39  C2  UNL     1       0.835   4.747  10.944  1.00  0.00    -0.004 C 
HETATM   40  C1  UNL     1       1.487   4.740  12.311  1.00  0.00     0.005 C 
ENDBRANCH  38  39
ENDBRANCH  37  38
ENDBRANCH  36  37
ENDBRANCH  34  36
ENDBRANCH   1  34
BRANCH   7  41
HETATM   41  N2  UNL     1      -3.281  -0.153  17.107  1.00  0.00    -0.116 N 
HETATM   42  O1  UNL     1      -4.280  -0.648  17.633  1.00  0.00    -0.532 OA
HETATM   43  O2  UNL     1      -2.078  -0.224  17.745  1.00  0.00    -0.532 OA
ENDBRANCH   7  41
TORSDOF 12
ENDMDL
MODEL 4
REMARK VINA RESULT: -8.649286631      2.289      4.662
REMARK  12 active torsions:
REMARK  status: ('A' for Active; 'I' for Inactive)
REMARK    1  A    between atoms: C2_2  and  C3_3 
REMARK    2  A    between atoms: C3_3  and  C4_4 
REMARK    3  A    between atoms: C4_4  and  C5_5 
REMARK    4  A    between atoms: C5_5  and  N1_6 
REMARK    5  A    between atoms: N1_6  and  C6_8 
REMARK    6  A    between atoms: C12_14  and  N2_15 
REMARK    7  A    between atoms: C16_23  and  N4_24 
REMARK    8  A    between atoms: N4_24  and  C17_26 
REMARK    9  A    between atoms: C17_26  and  C18_27 
REMARK   10  A    between atoms: C18_27  and  N5_28 
REMARK   11  A    between atoms: N7_36  and  C23_37 
REMARK   12  A    between atoms: C23_37  and  C24_38 
ROOT
HETATM    1  C6  UNL     1      -4.331   4.443   8.037  1.00  0.00     0.119 A 
HETATM    2  C7  UNL     1      -3.736   4.032   9.239  1.00  0.00     0.079 A 
HETATM    3  C8  UNL     1      -4.447   3.532  10.296  1.00  0.00     0.063 A 
HETATM    4  C9  UNL     1      -3.886   3.020  11.517  1.00  0.00    -0.003 A 
HETATM    5  C10 UNL     1      -4.624   2.048  12.225  1.00  0.00     0.017 A 
HETATM    6  C11 UNL     1      -4.227   1.518  13.425  1.00  0.00     0.037 A 
HETATM    7  C12 UNL     1      -3.049   1.947  13.985  1.00  0.00     0.103 A 
HETATM    8  C13 UNL     1      -2.331   2.891  13.302  1.00  0.00     0.043 A 
HETATM    9  C14 UNL     1      -2.717   3.448  12.074  1.00  0.00    -0.047 A 
HETATM   10  C15 UNL     1      -1.841   4.528  11.494  1.00  0.00     0.049 C 
HETATM   11  N3  UNL     1      -5.795   3.460  10.087  1.00  0.00    -0.191 N 
ATOM     12  H3  UNL     1      -6.374   3.092  10.842  1.00  0.00     0.184 HD
HETATM   13  C16 UNL     1      -6.409   3.842   8.952  1.00  0.00     0.680 A 
HETATM   14  N8  UNL     1      -5.660   4.328   7.943  1.00  0.00    -0.177 N 
ATOM     15  H8  UNL     1      -6.121   4.619   7.081  1.00  0.00     0.185 HD
ENDROOT
BRANCH  13  16
HETATM   16  N4  UNL     1      -7.699   3.741   8.833  1.00  0.00    -0.224 N 
ATOM     17  H4  UNL     1      -8.265   4.571   9.011  1.00  0.00     0.177 HD
BRANCH  16  18
HETATM   18  C17 UNL     1      -8.367   2.541   8.468  1.00  0.00     0.157 C 
BRANCH  18  19
HETATM   19  C18 UNL     1      -8.388   2.287   6.960  1.00  0.00     0.141 C 
BRANCH  19  20
HETATM   20  N5  UNL     1      -9.665   2.590   6.423  1.00  0.00    -0.370 N 
HETATM   21  C19 UNL     1      -9.978   3.593   5.718  1.00  0.00     0.171 A 
HETATM   22  N6  UNL     1     -11.263   3.721   5.287  1.00  0.00    -0.346 N 
HETATM   23  C26 UNL     1      -9.111   4.570   5.351  1.00  0.00     0.291 A 
HETATM   24  C20 UNL     1     -11.648   4.755   4.541  1.00  0.00     0.114 A 
ATOM     25  H6  UNL     1     -11.947   3.009   5.541  1.00  0.00     0.167 HD
HETATM   26  C21 UNL     1     -10.743   5.722   4.191  1.00  0.00     0.026 A 
HETATM   27  C22 UNL     1     -11.211   6.876   3.347  1.00  0.00     0.070 C 
HETATM   28  N7  UNL     1      -9.461   5.646   4.589  1.00  0.00    -0.314 N 
HETATM   29  O3  UNL     1      -7.901   4.536   5.699  1.00  0.00    -0.264 OA
ATOM     30  H5  UNL     1     -10.413   1.928   6.627  1.00  0.00     0.161 HD
BRANCH  28  31
HETATM   31  C23 UNL     1      -8.486   6.632   4.227  1.00  0.00     0.132 C 
BRANCH  31  32
HETATM   32  C24 UNL     1      -8.114   6.671   2.788  1.00  0.00     0.016 C 
HETATM   33  C25 UNL     1      -7.904   8.016   2.188  1.00  0.00     0.006 C 
ENDBRANCH  31  32
ENDBRANCH  28  31
ENDBRANCH  19  20
ENDBRANCH  18  19
ENDBRANCH  16  18
ENDBRANCH  13  16
BRANCH   1  34
HETATM   34  N1  UNL     1      -3.676   4.906   7.066  1.00  0.00    -0.376 N 
ATOM     35  H1  UNL     1      -3.233   4.214   6.461  1.00  0.00     0.161 HD
BRANCH  34  36
HETATM   36  C5  UNL     1      -3.472   6.264   6.700  1.00  0.00     0.121 C 
BRANCH  36  37
HETATM   37  C4  UNL     1      -3.246   6.306   5.189  1.00  0.00     0.020 C 
BRANCH  37  38
HETATM   38  C3  UNL     1      -4.519   5.851   4.471  1.00  0.00     0.001 C 
BRANCH  38  39
HETATM   39  C2  UNL     1      -4.655   6.632   3.197  1.00  0.00    -0.004 C 
HETATM   40  C1  UNL     1      -4.424   8.097   3.498  1.00  0.00     0.005 C 
ENDBRANCH  38  39
ENDBRANCH  37  38
ENDBRANCH  36  37
ENDBRANCH  34  36
ENDBRANCH   1  34
BRANCH   7  41
HETATM   41  N2  UNL     1      -2.634   1.407  15.216  1.00  0.00    -0.116 N 
HETATM   42  O1  UNL     1      -2.582   0.185  15.374  1.00  0.00    -0.532 OA
HETATM   43  O2  UNL     1      -2.288   2.234  16.244  1.00  0.00    -0.532 OA
ENDBRANCH   7  41
TORSDOF 12
ENDMDL
MODEL 5
REMARK VINA RESULT: -8.614666999      2.866     10.243
REMARK  12 active torsions:
REMARK  status: ('A' for Active; 'I' for Inactive)
REMARK    1  A    between atoms: C2_2  and  C3_3 
REMARK    2  A    between atoms: C3_3  and  C4_4 
REMARK    3  A    between atoms: C4_4  and  C5_5 
REMARK    4  A    between atoms: C5_5  and  N1_6 
REMARK    5  A    between atoms: N1_6  and  C6_8 
REMARK    6  A    between atoms: C12_14  and  N2_15 
REMARK    7  A    between atoms: C16_23  and  N4_24 
REMARK    8  A    between atoms: N4_24  and  C17_26 
REMARK    9  A    between atoms: C17_26  and  C18_27 
REMARK   10  A    between atoms: C18_27  and  N5_28 
REMARK   11  A    between atoms: N7_36  and  C23_37 
REMARK   12  A    between atoms: C23_37  and  C24_38 
ROOT
HETATM    1  C6  UNL     1      -3.033   2.346  10.445  1.00  0.00     0.119 A 
HETATM    2  C7  UNL     1      -3.805   2.885   9.406  1.00  0.00     0.079 A 
HETATM    3  C8  UNL     1      -3.372   3.903   8.600  1.00  0.00     0.063 A 
HETATM    4  C9  UNL     1      -4.084   4.440   7.471  1.00  0.00    -0.003 A 
HETATM    5  C10 UNL     1      -3.328   5.024   6.433  1.00  0.00     0.017 A 
HETATM    6  C11 UNL     1      -3.885   5.616   5.329  1.00  0.00     0.037 A 
HETATM    7  C12 UNL     1      -5.252   5.652   5.212  1.00  0.00     0.103 A 
HETATM    8  C13 UNL     1      -5.989   5.088   6.218  1.00  0.00     0.043 A 
HETATM    9  C14 UNL     1      -5.441   4.477   7.356  1.00  0.00    -0.047 A 
HETATM   10  C15 UNL     1      -6.402   3.967   8.400  1.00  0.00     0.049 C 
HETATM   11  N3  UNL     1      -2.116   4.355   8.886  1.00  0.00    -0.191 N 
ATOM     12  H3  UNL     1      -1.741   5.113   8.314  1.00  0.00     0.184 HD
HETATM   13  C16 UNL     1      -1.339   3.868   9.871  1.00  0.00     0.680 A 
HETATM   14  N8  UNL     1      -1.816   2.866  10.636  1.00  0.00    -0.177 N 
ATOM     15  H8  UNL     1      -1.231   2.494  11.384  1.00  0.00     0.185 HD
ENDROOT
BRANCH  13  16
HETATM   16  N4  UNL     1      -0.152   4.355  10.079  1.00  0.00    -0.224 N 
ATOM     17  H4  UNL     1       0.468   4.471   9.277  1.00  0.00     0.177 HD
BRANCH  16  18
HETATM   18  C17 UNL     1       0.332   4.735  11.359  1.00  0.00     0.157 C 
BRANCH  18  19
HETATM   19  C18 UNL     1       1.182   3.660  12.038  1.00  0.00     0.141 C 
BRANCH  19  20
HETATM   20  N5  UNL     1       1.973   4.228  13.068  1.00  0.00    -0.370 N 
HETATM   21  C19 UNL     1       1.880   4.010  14.311  1.00  0.00     0.171 A 
HETATM   22  N6  UNL     1       2.731   4.651  15.158  1.00  0.00    -0.346 N 
HETATM   23  C26 UNL     1       0.977   3.168  14.873  1.00  0.00     0.291 A 
HETATM   24  C20 UNL     1       2.679   4.458  16.475  1.00  0.00     0.114 A 
ATOM     25  H6  UNL     1       3.425   5.293  14.776  1.00  0.00     0.167 HD
HETATM   26  C21 UNL     1       1.752   3.599  17.005  1.00  0.00     0.026 A 
HETATM   27  C22 UNL     1       1.721   3.404  18.497  1.00  0.00     0.070 C 
HETATM   28  N7  UNL     1       0.887   2.940  16.215  1.00  0.00    -0.314 N 
HETATM   29  O3  UNL     1       0.150   2.528  14.169  1.00  0.00    -0.264 OA
ATOM     30  H5  UNL     1       2.697   4.885  12.776  1.00  0.00     0.161 HD
BRANCH  28  31
HETATM   31  C23 UNL     1      -0.083   2.024  16.737  1.00  0.00     0.132 C 
BRANCH  31  32
HETATM   32  C24 UNL     1      -1.297   2.641  17.332  1.00  0.00     0.016 C 
HETATM   33  C25 UNL     1      -1.700   2.158  18.681  1.00  0.00     0.006 C 
ENDBRANCH  31  32
ENDBRANCH  28  31
ENDBRANCH  19  20
ENDBRANCH  18  19
ENDBRANCH  16  18
ENDBRANCH  13  16
BRANCH   1  34
HETATM   34  N1  UNL     1      -3.434   1.411  11.189  1.00  0.00    -0.376 N 
ATOM     35  H1  UNL     1      -3.106   0.477  10.941  1.00  0.00     0.161 HD
BRANCH  34  36
HETATM   36  C5  UNL     1      -4.281   1.484  12.328  1.00  0.00     0.121 C 
BRANCH  36  37
HETATM   37  C4  UNL     1      -3.399   1.780  13.540  1.00  0.00     0.020 C 
BRANCH  37  38
HETATM   38  C3  UNL     1      -4.168   1.447  14.822  1.00  0.00     0.001 C 
BRANCH  38  39
HETATM   39  C2  UNL     1      -3.534   0.249  15.463  1.00  0.00    -0.004 C 
HETATM   40  C1  UNL     1      -4.099   0.088  16.859  1.00  0.00     0.005 C 
ENDBRANCH  38  39
ENDBRANCH  37  38
ENDBRANCH  36  37
ENDBRANCH  34  36
ENDBRANCH   1  34
BRANCH   7  41
HETATM   41  N2  UNL     1      -5.831   6.257   4.081  1.00  0.00    -0.116 N 
HETATM   42  O1  UNL     1      -6.797   7.013   4.206  1.00  0.00    -0.532 OA
HETATM   43  O2  UNL     1      -5.326   6.010   2.839  1.00  0.00    -0.532 OA
ENDBRANCH   7  41
TORSDOF 12
ENDMDL
