MODEL 1
REMARK VINA RESULT: -9.045047999      0.000      0.000
REMARK  14 active torsions:
REMARK  status: ('A' for Active; 'I' for Inactive)
REMARK    1  A    between atoms: C2_2  and  C3_3 
REMARK    2  A    between atoms: C3_3  and  C5_5 
REMARK    3  A    between atoms: C5_5  and  C6_6 
REMARK    4  A    between atoms: C8_8  and  N1_9 
REMARK       I    between atoms: N2_14  and  C10_15 
REMARK    5  A    between atoms: C10_15  and  C11_17 
REMARK    6  A    between atoms: C11_17  and  C12_18 
REMARK    7  A    between atoms: C11_17  and  C14_26 
REMARK    8  A    between atoms: C11_17  and  O5_41 
REMARK    9  A    between atoms: C12_18  and  C13_19 
REMARK   10  A    between atoms: C13_19  and  O2_20 
REMARK   11  A    between atoms: N3_22  and  O3_24 
REMARK   12  A    between atoms: C14_26  and  N4_27 
REMARK   13  A    between atoms: C17_30  and  C18_31 
REMARK   14  A    between atoms: C18_31  and  N5_32 
ROOT
HETATM    1  C11 UNL     1      -5.511   3.898   9.378  1.00  0.00     0.174 C 
ENDROOT
BRANCH   1   2
HETATM    2  C10 UNL     1      -5.447   4.543   8.004  1.00  0.00     0.257 C 
HETATM    3  N2  UNL     1      -6.236   4.248   6.917  1.00  0.00    -0.343 N 
HETATM    4  C6  UNL     1      -6.223   4.956   5.626  1.00  0.00     0.089 C 
HETATM    5  C9  UNL     1      -7.184   3.194   6.651  1.00  0.00     0.159 C 
HETATM    6  C7  UNL     1      -7.715   5.216   5.477  1.00  0.00     0.059 C 
HETATM    7  C8  UNL     1      -8.282   3.848   5.834  1.00  0.00     0.203 C 
HETATM    8  O1  UNL     1      -4.527   5.440   7.944  1.00  0.00    -0.270 OA
BRANCH   4   9
HETATM    9  C5  UNL     1      -5.443   6.208   5.613  1.00  0.00     0.029 C 
BRANCH   9  10
HETATM   10  C3  UNL     1      -4.511   6.142   4.392  1.00  0.00    -0.017 C 
HETATM   11  C4  UNL     1      -3.083   6.266   4.821  1.00  0.00     0.010 C 
BRANCH  10  12
HETATM   12  C2  UNL     1      -4.839   7.392   3.564  1.00  0.00    -0.000 C 
HETATM   13  C1  UNL     1      -5.960   7.085   2.591  1.00  0.00     0.005 C 
ENDBRANCH  10  12
ENDBRANCH   9  10
ENDBRANCH   4   9
BRANCH   7  14
HETATM   14  N1  UNL     1      -9.519   3.965   6.572  1.00  0.00    -0.073 N 
ATOM     15  H13 UNL     1      -9.917   3.049   6.782  1.00  0.00     0.274 HD
ATOM     16  H12 UNL     1      -9.355   4.287   7.526  1.00  0.00     0.274 HD
ATOM     17  H11 UNL     1     -10.188   4.561   6.086  1.00  0.00     0.274 HD
ENDBRANCH   7  14
ENDBRANCH   1   2
BRANCH   1  18
HETATM   18  C12 UNL     1      -5.134   2.450   9.027  1.00  0.00     0.135 C 
BRANCH  18  19
HETATM   19  C13 UNL     1      -3.847   2.208   8.429  1.00  0.00     0.138 C 
HETATM   20  N3  UNL     1      -2.889   1.534   8.973  1.00  0.00    -0.251 N 
ATOM     21  H3  UNL     1      -2.000   1.404   8.492  1.00  0.00     0.196 HD
BRANCH  19  22
HETATM   22  O2  UNL     1      -3.524   2.712   7.148  1.00  0.00    -0.348 OA
ATOM     23  H2  UNL     1      -2.645   3.010   6.942  1.00  0.00     0.219 HD
ENDBRANCH  19  22
BRANCH  20  24
HETATM   24  O3  UNL     1      -3.103   1.001  10.215  1.00  0.00    -0.288 OA
ATOM     25  H3  UNL     1      -3.887   0.481  10.349  1.00  0.00     0.244 HD
ENDBRANCH  20  24
ENDBRANCH  18  19
ENDBRANCH   1  18
BRANCH   1  26
HETATM   26  C14 UNL     1      -4.446   4.481  10.228  1.00  0.00     0.320 C 
BRANCH  26  27
HETATM   27  N4  UNL     1      -3.859   3.716  11.258  1.00  0.00     0.091 N 
HETATM   28  C15 UNL     1      -4.507   3.551  12.501  1.00  0.00     0.273 C 
HETATM   29  C16 UNL     1      -3.738   2.542  13.343  1.00  0.00     0.036 C 
HETATM   30  C17 UNL     1      -2.330   2.947  13.615  1.00  0.00     0.007 C 
HETATM   31  C24 UNL     1      -1.649   3.391  12.334  1.00  0.00     0.036 C 
HETATM   32  C25 UNL     1      -2.518   4.284  11.518  1.00  0.00     0.273 C 
BRANCH  30  33
HETATM   33  C18 UNL     1      -1.566   1.777  14.176  1.00  0.00     0.130 C 
BRANCH  33  34
HETATM   34  N5  UNL     1      -1.599   1.688  15.609  1.00  0.00    -0.352 N 
HETATM   35  C19 UNL     1      -0.856   2.586  16.478  1.00  0.00     0.125 C 
HETATM   36  C20 UNL     1      -0.541   1.789  17.736  1.00  0.00     0.020 C 
HETATM   37  C21 UNL     1      -1.807   1.527  18.522  1.00  0.00     0.011 C 
HETATM   38  C22 UNL     1      -2.908   0.973  17.642  1.00  0.00     0.103 C 
HETATM   39  C23 UNL     1      -2.380   0.695  16.259  1.00  0.00     0.219 C 
HETATM   40  O4  UNL     1      -2.633  -0.398  15.705  1.00  0.00    -0.273 OA
ENDBRANCH  33  34
ENDBRANCH  30  33
ENDBRANCH  26  27
ENDBRANCH   1  26
BRANCH   1  41
HETATM   41  O5  UNL     1      -6.769   3.942   9.922  1.00  0.00    -0.373 OA
HETATM   42  C26 UNL     1      -7.179   2.623  10.225  1.00  0.00     0.203 C 
ENDBRANCH   1  41
TORSDOF 14
ENDMDL
MODEL 2
REMARK VINA RESULT: -8.995966373      2.028     10.222
REMARK  14 active torsions:
REMARK  status: ('A' for Active; 'I' for Inactive)
REMARK    1  A    between atoms: C2_2  and  C3_3 
REMARK    2  A    between atoms: C3_3  and  C5_5 
REMARK    3  A    between atoms: C5_5  and  C6_6 
REMARK    4  A    between atoms: C8_8  and  N1_9 
REMARK       I    between atoms: N2_14  and  C10_15 
REMARK    5  A    between atoms: C10_15  and  C11_17 
REMARK    6  A    between atoms: C11_17  and  C12_18 
REMARK    7  A    between atoms: C11_17  and  C14_26 
REMARK    8  A    between atoms: C11_17  and  O5_41 
REMARK    9  A    between atoms: C12_18  and  C13_19 
REMARK   10  A    between atoms: C13_19  and  O2_20 
REMARK   11  A    between atoms: N3_22  and  O3_24 
REMARK   12  A    between atoms: C14_26  and  N4_27 
REMARK   13  A    between atoms: C17_30  and  C18_31 
REMARK   14  A    between atoms: C18_31  and  N5_32 
ROOT
HETATM    1  C11 UNL     1      -3.038   4.152  10.936  1.00  0.00     0.174 C 
ENDROOT
BRANCH   1   2
HETATM    2  C10 UNL     1      -2.993   3.300  12.193  1.00  0.00     0.257 C 
HETATM    3  N2  UNL     1      -1.869   2.918  12.889  1.00  0.00    -0.343 N 
HETATM    4  C6  UNL     1      -1.856   2.177  14.161  1.00  0.00     0.089 C 
HETATM    5  C9  UNL     1      -0.460   3.012  12.603  1.00  0.00     0.159 C 
HETATM    6  C7  UNL     1      -0.918   3.075  14.955  1.00  0.00     0.059 C 
HETATM    7  C8  UNL     1       0.198   3.292  13.941  1.00  0.00     0.203 C 
HETATM    8  O1  UNL     1      -4.170   2.942  12.567  1.00  0.00    -0.270 OA
BRANCH   4   9
HETATM    9  C5  UNL     1      -3.171   2.043  14.815  1.00  0.00     0.029 C 
BRANCH   9  10
HETATM   10  C3  UNL     1      -3.251   0.611  15.371  1.00  0.00    -0.017 C 
HETATM   11  C4  UNL     1      -4.550  -0.024  14.986  1.00  0.00     0.010 C 
BRANCH  10  12
HETATM   12  C2  UNL     1      -3.265   0.768  16.897  1.00  0.00    -0.000 C 
HETATM   13  C1  UNL     1      -1.903   0.414  17.463  1.00  0.00     0.005 C 
ENDBRANCH  10  12
ENDBRANCH   9  10
ENDBRANCH   4   9
BRANCH   7  14
HETATM   14  N1  UNL     1       0.729   4.634  14.019  1.00  0.00    -0.073 N 
ATOM     15  H13 UNL     1       0.009   5.333  13.834  1.00  0.00     0.274 HD
ATOM     16  H12 UNL     1       0.954   4.891  14.980  1.00  0.00     0.274 HD
ATOM     17  H11 UNL     1       1.533   4.754  13.403  1.00  0.00     0.274 HD
ENDBRANCH   7  14
ENDBRANCH   1   2
BRANCH   1  18
HETATM   18  C12 UNL     1      -2.342   3.215   9.936  1.00  0.00     0.135 C 
BRANCH  18  19
HETATM   19  C13 UNL     1      -2.933   1.927   9.685  1.00  0.00     0.138 C 
HETATM   20  N3  UNL     1      -3.409   1.535   8.551  1.00  0.00    -0.251 N 
ATOM     21  H3  UNL     1      -3.817   0.606   8.445  1.00  0.00     0.196 HD
BRANCH  19  22
HETATM   22  O2  UNL     1      -3.038   0.954  10.706  1.00  0.00    -0.348 OA
ATOM     23  H2  UNL     1      -2.886   0.033  10.529  1.00  0.00     0.219 HD
ENDBRANCH  19  22
BRANCH  20  24
HETATM   24  O3  UNL     1      -3.352   2.404   7.495  1.00  0.00    -0.288 OA
ATOM     25  H3  UNL     1      -3.794   2.158   6.691  1.00  0.00     0.244 HD
ENDBRANCH  20  24
ENDBRANCH  18  19
ENDBRANCH   1  18
BRANCH   1  26
HETATM   26  C14 UNL     1      -4.453   4.324  10.529  1.00  0.00     0.320 C 
BRANCH  26  27
HETATM   27  N4  UNL     1      -4.786   4.509   9.170  1.00  0.00     0.091 N 
HETATM   28  C15 UNL     1      -4.708   5.784   8.570  1.00  0.00     0.273 C 
HETATM   29  C16 UNL     1      -4.946   5.655   7.073  1.00  0.00     0.036 C 
HETATM   30  C17 UNL     1      -6.275   5.073   6.732  1.00  0.00     0.007 C 
HETATM   31  C24 UNL     1      -6.533   3.822   7.550  1.00  0.00     0.036 C 
HETATM   32  C25 UNL     1      -6.164   4.004   8.982  1.00  0.00     0.273 C 
BRANCH  30  33
HETATM   33  C18 UNL     1      -6.306   4.699   5.273  1.00  0.00     0.130 C 
BRANCH  33  34
HETATM   34  N5  UNL     1      -6.744   5.755   4.406  1.00  0.00    -0.352 N 
HETATM   35  C19 UNL     1      -8.092   6.299   4.436  1.00  0.00     0.125 C 
HETATM   36  C20 UNL     1      -8.384   6.780   3.022  1.00  0.00     0.020 C 
HETATM   37  C21 UNL     1      -7.537   7.991   2.693  1.00  0.00     0.011 C 
HETATM   38  C22 UNL     1      -6.079   7.761   3.030  1.00  0.00     0.103 C 
HETATM   39  C23 UNL     1      -5.860   6.333   3.456  1.00  0.00     0.219 C 
HETATM   40  O4  UNL     1      -4.910   5.679   2.971  1.00  0.00    -0.273 OA
ENDBRANCH  33  34
ENDBRANCH  30  33
ENDBRANCH  26  27
ENDBRANCH   1  26
BRANCH   1  41
HETATM   41  O5  UNL     1      -2.331   5.319  11.064  1.00  0.00    -0.373 OA
HETATM   42  C26 UNL     1      -1.341   5.364  10.056  1.00  0.00     0.203 C 
ENDBRANCH   1  41
TORSDOF 14
ENDMDL
MODEL 3
REMARK VINA RESULT: -8.678471243      1.965     10.092
REMARK  14 active torsions:
REMARK  status: ('A' for Active; 'I' for Inactive)
REMARK    1  A    between atoms: C2_2  and  C3_3 
REMARK    2  A    between atoms: C3_3  and  C5_5 
REMARK    3  A    between atoms: C5_5  and  C6_6 
REMARK    4  A    between atoms: C8_8  and  N1_9 
REMARK       I    between atoms: N2_14  and  C10_15 
REMARK    5  A    between atoms: C10_15  and  C11_17 
REMARK    6  A    between atoms: C11_17  and  C12_18 
REMARK    7  A    between atoms: C11_17  and  C14_26 
REMARK    8  A    between atoms: C11_17  and  O5_41 
REMARK    9  A    between atoms: C12_18  and  C13_19 
REMARK   10  A    between atoms: C13_19  and  O2_20 
REMARK   11  A    between atoms: N3_22  and  O3_24 
REMARK   12  A    between atoms: C14_26  and  N4_27 
REMARK   13  A    between atoms: C17_30  and  C18_31 
REMARK   14  A    between atoms: C18_31  and  N5_32 
ROOT
HETATM    1  C11 UNL     1      -3.026   4.133  11.048  1.00  0.00     0.174 C 
ENDROOT
BRANCH   1   2
HETATM    2  C10 UNL     1      -2.964   3.287  12.308  1.00  0.00     0.257 C 
HETATM    3  N2  UNL     1      -1.832   2.912  12.994  1.00  0.00    -0.343 N 
HETATM    4  C6  UNL     1      -1.802   2.175  14.268  1.00  0.00     0.089 C 
HETATM    5  C9  UNL     1      -0.425   3.011  12.692  1.00  0.00     0.159 C 
HETATM    6  C7  UNL     1      -0.861   3.080  15.049  1.00  0.00     0.059 C 
HETATM    7  C8  UNL     1       0.244   3.299  14.023  1.00  0.00     0.203 C 
HETATM    8  O1  UNL     1      -4.136   2.924  12.694  1.00  0.00    -0.270 OA
BRANCH   4   9
HETATM    9  C5  UNL     1      -3.110   2.038  14.936  1.00  0.00     0.029 C 
BRANCH   9  10
HETATM   10  C3  UNL     1      -3.213   0.583  15.423  1.00  0.00    -0.017 C 
HETATM   11  C4  UNL     1      -4.503  -0.027  14.971  1.00  0.00     0.010 C 
BRANCH  10  12
HETATM   12  C2  UNL     1      -3.273   0.671  16.954  1.00  0.00    -0.000 C 
HETATM   13  C1  UNL     1      -1.901   0.397  17.539  1.00  0.00     0.005 C 
ENDBRANCH  10  12
ENDBRANCH   9  10
ENDBRANCH   4   9
BRANCH   7  14
HETATM   14  N1  UNL     1       0.770   4.644  14.092  1.00  0.00    -0.073 N 
ATOM     15  H13 UNL     1       0.762   5.096  13.177  1.00  0.00     0.274 HD
ATOM     16  H12 UNL     1       0.132   5.270  14.583  1.00  0.00     0.274 HD
ATOM     17  H11 UNL     1       1.701   4.659  14.507  1.00  0.00     0.274 HD
ENDBRANCH   7  14
ENDBRANCH   1   2
BRANCH   1  18
HETATM   18  C12 UNL     1      -2.322   3.202  10.048  1.00  0.00     0.135 C 
BRANCH  18  19
HETATM   19  C13 UNL     1      -2.922   1.924   9.770  1.00  0.00     0.138 C 
HETATM   20  N3  UNL     1      -3.394   1.556   8.626  1.00  0.00    -0.251 N 
ATOM     21  H3  UNL     1      -3.808   0.633   8.501  1.00  0.00     0.196 HD
BRANCH  19  22
HETATM   22  O2  UNL     1      -3.042   0.934  10.773  1.00  0.00    -0.348 OA
ATOM     23  H2  UNL     1      -3.775   0.330  10.785  1.00  0.00     0.219 HD
ENDBRANCH  19  22
BRANCH  20  24
HETATM   24  O3  UNL     1      -3.323   2.443   7.587  1.00  0.00    -0.288 OA
ATOM     25  H3  UNL     1      -2.533   2.450   7.059  1.00  0.00     0.244 HD
ENDBRANCH  20  24
ENDBRANCH  18  19
ENDBRANCH   1  18
BRANCH   1  26
HETATM   26  C14 UNL     1      -4.445   4.286  10.647  1.00  0.00     0.320 C 
BRANCH  26  27
HETATM   27  N4  UNL     1      -4.786   4.464   9.289  1.00  0.00     0.091 N 
HETATM   28  C15 UNL     1      -4.699   5.733   8.678  1.00  0.00     0.273 C 
HETATM   29  C16 UNL     1      -4.950   5.594   7.184  1.00  0.00     0.036 C 
HETATM   30  C17 UNL     1      -6.288   5.024   6.857  1.00  0.00     0.007 C 
HETATM   31  C24 UNL     1      -6.551   3.782   7.688  1.00  0.00     0.036 C 
HETATM   32  C25 UNL     1      -6.170   3.971   9.115  1.00  0.00     0.273 C 
BRANCH  30  33
HETATM   33  C18 UNL     1      -6.333   4.638   5.402  1.00  0.00     0.130 C 
BRANCH  33  34
HETATM   34  N5  UNL     1      -6.042   5.716   4.501  1.00  0.00    -0.352 N 
HETATM   35  C19 UNL     1      -4.727   5.934   3.921  1.00  0.00     0.125 C 
HETATM   36  C20 UNL     1      -4.612   7.433   3.686  1.00  0.00     0.020 C 
HETATM   37  C21 UNL     1      -5.547   7.863   2.576  1.00  0.00     0.011 C 
HETATM   38  C22 UNL     1      -6.948   7.327   2.785  1.00  0.00     0.103 C 
HETATM   39  C23 UNL     1      -7.051   6.643   4.123  1.00  0.00     0.219 C 
HETATM   40  O4  UNL     1      -8.014   6.898   4.879  1.00  0.00    -0.273 OA
ENDBRANCH  33  34
ENDBRANCH  30  33
ENDBRANCH  26  27
ENDBRANCH   1  26
BRANCH   1  41
HETATM   41  O5  UNL     1      -2.333   5.310  11.169  1.00  0.00    -0.373 OA
HETATM   42  C26 UNL     1      -1.348   5.364  10.156  1.00  0.00     0.203 C 
ENDBRANCH   1  41
TORSDOF 14
ENDMDL
MODEL 4
REMARK VINA RESULT: -8.631543535      0.827      1.226
REMARK  14 active torsions:
REMARK  status: ('A' for Active; 'I' for Inactive)
REMARK    1  A    between atoms: C2_2  and  C3_3 
REMARK    2  A    between atoms: C3_3  and  C5_5 
REMARK    3  A    between atoms: C5_5  and  C6_6 
REMARK    4  A    between atoms: C8_8  and  N1_9 
REMARK       I    between atoms: N2_14  and  C10_15 
REMARK    5  A    between atoms: C10_15  and  C11_17 
REMARK    6  A    between atoms: C11_17  and  C12_18 
REMARK    7  A    between atoms: C11_17  and  C14_26 
REMARK    8  A    between atoms: C11_17  and  O5_41 
REMARK    9  A    between atoms: C12_18  and  C13_19 
REMARK   10  A    between atoms: C13_19  and  O2_20 
REMARK   11  A    between atoms: N3_22  and  O3_24 
REMARK   12  A    between atoms: C14_26  and  N4_27 
REMARK   13  A    between atoms: C17_30  and  C18_31 
REMARK   14  A    between atoms: C18_31  and  N5_32 
ROOT
HETATM    1  C11 UNL     1      -5.541   4.045   9.192  1.00  0.00     0.174 C 
ENDROOT
BRANCH   1   2
HETATM    2  C10 UNL     1      -5.486   4.657   7.803  1.00  0.00     0.257 C 
HETATM    3  N2  UNL     1      -6.286   4.338   6.729  1.00  0.00    -0.343 N 
HETATM    4  C6  UNL     1      -6.280   5.014   5.422  1.00  0.00     0.089 C 
HETATM    5  C9  UNL     1      -7.240   3.282   6.498  1.00  0.00     0.159 C 
HETATM    6  C7  UNL     1      -7.773   5.278   5.280  1.00  0.00     0.059 C 
HETATM    7  C8  UNL     1      -8.342   3.920   5.674  1.00  0.00     0.203 C 
HETATM    8  O1  UNL     1      -4.563   5.548   7.713  1.00  0.00    -0.270 OA
BRANCH   4   9
HETATM    9  C5  UNL     1      -5.496   6.263   5.372  1.00  0.00     0.029 C 
BRANCH   9  10
HETATM   10  C3  UNL     1      -4.501   6.119   4.209  1.00  0.00    -0.017 C 
HETATM   11  C4  UNL     1      -3.095   6.186   4.717  1.00  0.00     0.010 C 
BRANCH  10  12
HETATM   12  C2  UNL     1      -4.718   7.361   3.334  1.00  0.00    -0.000 C 
HETATM   13  C1  UNL     1      -6.000   7.211   2.537  1.00  0.00     0.005 C 
ENDBRANCH  10  12
ENDBRANCH   9  10
ENDBRANCH   4   9
BRANCH   7  14
HETATM   14  N1  UNL     1      -9.572   4.060   6.420  1.00  0.00    -0.073 N 
ATOM     15  H13 UNL     1      -9.607   4.948   6.922  1.00  0.00     0.274 HD
ATOM     16  H12 UNL     1     -10.371   4.198   5.801  1.00  0.00     0.274 HD
ATOM     17  H11 UNL     1      -9.719   3.271   7.048  1.00  0.00     0.274 HD
ENDBRANCH   7  14
ENDBRANCH   1   2
BRANCH   1  18
HETATM   18  C12 UNL     1      -5.164   2.590   8.874  1.00  0.00     0.135 C 
BRANCH  18  19
HETATM   19  C13 UNL     1      -3.867   2.330   8.306  1.00  0.00     0.138 C 
HETATM   20  N3  UNL     1      -2.936   1.632   8.865  1.00  0.00    -0.251 N 
ATOM     21  H3  UNL     1      -2.037   1.491   8.404  1.00  0.00     0.196 HD
BRANCH  19  22
HETATM   22  O2  UNL     1      -3.502   2.844   7.040  1.00  0.00    -0.348 OA
ATOM     23  H2  UNL     1      -2.702   3.342   6.921  1.00  0.00     0.219 HD
ENDBRANCH  19  22
BRANCH  20  24
HETATM   24  O3  UNL     1      -3.191   1.087  10.094  1.00  0.00    -0.288 OA
ATOM     25  H3  UNL     1      -2.451   0.861  10.644  1.00  0.00     0.244 HD
ENDBRANCH  20  24
ENDBRANCH  18  19
ENDBRANCH   1  18
BRANCH   1  26
HETATM   26  C14 UNL     1      -4.471   4.650  10.021  1.00  0.00     0.320 C 
BRANCH  26  27
HETATM   27  N4  UNL     1      -3.878   3.911  11.067  1.00  0.00     0.091 N 
HETATM   28  C15 UNL     1      -4.464   3.870  12.351  1.00  0.00     0.273 C 
HETATM   29  C16 UNL     1      -3.717   2.865  13.216  1.00  0.00     0.036 C 
HETATM   30  C17 UNL     1      -2.272   3.187  13.387  1.00  0.00     0.007 C 
HETATM   31  C24 UNL     1      -1.637   3.501  12.045  1.00  0.00     0.036 C 
HETATM   32  C25 UNL     1      -2.490   4.400  11.218  1.00  0.00     0.273 C 
BRANCH  30  33
HETATM   33  C18 UNL     1      -1.556   2.004  13.984  1.00  0.00     0.130 C 
BRANCH  33  34
HETATM   34  N5  UNL     1      -2.249   1.393  15.082  1.00  0.00    -0.352 N 
HETATM   35  C19 UNL     1      -3.393   0.513  14.907  1.00  0.00     0.125 C 
HETATM   36  C20 UNL     1      -4.247   0.678  16.156  1.00  0.00     0.020 C 
HETATM   37  C21 UNL     1      -3.542   0.084  17.357  1.00  0.00     0.011 C 
HETATM   38  C22 UNL     1      -2.110   0.567  17.461  1.00  0.00     0.103 C 
HETATM   39  C23 UNL     1      -1.840   1.624  16.423  1.00  0.00     0.219 C 
HETATM   40  O4  UNL     1      -1.263   2.685  16.751  1.00  0.00    -0.273 OA
ENDBRANCH  33  34
ENDBRANCH  30  33
ENDBRANCH  26  27
ENDBRANCH   1  26
BRANCH   1  41
HETATM   41  O5  UNL     1      -6.795   4.101   9.743  1.00  0.00    -0.373 OA
HETATM   42  C26 UNL     1      -7.183   2.795  10.124  1.00  0.00     0.203 C 
ENDBRANCH   1  41
TORSDOF 14
ENDMDL
MODEL 5
REMARK VINA RESULT: -8.538023261      1.993      3.244
REMARK  14 active torsions:
REMARK  status: ('A' for Active; 'I' for Inactive)
REMARK    1  A    between atoms: C2_2  and  C3_3 
REMARK    2  A    between atoms: C3_3  and  C5_5 
REMARK    3  A    between atoms: C5_5  and  C6_6 
REMARK    4  A    between atoms: C8_8  and  N1_9 
REMARK       I    between atoms: N2_14  and  C10_15 
REMARK    5  A    between atoms: C10_15  and  C11_17 
REMARK    6  A    between atoms: C11_17  and  C12_18 
REMARK    7  A    between atoms: C11_17  and  C14_26 
REMARK    8  A    between atoms: C11_17  and  O5_41 
REMARK    9  A    between atoms: C12_18  and  C13_19 
REMARK   10  A    between atoms: C13_19  and  O2_20 
REMARK   11  A    between atoms: N3_22  and  O3_24 
REMARK   12  A    between atoms: C14_26  and  N4_27 
REMARK   13  A    between atoms: C17_30  and  C18_31 
REMARK   14  A    between atoms: C18_31  and  N5_32 
ROOT
HETATM    1  C11 UNL     1      -5.628   3.807   9.198  1.00  0.00     0.174 C 
ENDROOT
BRANCH   1   2
HETATM    2  C10 UNL     1      -6.234   4.064   7.828  1.00  0.00     0.257 C 
HETATM    3  N2  UNL     1      -5.968   5.127   6.996  1.00  0.00    -0.343 N 
HETATM    4  C6  UNL     1      -6.493   5.303   5.631  1.00  0.00     0.089 C 
HETATM    5  C9  UNL     1      -5.241   6.358   7.179  1.00  0.00     0.159 C 
HETATM    6  C7  UNL     1      -5.187   5.596   4.906  1.00  0.00     0.059 C 
HETATM    7  C8  UNL     1      -4.558   6.615   5.849  1.00  0.00     0.203 C 
HETATM    8  O1  UNL     1      -7.075   3.147   7.502  1.00  0.00    -0.270 OA
BRANCH   4   9
HETATM    9  C5  UNL     1      -7.176   4.121   5.072  1.00  0.00     0.029 C 
BRANCH   9  10
HETATM   10  C3  UNL     1      -8.268   4.644   4.123  1.00  0.00    -0.017 C 
HETATM   11  C4  UNL     1      -8.715   6.007   4.547  1.00  0.00     0.010 C 
BRANCH  10  12
HETATM   12  C2  UNL     1      -9.462   3.701   4.321  1.00  0.00    -0.000 C 
HETATM   13  C1  UNL     1     -10.204   4.068   5.591  1.00  0.00     0.005 C 
ENDBRANCH  10  12
ENDBRANCH   9  10
ENDBRANCH   4   9
BRANCH   7  14
HETATM   14  N1  UNL     1      -3.125   6.449   5.927  1.00  0.00    -0.073 N 
ATOM     15  H13 UNL     1      -2.818   6.298   6.888  1.00  0.00     0.274 HD
ATOM     16  H12 UNL     1      -2.830   5.558   5.526  1.00  0.00     0.274 HD
ATOM     17  H11 UNL     1      -2.635   7.232   5.497  1.00  0.00     0.274 HD
ENDBRANCH   7  14
ENDBRANCH   1   2
BRANCH   1  18
HETATM   18  C12 UNL     1      -5.145   2.359   9.024  1.00  0.00     0.135 C 
BRANCH  18  19
HETATM   19  C13 UNL     1      -3.872   2.136   8.389  1.00  0.00     0.138 C 
HETATM   20  N3  UNL     1      -2.878   1.505   8.917  1.00  0.00    -0.251 N 
ATOM     21  H3  UNL     1      -2.002   1.387   8.408  1.00  0.00     0.196 HD
BRANCH  19  22
HETATM   22  O2  UNL     1      -3.608   2.613   7.084  1.00  0.00    -0.348 OA
ATOM     23  H2  UNL     1      -3.538   3.543   6.903  1.00  0.00     0.219 HD
ENDBRANCH  19  22
BRANCH  20  24
HETATM   24  O3  UNL     1      -3.033   1.001  10.180  1.00  0.00    -0.288 OA
ATOM     25  H3  UNL     1      -2.612   0.175  10.385  1.00  0.00     0.244 HD
ENDBRANCH  20  24
ENDBRANCH  18  19
ENDBRANCH   1  18
BRANCH   1  26
HETATM   26  C14 UNL     1      -4.450   4.691   9.369  1.00  0.00     0.320 C 
BRANCH  26  27
HETATM   27  N4  UNL     1      -3.388   4.305  10.215  1.00  0.00     0.091 N 
HETATM   28  C15 UNL     1      -3.482   4.455  11.615  1.00  0.00     0.273 C 
HETATM   29  C16 UNL     1      -2.280   3.797  12.277  1.00  0.00     0.036 C 
HETATM   30  C17 UNL     1      -0.975   4.373  11.845  1.00  0.00     0.007 C 
HETATM   31  C24 UNL     1      -0.918   4.480  10.333  1.00  0.00     0.036 C 
HETATM   32  C25 UNL     1      -2.179   5.028   9.761  1.00  0.00     0.273 C 
BRANCH  30  33
HETATM   33  C18 UNL     1       0.149   3.480  12.299  1.00  0.00     0.130 C 
BRANCH  33  34
HETATM   34  N5  UNL     1       0.541   3.680  13.665  1.00  0.00    -0.352 N 
HETATM   35  C19 UNL     1       1.160   4.906  14.142  1.00  0.00     0.125 C 
HETATM   36  C20 UNL     1       2.050   4.503  15.309  1.00  0.00     0.020 C 
HETATM   37  C21 UNL     1       1.206   4.068  16.488  1.00  0.00     0.011 C 
HETATM   38  C22 UNL     1       0.149   3.063  16.079  1.00  0.00     0.103 C 
HETATM   39  C23 UNL     1       0.337   2.665  14.639  1.00  0.00     0.219 C 
HETATM   40  O4  UNL     1       0.312   1.455  14.320  1.00  0.00    -0.273 OA
ENDBRANCH  33  34
ENDBRANCH  30  33
ENDBRANCH  26  27
ENDBRANCH   1  26
BRANCH   1  41
HETATM   41  O5  UNL     1      -6.554   3.882  10.206  1.00  0.00    -0.373 OA
HETATM   42  C26 UNL     1      -6.684   2.604  10.797  1.00  0.00     0.203 C 
ENDBRANCH   1  41
TORSDOF 14
ENDMDL
