MODEL 1
REMARK VINA RESULT: -8.911974652      0.000      0.000
REMARK  11 active torsions:
REMARK  status: ('A' for Active; 'I' for Inactive)
REMARK    1  A    between atoms: C2_2  and  C3_3 
REMARK    2  A    between atoms: C3_3  and  C4_4 
REMARK    3  A    between atoms: C4_4  and  N1_5 
REMARK       I    between atoms: N1_5  and  C5_7 
REMARK       I    between atoms: C5_7  and  N2_9 
REMARK    4  A    between atoms: N2_9  and  C6_11 
REMARK    5  A    between atoms: C6_11  and  C7_12 
REMARK    6  A    between atoms: N3_14  and  C9_15 
REMARK    7  A    between atoms: C9_15  and  C10_16 
REMARK    8  A    between atoms: C10_16  and  C11_17 
REMARK    9  A    between atoms: C11_17  and  C12_18 
REMARK   10  A    between atoms: C12_18  and  C13_19 
REMARK   11  A    between atoms: C17_25  and  N5_26 
ROOT
HETATM    1  C10 UNL     1      -3.899   1.493  14.897  1.00  0.00     0.031 C 
ENDROOT
BRANCH   1   2
HETATM    2  C9  UNL     1      -2.544   0.858  14.986  1.00  0.00     0.274 C 
BRANCH   2   3
HETATM    3  N3  UNL     1      -1.740   1.483  15.986  1.00  0.00     0.106 N 
HETATM    4  C8  UNL     1      -0.472   1.873  15.464  1.00  0.00     0.293 C 
HETATM    5  C7  UNL     1       0.491   2.262  16.614  1.00  0.00     0.144 C 
HETATM    6  C25 UNL     1      -0.215   2.274  17.874  1.00  0.00     0.229 C 
HETATM    7  N7  UNL     1      -1.572   2.727  17.946  1.00  0.00    -0.335 N 
HETATM    8  O3  UNL     1       0.333   1.886  18.953  1.00  0.00    -0.273 OA
HETATM    9  C24 UNL     1      -2.402   2.479  16.772  1.00  0.00     0.397 C 
ATOM     10  H7  UNL     1      -1.939   3.197  18.773  1.00  0.00     0.164 HD
BRANCH   5  11
HETATM   11  C6  UNL     1       1.254   3.430  16.121  1.00  0.00     0.081 C 
BRANCH  11  12
HETATM   12  N2  UNL     1       0.674   4.377  15.257  1.00  0.00    -0.322 N 
HETATM   13  C5  UNL     1       0.925   4.518  13.875  1.00  0.00     0.319 C 
HETATM   14  N1  UNL     1       0.188   5.507  13.110  1.00  0.00    -0.343 N 
HETATM   15  O1  UNL     1       1.766   3.809  13.303  1.00  0.00    -0.247 OA
ATOM     16  H1  UNL     1      -0.505   6.079  13.593  1.00  0.00     0.164 HD
ATOM     17  H2  UNL     1       0.005   5.027  15.671  1.00  0.00     0.169 HD
BRANCH  14  18
HETATM   18  C4  UNL     1       0.390   5.715  11.708  1.00  0.00     0.124 C 
BRANCH  18  19
HETATM   19  C3  UNL     1      -0.896   5.775  10.935  1.00  0.00     0.019 C 
BRANCH  19  20
HETATM   20  C2  UNL     1      -0.750   4.779   9.780  1.00  0.00    -0.003 C 
HETATM   21  C1  UNL     1       0.221   3.686  10.135  1.00  0.00     0.005 C 
ENDBRANCH  19  20
ENDBRANCH  18  19
ENDBRANCH  14  18
ENDBRANCH  11  12
ENDBRANCH   5  11
ENDBRANCH   2   3
ENDBRANCH   1   2
BRANCH   1  22
HETATM   22  C11 UNL     1      -4.222   1.941  13.484  1.00  0.00     0.008 C 
BRANCH  22  23
HETATM   23  C12 UNL     1      -3.073   1.728  12.546  1.00  0.00     0.057 C 
BRANCH  23  24
HETATM   24  C13 UNL     1      -3.337   2.481  11.294  1.00  0.00     0.012 C 
HETATM   25  C14 UNL     1      -3.073   1.910  10.074  1.00  0.00     0.027 C 
HETATM   26  C15 UNL     1      -3.605   2.207   8.840  1.00  0.00     0.033 C 
HETATM   27  C16 UNL     1      -4.220   3.394   8.392  1.00  0.00     0.057 A 
HETATM   28  N4  UNL     1      -4.464   3.551   7.131  1.00  0.00    -0.335 N 
HETATM   29  C22 UNL     1      -4.573   4.401   9.248  1.00  0.00     0.103 A 
HETATM   30  C17 UNL     1      -5.041   4.660   6.702  1.00  0.00     0.148 A 
ATOM     31  H4  UNL     1      -4.213   2.817   6.469  1.00  0.00     0.168 HD
HETATM   32  S1  UNL     1      -5.256   5.541   8.149  1.00  0.00    -0.046 SA
HETATM   33  C23 UNL     1      -4.448   4.534  10.631  1.00  0.00     0.265 C 
HETATM   34  O2  UNL     1      -5.003   5.580  11.049  1.00  0.00    -0.267 OA
HETATM   35  N6  UNL     1      -3.840   3.726  11.513  1.00  0.00    -0.326 N 
ATOM     36  H6  UNL     1      -3.743   4.088  12.462  1.00  0.00     0.169 HD
BRANCH  30  37
HETATM   37  N5  UNL     1      -5.409   5.061   5.372  1.00  0.00    -0.361 N 
HETATM   38  C18 UNL     1      -6.668   4.737   4.722  1.00  0.00     0.125 C 
HETATM   39  C19 UNL     1      -7.002   6.053   4.049  1.00  0.00     0.021 C 
HETATM   40  C20 UNL     1      -5.640   6.478   3.513  1.00  0.00     0.021 C 
HETATM   41  C21 UNL     1      -4.641   5.830   4.450  1.00  0.00     0.125 C 
ENDBRANCH  30  37
ENDBRANCH  23  24
ENDBRANCH  22  23
ENDBRANCH   1  22
TORSDOF 11
ENDMDL
MODEL 2
REMARK VINA RESULT: -8.857793389      3.920     10.997
REMARK  11 active torsions:
REMARK  status: ('A' for Active; 'I' for Inactive)
REMARK    1  A    between atoms: C2_2  and  C3_3 
REMARK    2  A    between atoms: C3_3  and  C4_4 
REMARK    3  A    between atoms: C4_4  and  N1_5 
REMARK       I    between atoms: N1_5  and  C5_7 
REMARK       I    between atoms: C5_7  and  N2_9 
REMARK    4  A    between atoms: N2_9  and  C6_11 
REMARK    5  A    between atoms: C6_11  and  C7_12 
REMARK    6  A    between atoms: N3_14  and  C9_15 
REMARK    7  A    between atoms: C9_15  and  C10_16 
REMARK    8  A    between atoms: C10_16  and  C11_17 
REMARK    9  A    between atoms: C11_17  and  C12_18 
REMARK   10  A    between atoms: C12_18  and  C13_19 
REMARK   11  A    between atoms: C17_25  and  N5_26 
ROOT
HETATM    1  C10 UNL     1      -8.624   1.696   7.121  1.00  0.00     0.031 C 
ENDROOT
BRANCH   1   2
HETATM    2  C9  UNL     1      -9.067   3.113   6.904  1.00  0.00     0.274 C 
BRANCH   2   3
HETATM    3  N3  UNL     1      -9.676   3.278   5.624  1.00  0.00     0.106 N 
HETATM    4  C8  UNL     1     -10.441   4.480   5.563  1.00  0.00     0.293 C 
HETATM    5  C7  UNL     1     -11.332   4.492   4.296  1.00  0.00     0.144 C 
HETATM    6  C25 UNL     1     -11.019   3.360   3.454  1.00  0.00     0.229 C 
HETATM    7  N7  UNL     1      -9.670   2.895   3.328  1.00  0.00    -0.335 N 
HETATM    8  O3  UNL     1     -11.918   2.740   2.804  1.00  0.00    -0.273 OA
HETATM    9  C24 UNL     1      -8.818   3.050   4.502  1.00  0.00     0.397 C 
ATOM     10  H7  UNL     1      -9.323   2.479   2.464  1.00  0.00     0.164 HD
BRANCH   5  11
HETATM   11  C6  UNL     1     -11.301   5.884   3.797  1.00  0.00     0.081 C 
BRANCH  11  12
HETATM   12  N2  UNL     1     -10.303   6.326   2.909  1.00  0.00    -0.322 N 
HETATM   13  C5  UNL     1      -9.064   6.907   3.260  1.00  0.00     0.319 C 
HETATM   14  N1  UNL     1      -8.113   7.247   2.219  1.00  0.00    -0.343 N 
HETATM   15  O1  UNL     1      -8.777   7.131   4.445  1.00  0.00    -0.247 OA
ATOM     16  H1  UNL     1      -8.360   7.052   1.249  1.00  0.00     0.164 HD
ATOM     17  H2  UNL     1     -10.492   6.216   1.913  1.00  0.00     0.169 HD
BRANCH  14  18
HETATM   18  C4  UNL     1      -6.840   7.845   2.493  1.00  0.00     0.124 C 
BRANCH  18  19
HETATM   19  C3  UNL     1      -5.737   6.834   2.628  1.00  0.00     0.019 C 
BRANCH  19  20
HETATM   20  C2  UNL     1      -4.608   7.530   3.395  1.00  0.00    -0.003 C 
HETATM   21  C1  UNL     1      -4.121   6.669   4.528  1.00  0.00     0.005 C 
ENDBRANCH  19  20
ENDBRANCH  18  19
ENDBRANCH  14  18
ENDBRANCH  11  12
ENDBRANCH   5  11
ENDBRANCH   2   3
ENDBRANCH   1   2
BRANCH   1  22
HETATM   22  C11 UNL     1      -8.246   1.439   8.567  1.00  0.00     0.008 C 
BRANCH  22  23
HETATM   23  C12 UNL     1      -8.379   2.667   9.415  1.00  0.00     0.057 C 
BRANCH  23  24
HETATM   24  C13 UNL     1      -7.026   3.084   9.861  1.00  0.00     0.012 C 
HETATM   25  C14 UNL     1      -6.387   2.401  10.867  1.00  0.00     0.027 C 
HETATM   26  C15 UNL     1      -5.042   2.317  11.144  1.00  0.00     0.033 C 
HETATM   27  C16 UNL     1      -3.996   3.189  10.780  1.00  0.00     0.057 A 
HETATM   28  N4  UNL     1      -2.828   3.047  11.318  1.00  0.00    -0.335 N 
HETATM   29  C22 UNL     1      -4.168   4.194   9.867  1.00  0.00     0.103 A 
HETATM   30  C17 UNL     1      -1.841   3.859  10.983  1.00  0.00     0.148 A 
ATOM     31  H4  UNL     1      -2.669   2.306  12.002  1.00  0.00     0.168 HD
HETATM   32  S1  UNL     1      -2.588   4.888   9.843  1.00  0.00    -0.046 SA
HETATM   33  C23 UNL     1      -5.277   4.599   9.126  1.00  0.00     0.265 C 
HETATM   34  O2  UNL     1      -4.985   5.507   8.310  1.00  0.00    -0.267 OA
HETATM   35  N6  UNL     1      -6.545   4.159   9.181  1.00  0.00    -0.326 N 
ATOM     36  H6  UNL     1      -7.230   4.696   8.648  1.00  0.00     0.169 HD
BRANCH  30  37
HETATM   37  N5  UNL     1      -0.477   3.901  11.435  1.00  0.00    -0.361 N 
HETATM   38  C18 UNL     1       0.688   3.962  10.568  1.00  0.00     0.125 C 
HETATM   39  C19 UNL     1       1.548   4.973  11.296  1.00  0.00     0.021 C 
HETATM   40  C20 UNL     1       1.360   4.548  12.747  1.00  0.00     0.021 C 
HETATM   41  C21 UNL     1      -0.005   3.890  12.779  1.00  0.00     0.125 C 
ENDBRANCH  30  37
ENDBRANCH  23  24
ENDBRANCH  22  23
ENDBRANCH   1  22
TORSDOF 11
ENDMDL
MODEL 3
REMARK VINA RESULT: -8.834973851      2.832      9.857
REMARK  11 active torsions:
REMARK  status: ('A' for Active; 'I' for Inactive)
REMARK    1  A    between atoms: C2_2  and  C3_3 
REMARK    2  A    between atoms: C3_3  and  C4_4 
REMARK    3  A    between atoms: C4_4  and  N1_5 
REMARK       I    between atoms: N1_5  and  C5_7 
REMARK       I    between atoms: C5_7  and  N2_9 
REMARK    4  A    between atoms: N2_9  and  C6_11 
REMARK    5  A    between atoms: C6_11  and  C7_12 
REMARK    6  A    between atoms: N3_14  and  C9_15 
REMARK    7  A    between atoms: C9_15  and  C10_16 
REMARK    8  A    between atoms: C10_16  and  C11_17 
REMARK    9  A    between atoms: C11_17  and  C12_18 
REMARK   10  A    between atoms: C12_18  and  C13_19 
REMARK   11  A    between atoms: C17_25  and  N5_26 
ROOT
HETATM    1  C10 UNL     1       0.529   5.295  10.515  1.00  0.00     0.031 C 
ENDROOT
BRANCH   1   2
HETATM    2  C9  UNL     1      -0.903   5.593  10.849  1.00  0.00     0.274 C 
BRANCH   2   3
HETATM    3  N3  UNL     1      -1.740   4.463  10.607  1.00  0.00     0.106 N 
HETATM    4  C8  UNL     1      -3.065   4.686  11.084  1.00  0.00     0.293 C 
HETATM    5  C7  UNL     1      -3.868   3.362  11.095  1.00  0.00     0.144 C 
HETATM    6  C25 UNL     1      -3.103   2.308  10.469  1.00  0.00     0.229 C 
HETATM    7  N7  UNL     1      -2.270   2.586   9.337  1.00  0.00    -0.335 N 
HETATM    8  O3  UNL     1      -3.137   1.111  10.895  1.00  0.00    -0.273 OA
HETATM    9  C24 UNL     1      -1.658   3.909   9.290  1.00  0.00     0.397 C 
ATOM     10  H7  UNL     1      -2.112   1.894   8.603  1.00  0.00     0.164 HD
BRANCH   5  11
HETATM   11  C6  UNL     1      -5.235   3.717  10.655  1.00  0.00     0.081 C 
BRANCH  11  12
HETATM   12  N2  UNL     1      -5.471   4.800   9.788  1.00  0.00    -0.322 N 
HETATM   13  C5  UNL     1      -5.313   4.803   8.385  1.00  0.00     0.319 C 
HETATM   14  N1  UNL     1      -5.667   5.989   7.627  1.00  0.00    -0.343 N 
HETATM   15  O1  UNL     1      -4.877   3.807   7.790  1.00  0.00    -0.247 OA
ATOM     16  H1  UNL     1      -6.030   6.798   8.129  1.00  0.00     0.164 HD
ATOM     17  H2  UNL     1      -5.788   5.671  10.216  1.00  0.00     0.169 HD
BRANCH  14  18
HETATM   18  C4  UNL     1      -5.529   6.072   6.204  1.00  0.00     0.124 C 
BRANCH  18  19
HETATM   19  C3  UNL     1      -4.194   6.612   5.778  1.00  0.00     0.019 C 
BRANCH  19  20
HETATM   20  C2  UNL     1      -4.414   7.274   4.414  1.00  0.00    -0.003 C 
HETATM   21  C1  UNL     1      -5.122   6.339   3.472  1.00  0.00     0.005 C 
ENDBRANCH  19  20
ENDBRANCH  18  19
ENDBRANCH  14  18
ENDBRANCH  11  12
ENDBRANCH   5  11
ENDBRANCH   2   3
ENDBRANCH   1   2
BRANCH   1  22
HETATM   22  C11 UNL     1       1.120   4.252  11.445  1.00  0.00     0.008 C 
BRANCH  22  23
HETATM   23  C12 UNL     1       1.502   4.829  12.773  1.00  0.00     0.057 C 
BRANCH  23  24
HETATM   24  C13 UNL     1       1.071   3.891  13.840  1.00  0.00     0.012 C 
HETATM   25  C14 UNL     1       1.738   3.852  15.039  1.00  0.00     0.027 C 
HETATM   26  C15 UNL     1       1.296   3.417  16.268  1.00  0.00     0.033 C 
HETATM   27  C16 UNL     1       0.243   2.532  16.579  1.00  0.00     0.057 A 
HETATM   28  N4  UNL     1       0.121   2.085  17.787  1.00  0.00    -0.335 N 
HETATM   29  C22 UNL     1      -0.666   2.122  15.644  1.00  0.00     0.103 A 
HETATM   30  C17 UNL     1      -0.862   1.255  18.089  1.00  0.00     0.148 A 
ATOM     31  H4  UNL     1       0.784   2.373  18.507  1.00  0.00     0.168 HD
HETATM   32  S1  UNL     1      -1.669   1.088  16.593  1.00  0.00    -0.046 SA
HETATM   33  C23 UNL     1      -0.806   2.418  14.288  1.00  0.00     0.265 C 
HETATM   34  O2  UNL     1      -1.851   1.915  13.808  1.00  0.00    -0.267 OA
HETATM   35  N6  UNL     1      -0.001   3.132  13.485  1.00  0.00    -0.326 N 
ATOM     36  H6  UNL     1      -0.219   3.103  12.489  1.00  0.00     0.169 HD
BRANCH  30  37
HETATM   37  N5  UNL     1      -1.201   0.632  19.339  1.00  0.00    -0.361 N 
HETATM   38  C18 UNL     1      -0.744  -0.679  19.768  1.00  0.00     0.125 C 
HETATM   39  C19 UNL     1      -0.416  -0.418  21.224  1.00  0.00     0.021 C 
HETATM   40  C20 UNL     1      -1.586   0.460  21.650  1.00  0.00     0.021 C 
HETATM   41  C21 UNL     1      -2.027   1.153  20.376  1.00  0.00     0.125 C 
ENDBRANCH  30  37
ENDBRANCH  23  24
ENDBRANCH  22  23
ENDBRANCH   1  22
TORSDOF 11
ENDMDL
MODEL 4
REMARK VINA RESULT: -8.750253481      2.839      9.953
REMARK  11 active torsions:
REMARK  status: ('A' for Active; 'I' for Inactive)
REMARK    1  A    between atoms: C2_2  and  C3_3 
REMARK    2  A    between atoms: C3_3  and  C4_4 
REMARK    3  A    between atoms: C4_4  and  N1_5 
REMARK       I    between atoms: N1_5  and  C5_7 
REMARK       I    between atoms: C5_7  and  N2_9 
REMARK    4  A    between atoms: N2_9  and  C6_11 
REMARK    5  A    between atoms: C6_11  and  C7_12 
REMARK    6  A    between atoms: N3_14  and  C9_15 
REMARK    7  A    between atoms: C9_15  and  C10_16 
REMARK    8  A    between atoms: C10_16  and  C11_17 
REMARK    9  A    between atoms: C11_17  and  C12_18 
REMARK   10  A    between atoms: C12_18  and  C13_19 
REMARK   11  A    between atoms: C17_25  and  N5_26 
ROOT
HETATM    1  C10 UNL     1      -3.216   4.861   8.853  1.00  0.00     0.031 C 
ENDROOT
BRANCH   1   2
HETATM    2  C9  UNL     1      -4.418   4.654   9.727  1.00  0.00     0.274 C 
BRANCH   2   3
HETATM    3  N3  UNL     1      -5.325   3.715   9.151  1.00  0.00     0.106 N 
HETATM    4  C8  UNL     1      -6.254   4.358   8.280  1.00  0.00     0.293 C 
HETATM    5  C7  UNL     1      -7.407   3.392   7.910  1.00  0.00     0.144 C 
HETATM    6  C25 UNL     1      -7.133   2.067   8.419  1.00  0.00     0.229 C 
HETATM    7  N7  UNL     1      -5.796   1.553   8.430  1.00  0.00    -0.335 N 
HETATM    8  O3  UNL     1      -8.055   1.320   8.872  1.00  0.00    -0.273 OA
HETATM    9  C24 UNL     1      -4.728   2.526   8.625  1.00  0.00     0.397 C 
ATOM     10  H7  UNL     1      -5.602   0.559   8.309  1.00  0.00     0.164 HD
BRANCH   5  11
HETATM   11  C6  UNL     1      -7.702   3.647   6.482  1.00  0.00     0.081 C 
BRANCH  11  12
HETATM   12  N2  UNL     1      -6.700   4.066   5.587  1.00  0.00    -0.322 N 
HETATM   13  C5  UNL     1      -6.679   5.274   4.857  1.00  0.00     0.319 C 
HETATM   14  N1  UNL     1      -5.532   5.586   4.024  1.00  0.00    -0.343 N 
HETATM   15  O1  UNL     1      -7.624   6.074   4.917  1.00  0.00    -0.247 OA
ATOM     16  H1  UNL     1      -4.759   4.923   3.989  1.00  0.00     0.164 HD
ATOM     17  H2  UNL     1      -5.911   3.433   5.452  1.00  0.00     0.169 HD
BRANCH  14  18
HETATM   18  C4  UNL     1      -5.438   6.787   3.249  1.00  0.00     0.124 C 
BRANCH  18  19
HETATM   19  C3  UNL     1      -4.359   7.713   3.734  1.00  0.00     0.019 C 
BRANCH  19  20
HETATM   20  C2  UNL     1      -3.567   6.933   4.789  1.00  0.00    -0.003 C 
HETATM   21  C1  UNL     1      -3.161   7.831   5.926  1.00  0.00     0.005 C 
ENDBRANCH  19  20
ENDBRANCH  18  19
ENDBRANCH  14  18
ENDBRANCH  11  12
ENDBRANCH   5  11
ENDBRANCH   2   3
ENDBRANCH   1   2
BRANCH   1  22
HETATM   22  C11 UNL     1      -1.987   5.229   9.662  1.00  0.00     0.008 C 
BRANCH  22  23
HETATM   23  C12 UNL     1      -0.986   4.116   9.710  1.00  0.00     0.057 C 
BRANCH  23  24
HETATM   24  C13 UNL     1      -1.087   3.442  11.029  1.00  0.00     0.012 C 
HETATM   25  C14 UNL     1      -0.167   3.706  12.014  1.00  0.00     0.027 C 
HETATM   26  C15 UNL     1      -0.285   3.560  13.377  1.00  0.00     0.033 C 
HETATM   27  C16 UNL     1      -1.162   2.742  14.118  1.00  0.00     0.057 A 
HETATM   28  N4  UNL     1      -0.973   2.587  15.388  1.00  0.00    -0.335 N 
HETATM   29  C22 UNL     1      -2.221   2.096  13.540  1.00  0.00     0.103 A 
HETATM   30  C17 UNL     1      -1.790   1.823  16.091  1.00  0.00     0.148 A 
ATOM     31  H4  UNL     1      -0.192   3.057  15.847  1.00  0.00     0.168 HD
HETATM   32  S1  UNL     1      -2.895   1.285  14.905  1.00  0.00    -0.046 SA
HETATM   33  C23 UNL     1      -2.685   2.060  12.225  1.00  0.00     0.265 C 
HETATM   34  O2  UNL     1      -3.765   1.428  12.130  1.00  0.00    -0.267 OA
HETATM   35  N6  UNL     1      -2.143   2.589  11.116  1.00  0.00    -0.326 N 
ATOM     36  H6  UNL     1      -2.576   2.320  10.232  1.00  0.00     0.169 HD
BRANCH  30  37
HETATM   37  N5  UNL     1      -1.787   1.501  17.492  1.00  0.00    -0.361 N 
HETATM   38  C18 UNL     1      -2.327   0.281  18.069  1.00  0.00     0.125 C 
HETATM   39  C19 UNL     1      -1.262  -0.061  19.091  1.00  0.00     0.021 C 
HETATM   40  C20 UNL     1      -0.948   1.310  19.677  1.00  0.00     0.021 C 
HETATM   41  C21 UNL     1      -1.273   2.286  18.564  1.00  0.00     0.125 C 
ENDBRANCH  30  37
ENDBRANCH  23  24
ENDBRANCH  22  23
ENDBRANCH   1  22
TORSDOF 11
ENDMDL
MODEL 5
REMARK VINA RESULT: -8.749876130      3.086     10.179
REMARK  11 active torsions:
REMARK  status: ('A' for Active; 'I' for Inactive)
REMARK    1  A    between atoms: C2_2  and  C3_3 
REMARK    2  A    between atoms: C3_3  and  C4_4 
REMARK    3  A    between atoms: C4_4  and  N1_5 
REMARK       I    between atoms: N1_5  and  C5_7 
REMARK       I    between atoms: C5_7  and  N2_9 
REMARK    4  A    between atoms: N2_9  and  C6_11 
REMARK    5  A    between atoms: C6_11  and  C7_12 
REMARK    6  A    between atoms: N3_14  and  C9_15 
REMARK    7  A    between atoms: C9_15  and  C10_16 
REMARK    8  A    between atoms: C10_16  and  C11_17 
REMARK    9  A    between atoms: C11_17  and  C12_18 
REMARK   10  A    between atoms: C12_18  and  C13_19 
REMARK   11  A    between atoms: C17_25  and  N5_26 
ROOT
HETATM    1  C10 UNL     1       0.068   4.487  10.273  1.00  0.00     0.031 C 
ENDROOT
BRANCH   1   2
HETATM    2  C9  UNL     1      -0.628   3.325   9.629  1.00  0.00     0.274 C 
BRANCH   2   3
HETATM    3  N3  UNL     1      -1.935   3.135  10.171  1.00  0.00     0.106 N 
HETATM    4  C8  UNL     1      -2.634   4.372  10.286  1.00  0.00     0.293 C 
HETATM    5  C7  UNL     1      -3.910   4.195  11.147  1.00  0.00     0.144 C 
HETATM    6  C25 UNL     1      -4.116   2.798  11.455  1.00  0.00     0.229 C 
HETATM    7  N7  UNL     1      -3.804   1.785  10.491  1.00  0.00    -0.335 N 
HETATM    8  O3  UNL     1      -4.572   2.420  12.579  1.00  0.00    -0.273 OA
HETATM    9  C24 UNL     1      -2.689   2.066   9.592  1.00  0.00     0.397 C 
ATOM     10  H7  UNL     1      -4.332   0.914  10.435  1.00  0.00     0.164 HD
BRANCH   5  11
HETATM   11  C6  UNL     1      -4.949   5.026  10.500  1.00  0.00     0.081 C 
BRANCH  11  12
HETATM   12  N2  UNL     1      -5.576   4.623   9.307  1.00  0.00    -0.322 N 
HETATM   13  C5  UNL     1      -6.774   3.883   9.196  1.00  0.00     0.319 C 
HETATM   14  N1  UNL     1      -7.326   3.608   7.882  1.00  0.00    -0.343 N 
HETATM   15  O1  UNL     1      -7.362   3.465  10.204  1.00  0.00    -0.247 OA
ATOM     16  H1  UNL     1      -6.834   3.964   7.062  1.00  0.00     0.164 HD
ATOM     17  H2  UNL     1      -5.121   4.893   8.435  1.00  0.00     0.169 HD
BRANCH  14  18
HETATM   18  C4  UNL     1      -8.530   2.859   7.686  1.00  0.00     0.124 C 
BRANCH  18  19
HETATM   19  C3  UNL     1      -8.771   2.507   6.245  1.00  0.00     0.019 C 
BRANCH  19  20
HETATM   20  C2  UNL     1      -9.110   3.820   5.533  1.00  0.00    -0.003 C 
HETATM   21  C1  UNL     1     -10.563   4.167   5.710  1.00  0.00     0.005 C 
ENDBRANCH  19  20
ENDBRANCH  18  19
ENDBRANCH  14  18
ENDBRANCH  11  12
ENDBRANCH   5  11
ENDBRANCH   2   3
ENDBRANCH   1   2
BRANCH   1  22
HETATM   22  C11 UNL     1       1.018   4.040  11.368  1.00  0.00     0.008 C 
BRANCH  22  23
HETATM   23  C12 UNL     1       0.861   4.849  12.619  1.00  0.00     0.057 C 
BRANCH  23  24
HETATM   24  C13 UNL     1       0.654   3.923  13.760  1.00  0.00     0.012 C 
HETATM   25  C14 UNL     1       1.403   4.054  14.904  1.00  0.00     0.027 C 
HETATM   26  C15 UNL     1       1.121   3.633  16.183  1.00  0.00     0.033 C 
HETATM   27  C16 UNL     1       0.240   2.622  16.619  1.00  0.00     0.057 A 
HETATM   28  N4  UNL     1       0.273   2.234  17.853  1.00  0.00    -0.335 N 
HETATM   29  C22 UNL     1      -0.661   2.027  15.779  1.00  0.00     0.103 A 
HETATM   30  C17 UNL     1      -0.549   1.287  18.272  1.00  0.00     0.148 A 
ATOM     31  H4  UNL     1       0.934   2.660  18.503  1.00  0.00     0.168 HD
HETATM   32  S1  UNL     1      -1.425   0.914  16.854  1.00  0.00    -0.046 SA
HETATM   33  C23 UNL     1      -0.940   2.217  14.426  1.00  0.00     0.265 C 
HETATM   34  O2  UNL     1      -1.928   1.537  14.055  1.00  0.00    -0.267 OA
HETATM   35  N6  UNL     1      -0.312   2.994  13.528  1.00  0.00    -0.326 N 
ATOM     36  H6  UNL     1      -0.594   2.873  12.555  1.00  0.00     0.169 HD
BRANCH  30  37
HETATM   37  N5  UNL     1      -0.699   0.696  19.573  1.00  0.00    -0.361 N 
HETATM   38  C18 UNL     1      -0.801   1.438  20.819  1.00  0.00     0.125 C 
HETATM   39  C19 UNL     1      -1.897   0.672  21.532  1.00  0.00     0.021 C 
HETATM   40  C20 UNL     1      -1.521  -0.770  21.214  1.00  0.00     0.021 C 
HETATM   41  C21 UNL     1      -0.776  -0.689  19.897  1.00  0.00     0.125 C 
ENDBRANCH  30  37
ENDBRANCH  23  24
ENDBRANCH  22  23
ENDBRANCH   1  22
TORSDOF 11
ENDMDL
