MODEL 1
REMARK VINA RESULT: -7.501627098      0.000      0.000
REMARK  12 active torsions:
REMARK  status: ('A' for Active; 'I' for Inactive)
REMARK    1  A    between atoms: C2_2  and  S1_3 
REMARK    2  A    between atoms: S1_3  and  C4_5 
REMARK    3  A    between atoms: C4_5  and  C5_6 
REMARK    4  A    between atoms: C5_6  and  C6_7 
REMARK    5  A    between atoms: C7_8  and  C8_9 
REMARK    6  A    between atoms: C8_9  and  C9_11 
REMARK    7  A    between atoms: C11_13  and  S2_14 
REMARK    8  A    between atoms: S2_14  and  C12_15 
REMARK    9  A    between atoms: C12_15  and  C13_16 
REMARK   10  A    between atoms: C13_16  and  C14_17 
REMARK   11  A    between atoms: C18_27  and  O2_28 
REMARK   12  A    between atoms: C19_30  and  C20_31 
ROOT
HETATM    1  C6  UNL     1      -4.141   5.488   7.826  1.00  0.00    -0.006 C 
HETATM    2  C7  UNL     1      -4.004   5.135   6.571  1.00  0.00     0.049 C 
ENDROOT
BRANCH   2   3
HETATM    3  C8  UNL     1      -3.832   5.967   5.429  1.00  0.00     0.179 C 
HETATM    4  O1  UNL     1      -2.689   6.018   4.856  1.00  0.00    -0.291 OA
BRANCH   3   5
HETATM    5  C9  UNL     1      -4.873   6.831   4.791  1.00  0.00     0.260 C 
HETATM    6  C10 UNL     1      -6.086   6.011   4.538  1.00  0.00     0.058 C 
HETATM    7  C11 UNL     1      -6.596   6.469   3.195  1.00  0.00     0.075 C 
HETATM    8  C17 UNL     1      -5.410   7.072   2.545  1.00  0.00     0.248 C 
HETATM    9  N2  UNL     1      -4.446   7.365   3.557  1.00  0.00    -0.063 N 
ATOM     10  H22 UNL     1      -4.246   8.364   3.619  1.00  0.00     0.278 HD
ATOM     11  H21 UNL     1      -3.512   7.044   3.302  1.00  0.00     0.278 HD
BRANCH   7  12
HETATM   12  S2  UNL     1      -8.037   7.463   3.416  1.00  0.00    -0.162 SA
BRANCH  12  13
HETATM   13  C12 UNL     1      -9.609   6.796   2.975  1.00  0.00     0.081 C 
BRANCH  13  14
HETATM   14  C13 UNL     1     -10.305   6.138   4.141  1.00  0.00     0.075 C 
BRANCH  14  15
HETATM   15  C14 UNL     1      -9.717   4.757   4.322  1.00  0.00     0.051 A 
HETATM   16  N1  UNL     1      -9.247   3.912   3.422  1.00  0.00    -0.363 N 
HETATM   17  C15 UNL     1      -8.780   2.765   3.788  1.00  0.00     0.095 A 
ATOM     18  H1  UNL     1      -9.254   4.166   2.433  1.00  0.00     0.165 HD
HETATM   19  C16 UNL     1      -8.793   2.470   5.130  1.00  0.00     0.068 A 
HETATM   20  S3  UNL     1      -9.492   3.894   5.780  1.00  0.00    -0.087 SA
ENDBRANCH  14  15
ENDBRANCH  13  14
ENDBRANCH  12  13
ENDBRANCH   7  12
ENDBRANCH   3   5
ENDBRANCH   2   3
BRANCH   1  21
HETATM   21  C5  UNL     1      -4.317   4.404   8.921  1.00  0.00     0.033 C 
HETATM   22  C18 UNL     1      -4.130   5.022  10.235  1.00  0.00     0.155 C 
HETATM   23  C19 UNL     1      -3.023   4.032  10.516  1.00  0.00     0.088 A 
HETATM   24  C21 UNL     1      -3.032   3.614   9.107  1.00  0.00     0.036 A 
HETATM   25  C22 UNL     1      -1.815   4.186   9.661  1.00  0.00    -0.021 A 
HETATM   26  C23 UNL     1      -1.306   5.568   9.402  1.00  0.00     0.016 C 
HETATM   27  C24 UNL     1      -0.709   3.200  10.014  1.00  0.00     0.016 C 
BRANCH  21  28
HETATM   28  C4  UNL     1      -5.488   3.637   8.515  1.00  0.00     0.024 C 
BRANCH  28  29
HETATM   29  S1  UNL     1      -6.041   2.224   9.334  1.00  0.00    -0.203 SA
HETATM   30  C3  UNL     1      -7.088   2.512  10.760  1.00  0.00     0.082 C 
BRANCH  29  31
HETATM   31  C2  UNL     1      -7.169   1.296   8.209  1.00  0.00     0.062 C 
HETATM   32  C1  UNL     1      -8.567   1.529   8.700  1.00  0.00     0.015 C 
ENDBRANCH  29  31
ENDBRANCH  28  29
ENDBRANCH  21  28
BRANCH  22  33
HETATM   33  O2  UNL     1      -5.128   5.165  11.139  1.00  0.00    -0.393 OA
ATOM     34  H2  UNL     1      -4.988   5.481  12.024  1.00  0.00     0.210 HD
ENDBRANCH  22  33
BRANCH  23  35
HETATM   35  C20 UNL     1      -3.027   3.158  11.672  1.00  0.00     0.185 C 
HETATM   36  O3  UNL     1      -3.204   1.918  11.658  1.00  0.00    -0.647 OA
HETATM   37  O4  UNL     1      -2.816   3.732  12.927  1.00  0.00    -0.647 OA
ENDBRANCH  23  35
ENDBRANCH   1  21
TORSDOF 12
ENDMDL
MODEL 2
REMARK VINA RESULT: -7.472311531      4.126      8.649
REMARK  12 active torsions:
REMARK  status: ('A' for Active; 'I' for Inactive)
REMARK    1  A    between atoms: C2_2  and  S1_3 
REMARK    2  A    between atoms: S1_3  and  C4_5 
REMARK    3  A    between atoms: C4_5  and  C5_6 
REMARK    4  A    between atoms: C5_6  and  C6_7 
REMARK    5  A    between atoms: C7_8  and  C8_9 
REMARK    6  A    between atoms: C8_9  and  C9_11 
REMARK    7  A    between atoms: C11_13  and  S2_14 
REMARK    8  A    between atoms: S2_14  and  C12_15 
REMARK    9  A    between atoms: C12_15  and  C13_16 
REMARK   10  A    between atoms: C13_16  and  C14_17 
REMARK   11  A    between atoms: C18_27  and  O2_28 
REMARK   12  A    between atoms: C19_30  and  C20_31 
ROOT
HETATM    1  C6  UNL     1      -4.661   3.736   7.322  1.00  0.00    -0.006 C 
HETATM    2  C7  UNL     1      -4.216   3.973   8.532  1.00  0.00     0.049 C 
ENDROOT
BRANCH   2   3
HETATM    3  C8  UNL     1      -3.236   3.256   9.274  1.00  0.00     0.179 C 
HETATM    4  O1  UNL     1      -3.189   1.981   9.183  1.00  0.00    -0.291 OA
BRANCH   3   5
HETATM    5  C9  UNL     1      -2.208   3.840  10.191  1.00  0.00     0.260 C 
HETATM    6  C10 UNL     1      -1.746   5.135   9.628  1.00  0.00     0.058 C 
HETATM    7  C11 UNL     1      -0.261   5.167   9.889  1.00  0.00     0.075 C 
HETATM    8  C17 UNL     1       0.108   3.742  10.058  1.00  0.00     0.248 C 
HETATM    9  N2  UNL     1      -1.082   3.004  10.339  1.00  0.00    -0.063 N 
ATOM     10  H22 UNL     1      -1.051   2.560  11.257  1.00  0.00     0.278 HD
ATOM     11  H21 UNL     1      -1.153   2.160   9.770  1.00  0.00     0.278 HD
BRANCH   7  12
HETATM   12  S2  UNL     1       0.086   6.292  11.203  1.00  0.00    -0.162 SA
BRANCH  12  13
HETATM   13  C12 UNL     1      -0.064   5.730  12.868  1.00  0.00     0.081 C 
BRANCH  13  14
HETATM   14  C13 UNL     1       1.095   4.860  13.290  1.00  0.00     0.075 C 
BRANCH  14  15
HETATM   15  C14 UNL     1       0.545   3.699  14.086  1.00  0.00     0.051 A 
HETATM   16  N1  UNL     1      -0.347   2.785  13.747  1.00  0.00    -0.363 N 
HETATM   17  C15 UNL     1      -0.683   1.861  14.584  1.00  0.00     0.095 A 
ATOM     18  H1  UNL     1      -0.772   2.809  12.819  1.00  0.00     0.165 HD
HETATM   19  C16 UNL     1      -0.083   1.872  15.821  1.00  0.00     0.068 A 
HETATM   20  S3  UNL     1       0.942   3.239  15.685  1.00  0.00    -0.087 SA
ENDBRANCH  14  15
ENDBRANCH  13  14
ENDBRANCH  12  13
ENDBRANCH   7  12
ENDBRANCH   3   5
ENDBRANCH   2   3
BRANCH   1  21
HETATM   21  C5  UNL     1      -5.743   4.656   6.699  1.00  0.00     0.033 C 
HETATM   22  C18 UNL     1      -5.678   4.546   5.241  1.00  0.00     0.155 C 
HETATM   23  C19 UNL     1      -5.459   6.039   5.162  1.00  0.00     0.088 A 
HETATM   24  C21 UNL     1      -5.247   6.090   6.616  1.00  0.00     0.036 A 
HETATM   25  C22 UNL     1      -4.170   6.513   5.734  1.00  0.00    -0.021 A 
HETATM   26  C23 UNL     1      -2.933   5.728   5.431  1.00  0.00     0.016 C 
HETATM   27  C24 UNL     1      -3.972   8.016   5.588  1.00  0.00     0.016 C 
BRANCH  21  28
HETATM   28  C4  UNL     1      -6.939   4.437   7.504  1.00  0.00     0.024 C 
BRANCH  28  29
HETATM   29  S1  UNL     1      -7.418   2.896   8.112  1.00  0.00    -0.203 SA
HETATM   30  C3  UNL     1      -8.298   2.916   9.673  1.00  0.00     0.082 C 
BRANCH  29  31
HETATM   31  C2  UNL     1      -8.674   2.178   6.969  1.00  0.00     0.062 C 
HETATM   32  C1  UNL     1      -9.422   3.328   6.361  1.00  0.00     0.015 C 
ENDBRANCH  29  31
ENDBRANCH  28  29
ENDBRANCH  21  28
BRANCH  22  33
HETATM   33  O2  UNL     1      -6.657   3.985   4.493  1.00  0.00    -0.393 OA
ATOM     34  H2  UNL     1      -6.554   3.776   3.572  1.00  0.00     0.210 HD
ENDBRANCH  22  33
BRANCH  23  35
HETATM   35  C20 UNL     1      -6.313   6.917   4.387  1.00  0.00     0.185 C 
HETATM   36  O3  UNL     1      -5.991   7.518   3.337  1.00  0.00    -0.647 OA
HETATM   37  O4  UNL     1      -7.618   7.124   4.836  1.00  0.00    -0.647 OA
ENDBRANCH  23  35
ENDBRANCH   1  21
TORSDOF 12
ENDMDL
MODEL 3
REMARK VINA RESULT: -7.394896339      4.950      8.378
REMARK  12 active torsions:
REMARK  status: ('A' for Active; 'I' for Inactive)
REMARK    1  A    between atoms: C2_2  and  S1_3 
REMARK    2  A    between atoms: S1_3  and  C4_5 
REMARK    3  A    between atoms: C4_5  and  C5_6 
REMARK    4  A    between atoms: C5_6  and  C6_7 
REMARK    5  A    between atoms: C7_8  and  C8_9 
REMARK    6  A    between atoms: C8_9  and  C9_11 
REMARK    7  A    between atoms: C11_13  and  S2_14 
REMARK    8  A    between atoms: S2_14  and  C12_15 
REMARK    9  A    between atoms: C12_15  and  C13_16 
REMARK   10  A    between atoms: C13_16  and  C14_17 
REMARK   11  A    between atoms: C18_27  and  O2_28 
REMARK   12  A    between atoms: C19_30  and  C20_31 
ROOT
HETATM    1  C6  UNL     1      -0.606   2.890  14.333  1.00  0.00    -0.006 C 
HETATM    2  C7  UNL     1      -1.269   1.762  14.248  1.00  0.00     0.049 C 
ENDROOT
BRANCH   2   3
HETATM    3  C8  UNL     1      -2.669   1.544  14.385  1.00  0.00     0.179 C 
HETATM    4  O1  UNL     1      -3.097   0.789  15.325  1.00  0.00    -0.291 OA
BRANCH   3   5
HETATM    5  C9  UNL     1      -3.750   2.115  13.522  1.00  0.00     0.260 C 
HETATM    6  C10 UNL     1      -3.485   1.735  12.110  1.00  0.00     0.058 C 
HETATM    7  C11 UNL     1      -3.844   2.956  11.302  1.00  0.00     0.075 C 
HETATM    8  C17 UNL     1      -3.753   4.072  12.272  1.00  0.00     0.248 C 
HETATM    9  N2  UNL     1      -3.804   3.523  13.590  1.00  0.00    -0.063 N 
ATOM     10  H22 UNL     1      -4.616   3.851  14.112  1.00  0.00     0.278 HD
ATOM     11  H21 UNL     1      -3.077   3.907  14.193  1.00  0.00     0.278 HD
BRANCH   7  12
HETATM   12  S2  UNL     1      -5.375   2.684  10.467  1.00  0.00    -0.162 SA
BRANCH  12  13
HETATM   13  C12 UNL     1      -5.367   2.497   8.713  1.00  0.00     0.081 C 
BRANCH  13  14
HETATM   14  C13 UNL     1      -4.113   3.045   8.079  1.00  0.00     0.075 C 
BRANCH  14  15
HETATM   15  C14 UNL     1      -4.520   4.024   7.001  1.00  0.00     0.051 A 
HETATM   16  N1  UNL     1      -5.617   4.066   6.265  1.00  0.00    -0.363 N 
HETATM   17  C15 UNL     1      -5.776   5.000   5.388  1.00  0.00     0.095 A 
ATOM     18  H1  UNL     1      -6.340   3.357   6.390  1.00  0.00     0.165 HD
HETATM   19  C16 UNL     1      -4.772   5.930   5.258  1.00  0.00     0.068 A 
HETATM   20  S3  UNL     1      -3.650   5.381   6.431  1.00  0.00    -0.087 SA
ENDBRANCH  14  15
ENDBRANCH  13  14
ENDBRANCH  12  13
ENDBRANCH   7  12
ENDBRANCH   3   5
ENDBRANCH   2   3
BRANCH   1  21
HETATM   21  C5  UNL     1       0.934   2.899  14.147  1.00  0.00     0.033 C 
HETATM   22  C18 UNL     1       1.477   1.627  14.626  1.00  0.00     0.155 C 
HETATM   23  C19 UNL     1       2.358   2.393  15.586  1.00  0.00     0.088 A 
HETATM   24  C21 UNL     1       1.610   3.624  15.299  1.00  0.00     0.036 A 
HETATM   25  C22 UNL     1       1.630   3.117  16.662  1.00  0.00    -0.021 A 
HETATM   26  C23 UNL     1       0.501   2.413  17.346  1.00  0.00     0.016 C 
HETATM   27  C24 UNL     1       2.560   3.832  17.633  1.00  0.00     0.016 C 
BRANCH  21  28
HETATM   28  C4  UNL     1       1.155   3.458  12.819  1.00  0.00     0.024 C 
BRANCH  28  29
HETATM   29  S1  UNL     1       0.001   4.430  11.983  1.00  0.00    -0.203 SA
HETATM   30  C3  UNL     1      -0.156   6.119  12.561  1.00  0.00     0.082 C 
BRANCH  29  31
HETATM   31  C2  UNL     1       0.579   4.667  10.249  1.00  0.00     0.062 C 
HETATM   32  C1  UNL     1       1.198   6.032  10.176  1.00  0.00     0.015 C 
ENDBRANCH  29  31
ENDBRANCH  28  29
ENDBRANCH  21  28
BRANCH  22  33
HETATM   33  O2  UNL     1       2.040   0.705  13.811  1.00  0.00    -0.393 OA
ATOM     34  H2  UNL     1       1.548   0.203  13.171  1.00  0.00     0.210 HD
ENDBRANCH  22  33
BRANCH  23  35
HETATM   35  C20 UNL     1       3.801   2.249  15.611  1.00  0.00     0.185 C 
HETATM   36  O3  UNL     1       4.635   3.175  15.493  1.00  0.00    -0.647 OA
HETATM   37  O4  UNL     1       4.327   0.968  15.782  1.00  0.00    -0.647 OA
ENDBRANCH  23  35
ENDBRANCH   1  21
TORSDOF 12
ENDMDL
MODEL 4
REMARK VINA RESULT: -7.367655729      1.394      1.866
REMARK  12 active torsions:
REMARK  status: ('A' for Active; 'I' for Inactive)
REMARK    1  A    between atoms: C2_2  and  S1_3 
REMARK    2  A    between atoms: S1_3  and  C4_5 
REMARK    3  A    between atoms: C4_5  and  C5_6 
REMARK    4  A    between atoms: C5_6  and  C6_7 
REMARK    5  A    between atoms: C7_8  and  C8_9 
REMARK    6  A    between atoms: C8_9  and  C9_11 
REMARK    7  A    between atoms: C11_13  and  S2_14 
REMARK    8  A    between atoms: S2_14  and  C12_15 
REMARK    9  A    between atoms: C12_15  and  C13_16 
REMARK   10  A    between atoms: C13_16  and  C14_17 
REMARK   11  A    between atoms: C18_27  and  O2_28 
REMARK   12  A    between atoms: C19_30  and  C20_31 
ROOT
HETATM    1  C6  UNL     1      -4.080   5.264   8.042  1.00  0.00    -0.006 C 
HETATM    2  C7  UNL     1      -3.867   4.947   6.788  1.00  0.00     0.049 C 
ENDROOT
BRANCH   2   3
HETATM    3  C8  UNL     1      -3.822   5.803   5.652  1.00  0.00     0.179 C 
HETATM    4  O1  UNL     1      -2.710   5.984   5.046  1.00  0.00    -0.291 OA
BRANCH   3   5
HETATM    5  C9  UNL     1      -4.971   6.552   5.054  1.00  0.00     0.260 C 
HETATM    6  C10 UNL     1      -5.847   5.591   4.335  1.00  0.00     0.058 C 
HETATM    7  C11 UNL     1      -6.278   6.314   3.084  1.00  0.00     0.075 C 
HETATM    8  C17 UNL     1      -5.240   7.352   2.891  1.00  0.00     0.248 C 
HETATM    9  N2  UNL     1      -4.551   7.532   4.129  1.00  0.00    -0.063 N 
ATOM     10  H22 UNL     1      -4.661   8.477   4.496  1.00  0.00     0.278 HD
ATOM     11  H21 UNL     1      -3.539   7.537   4.008  1.00  0.00     0.278 HD
BRANCH   7  12
HETATM   12  S2  UNL     1      -7.961   6.818   3.241  1.00  0.00    -0.162 SA
BRANCH  12  13
HETATM   13  C12 UNL     1      -8.963   6.069   4.483  1.00  0.00     0.081 C 
BRANCH  13  14
HETATM   14  C13 UNL     1      -9.428   4.686   4.095  1.00  0.00     0.075 C 
BRANCH  14  15
HETATM   15  C14 UNL     1     -10.916   4.603   4.346  1.00  0.00     0.051 A 
HETATM   16  N1  UNL     1     -11.609   3.731   5.058  1.00  0.00    -0.363 N 
HETATM   17  C15 UNL     1     -12.892   3.840   5.150  1.00  0.00     0.095 A 
ATOM     18  H1  UNL     1     -11.127   2.969   5.536  1.00  0.00     0.165 HD
HETATM   19  C16 UNL     1     -13.493   4.883   4.487  1.00  0.00     0.068 A 
HETATM   20  S3  UNL     1     -12.139   5.647   3.765  1.00  0.00    -0.087 SA
ENDBRANCH  14  15
ENDBRANCH  13  14
ENDBRANCH  12  13
ENDBRANCH   7  12
ENDBRANCH   3   5
ENDBRANCH   2   3
BRANCH   1  21
HETATM   21  C5  UNL     1      -4.086   4.159   9.130  1.00  0.00     0.033 C 
HETATM   22  C18 UNL     1      -3.932   4.787  10.444  1.00  0.00     0.155 C 
HETATM   23  C19 UNL     1      -2.703   3.939  10.679  1.00  0.00     0.088 A 
HETATM   24  C21 UNL     1      -2.708   3.532   9.267  1.00  0.00     0.036 A 
HETATM   25  C22 UNL     1      -1.552   4.245   9.787  1.00  0.00    -0.021 A 
HETATM   26  C23 UNL     1      -1.225   5.681   9.527  1.00  0.00     0.016 C 
HETATM   27  C24 UNL     1      -0.322   3.400  10.093  1.00  0.00     0.016 C 
BRANCH  21  28
HETATM   28  C4  UNL     1      -5.167   3.257   8.754  1.00  0.00     0.024 C 
BRANCH  28  29
HETATM   29  S1  UNL     1      -6.828   3.716   8.710  1.00  0.00    -0.203 SA
HETATM   30  C3  UNL     1      -7.689   3.377   7.176  1.00  0.00     0.082 C 
BRANCH  29  31
HETATM   31  C2  UNL     1      -7.758   2.673   9.913  1.00  0.00     0.062 C 
HETATM   32  C1  UNL     1      -8.582   1.709   9.111  1.00  0.00     0.015 C 
ENDBRANCH  29  31
ENDBRANCH  28  29
ENDBRANCH  21  28
BRANCH  22  33
HETATM   33  O2  UNL     1      -4.909   4.800  11.381  1.00  0.00    -0.393 OA
ATOM     34  H2  UNL     1      -4.759   5.042  12.288  1.00  0.00     0.210 HD
ENDBRANCH  22  33
BRANCH  23  35
HETATM   35  C20 UNL     1      -2.562   3.063  11.825  1.00  0.00     0.185 C 
HETATM   36  O3  UNL     1      -2.058   3.371  12.930  1.00  0.00    -0.647 OA
HETATM   37  O4  UNL     1      -3.023   1.751  11.707  1.00  0.00    -0.647 OA
ENDBRANCH  23  35
ENDBRANCH   1  21
TORSDOF 12
ENDMDL
MODEL 5
REMARK VINA RESULT: -7.329018507      4.502      9.095
REMARK  12 active torsions:
REMARK  status: ('A' for Active; 'I' for Inactive)
REMARK    1  A    between atoms: C2_2  and  S1_3 
REMARK    2  A    between atoms: S1_3  and  C4_5 
REMARK    3  A    between atoms: C4_5  and  C5_6 
REMARK    4  A    between atoms: C5_6  and  C6_7 
REMARK    5  A    between atoms: C7_8  and  C8_9 
REMARK    6  A    between atoms: C8_9  and  C9_11 
REMARK    7  A    between atoms: C11_13  and  S2_14 
REMARK    8  A    between atoms: S2_14  and  C12_15 
REMARK    9  A    between atoms: C12_15  and  C13_16 
REMARK   10  A    between atoms: C13_16  and  C14_17 
REMARK   11  A    between atoms: C18_27  and  O2_28 
REMARK   12  A    between atoms: C19_30  and  C20_31 
ROOT
HETATM    1  C6  UNL     1      -4.113   4.223   7.470  1.00  0.00    -0.006 C 
HETATM    2  C7  UNL     1      -3.629   4.594   8.630  1.00  0.00     0.049 C 
ENDROOT
BRANCH   2   3
HETATM    3  C8  UNL     1      -2.538   4.038   9.355  1.00  0.00     0.179 C 
HETATM    4  O1  UNL     1      -1.344   4.396   9.066  1.00  0.00    -0.291 OA
BRANCH   3   5
HETATM    5  C9  UNL     1      -2.622   3.037  10.464  1.00  0.00     0.260 C 
HETATM    6  C10 UNL     1      -3.816   3.343  11.295  1.00  0.00     0.058 C 
HETATM    7  C11 UNL     1      -3.376   3.099  12.717  1.00  0.00     0.075 C 
HETATM    8  C17 UNL     1      -1.901   3.214  12.664  1.00  0.00     0.248 C 
HETATM    9  N2  UNL     1      -1.489   3.068  11.304  1.00  0.00    -0.063 N 
ATOM     10  H22 UNL     1      -0.889   2.254  11.170  1.00  0.00     0.278 HD
ATOM     11  H21 UNL     1      -0.824   3.789  11.025  1.00  0.00     0.278 HD
BRANCH   7  12
HETATM   12  S2  UNL     1      -4.087   1.595  13.306  1.00  0.00    -0.162 SA
BRANCH  12  13
HETATM   13  C12 UNL     1      -4.436   1.434  15.027  1.00  0.00     0.081 C 
BRANCH  13  14
HETATM   14  C13 UNL     1      -3.516   0.454  15.714  1.00  0.00     0.075 C 
BRANCH  14  15
HETATM   15  C14 UNL     1      -2.620   1.230  16.652  1.00  0.00     0.051 A 
HETATM   16  N1  UNL     1      -1.889   2.307  16.428  1.00  0.00    -0.363 N 
HETATM   17  C15 UNL     1      -1.185   2.825  17.379  1.00  0.00     0.095 A 
ATOM     18  H1  UNL     1      -1.880   2.732  15.501  1.00  0.00     0.165 HD
HETATM   19  C16 UNL     1      -1.230   2.215  18.610  1.00  0.00     0.068 A 
HETATM   20  S3  UNL     1      -2.304   0.915  18.303  1.00  0.00    -0.087 SA
ENDBRANCH  14  15
ENDBRANCH  13  14
ENDBRANCH  12  13
ENDBRANCH   7  12
ENDBRANCH   3   5
ENDBRANCH   2   3
BRANCH   1  21
HETATM   21  C5  UNL     1      -5.320   4.979   6.856  1.00  0.00     0.033 C 
HETATM   22  C18 UNL     1      -5.401   4.664   5.429  1.00  0.00     0.155 C 
HETATM   23  C19 UNL     1      -5.303   6.141   5.122  1.00  0.00     0.088 A 
HETATM   24  C21 UNL     1      -4.943   6.413   6.521  1.00  0.00     0.036 A 
HETATM   25  C22 UNL     1      -4.000   6.767   5.472  1.00  0.00    -0.021 A 
HETATM   26  C23 UNL     1      -2.747   6.020   5.138  1.00  0.00     0.016 C 
HETATM   27  C24 UNL     1      -3.930   8.242   5.100  1.00  0.00     0.016 C 
BRANCH  21  28
HETATM   28  C4  UNL     1      -6.405   4.809   7.815  1.00  0.00     0.024 C 
BRANCH  28  29
HETATM   29  S1  UNL     1      -7.013   3.274   8.314  1.00  0.00    -0.203 SA
HETATM   30  C3  UNL     1      -7.328   3.096  10.069  1.00  0.00     0.082 C 
BRANCH  29  31
HETATM   31  C2  UNL     1      -8.695   3.046   7.595  1.00  0.00     0.062 C 
HETATM   32  C1  UNL     1      -8.620   1.870   6.667  1.00  0.00     0.015 C 
ENDBRANCH  29  31
ENDBRANCH  28  29
ENDBRANCH  21  28
BRANCH  22  33
HETATM   33  O2  UNL     1      -6.410   3.945   4.882  1.00  0.00    -0.393 OA
ATOM     34  H2  UNL     1      -6.930   4.252   4.148  1.00  0.00     0.210 HD
ENDBRANCH  22  33
BRANCH  23  35
HETATM   35  C20 UNL     1      -6.297   6.847   4.337  1.00  0.00     0.185 C 
HETATM   36  O3  UNL     1      -6.143   7.281   3.173  1.00  0.00    -0.647 OA
HETATM   37  O4  UNL     1      -7.547   7.073   4.916  1.00  0.00    -0.647 OA
ENDBRANCH  23  35
ENDBRANCH   1  21
TORSDOF 12
ENDMDL
