MODEL 1
REMARK VINA RESULT: -7.560939223      0.000      0.000
REMARK  11 active torsions:
REMARK  status: ('A' for Active; 'I' for Inactive)
REMARK    1  A    between atoms: C2_2  and  C3_3 
REMARK    2  A    between atoms: C3_3  and  C4_4 
REMARK    3  A    between atoms: C4_4  and  C5_5 
REMARK    4  A    between atoms: C5_5  and  N1_6 
REMARK       I    between atoms: N1_6  and  C6_8 
REMARK    5  A    between atoms: C6_8  and  C7_10 
REMARK    6  A    between atoms: C7_10  and  N2_11 
REMARK    7  A    between atoms: C9_13  and  C10_14 
REMARK    8  A    between atoms: C13_19  and  C14_20 
REMARK    9  A    between atoms: N4_27  and  C19_28 
REMARK   10  A    between atoms: C19_28  and  C20_29 
REMARK   11  A    between atoms: C23_32  and  C24_33 
ROOT
HETATM    1  N2  UNL     1      -2.719   1.627  14.260  1.00  0.00    -0.288 N 
HETATM    2  C8  UNL     1      -1.484   2.244  14.041  1.00  0.00     0.067 A 
HETATM    3  C9  UNL     1      -0.452   1.712  14.555  1.00  0.00     0.046 C 
HETATM    4  C15 UNL     1      -1.703   3.322  13.173  1.00  0.00     0.068 A 
HETATM    5  C16 UNL     1      -0.897   4.280  12.793  1.00  0.00    -0.058 C 
HETATM    6  C17 UNL     1       0.496   4.561  13.180  1.00  0.00     0.045 C 
HETATM    7  C18 UNL     1      -1.341   5.162  11.616  1.00  0.00     0.045 C 
HETATM    8  N4  UNL     1      -3.040   3.328  12.893  1.00  0.00    -0.292 N 
HETATM    9  C26 UNL     1      -3.608   2.286  13.569  1.00  0.00     0.330 A 
HETATM   10  O5  UNL     1      -4.837   1.973  13.549  1.00  0.00    -0.246 OA
ENDROOT
BRANCH   1  11
HETATM   11  C7  UNL     1      -2.976   0.472  15.128  1.00  0.00     0.236 C 
BRANCH  11  12
HETATM   12  C6  UNL     1      -3.240   0.845  16.520  1.00  0.00     0.235 C 
HETATM   13  N1  UNL     1      -2.196   1.084  17.448  1.00  0.00    -0.360 N 
ATOM     14  H1  UNL     1      -1.228   0.998  17.141  1.00  0.00     0.162 HD
HETATM   15  O1  UNL     1      -4.425   0.961  16.938  1.00  0.00    -0.272 OA
BRANCH  13  16
HETATM   16  C5  UNL     1      -2.474   1.452  18.839  1.00  0.00     0.122 C 
BRANCH  16  17
HETATM   17  C4  UNL     1      -1.651   0.596  19.723  1.00  0.00     0.020 C 
BRANCH  17  18
HETATM   18  C3  UNL     1      -1.776   0.738  21.185  1.00  0.00     0.001 C 
BRANCH  18  19
HETATM   19  C2  UNL     1      -1.481  -0.441  22.040  1.00  0.00    -0.004 C 
HETATM   20  C1  UNL     1      -0.810  -1.597  21.396  1.00  0.00     0.005 C 
ENDBRANCH  18  19
ENDBRANCH  17  18
ENDBRANCH  16  17
ENDBRANCH  13  16
ENDBRANCH  11  12
ENDBRANCH   1  11
BRANCH   3  21
HETATM   21  C10 UNL     1       0.954   1.770  14.734  1.00  0.00    -0.000 A 
HETATM   22  C11 UNL     1       1.913   1.147  13.929  1.00  0.00     0.100 A 
HETATM   23  N3  UNL     1       3.120   1.511  14.376  1.00  0.00    -0.373 N 
HETATM   24  C12 UNL     1       3.008   2.332  15.419  1.00  0.00     0.106 A 
ATOM     25  H3  UNL     1       4.005   1.203  13.972  1.00  0.00     0.164 HD
HETATM   26  C13 UNL     1       1.669   2.515  15.670  1.00  0.00     0.067 A 
BRANCH  26  27
HETATM   27  C14 UNL     1       1.064   3.322  16.715  1.00  0.00     0.211 C 
HETATM   28  O2  UNL     1       0.428   2.778  17.631  1.00  0.00    -0.644 OA
HETATM   29  O3  UNL     1       1.207   4.689  16.673  1.00  0.00    -0.644 OA
ENDBRANCH  26  27
ENDBRANCH   3  21
BRANCH   8  30
HETATM   30  C19 UNL     1      -3.929   4.202  12.203  1.00  0.00     0.180 C 
BRANCH  30  31
HETATM   31  C20 UNL     1      -4.528   3.417  11.030  1.00  0.00     0.002 A 
HETATM   32  C21 UNL     1      -3.853   2.766  10.031  1.00  0.00     0.018 A 
HETATM   33  C22 UNL     1      -4.591   2.116   9.101  1.00  0.00     0.024 A 
HETATM   34  C23 UNL     1      -5.949   2.162   9.233  1.00  0.00     0.050 A 
HETATM   35  S1  UNL     1      -6.156   3.102  10.636  1.00  0.00    -0.089 SA
BRANCH  34  36
HETATM   36  C24 UNL     1      -6.970   1.546   8.367  1.00  0.00     0.162 C 
HETATM   37  C25 UNL     1      -8.116   2.323   7.939  1.00  0.00     0.097 C 
HETATM   38  O4  UNL     1      -6.803   0.361   8.032  1.00  0.00    -0.292 OA
ENDBRANCH  34  36
ENDBRANCH  30  31
ENDBRANCH   8  30
TORSDOF 11
ENDMDL
MODEL 2
REMARK VINA RESULT: -7.202178960      6.827     11.224
REMARK  11 active torsions:
REMARK  status: ('A' for Active; 'I' for Inactive)
REMARK    1  A    between atoms: C2_2  and  C3_3 
REMARK    2  A    between atoms: C3_3  and  C4_4 
REMARK    3  A    between atoms: C4_4  and  C5_5 
REMARK    4  A    between atoms: C5_5  and  N1_6 
REMARK       I    between atoms: N1_6  and  C6_8 
REMARK    5  A    between atoms: C6_8  and  C7_10 
REMARK    6  A    between atoms: C7_10  and  N2_11 
REMARK    7  A    between atoms: C9_13  and  C10_14 
REMARK    8  A    between atoms: C13_19  and  C14_20 
REMARK    9  A    between atoms: N4_27  and  C19_28 
REMARK   10  A    between atoms: C19_28  and  C20_29 
REMARK   11  A    between atoms: C23_32  and  C24_33 
ROOT
HETATM    1  N2  UNL     1      -8.683   3.718   5.771  1.00  0.00    -0.288 N 
HETATM    2  C8  UNL     1      -8.084   4.770   5.073  1.00  0.00     0.067 A 
HETATM    3  C9  UNL     1      -6.815   4.820   5.042  1.00  0.00     0.046 C 
HETATM    4  C15 UNL     1      -9.109   5.507   4.466  1.00  0.00     0.068 A 
HETATM    5  C16 UNL     1      -9.070   6.653   3.836  1.00  0.00    -0.058 C 
HETATM    6  C17 UNL     1      -7.939   7.563   3.587  1.00  0.00     0.045 C 
HETATM    7  C18 UNL     1     -10.313   7.072   3.038  1.00  0.00     0.045 C 
HETATM    8  N4  UNL     1     -10.281   4.891   4.805  1.00  0.00    -0.292 N 
HETATM    9  C26 UNL     1      -9.971   3.817   5.590  1.00  0.00     0.330 A 
HETATM   10  O5  UNL     1     -10.804   3.003   6.092  1.00  0.00    -0.246 OA
ENDROOT
BRANCH   1  11
HETATM   11  C7  UNL     1      -7.996   2.706   6.583  1.00  0.00     0.236 C 
BRANCH  11  12
HETATM   12  C6  UNL     1      -7.690   3.167   7.940  1.00  0.00     0.235 C 
HETATM   13  N1  UNL     1      -6.360   3.376   8.384  1.00  0.00    -0.360 N 
ATOM     14  H1  UNL     1      -5.588   3.204   7.740  1.00  0.00     0.162 HD
HETATM   15  O1  UNL     1      -8.618   3.390   8.765  1.00  0.00    -0.272 OA
BRANCH  13  16
HETATM   16  C5  UNL     1      -6.068   3.833   9.745  1.00  0.00     0.122 C 
BRANCH  16  17
HETATM   17  C4  UNL     1      -5.707   2.654  10.566  1.00  0.00     0.020 C 
BRANCH  17  18
HETATM   18  C3  UNL     1      -4.527   2.722  11.446  1.00  0.00     0.001 C 
BRANCH  18  19
HETATM   19  C2  UNL     1      -3.384   1.814  11.171  1.00  0.00    -0.004 C 
HETATM   20  C1  UNL     1      -2.800   1.848   9.808  1.00  0.00     0.005 C 
ENDBRANCH  18  19
ENDBRANCH  17  18
ENDBRANCH  16  17
ENDBRANCH  13  16
ENDBRANCH  11  12
ENDBRANCH   1  11
BRANCH   3  21
HETATM   21  C10 UNL     1      -5.661   5.507   4.587  1.00  0.00    -0.000 A 
HETATM   22  C11 UNL     1      -5.359   5.818   3.257  1.00  0.00     0.100 A 
HETATM   23  N3  UNL     1      -4.233   6.540   3.252  1.00  0.00    -0.373 N 
HETATM   24  C12 UNL     1      -3.783   6.718   4.494  1.00  0.00     0.106 A 
ATOM     25  H3  UNL     1      -3.780   6.903   2.413  1.00  0.00     0.164 HD
HETATM   26  C13 UNL     1      -4.650   6.087   5.352  1.00  0.00     0.067 A 
BRANCH  26  27
HETATM   27  C14 UNL     1      -4.565   6.005   6.799  1.00  0.00     0.211 C 
HETATM   28  O2  UNL     1      -3.562   5.509   7.336  1.00  0.00    -0.644 OA
HETATM   29  O3  UNL     1      -5.606   6.484   7.560  1.00  0.00    -0.644 OA
ENDBRANCH  26  27
ENDBRANCH   3  21
BRANCH   8  30
HETATM   30  C19 UNL     1     -11.666   5.182   4.639  1.00  0.00     0.180 C 
BRANCH  30  31
HETATM   31  C20 UNL     1     -12.296   4.005   3.885  1.00  0.00     0.002 A 
HETATM   32  C21 UNL     1     -13.525   3.438   4.102  1.00  0.00     0.018 A 
HETATM   33  C22 UNL     1     -13.888   2.411   3.298  1.00  0.00     0.024 A 
HETATM   34  C23 UNL     1     -13.001   2.024   2.335  1.00  0.00     0.050 A 
HETATM   35  S1  UNL     1     -11.698   3.091   2.577  1.00  0.00    -0.089 SA
BRANCH  34  36
HETATM   36  C24 UNL     1     -13.148   0.946   1.340  1.00  0.00     0.162 C 
HETATM   37  C25 UNL     1     -14.141  -0.089   1.543  1.00  0.00     0.097 C 
HETATM   38  O4  UNL     1     -12.400   0.970   0.349  1.00  0.00    -0.292 OA
ENDBRANCH  34  36
ENDBRANCH  30  31
ENDBRANCH   8  30
TORSDOF 11
ENDMDL
MODEL 3
REMARK VINA RESULT: -7.176182259      1.393      1.839
REMARK  11 active torsions:
REMARK  status: ('A' for Active; 'I' for Inactive)
REMARK    1  A    between atoms: C2_2  and  C3_3 
REMARK    2  A    between atoms: C3_3  and  C4_4 
REMARK    3  A    between atoms: C4_4  and  C5_5 
REMARK    4  A    between atoms: C5_5  and  N1_6 
REMARK       I    between atoms: N1_6  and  C6_8 
REMARK    5  A    between atoms: C6_8  and  C7_10 
REMARK    6  A    between atoms: C7_10  and  N2_11 
REMARK    7  A    between atoms: C9_13  and  C10_14 
REMARK    8  A    between atoms: C13_19  and  C14_20 
REMARK    9  A    between atoms: N4_27  and  C19_28 
REMARK   10  A    between atoms: C19_28  and  C20_29 
REMARK   11  A    between atoms: C23_32  and  C24_33 
ROOT
HETATM    1  N2  UNL     1      -2.757   3.525  13.391  1.00  0.00    -0.288 N 
HETATM    2  C8  UNL     1      -1.388   3.365  13.157  1.00  0.00     0.067 A 
HETATM    3  C9  UNL     1      -0.690   2.803  14.058  1.00  0.00     0.046 C 
HETATM    4  C15 UNL     1      -1.130   3.818  11.857  1.00  0.00     0.068 A 
HETATM    5  C16 UNL     1       0.006   4.009  11.236  1.00  0.00    -0.058 C 
HETATM    6  C17 UNL     1       1.389   3.843  11.713  1.00  0.00     0.045 C 
HETATM    7  C18 UNL     1      -0.040   4.248   9.720  1.00  0.00     0.045 C 
HETATM    8  N4  UNL     1      -2.328   4.230  11.346  1.00  0.00    -0.292 N 
HETATM    9  C26 UNL     1      -3.278   4.031  12.308  1.00  0.00     0.330 A 
HETATM   10  O5  UNL     1      -4.513   4.294  12.193  1.00  0.00    -0.246 OA
ENDROOT
BRANCH   1  11
HETATM   11  C7  UNL     1      -3.472   3.211  14.634  1.00  0.00     0.236 C 
BRANCH  11  12
HETATM   12  C6  UNL     1      -3.262   1.833  15.087  1.00  0.00     0.235 C 
HETATM   13  N1  UNL     1      -2.670   1.534  16.340  1.00  0.00    -0.360 N 
ATOM     14  H1  UNL     1      -2.381   2.298  16.949  1.00  0.00     0.162 HD
HETATM   15  O1  UNL     1      -3.606   0.860  14.361  1.00  0.00    -0.272 OA
BRANCH  13  16
HETATM   16  C5  UNL     1      -2.461   0.151  16.779  1.00  0.00     0.122 C 
BRANCH  16  17
HETATM   17  C4  UNL     1      -1.904   0.175  18.151  1.00  0.00     0.020 C 
BRANCH  17  18
HETATM   18  C3  UNL     1      -2.273   1.275  19.060  1.00  0.00     0.001 C 
BRANCH  18  19
HETATM   19  C2  UNL     1      -1.913   1.158  20.497  1.00  0.00    -0.004 C 
HETATM   20  C1  UNL     1      -1.567  -0.192  21.004  1.00  0.00     0.005 C 
ENDBRANCH  18  19
ENDBRANCH  17  18
ENDBRANCH  16  17
ENDBRANCH  13  16
ENDBRANCH  11  12
ENDBRANCH   1  11
BRANCH   3  21
HETATM   21  C10 UNL     1       0.593   2.358  14.465  1.00  0.00    -0.000 A 
HETATM   22  C11 UNL     1       1.396   1.432  13.792  1.00  0.00     0.100 A 
HETATM   23  N3  UNL     1       2.558   1.345  14.448  1.00  0.00    -0.373 N 
HETATM   24  C12 UNL     1       2.563   2.155  15.506  1.00  0.00     0.106 A 
ATOM     25  H3  UNL     1       3.334   0.740  14.176  1.00  0.00     0.164 HD
HETATM   26  C13 UNL     1       1.353   2.804  15.546  1.00  0.00     0.067 A 
BRANCH  26  27
HETATM   27  C14 UNL     1       0.899   3.777  16.524  1.00  0.00     0.211 C 
HETATM   28  O2  UNL     1       1.519   4.841  16.676  1.00  0.00    -0.644 OA
HETATM   29  O3  UNL     1      -0.221   3.502  17.273  1.00  0.00    -0.644 OA
ENDBRANCH  26  27
ENDBRANCH   3  21
BRANCH   8  30
HETATM   30  C19 UNL     1      -2.751   4.899  10.161  1.00  0.00     0.180 C 
BRANCH  30  31
HETATM   31  C20 UNL     1      -3.844   4.041   9.513  1.00  0.00     0.002 A 
HETATM   32  C21 UNL     1      -3.757   2.726   9.134  1.00  0.00     0.018 A 
HETATM   33  C22 UNL     1      -4.862   2.159   8.595  1.00  0.00     0.024 A 
HETATM   34  C23 UNL     1      -5.973   2.943   8.472  1.00  0.00     0.050 A 
HETATM   35  S1  UNL     1      -5.451   4.433   9.105  1.00  0.00    -0.089 SA
BRANCH  34  36
HETATM   36  C24 UNL     1      -7.291   2.575   7.924  1.00  0.00     0.162 C 
HETATM   37  C25 UNL     1      -7.975   1.399   8.422  1.00  0.00     0.097 C 
HETATM   38  O4  UNL     1      -7.771   3.303   7.039  1.00  0.00    -0.292 OA
ENDBRANCH  34  36
ENDBRANCH  30  31
ENDBRANCH   8  30
TORSDOF 11
ENDMDL
MODEL 4
REMARK VINA RESULT: -7.165499745      2.835      7.051
REMARK  11 active torsions:
REMARK  status: ('A' for Active; 'I' for Inactive)
REMARK    1  A    between atoms: C2_2  and  C3_3 
REMARK    2  A    between atoms: C3_3  and  C4_4 
REMARK    3  A    between atoms: C4_4  and  C5_5 
REMARK    4  A    between atoms: C5_5  and  N1_6 
REMARK       I    between atoms: N1_6  and  C6_8 
REMARK    5  A    between atoms: C6_8  and  C7_10 
REMARK    6  A    between atoms: C7_10  and  N2_11 
REMARK    7  A    between atoms: C9_13  and  C10_14 
REMARK    8  A    between atoms: C13_19  and  C14_20 
REMARK    9  A    between atoms: N4_27  and  C19_28 
REMARK   10  A    between atoms: C19_28  and  C20_29 
REMARK   11  A    between atoms: C23_32  and  C24_33 
ROOT
HETATM    1  N2  UNL     1      -2.008   2.387  14.360  1.00  0.00    -0.288 N 
HETATM    2  C8  UNL     1      -1.763   2.734  13.028  1.00  0.00     0.067 A 
HETATM    3  C9  UNL     1      -2.595   2.352  12.148  1.00  0.00     0.046 C 
HETATM    4  C15 UNL     1      -0.625   3.552  13.012  1.00  0.00     0.068 A 
HETATM    5  C16 UNL     1       0.078   4.004  12.005  1.00  0.00    -0.058 C 
HETATM    6  C17 UNL     1      -0.075   3.774  10.559  1.00  0.00     0.045 C 
HETATM    7  C18 UNL     1       1.108   5.107  12.292  1.00  0.00     0.045 C 
HETATM    8  N4  UNL     1      -0.220   3.677  14.310  1.00  0.00    -0.292 N 
HETATM    9  C26 UNL     1      -1.087   2.959  15.084  1.00  0.00     0.330 A 
HETATM   10  O5  UNL     1      -1.031   2.845  16.346  1.00  0.00    -0.246 OA
ENDROOT
BRANCH   1  11
HETATM   11  C7  UNL     1      -3.082   1.516  14.851  1.00  0.00     0.236 C 
BRANCH  11  12
HETATM   12  C6  UNL     1      -2.698   0.735  16.030  1.00  0.00     0.235 C 
HETATM   13  N1  UNL     1      -2.951   1.188  17.349  1.00  0.00    -0.360 N 
ATOM     14  H1  UNL     1      -3.418   2.084  17.487  1.00  0.00     0.162 HD
HETATM   15  O1  UNL     1      -2.119  -0.378  15.900  1.00  0.00    -0.272 OA
BRANCH  13  16
HETATM   16  C5  UNL     1      -2.558   0.400  18.520  1.00  0.00     0.122 C 
BRANCH  16  17
HETATM   17  C4  UNL     1      -1.987   1.318  19.532  1.00  0.00     0.020 C 
BRANCH  17  18
HETATM   18  C3  UNL     1      -1.902   0.881  20.937  1.00  0.00     0.001 C 
BRANCH  18  19
HETATM   19  C2  UNL     1      -1.578  -0.542  21.218  1.00  0.00    -0.004 C 
HETATM   20  C1  UNL     1      -0.175  -0.975  21.005  1.00  0.00     0.005 C 
ENDBRANCH  18  19
ENDBRANCH  17  18
ENDBRANCH  16  17
ENDBRANCH  13  16
ENDBRANCH  11  12
ENDBRANCH   1  11
BRANCH   3  21
HETATM   21  C10 UNL     1      -2.954   2.333  10.777  1.00  0.00    -0.000 A 
HETATM   22  C11 UNL     1      -2.648   1.324   9.859  1.00  0.00     0.100 A 
HETATM   23  N3  UNL     1      -3.232   1.637   8.697  1.00  0.00    -0.373 N 
HETATM   24  C12 UNL     1      -3.899   2.786   8.800  1.00  0.00     0.106 A 
ATOM     25  H3  UNL     1      -3.174   1.073   7.848  1.00  0.00     0.164 HD
HETATM   26  C13 UNL     1      -3.747   3.248  10.085  1.00  0.00     0.067 A 
BRANCH  26  27
HETATM   27  C14 UNL     1      -4.288   4.467  10.660  1.00  0.00     0.211 C 
HETATM   28  O2  UNL     1      -3.523   5.339  11.102  1.00  0.00    -0.644 OA
HETATM   29  O3  UNL     1      -5.651   4.639  10.704  1.00  0.00    -0.644 OA
ENDBRANCH  26  27
ENDBRANCH   3  21
BRANCH   8  30
HETATM   30  C19 UNL     1       0.907   4.245  14.972  1.00  0.00     0.180 C 
BRANCH  30  31
HETATM   31  C20 UNL     1       1.964   3.141  15.108  1.00  0.00     0.002 A 
HETATM   32  C21 UNL     1       1.947   1.896  14.535  1.00  0.00     0.018 A 
HETATM   33  C22 UNL     1       3.004   1.086  14.778  1.00  0.00     0.024 A 
HETATM   34  C23 UNL     1       4.000   1.574  15.574  1.00  0.00     0.050 A 
HETATM   35  S1  UNL     1       3.441   3.133  15.957  1.00  0.00    -0.089 SA
BRANCH  34  36
HETATM   36  C24 UNL     1       5.245   0.903  15.989  1.00  0.00     0.162 C 
HETATM   37  C25 UNL     1       6.457   1.678  16.164  1.00  0.00     0.097 C 
HETATM   38  O4  UNL     1       5.204  -0.325  16.176  1.00  0.00    -0.292 OA
ENDBRANCH  34  36
ENDBRANCH  30  31
ENDBRANCH   8  30
TORSDOF 11
ENDMDL
MODEL 5
REMARK VINA RESULT: -7.079947096      2.903      6.755
REMARK  11 active torsions:
REMARK  status: ('A' for Active; 'I' for Inactive)
REMARK    1  A    between atoms: C2_2  and  C3_3 
REMARK    2  A    between atoms: C3_3  and  C4_4 
REMARK    3  A    between atoms: C4_4  and  C5_5 
REMARK    4  A    between atoms: C5_5  and  N1_6 
REMARK       I    between atoms: N1_6  and  C6_8 
REMARK    5  A    between atoms: C6_8  and  C7_10 
REMARK    6  A    between atoms: C7_10  and  N2_11 
REMARK    7  A    between atoms: C9_13  and  C10_14 
REMARK    8  A    between atoms: C13_19  and  C14_20 
REMARK    9  A    between atoms: N4_27  and  C19_28 
REMARK   10  A    between atoms: C19_28  and  C20_29 
REMARK   11  A    between atoms: C23_32  and  C24_33 
ROOT
HETATM    1  N2  UNL     1       1.093   2.574  16.464  1.00  0.00    -0.288 N 
HETATM    2  C8  UNL     1       0.562   2.682  17.752  1.00  0.00     0.067 A 
HETATM    3  C9  UNL     1       1.171   3.419  18.589  1.00  0.00     0.046 C 
HETATM    4  C15 UNL     1      -0.643   1.968  17.769  1.00  0.00     0.068 A 
HETATM    5  C16 UNL     1      -1.426   1.652  18.769  1.00  0.00    -0.058 C 
HETATM    6  C17 UNL     1      -1.281   1.915  20.210  1.00  0.00     0.045 C 
HETATM    7  C18 UNL     1      -2.821   1.102  18.436  1.00  0.00     0.045 C 
HETATM    8  N4  UNL     1      -0.808   1.458  16.513  1.00  0.00    -0.292 N 
HETATM    9  C26 UNL     1       0.263   1.853  15.763  1.00  0.00     0.330 A 
HETATM   10  O5  UNL     1       0.454   1.571  14.541  1.00  0.00    -0.246 OA
ENDROOT
BRANCH   1  11
HETATM   11  C7  UNL     1       2.363   3.140  15.993  1.00  0.00     0.236 C 
BRANCH  11  12
HETATM   12  C6  UNL     1       2.186   4.275  15.084  1.00  0.00     0.235 C 
HETATM   13  N1  UNL     1       0.924   4.611  14.534  1.00  0.00    -0.360 N 
ATOM     14  H1  UNL     1       0.109   4.050  14.779  1.00  0.00     0.162 HD
HETATM   15  O1  UNL     1       3.170   4.994  14.757  1.00  0.00    -0.272 OA
BRANCH  13  16
HETATM   16  C5  UNL     1       0.761   5.746  13.622  1.00  0.00     0.122 C 
BRANCH  16  17
HETATM   17  C4  UNL     1       0.269   5.236  12.322  1.00  0.00     0.020 C 
BRANCH  17  18
HETATM   18  C3  UNL     1       1.146   4.381  11.503  1.00  0.00     0.001 C 
BRANCH  18  19
HETATM   19  C2  UNL     1       0.577   3.734  10.293  1.00  0.00    -0.004 C 
HETATM   20  C1  UNL     1      -0.805   4.109   9.907  1.00  0.00     0.005 C 
ENDBRANCH  18  19
ENDBRANCH  17  18
ENDBRANCH  16  17
ENDBRANCH  13  16
ENDBRANCH  11  12
ENDBRANCH   1  11
BRANCH   3  21
HETATM   21  C10 UNL     1       1.213   3.940  19.907  1.00  0.00    -0.000 A 
HETATM   22  C11 UNL     1       0.600   5.117  20.348  1.00  0.00     0.100 A 
HETATM   23  N3  UNL     1       0.803   5.215  21.666  1.00  0.00    -0.373 N 
HETATM   24  C12 UNL     1       1.509   4.176  22.112  1.00  0.00     0.106 A 
ATOM     25  H3  UNL     1       0.464   5.980  22.250  1.00  0.00     0.164 HD
HETATM   26  C13 UNL     1       1.781   3.360  21.041  1.00  0.00     0.067 A 
BRANCH  26  27
HETATM   27  C14 UNL     1       2.530   2.116  21.040  1.00  0.00     0.211 C 
HETATM   28  O2  UNL     1       1.967   1.052  21.343  1.00  0.00    -0.644 OA
HETATM   29  O3  UNL     1       3.862   2.136  20.701  1.00  0.00    -0.644 OA
ENDBRANCH  26  27
ENDBRANCH   3  21
BRANCH   8  30
HETATM   30  C19 UNL     1      -1.723   0.556  15.895  1.00  0.00     0.180 C 
BRANCH  30  31
HETATM   31  C20 UNL     1      -2.607   1.376  14.947  1.00  0.00     0.002 A 
HETATM   32  C21 UNL     1      -3.936   1.674  15.096  1.00  0.00     0.018 A 
HETATM   33  C22 UNL     1      -4.514   2.435  14.138  1.00  0.00     0.024 A 
HETATM   34  C23 UNL     1      -3.727   2.843  13.100  1.00  0.00     0.050 A 
HETATM   35  S1  UNL     1      -2.218   2.161  13.486  1.00  0.00    -0.089 SA
BRANCH  34  36
HETATM   36  C24 UNL     1      -4.105   3.670  11.939  1.00  0.00     0.162 C 
HETATM   37  C25 UNL     1      -5.016   3.140  10.945  1.00  0.00     0.097 C 
HETATM   38  O4  UNL     1      -3.617   4.810  11.860  1.00  0.00    -0.292 OA
ENDBRANCH  34  36
ENDBRANCH  30  31
ENDBRANCH   8  30
TORSDOF 11
ENDMDL
