MODEL 1
REMARK VINA RESULT: -7.180264372      0.000      0.000
REMARK  11 active torsions:
REMARK  status: ('A' for Active; 'I' for Inactive)
REMARK    1  A    between atoms: C2_2  and  C4_4 
REMARK    2  A    between atoms: C4_4  and  C5_5 
REMARK    3  A    between atoms: C5_5  and  N1_6 
REMARK    4  A    between atoms: C5_5  and  C17_29 
REMARK       I    between atoms: N1_6  and  C6_8 
REMARK    5  A    between atoms: C6_8  and  C7_10 
REMARK    6  A    between atoms: C7_10  and  N2_11 
REMARK       I    between atoms: N2_11  and  C8_13 
REMARK    7  A    between atoms: C8_13  and  C9_15 
REMARK    8  A    between atoms: C9_15  and  C10_16 
REMARK       I    between atoms: C17_29  and  N5_31 
REMARK    9  A    between atoms: N5_31  and  C18_33 
REMARK   10  A    between atoms: C18_33  and  C19_34 
REMARK   11  A    between atoms: C18_33  and  C20_37 
ROOT
HETATM    1  N1  UNL     1      25.353  10.365 -19.837  1.00  0.00    -0.344 N 
ATOM      2  H1  UNL     1      24.770  10.394 -19.001  1.00  0.00     0.163 HD
HETATM    3  C6  UNL     1      25.253   9.254 -20.712  1.00  0.00     0.275 C 
HETATM    4  O1  UNL     1      25.923   9.166 -21.753  1.00  0.00    -0.269 OA
ENDROOT
BRANCH   3   5
HETATM    5  C7  UNL     1      24.314   8.140 -20.366  1.00  0.00     0.280 C 
HETATM    6  C14 UNL     1      23.203   8.665 -19.534  1.00  0.00     0.074 C 
HETATM    7  C15 UNL     1      21.985   8.635 -20.395  1.00  0.00     0.032 C 
HETATM    8  C16 UNL     1      22.431   8.043 -21.696  1.00  0.00     0.236 C 
HETATM    9  N4  UNL     1      23.766   7.612 -21.550  1.00  0.00    -0.039 N 
ATOM     10  H42 UNL     1      24.333   7.837 -22.367  1.00  0.00     0.280 HD
ATOM     11  H41 UNL     1      23.847   6.596 -21.589  1.00  0.00     0.280 HD
BRANCH   5  12
HETATM   12  N2  UNL     1      25.093   7.125 -19.645  1.00  0.00    -0.320 N 
HETATM   13  C8  UNL     1      24.654   5.830 -19.351  1.00  0.00     0.224 C 
HETATM   14  O2  UNL     1      23.505   5.481 -19.725  1.00  0.00    -0.273 OA
ATOM     15  H2  UNL     1      26.030   7.385 -19.335  1.00  0.00     0.165 HD
BRANCH  13  16
HETATM   16  C9  UNL     1      25.467   4.831 -18.614  1.00  0.00     0.142 C 
BRANCH  16  17
HETATM   17  C10 UNL     1      24.825   4.573 -17.293  1.00  0.00    -0.031 A 
HETATM   18  C11 UNL     1      24.852   5.389 -16.174  1.00  0.00     0.096 A 
HETATM   19  N3  UNL     1      24.157   4.803 -15.179  1.00  0.00    -0.360 N 
HETATM   20  C12 UNL     1      23.672   3.625 -15.608  1.00  0.00     0.080 A 
ATOM     21  H3  UNL     1      24.021   5.193 -14.246  1.00  0.00     0.166 HD
HETATM   22 BR1  UNL     1      22.612   2.405 -14.558  1.00  0.00    -0.031 Br
HETATM   23  C13 UNL     1      24.078   3.470 -16.916  1.00  0.00     0.046 A 
ENDBRANCH  16  17
ENDBRANCH  13  16
ENDBRANCH   5  12
ENDBRANCH   3   5
BRANCH   1  24
HETATM   24  C5  UNL     1      26.254  11.446 -20.101  1.00  0.00     0.177 C 
BRANCH  24  25
HETATM   25  C4  UNL     1      26.086  12.701 -19.341  1.00  0.00     0.038 C 
BRANCH  25  26
HETATM   26  C2  UNL     1      27.265  13.614 -19.259  1.00  0.00    -0.020 C 
HETATM   27  C1  UNL     1      27.341  14.677 -20.302  1.00  0.00     0.009 C 
HETATM   28  C3  UNL     1      27.381  14.226 -17.859  1.00  0.00     0.009 C 
ENDBRANCH  25  26
ENDBRANCH  24  25
BRANCH  24  29
HETATM   29  C17 UNL     1      27.665  10.898 -19.939  1.00  0.00     0.241 C 
HETATM   30  O3  UNL     1      28.038  10.538 -18.807  1.00  0.00    -0.271 OA
HETATM   31  N5  UNL     1      28.530  10.797 -21.041  1.00  0.00    -0.346 N 
ATOM     32  H5  UNL     1      28.216  11.094 -21.965  1.00  0.00     0.163 HD
BRANCH  31  33
HETATM   33  C18 UNL     1      29.870  10.271 -20.864  1.00  0.00     0.177 C 
BRANCH  33  34
HETATM   34  C19 UNL     1      30.118   9.381 -22.027  1.00  0.00     0.254 C 
HETATM   35  N6  UNL     1      30.673   8.102 -21.904  1.00  0.00    -0.060 NA
HETATM   36  O4  UNL     1      29.818   9.794 -23.206  1.00  0.00    -0.275 OA
ENDBRANCH  33  34
BRANCH  33  37
HETATM   37  C20 UNL     1      30.909  11.342 -20.795  1.00  0.00     0.009 C 
HETATM   38  C21 UNL     1      31.331  11.596 -19.384  1.00  0.00     0.012 C 
HETATM   39  C22 UNL     1      30.421  12.645 -21.413  1.00  0.00     0.012 C 
ENDBRANCH  33  37
ENDBRANCH  31  33
ENDBRANCH  24  29
ENDBRANCH   1  24
TORSDOF 11
ENDMDL
MODEL 2
REMARK VINA RESULT: -7.143749195      5.029      8.891
REMARK  11 active torsions:
REMARK  status: ('A' for Active; 'I' for Inactive)
REMARK    1  A    between atoms: C2_2  and  C4_4 
REMARK    2  A    between atoms: C4_4  and  C5_5 
REMARK    3  A    between atoms: C5_5  and  N1_6 
REMARK    4  A    between atoms: C5_5  and  C17_29 
REMARK       I    between atoms: N1_6  and  C6_8 
REMARK    5  A    between atoms: C6_8  and  C7_10 
REMARK    6  A    between atoms: C7_10  and  N2_11 
REMARK       I    between atoms: N2_11  and  C8_13 
REMARK    7  A    between atoms: C8_13  and  C9_15 
REMARK    8  A    between atoms: C9_15  and  C10_16 
REMARK       I    between atoms: C17_29  and  N5_31 
REMARK    9  A    between atoms: N5_31  and  C18_33 
REMARK   10  A    between atoms: C18_33  and  C19_34 
REMARK   11  A    between atoms: C18_33  and  C20_37 
ROOT
HETATM    1  N1  UNL     1      27.751  13.307 -21.715  1.00  0.00    -0.344 N 
ATOM      2  H1  UNL     1      26.885  13.511 -22.214  1.00  0.00     0.163 HD
HETATM    3  C6  UNL     1      28.962  13.204 -22.444  1.00  0.00     0.275 C 
HETATM    4  O1  UNL     1      30.050  12.974 -21.894  1.00  0.00    -0.269 OA
ENDROOT
BRANCH   3   5
HETATM    5  C7  UNL     1      28.929  13.368 -23.933  1.00  0.00     0.280 C 
HETATM    6  C14 UNL     1      29.191  14.786 -24.283  1.00  0.00     0.074 C 
HETATM    7  C15 UNL     1      30.549  14.821 -24.900  1.00  0.00     0.032 C 
HETATM    8  C16 UNL     1      31.012  13.397 -24.927  1.00  0.00     0.236 C 
HETATM    9  N4  UNL     1      29.942  12.578 -24.507  1.00  0.00    -0.039 N 
ATOM     10  H42 UNL     1      30.251  11.836 -23.879  1.00  0.00     0.280 HD
ATOM     11  H41 UNL     1      29.588  11.993 -25.265  1.00  0.00     0.280 HD
BRANCH   5  12
HETATM   12  N2  UNL     1      27.601  12.937 -24.386  1.00  0.00    -0.320 N 
HETATM   13  C8  UNL     1      27.243  12.694 -25.717  1.00  0.00     0.224 C 
HETATM   14  O2  UNL     1      28.111  12.846 -26.614  1.00  0.00    -0.273 OA
ATOM     15  H2  UNL     1      26.882  12.804 -23.675  1.00  0.00     0.165 HD
BRANCH  13  16
HETATM   16  C9  UNL     1      25.887  12.265 -26.140  1.00  0.00     0.142 C 
BRANCH  16  17
HETATM   17  C10 UNL     1      24.964  13.433 -26.038  1.00  0.00    -0.031 A 
HETATM   18  C11 UNL     1      23.596  13.403 -25.823  1.00  0.00     0.096 A 
HETATM   19  N3  UNL     1      23.121  14.664 -25.799  1.00  0.00    -0.360 N 
HETATM   20  C12 UNL     1      24.135  15.525 -25.991  1.00  0.00     0.080 A 
ATOM     21  H3  UNL     1      22.145  14.925 -25.658  1.00  0.00     0.166 HD
HETATM   22 BR1  UNL     1      23.976  17.445 -26.045  1.00  0.00    -0.031 Br
HETATM   23  C13 UNL     1      25.283  14.775 -26.141  1.00  0.00     0.046 A 
ENDBRANCH  16  17
ENDBRANCH  13  16
ENDBRANCH   5  12
ENDBRANCH   3   5
BRANCH   1  24
HETATM   24  C5  UNL     1      27.714  13.131 -20.295  1.00  0.00     0.177 C 
BRANCH  24  25
HETATM   25  C4  UNL     1      27.264  14.260 -19.458  1.00  0.00     0.038 C 
BRANCH  25  26
HETATM   26  C2  UNL     1      28.176  14.711 -18.366  1.00  0.00    -0.020 C 
HETATM   27  C1  UNL     1      27.711  14.442 -16.975  1.00  0.00     0.009 C 
HETATM   28  C3  UNL     1      29.589  14.157 -18.576  1.00  0.00     0.009 C 
ENDBRANCH  25  26
ENDBRANCH  24  25
BRANCH  24  29
HETATM   29  C17 UNL     1      26.880  11.887 -20.023  1.00  0.00     0.241 C 
HETATM   30  O3  UNL     1      26.947  11.358 -18.898  1.00  0.00    -0.271 OA
HETATM   31  N5  UNL     1      26.050  11.343 -21.017  1.00  0.00    -0.346 N 
ATOM     32  H5  UNL     1      26.001  11.783 -21.937  1.00  0.00     0.163 HD
BRANCH  31  33
HETATM   33  C18 UNL     1      25.263  10.158 -20.736  1.00  0.00     0.177 C 
BRANCH  33  34
HETATM   34  C19 UNL     1      23.876  10.477 -21.160  1.00  0.00     0.254 C 
HETATM   35  N6  UNL     1      23.582  11.251 -22.289  1.00  0.00    -0.060 NA
HETATM   36  O4  UNL     1      22.891  10.032 -20.465  1.00  0.00    -0.275 OA
ENDBRANCH  33  34
BRANCH  33  37
HETATM   37  C20 UNL     1      25.764   8.947 -21.453  1.00  0.00     0.009 C 
HETATM   38  C21 UNL     1      26.549   8.063 -20.540  1.00  0.00     0.012 C 
HETATM   39  C22 UNL     1      26.623   9.315 -22.655  1.00  0.00     0.012 C 
ENDBRANCH  33  37
ENDBRANCH  31  33
ENDBRANCH  24  29
ENDBRANCH   1  24
TORSDOF 11
ENDMDL
MODEL 3
REMARK VINA RESULT: -7.115748683      3.222      5.995
REMARK  11 active torsions:
REMARK  status: ('A' for Active; 'I' for Inactive)
REMARK    1  A    between atoms: C2_2  and  C4_4 
REMARK    2  A    between atoms: C4_4  and  C5_5 
REMARK    3  A    between atoms: C5_5  and  N1_6 
REMARK    4  A    between atoms: C5_5  and  C17_29 
REMARK       I    between atoms: N1_6  and  C6_8 
REMARK    5  A    between atoms: C6_8  and  C7_10 
REMARK    6  A    between atoms: C7_10  and  N2_11 
REMARK       I    between atoms: N2_11  and  C8_13 
REMARK    7  A    between atoms: C8_13  and  C9_15 
REMARK    8  A    between atoms: C9_15  and  C10_16 
REMARK       I    between atoms: C17_29  and  N5_31 
REMARK    9  A    between atoms: N5_31  and  C18_33 
REMARK   10  A    between atoms: C18_33  and  C19_34 
REMARK   11  A    between atoms: C18_33  and  C20_37 
ROOT
HETATM    1  N1  UNL     1      28.662  11.625 -21.573  1.00  0.00    -0.344 N 
ATOM      2  H1  UNL     1      27.895  12.031 -22.109  1.00  0.00     0.163 HD
HETATM    3  C6  UNL     1      28.627  11.689 -20.157  1.00  0.00     0.275 C 
HETATM    4  O1  UNL     1      29.520  11.200 -19.448  1.00  0.00    -0.269 OA
ENDROOT
BRANCH   3   5
HETATM    5  C7  UNL     1      27.475  12.378 -19.490  1.00  0.00     0.280 C 
HETATM    6  C14 UNL     1      27.912  12.926 -18.183  1.00  0.00     0.074 C 
HETATM    7  C15 UNL     1      27.944  14.410 -18.341  1.00  0.00     0.032 C 
HETATM    8  C16 UNL     1      27.474  14.672 -19.739  1.00  0.00     0.236 C 
HETATM    9  N4  UNL     1      27.048  13.448 -20.297  1.00  0.00    -0.039 N 
ATOM     10  H42 UNL     1      27.351  13.343 -21.265  1.00  0.00     0.280 HD
ATOM     11  H41 UNL     1      26.040  13.430 -20.455  1.00  0.00     0.280 HD
BRANCH   5  12
HETATM   12  N2  UNL     1      26.410  11.380 -19.327  1.00  0.00    -0.320 N 
HETATM   13  C8  UNL     1      25.501  11.001 -20.321  1.00  0.00     0.224 C 
HETATM   14  O2  UNL     1      25.585  11.540 -21.454  1.00  0.00    -0.273 OA
ATOM     15  H2  UNL     1      26.327  10.927 -18.417  1.00  0.00     0.165 HD
BRANCH  13  16
HETATM   16  C9  UNL     1      24.432   9.992 -20.119  1.00  0.00     0.142 C 
BRANCH  16  17
HETATM   17  C10 UNL     1      25.052   8.635 -20.117  1.00  0.00    -0.031 A 
HETATM   18  C11 UNL     1      24.577   7.498 -19.485  1.00  0.00     0.096 A 
HETATM   19  N3  UNL     1      25.421   6.474 -19.717  1.00  0.00    -0.360 N 
HETATM   20  C12 UNL     1      26.438   6.901 -20.486  1.00  0.00     0.080 A 
ATOM     21  H3  UNL     1      25.307   5.523 -19.366  1.00  0.00     0.166 HD
HETATM   22 BR1  UNL     1      27.911   5.815 -21.094  1.00  0.00    -0.031 Br
HETATM   23  C13 UNL     1      26.222   8.239 -20.741  1.00  0.00     0.046 A 
ENDBRANCH  16  17
ENDBRANCH  13  16
ENDBRANCH   5  12
ENDBRANCH   3   5
BRANCH   1  24
HETATM   24  C5  UNL     1      29.750  11.005 -22.267  1.00  0.00     0.177 C 
BRANCH  24  25
HETATM   25  C4  UNL     1      29.441   9.989 -23.292  1.00  0.00     0.038 C 
BRANCH  25  26
HETATM   26  C2  UNL     1      30.055   8.638 -23.124  1.00  0.00    -0.020 C 
HETATM   27  C1  UNL     1      31.092   8.263 -24.128  1.00  0.00     0.009 C 
HETATM   28  C3  UNL     1      30.596   8.461 -21.701  1.00  0.00     0.009 C 
ENDBRANCH  25  26
ENDBRANCH  24  25
BRANCH  24  29
HETATM   29  C17 UNL     1      30.599  12.126 -22.852  1.00  0.00     0.241 C 
HETATM   30  O3  UNL     1      30.952  13.058 -22.105  1.00  0.00    -0.271 OA
HETATM   31  N5  UNL     1      30.979  12.112 -24.204  1.00  0.00    -0.346 N 
ATOM     32  H5  UNL     1      30.686  11.345 -24.809  1.00  0.00     0.163 HD
BRANCH  31  33
HETATM   33  C18 UNL     1      31.789  13.190 -24.740  1.00  0.00     0.177 C 
BRANCH  33  34
HETATM   34  C19 UNL     1      32.900  12.539 -25.479  1.00  0.00     0.254 C 
HETATM   35  N6  UNL     1      32.966  11.157 -25.696  1.00  0.00    -0.060 NA
HETATM   36  O4  UNL     1      33.853  13.264 -25.943  1.00  0.00    -0.275 OA
ENDBRANCH  33  34
BRANCH  33  37
HETATM   37  C20 UNL     1      31.021  14.097 -25.644  1.00  0.00     0.009 C 
HETATM   38  C21 UNL     1      30.092  14.974 -24.868  1.00  0.00     0.012 C 
HETATM   39  C22 UNL     1      30.225  13.321 -26.683  1.00  0.00     0.012 C 
ENDBRANCH  33  37
ENDBRANCH  31  33
ENDBRANCH  24  29
ENDBRANCH   1  24
TORSDOF 11
ENDMDL
MODEL 4
REMARK VINA RESULT: -7.100416060      5.743      9.227
REMARK  11 active torsions:
REMARK  status: ('A' for Active; 'I' for Inactive)
REMARK    1  A    between atoms: C2_2  and  C4_4 
REMARK    2  A    between atoms: C4_4  and  C5_5 
REMARK    3  A    between atoms: C5_5  and  N1_6 
REMARK    4  A    between atoms: C5_5  and  C17_29 
REMARK       I    between atoms: N1_6  and  C6_8 
REMARK    5  A    between atoms: C6_8  and  C7_10 
REMARK    6  A    between atoms: C7_10  and  N2_11 
REMARK       I    between atoms: N2_11  and  C8_13 
REMARK    7  A    between atoms: C8_13  and  C9_15 
REMARK    8  A    between atoms: C9_15  and  C10_16 
REMARK       I    between atoms: C17_29  and  N5_31 
REMARK    9  A    between atoms: N5_31  and  C18_33 
REMARK   10  A    between atoms: C18_33  and  C19_34 
REMARK   11  A    between atoms: C18_33  and  C20_37 
ROOT
HETATM    1  N1  UNL     1      29.569  11.869 -23.251  1.00  0.00    -0.344 N 
ATOM      2  H1  UNL     1      29.003  11.568 -24.045  1.00  0.00     0.163 HD
HETATM    3  C6  UNL     1      30.269  10.898 -22.492  1.00  0.00     0.275 C 
HETATM    4  O1  UNL     1      30.986  11.201 -21.526  1.00  0.00    -0.269 OA
ENDROOT
BRANCH   3   5
HETATM    5  C7  UNL     1      30.133   9.452 -22.861  1.00  0.00     0.280 C 
HETATM    6  C14 UNL     1      29.991   8.635 -21.630  1.00  0.00     0.074 C 
HETATM    7  C15 UNL     1      28.578   8.154 -21.608  1.00  0.00     0.032 C 
HETATM    8  C16 UNL     1      27.959   8.678 -22.866  1.00  0.00     0.236 C 
HETATM    9  N4  UNL     1      28.973   9.281 -23.639  1.00  0.00    -0.039 N 
ATOM     10  H42 UNL     1      28.664  10.156 -24.062  1.00  0.00     0.280 HD
ATOM     11  H41 UNL     1      29.161   8.761 -24.497  1.00  0.00     0.280 HD
BRANCH   5  12
HETATM   12  N2  UNL     1      31.337   9.084 -23.616  1.00  0.00    -0.320 N 
HETATM   13  C8  UNL     1      31.594   9.438 -24.945  1.00  0.00     0.224 C 
HETATM   14  O2  UNL     1      30.745  10.130 -25.562  1.00  0.00    -0.273 OA
ATOM     15  H2  UNL     1      32.041   8.525 -23.134  1.00  0.00     0.165 HD
BRANCH  13  16
HETATM   16  C9  UNL     1      32.821   9.042 -25.680  1.00  0.00     0.142 C 
BRANCH  16  17
HETATM   17  C10 UNL     1      33.321  10.222 -26.443  1.00  0.00    -0.031 A 
HETATM   18  C11 UNL     1      33.523  10.313 -27.810  1.00  0.00     0.096 A 
HETATM   19  N3  UNL     1      33.988  11.541 -28.112  1.00  0.00    -0.360 N 
HETATM   20  C12 UNL     1      34.097  12.265 -26.984  1.00  0.00     0.080 A 
ATOM     21  H3  UNL     1      34.219  11.871 -29.049  1.00  0.00     0.166 HD
HETATM   22 BR1  UNL     1      34.720  14.086 -26.882  1.00  0.00    -0.031 Br
HETATM   23  C13 UNL     1      33.688  11.460 -25.942  1.00  0.00     0.046 A 
ENDBRANCH  16  17
ENDBRANCH  13  16
ENDBRANCH   5  12
ENDBRANCH   3   5
BRANCH   1  24
HETATM   24  C5  UNL     1      29.637  13.262 -22.930  1.00  0.00     0.177 C 
BRANCH  24  25
HETATM   25  C4  UNL     1      29.494  14.243 -24.023  1.00  0.00     0.038 C 
BRANCH  25  26
HETATM   26  C2  UNL     1      30.743  14.704 -24.697  1.00  0.00    -0.020 C 
HETATM   27  C1  UNL     1      32.016  14.122 -24.182  1.00  0.00     0.009 C 
HETATM   28  C3  UNL     1      30.643  14.516 -26.214  1.00  0.00     0.009 C 
ENDBRANCH  25  26
ENDBRANCH  24  25
BRANCH  24  29
HETATM   29  C17 UNL     1      28.609  13.515 -21.835  1.00  0.00     0.241 C 
HETATM   30  O3  UNL     1      27.641  14.256 -22.087  1.00  0.00    -0.271 OA
HETATM   31  N5  UNL     1      28.747  12.928 -20.566  1.00  0.00    -0.346 N 
ATOM     32  H5  UNL     1      29.544  12.322 -20.368  1.00  0.00     0.163 HD
BRANCH  31  33
HETATM   33  C18 UNL     1      27.756  13.183 -19.539  1.00  0.00     0.177 C 
BRANCH  33  34
HETATM   34  C19 UNL     1      27.038  11.899 -19.334  1.00  0.00     0.254 C 
HETATM   35  N6  UNL     1      27.641  10.769 -18.767  1.00  0.00    -0.060 NA
HETATM   36  O4  UNL     1      25.808  11.805 -19.694  1.00  0.00    -0.275 OA
ENDBRANCH  33  34
BRANCH  33  37
HETATM   37  C20 UNL     1      28.359  13.654 -18.256  1.00  0.00     0.009 C 
HETATM   38  C21 UNL     1      27.369  14.424 -17.443  1.00  0.00     0.012 C 
HETATM   39  C22 UNL     1      29.591  14.517 -18.493  1.00  0.00     0.012 C 
ENDBRANCH  33  37
ENDBRANCH  31  33
ENDBRANCH  24  29
ENDBRANCH   1  24
TORSDOF 11
ENDMDL
MODEL 5
REMARK VINA RESULT: -7.093292136      4.559      8.650
REMARK  11 active torsions:
REMARK  status: ('A' for Active; 'I' for Inactive)
REMARK    1  A    between atoms: C2_2  and  C4_4 
REMARK    2  A    between atoms: C4_4  and  C5_5 
REMARK    3  A    between atoms: C5_5  and  N1_6 
REMARK    4  A    between atoms: C5_5  and  C17_29 
REMARK       I    between atoms: N1_6  and  C6_8 
REMARK    5  A    between atoms: C6_8  and  C7_10 
REMARK    6  A    between atoms: C7_10  and  N2_11 
REMARK       I    between atoms: N2_11  and  C8_13 
REMARK    7  A    between atoms: C8_13  and  C9_15 
REMARK    8  A    between atoms: C9_15  and  C10_16 
REMARK       I    between atoms: C17_29  and  N5_31 
REMARK    9  A    between atoms: N5_31  and  C18_33 
REMARK   10  A    between atoms: C18_33  and  C19_34 
REMARK   11  A    between atoms: C18_33  and  C20_37 
ROOT
HETATM    1  N1  UNL     1      25.904  11.661 -20.248  1.00  0.00    -0.344 N 
ATOM      2  H1  UNL     1      25.260  12.365 -20.607  1.00  0.00     0.163 HD
HETATM    3  C6  UNL     1      27.120  12.077 -19.647  1.00  0.00     0.275 C 
HETATM    4  O1  UNL     1      27.937  11.271 -19.177  1.00  0.00    -0.269 OA
ENDROOT
BRANCH   3   5
HETATM    5  C7  UNL     1      27.435  13.540 -19.585  1.00  0.00     0.280 C 
HETATM    6  C14 UNL     1      26.542  14.200 -18.601  1.00  0.00     0.074 C 
HETATM    7  C15 UNL     1      27.402  14.567 -17.436  1.00  0.00     0.032 C 
HETATM    8  C16 UNL     1      28.787  14.141 -17.814  1.00  0.00     0.236 C 
HETATM    9  N4  UNL     1      28.764  13.709 -19.157  1.00  0.00    -0.039 N 
ATOM     10  H42 UNL     1      29.321  12.865 -19.296  1.00  0.00     0.280 HD
ATOM     11  H41 UNL     1      29.287  14.335 -19.770  1.00  0.00     0.280 HD
BRANCH   5  12
HETATM   12  N2  UNL     1      27.241  14.082 -20.936  1.00  0.00    -0.320 N 
HETATM   13  C8  UNL     1      28.181  14.024 -21.970  1.00  0.00     0.224 C 
HETATM   14  O2  UNL     1      29.286  13.464 -21.752  1.00  0.00    -0.273 OA
ATOM     15  H2  UNL     1      26.350  14.537 -21.136  1.00  0.00     0.165 HD
BRANCH  13  16
HETATM   16  C9  UNL     1      27.954  14.588 -23.323  1.00  0.00     0.142 C 
BRANCH  16  17
HETATM   17  C10 UNL     1      29.094  14.196 -24.201  1.00  0.00    -0.031 A 
HETATM   18  C11 UNL     1      29.319  12.960 -24.782  1.00  0.00     0.096 A 
HETATM   19  N3  UNL     1      30.458  13.005 -25.500  1.00  0.00    -0.360 N 
HETATM   20  C12 UNL     1      30.992  14.235 -25.412  1.00  0.00     0.080 A 
ATOM     21  H3  UNL     1      30.854  12.227 -26.029  1.00  0.00     0.166 HD
HETATM   22 BR1  UNL     1      32.626  14.808 -26.259  1.00  0.00    -0.031 Br
HETATM   23  C13 UNL     1      30.157  14.984 -24.609  1.00  0.00     0.046 A 
ENDBRANCH  16  17
ENDBRANCH  13  16
ENDBRANCH   5  12
ENDBRANCH   3   5
BRANCH   1  24
HETATM   24  C5  UNL     1      25.561  10.276 -20.362  1.00  0.00     0.177 C 
BRANCH  24  25
HETATM   25  C4  UNL     1      24.146   9.918 -20.579  1.00  0.00     0.038 C 
BRANCH  25  26
HETATM   26  C2  UNL     1      23.551   8.895 -19.669  1.00  0.00    -0.020 C 
HETATM   27  C1  UNL     1      22.193   8.403 -20.039  1.00  0.00     0.009 C 
HETATM   28  C3  UNL     1      24.513   7.718 -19.473  1.00  0.00     0.009 C 
ENDBRANCH  25  26
ENDBRANCH  24  25
BRANCH  24  29
HETATM   29  C17 UNL     1      26.443   9.689 -21.456  1.00  0.00     0.241 C 
HETATM   30  O3  UNL     1      26.144   9.909 -22.644  1.00  0.00    -0.271 OA
HETATM   31  N5  UNL     1      27.572   8.917 -21.136  1.00  0.00    -0.346 N 
ATOM     32  H5  UNL     1      27.810   8.741 -20.159  1.00  0.00     0.163 HD
BRANCH  31  33
HETATM   33  C18 UNL     1      28.398   8.368 -22.194  1.00  0.00     0.177 C 
BRANCH  33  34
HETATM   34  C19 UNL     1      29.792   8.766 -21.873  1.00  0.00     0.254 C 
HETATM   35  N6  UNL     1      30.146  10.063 -21.484  1.00  0.00    -0.060 NA
HETATM   36  O4  UNL     1      30.728   7.889 -21.956  1.00  0.00    -0.275 OA
ENDBRANCH  33  34
BRANCH  33  37
HETATM   37  C20 UNL     1      28.290   6.882 -22.302  1.00  0.00     0.009 C 
HETATM   38  C21 UNL     1      27.366   6.486 -23.409  1.00  0.00     0.012 C 
HETATM   39  C22 UNL     1      27.812   6.253 -21.001  1.00  0.00     0.012 C 
ENDBRANCH  33  37
ENDBRANCH  31  33
ENDBRANCH  24  29
ENDBRANCH   1  24
TORSDOF 11
ENDMDL
