MODEL 1
REMARK VINA RESULT: -7.280541575      0.000      0.000
REMARK  12 active torsions:
REMARK  status: ('A' for Active; 'I' for Inactive)
REMARK    1  A    between atoms: N1_2  and  C2_4 
REMARK    2  A    between atoms: C2_4  and  C3_5 
REMARK    3  A    between atoms: C2_4  and  C16_31 
REMARK       I    between atoms: N2_6  and  C4_8 
REMARK    4  A    between atoms: C4_8  and  C5_10 
REMARK    5  A    between atoms: C5_10  and  C6_11 
REMARK    6  A    between atoms: C5_10  and  N6_18 
REMARK    7  A    between atoms: C6_11  and  C7_12 
REMARK    8  A    between atoms: C7_12  and  N3_13 
REMARK       I    between atoms: N6_18  and  C9_20 
REMARK    9  A    between atoms: C9_20  and  C10_22 
REMARK   10  A    between atoms: C10_22  and  N7_23 
REMARK   11  A    between atoms: C10_22  and  C13_28 
REMARK       I    between atoms: N7_23  and  C11_25 
REMARK   12  A    between atoms: C16_31  and  C17_32 
ROOT
HETATM    1  C5  UNL     1      30.501   8.559 -23.706  1.00  0.00     0.178 C 
ENDROOT
BRANCH   1   2
HETATM    2  C4  UNL     1      29.145   8.030 -23.797  1.00  0.00     0.244 C 
HETATM    3  N2  UNL     1      28.278   7.871 -22.733  1.00  0.00    -0.337 N 
HETATM    4  C3  UNL     1      28.480   7.975 -21.489  1.00  0.00     0.089 C 
ATOM      5  H2  UNL     1      27.321   7.633 -22.993  1.00  0.00     0.168 HD
HETATM    6  O1  UNL     1      28.702   7.682 -24.950  1.00  0.00    -0.271 OA
BRANCH   4   7
HETATM    7  C2  UNL     1      27.290   7.729 -20.605  1.00  0.00     0.119 C 
BRANCH   7   8
HETATM    8  N1  UNL     1      26.811   6.399 -20.780  1.00  0.00    -0.416 N 
HETATM    9  C1  UNL     1      25.606   6.070 -20.080  1.00  0.00     0.140 C 
ATOM     10  H1  UNL     1      27.296   5.723 -21.369  1.00  0.00     0.153 HD
ENDBRANCH   7   8
BRANCH   7  11
HETATM   11  C16 UNL     1      26.315   8.822 -20.869  1.00  0.00     0.069 C 
BRANCH  11  12
HETATM   12  C17 UNL     1      26.544  10.076 -20.152  1.00  0.00    -0.050 A 
HETATM   13  C18 UNL     1      27.458  10.195 -19.137  1.00  0.00     0.009 A 
HETATM   14  C19 UNL     1      27.649  11.430 -18.504  1.00  0.00     0.019 A 
HETATM   15  C20 UNL     1      26.926  12.538 -18.889  1.00  0.00     0.011 A 
HETATM   16 BR1  UNL     1      27.210  14.210 -18.007  1.00  0.00    -0.051 Br
HETATM   17  C21 UNL     1      26.007  12.395 -19.917  1.00  0.00     0.026 A 
HETATM   18  C22 UNL     1      25.803  11.186 -20.555  1.00  0.00    -0.054 A 
HETATM   19  C23 UNL     1      24.813  11.038 -21.655  1.00  0.00     0.049 C 
ENDBRANCH  11  12
ENDBRANCH   7  11
ENDBRANCH   4   7
ENDBRANCH   1   2
BRANCH   1  20
HETATM   20  C6  UNL     1      31.268   8.148 -24.956  1.00  0.00     0.054 C 
BRANCH  20  21
HETATM   21  C7  UNL     1      32.480   8.995 -25.194  1.00  0.00     0.124 C 
BRANCH  21  22
HETATM   22  N3  UNL     1      33.521   8.287 -25.907  1.00  0.00    -0.367 N 
HETATM   23  C8  UNL     1      34.294   8.943 -26.700  1.00  0.00     0.196 C 
HETATM   24  N4  UNL     1      34.190  10.339 -26.921  1.00  0.00    -0.067 NA
HETATM   25  N5  UNL     1      35.309   8.230 -27.392  1.00  0.00    -0.067 NA
ATOM     26  H3  UNL     1      33.641   7.282 -25.782  1.00  0.00     0.161 HD
ENDBRANCH  21  22
ENDBRANCH  20  21
ENDBRANCH   1  20
BRANCH   1  27
HETATM   27  N6  UNL     1      30.376  10.035 -23.744  1.00  0.00    -0.346 N 
HETATM   28  C9  UNL     1      30.592  10.757 -22.554  1.00  0.00     0.241 C 
HETATM   29  O2  UNL     1      30.888  10.154 -21.497  1.00  0.00    -0.271 OA
ATOM     30  H6  UNL     1      30.139  10.517 -24.611  1.00  0.00     0.163 HD
BRANCH  28  31
HETATM   31  C10 UNL     1      30.474  12.228 -22.513  1.00  0.00     0.179 C 
BRANCH  31  32
HETATM   32  N7  UNL     1      30.222  12.752 -23.850  1.00  0.00    -0.348 N 
HETATM   33  C11 UNL     1      31.147  13.596 -24.511  1.00  0.00     0.214 C 
HETATM   34  C12 UNL     1      30.845  14.100 -25.864  1.00  0.00     0.117 C 
HETATM   35  O3  UNL     1      32.243  13.947 -23.990  1.00  0.00    -0.274 OA
ATOM     36  H7  UNL     1      29.353  12.503 -24.323  1.00  0.00     0.163 HD
ENDBRANCH  31  32
BRANCH  31  37
HETATM   37  C13 UNL     1      29.490  12.746 -21.509  1.00  0.00     0.009 C 
HETATM   38  C14 UNL     1      28.552  13.786 -22.013  1.00  0.00     0.012 C 
HETATM   39  C15 UNL     1      30.243  13.254 -20.312  1.00  0.00     0.012 C 
ENDBRANCH  31  37
ENDBRANCH  28  31
ENDBRANCH   1  27
TORSDOF 12
ENDMDL
MODEL 2
REMARK VINA RESULT: -7.080442679      3.189      7.005
REMARK  12 active torsions:
REMARK  status: ('A' for Active; 'I' for Inactive)
REMARK    1  A    between atoms: N1_2  and  C2_4 
REMARK    2  A    between atoms: C2_4  and  C3_5 
REMARK    3  A    between atoms: C2_4  and  C16_31 
REMARK       I    between atoms: N2_6  and  C4_8 
REMARK    4  A    between atoms: C4_8  and  C5_10 
REMARK    5  A    between atoms: C5_10  and  C6_11 
REMARK    6  A    between atoms: C5_10  and  N6_18 
REMARK    7  A    between atoms: C6_11  and  C7_12 
REMARK    8  A    between atoms: C7_12  and  N3_13 
REMARK       I    between atoms: N6_18  and  C9_20 
REMARK    9  A    between atoms: C9_20  and  C10_22 
REMARK   10  A    between atoms: C10_22  and  N7_23 
REMARK   11  A    between atoms: C10_22  and  C13_28 
REMARK       I    between atoms: N7_23  and  C11_25 
REMARK   12  A    between atoms: C16_31  and  C17_32 
ROOT
HETATM    1  C5  UNL     1      29.857  10.557 -21.820  1.00  0.00     0.178 C 
ENDROOT
BRANCH   1   2
HETATM    2  C4  UNL     1      30.513  11.842 -21.611  1.00  0.00     0.244 C 
HETATM    3  N2  UNL     1      30.921  12.701 -22.613  1.00  0.00    -0.337 N 
HETATM    4  C3  UNL     1      30.981  12.530 -23.865  1.00  0.00     0.089 C 
ATOM      5  H2  UNL     1      31.223  13.620 -22.292  1.00  0.00     0.168 HD
HETATM    6  O1  UNL     1      30.733  12.225 -20.407  1.00  0.00    -0.271 OA
BRANCH   4   7
HETATM    7  C2  UNL     1      31.484  13.697 -24.667  1.00  0.00     0.119 C 
BRANCH   7   8
HETATM    8  N1  UNL     1      32.794  14.061 -24.240  1.00  0.00    -0.416 N 
HETATM    9  C1  UNL     1      33.870  13.615 -25.074  1.00  0.00     0.140 C 
ATOM     10  H1  UNL     1      32.956  14.605 -23.394  1.00  0.00     0.153 HD
ENDBRANCH   7   8
BRANCH   7  11
HETATM   11  C16 UNL     1      30.446  14.761 -24.590  1.00  0.00     0.069 C 
BRANCH  11  12
HETATM   12  C17 UNL     1      29.197  14.494 -25.301  1.00  0.00    -0.050 A 
HETATM   13  C18 UNL     1      29.146  14.261 -26.651  1.00  0.00     0.009 A 
HETATM   14  C19 UNL     1      27.919  13.987 -27.272  1.00  0.00     0.019 A 
HETATM   15  C20 UNL     1      26.754  13.947 -26.539  1.00  0.00     0.011 A 
HETATM   16 BR1  UNL     1      25.096  13.569 -27.414  1.00  0.00    -0.051 Br
HETATM   17  C21 UNL     1      26.828  14.186 -25.176  1.00  0.00     0.026 A 
HETATM   18  C22 UNL     1      28.026  14.458 -24.544  1.00  0.00    -0.054 A 
HETATM   19  C23 UNL     1      28.100  14.717 -23.081  1.00  0.00     0.049 C 
ENDBRANCH  11  12
ENDBRANCH   7  11
ENDBRANCH   4   7
ENDBRANCH   1   2
BRANCH   1  20
HETATM   20  C6  UNL     1      30.852   9.446 -21.510  1.00  0.00     0.054 C 
BRANCH  20  21
HETATM   21  C7  UNL     1      30.530   8.167 -22.219  1.00  0.00     0.124 C 
BRANCH  21  22
HETATM   22  N3  UNL     1      29.857   7.213 -21.365  1.00  0.00    -0.367 N 
HETATM   23  C8  UNL     1      28.607   6.973 -21.558  1.00  0.00     0.196 C 
HETATM   24  N4  UNL     1      27.836   7.593 -22.572  1.00  0.00    -0.067 NA
HETATM   25  N5  UNL     1      27.963   6.035 -20.708  1.00  0.00    -0.067 NA
ATOM     26  H3  UNL     1      30.366   6.737 -20.620  1.00  0.00     0.161 HD
ENDBRANCH  21  22
ENDBRANCH  20  21
ENDBRANCH   1  20
BRANCH   1  27
HETATM   27  N6  UNL     1      28.782  10.467 -20.803  1.00  0.00    -0.346 N 
HETATM   28  C9  UNL     1      27.456  10.724 -21.205  1.00  0.00     0.241 C 
HETATM   29  O2  UNL     1      27.204  11.015 -22.397  1.00  0.00    -0.271 OA
ATOM     30  H6  UNL     1      28.997  10.224 -19.836  1.00  0.00     0.163 HD
BRANCH  28  31
HETATM   31  C10 UNL     1      26.335  10.664 -20.246  1.00  0.00     0.179 C 
BRANCH  31  32
HETATM   32  N7  UNL     1      25.957  12.007 -19.826  1.00  0.00    -0.348 N 
HETATM   33  C11 UNL     1      26.747  12.761 -18.924  1.00  0.00     0.214 C 
HETATM   34  C12 UNL     1      26.321  14.116 -18.529  1.00  0.00     0.117 C 
HETATM   35  O3  UNL     1      27.823  12.321 -18.428  1.00  0.00    -0.274 OA
ATOM     36  H7  UNL     1      25.097  12.416 -20.192  1.00  0.00     0.163 HD
ENDBRANCH  31  32
BRANCH  31  37
HETATM   37  C13 UNL     1      25.157   9.866 -20.716  1.00  0.00     0.009 C 
HETATM   38  C14 UNL     1      23.830  10.510 -20.515  1.00  0.00     0.012 C 
HETATM   39  C15 UNL     1      25.191   8.517 -20.055  1.00  0.00     0.012 C 
ENDBRANCH  31  37
ENDBRANCH  28  31
ENDBRANCH   1  27
TORSDOF 12
ENDMDL
MODEL 3
REMARK VINA RESULT: -6.930431342      1.114      2.048
REMARK  12 active torsions:
REMARK  status: ('A' for Active; 'I' for Inactive)
REMARK    1  A    between atoms: N1_2  and  C2_4 
REMARK    2  A    between atoms: C2_4  and  C3_5 
REMARK    3  A    between atoms: C2_4  and  C16_31 
REMARK       I    between atoms: N2_6  and  C4_8 
REMARK    4  A    between atoms: C4_8  and  C5_10 
REMARK    5  A    between atoms: C5_10  and  C6_11 
REMARK    6  A    between atoms: C5_10  and  N6_18 
REMARK    7  A    between atoms: C6_11  and  C7_12 
REMARK    8  A    between atoms: C7_12  and  N3_13 
REMARK       I    between atoms: N6_18  and  C9_20 
REMARK    9  A    between atoms: C9_20  and  C10_22 
REMARK   10  A    between atoms: C10_22  and  N7_23 
REMARK   11  A    between atoms: C10_22  and  C13_28 
REMARK       I    between atoms: N7_23  and  C11_25 
REMARK   12  A    between atoms: C16_31  and  C17_32 
ROOT
HETATM    1  C5  UNL     1      30.685   8.888 -24.067  1.00  0.00     0.178 C 
ENDROOT
BRANCH   1   2
HETATM    2  C4  UNL     1      29.399   8.204 -24.026  1.00  0.00     0.244 C 
HETATM    3  N2  UNL     1      28.609   8.058 -22.901  1.00  0.00    -0.337 N 
HETATM    4  C3  UNL     1      28.859   8.308 -21.686  1.00  0.00     0.089 C 
ATOM      5  H2  UNL     1      27.675   7.689 -23.079  1.00  0.00     0.168 HD
HETATM    6  O1  UNL     1      28.943   7.695 -25.111  1.00  0.00    -0.271 OA
BRANCH   4   7
HETATM    7  C2  UNL     1      27.751   8.022 -20.713  1.00  0.00     0.119 C 
BRANCH   7   8
HETATM    8  N1  UNL     1      27.316   6.671 -20.843  1.00  0.00    -0.416 N 
HETATM    9  C1  UNL     1      25.990   6.393 -20.380  1.00  0.00     0.140 C 
ATOM     10  H1  UNL     1      27.913   5.947 -21.242  1.00  0.00     0.153 HD
ENDBRANCH   7   8
BRANCH   7  11
HETATM   11  C16 UNL     1      26.713   9.071 -20.908  1.00  0.00     0.069 C 
BRANCH  11  12
HETATM   12  C17 UNL     1      26.882  10.296 -20.128  1.00  0.00    -0.050 A 
HETATM   13  C18 UNL     1      27.768  10.397 -19.086  1.00  0.00     0.009 A 
HETATM   14  C19 UNL     1      27.901  11.607 -18.392  1.00  0.00     0.019 A 
HETATM   15  C20 UNL     1      27.149  12.707 -18.743  1.00  0.00     0.011 A 
HETATM   16 BR1  UNL     1      27.355  14.343 -17.777  1.00  0.00    -0.051 Br
HETATM   17  C21 UNL     1      26.260  12.582 -19.798  1.00  0.00     0.026 A 
HETATM   18  C22 UNL     1      26.113  11.399 -20.497  1.00  0.00    -0.054 A 
HETATM   19  C23 UNL     1      25.154  11.270 -21.627  1.00  0.00     0.049 C 
ENDBRANCH  11  12
ENDBRANCH   7  11
ENDBRANCH   4   7
ENDBRANCH   1   2
BRANCH   1  20
HETATM   20  C6  UNL     1      31.602   8.142 -25.028  1.00  0.00     0.054 C 
BRANCH  20  21
HETATM   21  C7  UNL     1      32.694   9.009 -25.575  1.00  0.00     0.124 C 
BRANCH  21  22
HETATM   22  N3  UNL     1      33.833   8.244 -26.033  1.00  0.00    -0.367 N 
HETATM   23  C8  UNL     1      34.590   8.737 -26.950  1.00  0.00     0.196 C 
HETATM   24  N4  UNL     1      34.374  10.002 -27.550  1.00  0.00    -0.067 NA
HETATM   25  N5  UNL     1      35.702   7.970 -27.388  1.00  0.00    -0.067 NA
ATOM     26  H3  UNL     1      34.035   7.328 -25.633  1.00  0.00     0.161 HD
ENDBRANCH  21  22
ENDBRANCH  20  21
ENDBRANCH   1  20
BRANCH   1  27
HETATM   27  N6  UNL     1      30.430  10.222 -24.663  1.00  0.00    -0.346 N 
HETATM   28  C9  UNL     1      30.413  11.344 -23.812  1.00  0.00     0.241 C 
HETATM   29  O2  UNL     1      30.616  11.206 -22.584  1.00  0.00    -0.271 OA
ATOM     30  H6  UNL     1      30.271  10.323 -25.665  1.00  0.00     0.163 HD
BRANCH  28  31
HETATM   31  C10 UNL     1      30.155  12.701 -24.333  1.00  0.00     0.179 C 
BRANCH  31  32
HETATM   32  N7  UNL     1      29.721  13.581 -23.256  1.00  0.00    -0.348 N 
HETATM   33  C11 UNL     1      28.352  13.851 -23.013  1.00  0.00     0.214 C 
HETATM   34  C12 UNL     1      27.963  14.749 -21.911  1.00  0.00     0.117 C 
HETATM   35  O3  UNL     1      27.425  13.349 -23.711  1.00  0.00    -0.274 OA
ATOM     36  H7  UNL     1      30.424  14.017 -22.658  1.00  0.00     0.163 HD
ENDBRANCH  31  32
BRANCH  31  37
HETATM   37  C13 UNL     1      31.285  13.290 -25.121  1.00  0.00     0.009 C 
HETATM   38  C14 UNL     1      32.544  13.519 -24.360  1.00  0.00     0.012 C 
HETATM   39  C15 UNL     1      30.817  14.567 -25.758  1.00  0.00     0.012 C 
ENDBRANCH  31  37
ENDBRANCH  28  31
ENDBRANCH   1  27
TORSDOF 12
ENDMDL
MODEL 4
REMARK VINA RESULT: -6.797952657      2.609      4.029
REMARK  12 active torsions:
REMARK  status: ('A' for Active; 'I' for Inactive)
REMARK    1  A    between atoms: N1_2  and  C2_4 
REMARK    2  A    between atoms: C2_4  and  C3_5 
REMARK    3  A    between atoms: C2_4  and  C16_31 
REMARK       I    between atoms: N2_6  and  C4_8 
REMARK    4  A    between atoms: C4_8  and  C5_10 
REMARK    5  A    between atoms: C5_10  and  C6_11 
REMARK    6  A    between atoms: C5_10  and  N6_18 
REMARK    7  A    between atoms: C6_11  and  C7_12 
REMARK    8  A    between atoms: C7_12  and  N3_13 
REMARK       I    between atoms: N6_18  and  C9_20 
REMARK    9  A    between atoms: C9_20  and  C10_22 
REMARK   10  A    between atoms: C10_22  and  N7_23 
REMARK   11  A    between atoms: C10_22  and  C13_28 
REMARK       I    between atoms: N7_23  and  C11_25 
REMARK   12  A    between atoms: C16_31  and  C17_32 
ROOT
HETATM    1  C5  UNL     1      31.794   9.398 -26.482  1.00  0.00     0.178 C 
ENDROOT
BRANCH   1   2
HETATM    2  C4  UNL     1      30.508   9.291 -25.806  1.00  0.00     0.244 C 
HETATM    3  N2  UNL     1      30.321   9.332 -24.437  1.00  0.00    -0.337 N 
HETATM    4  C3  UNL     1      31.163   9.302 -23.493  1.00  0.00     0.089 C 
ATOM      5  H2  UNL     1      29.348   9.396 -24.139  1.00  0.00     0.168 HD
HETATM    6  O1  UNL     1      29.452   9.152 -26.520  1.00  0.00    -0.271 OA
BRANCH   4   7
HETATM    7  C2  UNL     1      30.599   9.364 -22.103  1.00  0.00     0.119 C 
BRANCH   7   8
HETATM    8  N1  UNL     1      30.541   8.058 -21.536  1.00  0.00    -0.416 N 
HETATM    9  C1  UNL     1      29.267   7.408 -21.589  1.00  0.00     0.140 C 
ATOM     10  H1  UNL     1      31.358   7.613 -21.118  1.00  0.00     0.153 HD
ENDBRANCH   7   8
BRANCH   7  11
HETATM   11  C16 UNL     1      29.311  10.105 -22.185  1.00  0.00     0.069 C 
BRANCH  11  12
HETATM   12  C17 UNL     1      29.070  11.095 -21.136  1.00  0.00    -0.050 A 
HETATM   13  C18 UNL     1      28.504  10.775 -19.929  1.00  0.00     0.009 A 
HETATM   14  C19 UNL     1      28.321  11.764 -18.953  1.00  0.00     0.019 A 
HETATM   15  C20 UNL     1      28.704  13.066 -19.191  1.00  0.00     0.011 A 
HETATM   16 BR1  UNL     1      28.443  14.393 -17.840  1.00  0.00    -0.051 Br
HETATM   17  C21 UNL     1      29.274  13.367 -20.418  1.00  0.00     0.026 A 
HETATM   18  C22 UNL     1      29.464  12.407 -21.393  1.00  0.00    -0.054 A 
HETATM   19  C23 UNL     1      30.073  12.737 -22.710  1.00  0.00     0.049 C 
ENDBRANCH  11  12
ENDBRANCH   7  11
ENDBRANCH   4   7
ENDBRANCH   1   2
BRANCH   1  20
HETATM   20  C6  UNL     1      31.619   8.965 -27.932  1.00  0.00     0.054 C 
BRANCH  20  21
HETATM   21  C7  UNL     1      32.428   7.751 -28.274  1.00  0.00     0.124 C 
BRANCH  21  22
HETATM   22  N3  UNL     1      33.723   7.748 -27.632  1.00  0.00    -0.367 N 
HETATM   23  C8  UNL     1      34.242   6.626 -27.274  1.00  0.00     0.196 C 
HETATM   24  N4  UNL     1      33.614   5.372 -27.475  1.00  0.00    -0.067 NA
HETATM   25  N5  UNL     1      35.514   6.643 -26.643  1.00  0.00    -0.067 NA
ATOM     26  H3  UNL     1      34.220   8.624 -27.465  1.00  0.00     0.161 HD
ENDBRANCH  21  22
ENDBRANCH  20  21
ENDBRANCH   1  20
BRANCH   1  27
HETATM   27  N6  UNL     1      32.136  10.841 -26.504  1.00  0.00    -0.346 N 
HETATM   28  C9  UNL     1      33.484  11.212 -26.338  1.00  0.00     0.241 C 
HETATM   29  O2  UNL     1      34.365  10.336 -26.184  1.00  0.00    -0.271 OA
ATOM     30  H6  UNL     1      31.411  11.547 -26.635  1.00  0.00     0.163 HD
BRANCH  28  31
HETATM   31  C10 UNL     1      33.897  12.630 -26.338  1.00  0.00     0.179 C 
BRANCH  31  32
HETATM   32  N7  UNL     1      33.933  13.146 -27.700  1.00  0.00    -0.348 N 
HETATM   33  C11 UNL     1      35.147  13.514 -28.331  1.00  0.00     0.214 C 
HETATM   34  C12 UNL     1      35.131  14.031 -29.712  1.00  0.00     0.117 C 
HETATM   35  O3  UNL     1      36.270  13.419 -27.757  1.00  0.00    -0.274 OA
ATOM     36  H7  UNL     1      33.058  13.245 -28.216  1.00  0.00     0.163 HD
ENDBRANCH  31  32
BRANCH  31  37
HETATM   37  C13 UNL     1      33.102  13.510 -25.422  1.00  0.00     0.009 C 
HETATM   38  C14 UNL     1      32.129  14.415 -26.093  1.00  0.00     0.012 C 
HETATM   39  C15 UNL     1      34.050  14.300 -24.566  1.00  0.00     0.012 C 
ENDBRANCH  31  37
ENDBRANCH  28  31
ENDBRANCH   1  27
TORSDOF 12
ENDMDL
MODEL 5
REMARK VINA RESULT: -6.607587082      3.803      8.111
REMARK  12 active torsions:
REMARK  status: ('A' for Active; 'I' for Inactive)
REMARK    1  A    between atoms: N1_2  and  C2_4 
REMARK    2  A    between atoms: C2_4  and  C3_5 
REMARK    3  A    between atoms: C2_4  and  C16_31 
REMARK       I    between atoms: N2_6  and  C4_8 
REMARK    4  A    between atoms: C4_8  and  C5_10 
REMARK    5  A    between atoms: C5_10  and  C6_11 
REMARK    6  A    between atoms: C5_10  and  N6_18 
REMARK    7  A    between atoms: C6_11  and  C7_12 
REMARK    8  A    between atoms: C7_12  and  N3_13 
REMARK       I    between atoms: N6_18  and  C9_20 
REMARK    9  A    between atoms: C9_20  and  C10_22 
REMARK   10  A    between atoms: C10_22  and  N7_23 
REMARK   11  A    between atoms: C10_22  and  C13_28 
REMARK       I    between atoms: N7_23  and  C11_25 
REMARK   12  A    between atoms: C16_31  and  C17_32 
ROOT
HETATM    1  C5  UNL     1      24.487   9.710 -20.280  1.00  0.00     0.178 C 
ENDROOT
BRANCH   1   2
HETATM    2  C4  UNL     1      24.630  10.923 -21.076  1.00  0.00     0.244 C 
HETATM    3  N2  UNL     1      25.603  11.888 -20.892  1.00  0.00    -0.337 N 
HETATM    4  C3  UNL     1      26.441  12.039 -19.956  1.00  0.00     0.089 C 
ATOM      5  H2  UNL     1      25.653  12.591 -21.628  1.00  0.00     0.168 HD
HETATM    6  O1  UNL     1      23.800  11.127 -22.032  1.00  0.00    -0.271 OA
BRANCH   4   7
HETATM    7  C2  UNL     1      27.362  13.219 -20.079  1.00  0.00     0.119 C 
BRANCH   7   8
HETATM    8  N1  UNL     1      26.995  14.231 -19.146  1.00  0.00    -0.416 N 
HETATM    9  C1  UNL     1      27.817  14.332 -17.977  1.00  0.00     0.140 C 
ATOM     10  H1  UNL     1      26.197  14.845 -19.300  1.00  0.00     0.153 HD
ENDBRANCH   7   8
BRANCH   7  11
HETATM   11  C16 UNL     1      27.374  13.617 -21.513  1.00  0.00     0.069 C 
BRANCH  11  12
HETATM   12  C17 UNL     1      28.669  13.546 -22.189  1.00  0.00    -0.050 A 
HETATM   13  C18 UNL     1      29.777  12.977 -21.615  1.00  0.00     0.009 A 
HETATM   14  C19 UNL     1      30.984  12.917 -22.324  1.00  0.00     0.019 A 
HETATM   15  C20 UNL     1      31.076  13.427 -23.601  1.00  0.00     0.011 A 
HETATM   16 BR1  UNL     1      32.737  13.329 -24.542  1.00  0.00    -0.051 Br
HETATM   17  C21 UNL     1      29.945  13.998 -24.161  1.00  0.00     0.026 A 
HETATM   18  C22 UNL     1      28.744  14.067 -23.481  1.00  0.00    -0.054 A 
HETATM   19  C23 UNL     1      27.534  14.684 -24.086  1.00  0.00     0.049 C 
ENDBRANCH  11  12
ENDBRANCH   7  11
ENDBRANCH   4   7
ENDBRANCH   1   2
BRANCH   1  20
HETATM   20  C6  UNL     1      23.014   9.325 -20.242  1.00  0.00     0.054 C 
BRANCH  20  21
HETATM   21  C7  UNL     1      22.797   7.913 -19.790  1.00  0.00     0.124 C 
BRANCH  21  22
HETATM   22  N3  UNL     1      22.622   7.809 -18.359  1.00  0.00    -0.367 N 
HETATM   23  C8  UNL     1      23.279   6.911 -17.712  1.00  0.00     0.196 C 
HETATM   24  N4  UNL     1      24.180   6.004 -18.323  1.00  0.00    -0.067 NA
HETATM   25  N5  UNL     1      23.091   6.822 -16.307  1.00  0.00    -0.067 NA
ATOM     26  H3  UNL     1      21.986   8.438 -17.869  1.00  0.00     0.161 HD
ENDBRANCH  21  22
ENDBRANCH  20  21
ENDBRANCH   1  20
BRANCH   1  27
HETATM   27  N6  UNL     1      25.193   8.638 -21.022  1.00  0.00    -0.346 N 
HETATM   28  C9  UNL     1      26.381   8.115 -20.475  1.00  0.00     0.241 C 
HETATM   29  O2  UNL     1      26.816   8.549 -19.384  1.00  0.00    -0.271 OA
ATOM     30  H6  UNL     1      24.827   8.289 -21.908  1.00  0.00     0.163 HD
BRANCH  28  31
HETATM   31  C10 UNL     1      27.143   7.054 -21.163  1.00  0.00     0.179 C 
BRANCH  31  32
HETATM   32  N7  UNL     1      28.569   7.352 -21.127  1.00  0.00    -0.348 N 
HETATM   33  C11 UNL     1      29.182   8.199 -22.083  1.00  0.00     0.214 C 
HETATM   34  C12 UNL     1      30.629   8.470 -22.005  1.00  0.00     0.117 C 
HETATM   35  O3  UNL     1      28.537   8.746 -23.022  1.00  0.00    -0.274 OA
ATOM     36  H7  UNL     1      29.143   6.939 -20.392  1.00  0.00     0.163 HD
ENDBRANCH  31  32
BRANCH  31  37
HETATM   37  C13 UNL     1      26.845   5.665 -20.685  1.00  0.00     0.009 C 
HETATM   38  C14 UNL     1      28.011   4.741 -20.641  1.00  0.00     0.012 C 
HETATM   39  C15 UNL     1      25.748   5.087 -21.534  1.00  0.00     0.012 C 
ENDBRANCH  31  37
ENDBRANCH  28  31
ENDBRANCH   1  27
TORSDOF 12
ENDMDL
