MODEL 1
REMARK VINA RESULT: -8.510644528      0.000      0.000
REMARK  11 active torsions:
REMARK  status: ('A' for Active; 'I' for Inactive)
REMARK    1  A    between atoms: C2_2  and  O1_3 
REMARK    2  A    between atoms: O1_3  and  C3_4 
REMARK       I    between atoms: C3_4  and  N1_6 
REMARK    3  A    between atoms: N1_6  and  C4_8 
REMARK    4  A    between atoms: C5_11  and  N3_12 
REMARK    5  A    between atoms: N3_12  and  C6_14 
REMARK    6  A    between atoms: C6_14  and  C7_15 
REMARK    7  A    between atoms: C7_15  and  N4_16 
REMARK    8  A    between atoms: N4_16  and  N5_17 
REMARK    9  A    between atoms: N5_17  and  S1_19 
REMARK   10  A    between atoms: S1_19  and  C8_22 
REMARK   11  A    between atoms: C10_25  and  N6_26 
ROOT
HETATM    1  C4  UNL     1      44.484  49.326   9.483  1.00  0.00     0.691 A 
HETATM    2  N2  UNL     1      44.720  49.194   8.152  1.00  0.00    -0.174 N 
ATOM      3  H2  UNL     1      45.159  48.330   7.833  1.00  0.00     0.186 HD
HETATM    4  C5  UNL     1      44.422  50.110   7.232  1.00  0.00     0.156 A 
HETATM    5  C10 UNL     1      43.822  51.296   7.665  1.00  0.00     0.214 A 
HETATM    6  C11 UNL     1      43.584  51.427   9.010  1.00  0.00     0.296 A 
HETATM    7  O8  UNL     1      43.042  52.495   9.422  1.00  0.00    -0.265 OA
HETATM    8  N7  UNL     1      43.909  50.462   9.893  1.00  0.00    -0.153 N 
ATOM      9  H7  UNL     1      43.713  50.600  10.885  1.00  0.00     0.187 HD
ENDROOT
BRANCH   4  10
HETATM   10  N3  UNL     1      44.689  49.976   5.858  1.00  0.00    -0.372 N 
ATOM     11  H3  UNL     1      44.202  49.225   5.369  1.00  0.00     0.161 HD
BRANCH  10  12
HETATM   12  C6  UNL     1      45.578  50.787   5.070  1.00  0.00     0.139 C 
BRANCH  12  13
HETATM   13  C7  UNL     1      45.051  50.881   3.664  1.00  0.00     0.155 C 
BRANCH  13  14
HETATM   14  N4  UNL     1      44.784  52.276   3.348  1.00  0.00    -0.130 NA
BRANCH  14  15
HETATM   15  N5  UNL     1      43.450  52.613   3.446  1.00  0.00    -0.225 N 
ATOM     16  H5  UNL     1      42.961  52.712   4.336  1.00  0.00     0.195 HD
BRANCH  15  17
HETATM   17  S1  UNL     1      42.688  52.850   1.915  1.00  0.00     0.306 S 
HETATM   18  O3  UNL     1      42.801  51.524   1.178  1.00  0.00    -0.196 OA
HETATM   19  O4  UNL     1      43.414  53.878   1.124  1.00  0.00    -0.196 OA
BRANCH  17  20
HETATM   20  C8  UNL     1      40.989  53.261   2.130  1.00  0.00     0.260 C 
HETATM   21  C9  UNL     1      40.641  54.122   3.295  1.00  0.00     0.111 C 
HETATM   22  O5  UNL     1      40.131  52.855   1.352  1.00  0.00    -0.279 OA
ENDBRANCH  17  20
ENDBRANCH  15  17
ENDBRANCH  14  15
ENDBRANCH  13  14
ENDBRANCH  12  13
ENDBRANCH  10  12
ENDBRANCH   4  10
BRANCH   5  23
HETATM   23  N6  UNL     1      43.474  52.322   6.737  1.00  0.00    -0.106 N 
HETATM   24  O6  UNL     1      44.184  53.319   6.505  1.00  0.00    -0.531 OA
HETATM   25  O7  UNL     1      42.288  52.204   6.060  1.00  0.00    -0.531 OA
ENDBRANCH   5  23
BRANCH   1  26
HETATM   26  N1  UNL     1      44.816  48.362  10.304  1.00  0.00    -0.135 N 
HETATM   27  C3  UNL     1      45.607  47.277   9.876  1.00  0.00     0.379 C 
HETATM   28  O2  UNL     1      46.856  47.365   9.845  1.00  0.00    -0.238 OA
ATOM     29  H1  UNL     1      44.496  48.397  11.272  1.00  0.00     0.189 HD
BRANCH  27  30
HETATM   30  O1  UNL     1      44.985  46.107   9.490  1.00  0.00    -0.304 OA
BRANCH  30  31
HETATM   31  C2  UNL     1      45.683  44.934   9.161  1.00  0.00     0.176 C 
HETATM   32  C1  UNL     1      44.824  43.708   9.111  1.00  0.00     0.034 C 
ENDBRANCH  30  31
ENDBRANCH  27  30
ENDBRANCH   1  26
TORSDOF 11
ENDMDL
MODEL 2
REMARK VINA RESULT: -8.124483312      1.396      1.911
REMARK  11 active torsions:
REMARK  status: ('A' for Active; 'I' for Inactive)
REMARK    1  A    between atoms: C2_2  and  O1_3 
REMARK    2  A    between atoms: O1_3  and  C3_4 
REMARK       I    between atoms: C3_4  and  N1_6 
REMARK    3  A    between atoms: N1_6  and  C4_8 
REMARK    4  A    between atoms: C5_11  and  N3_12 
REMARK    5  A    between atoms: N3_12  and  C6_14 
REMARK    6  A    between atoms: C6_14  and  C7_15 
REMARK    7  A    between atoms: C7_15  and  N4_16 
REMARK    8  A    between atoms: N4_16  and  N5_17 
REMARK    9  A    between atoms: N5_17  and  S1_19 
REMARK   10  A    between atoms: S1_19  and  C8_22 
REMARK   11  A    between atoms: C10_25  and  N6_26 
ROOT
HETATM    1  C4  UNL     1      45.405  47.836   8.442  1.00  0.00     0.691 A 
HETATM    2  N2  UNL     1      45.119  48.601   7.357  1.00  0.00    -0.174 N 
ATOM      3  H2  UNL     1      45.363  48.228   6.439  1.00  0.00     0.186 HD
HETATM    4  C5  UNL     1      44.545  49.801   7.402  1.00  0.00     0.156 A 
HETATM    5  C10 UNL     1      44.210  50.316   8.657  1.00  0.00     0.214 A 
HETATM    6  C11 UNL     1      44.499  49.542   9.753  1.00  0.00     0.296 A 
HETATM    7  O8  UNL     1      44.204  49.991  10.900  1.00  0.00    -0.265 OA
HETATM    8  N7  UNL     1      45.082  48.332   9.643  1.00  0.00    -0.153 N 
ATOM      9  H7  UNL     1      45.279  47.789  10.483  1.00  0.00     0.187 HD
ENDROOT
BRANCH   4  10
HETATM   10  N3  UNL     1      44.271  50.596   6.275  1.00  0.00    -0.372 N 
ATOM     11  H3  UNL     1      43.342  51.013   6.225  1.00  0.00     0.161 HD
BRANCH  10  12
HETATM   12  C6  UNL     1      45.166  50.883   5.186  1.00  0.00     0.139 C 
BRANCH  12  13
HETATM   13  C7  UNL     1      45.167  52.365   4.920  1.00  0.00     0.155 C 
BRANCH  13  14
HETATM   14  N4  UNL     1      44.649  52.608   3.582  1.00  0.00    -0.130 NA
BRANCH  14  15
HETATM   15  N5  UNL     1      43.323  52.257   3.437  1.00  0.00    -0.225 N 
ATOM     16  H5  UNL     1      42.795  51.755   4.151  1.00  0.00     0.195 HD
BRANCH  15  17
HETATM   17  S1  UNL     1      42.645  52.750   1.928  1.00  0.00     0.306 S 
HETATM   18  O3  UNL     1      42.676  51.522   1.030  1.00  0.00    -0.196 OA
HETATM   19  O4  UNL     1      43.485  53.802   1.297  1.00  0.00    -0.196 OA
BRANCH  17  20
HETATM   20  C8  UNL     1      40.979  53.278   2.146  1.00  0.00     0.260 C 
HETATM   21  C9  UNL     1      40.702  54.205   3.278  1.00  0.00     0.111 C 
HETATM   22  O5  UNL     1      40.085  52.896   1.395  1.00  0.00    -0.279 OA
ENDBRANCH  17  20
ENDBRANCH  15  17
ENDBRANCH  14  15
ENDBRANCH  13  14
ENDBRANCH  12  13
ENDBRANCH  10  12
ENDBRANCH   4  10
BRANCH   5  23
HETATM   23  N6  UNL     1      43.591  51.595   8.784  1.00  0.00    -0.106 N 
HETATM   24  O6  UNL     1      43.987  52.620   8.196  1.00  0.00    -0.531 OA
HETATM   25  O7  UNL     1      42.494  51.703   9.600  1.00  0.00    -0.531 OA
ENDBRANCH   5  23
BRANCH   1  26
HETATM   26  N1  UNL     1      45.972  46.667   8.287  1.00  0.00    -0.135 N 
HETATM   27  C3  UNL     1      45.640  45.578   9.118  1.00  0.00     0.379 C 
HETATM   28  O2  UNL     1      44.639  44.865   8.875  1.00  0.00    -0.238 OA
ATOM     29  H1  UNL     1      46.667  46.541   7.552  1.00  0.00     0.189 HD
BRANCH  27  30
HETATM   30  O1  UNL     1      46.438  45.302  10.211  1.00  0.00    -0.304 OA
BRANCH  30  31
HETATM   31  C2  UNL     1      47.824  45.103  10.123  1.00  0.00     0.176 C 
HETATM   32  C1  UNL     1      48.218  43.927   9.282  1.00  0.00     0.034 C 
ENDBRANCH  30  31
ENDBRANCH  27  30
ENDBRANCH   1  26
TORSDOF 11
ENDMDL
MODEL 3
REMARK VINA RESULT: -7.834400696      2.586      4.839
REMARK  11 active torsions:
REMARK  status: ('A' for Active; 'I' for Inactive)
REMARK    1  A    between atoms: C2_2  and  O1_3 
REMARK    2  A    between atoms: O1_3  and  C3_4 
REMARK       I    between atoms: C3_4  and  N1_6 
REMARK    3  A    between atoms: N1_6  and  C4_8 
REMARK    4  A    between atoms: C5_11  and  N3_12 
REMARK    5  A    between atoms: N3_12  and  C6_14 
REMARK    6  A    between atoms: C6_14  and  C7_15 
REMARK    7  A    between atoms: C7_15  and  N4_16 
REMARK    8  A    between atoms: N4_16  and  N5_17 
REMARK    9  A    between atoms: N5_17  and  S1_19 
REMARK   10  A    between atoms: S1_19  and  C8_22 
REMARK   11  A    between atoms: C10_25  and  N6_26 
ROOT
HETATM    1  C4  UNL     1      42.641  52.095   9.986  1.00  0.00     0.691 A 
HETATM    2  N2  UNL     1      42.646  52.183   8.631  1.00  0.00    -0.174 N 
ATOM      3  H2  UNL     1      42.072  52.909   8.203  1.00  0.00     0.186 HD
HETATM    4  C5  UNL     1      43.346  51.392   7.820  1.00  0.00     0.156 A 
HETATM    5  C10 UNL     1      44.134  50.396   8.402  1.00  0.00     0.214 A 
HETATM    6  C11 UNL     1      44.128  50.308   9.772  1.00  0.00     0.296 A 
HETATM    7  O8  UNL     1      44.835  49.411  10.319  1.00  0.00    -0.265 OA
HETATM    8  N7  UNL     1      43.398  51.140  10.540  1.00  0.00    -0.153 N 
ATOM      9  H7  UNL     1      43.422  51.041  11.555  1.00  0.00     0.187 HD
ENDROOT
BRANCH   4  10
HETATM   10  N3  UNL     1      43.329  51.476   6.416  1.00  0.00    -0.372 N 
ATOM     11  H3  UNL     1      43.249  50.597   5.907  1.00  0.00     0.161 HD
BRANCH  10  12
HETATM   12  C6  UNL     1      43.414  52.674   5.624  1.00  0.00     0.139 C 
BRANCH  12  13
HETATM   13  C7  UNL     1      44.744  52.712   4.920  1.00  0.00     0.155 C 
BRANCH  13  14
HETATM   14  N4  UNL     1      44.520  52.813   3.486  1.00  0.00    -0.130 NA
BRANCH  14  15
HETATM   15  N5  UNL     1      43.464  52.044   3.042  1.00  0.00    -0.225 N 
ATOM     16  H5  UNL     1      43.194  51.160   3.474  1.00  0.00     0.195 HD
BRANCH  15  17
HETATM   17  S1  UNL     1      42.643  52.726   1.684  1.00  0.00     0.306 S 
HETATM   18  O3  UNL     1      42.592  51.630   0.630  1.00  0.00    -0.196 OA
HETATM   19  O4  UNL     1      43.416  53.865   1.126  1.00  0.00    -0.196 OA
BRANCH  17  20
HETATM   20  C8  UNL     1      41.004  53.193   2.128  1.00  0.00     0.260 C 
HETATM   21  C9  UNL     1      40.831  53.935   3.408  1.00  0.00     0.111 C 
HETATM   22  O5  UNL     1      40.046  52.918   1.411  1.00  0.00    -0.279 OA
ENDBRANCH  17  20
ENDBRANCH  15  17
ENDBRANCH  14  15
ENDBRANCH  13  14
ENDBRANCH  12  13
ENDBRANCH  10  12
ENDBRANCH   4  10
BRANCH   5  23
HETATM   23  N6  UNL     1      44.911  49.512   7.597  1.00  0.00    -0.106 N 
HETATM   24  O6  UNL     1      44.716  48.283   7.527  1.00  0.00    -0.531 OA
HETATM   25  O7  UNL     1      45.933  50.045   6.855  1.00  0.00    -0.531 OA
ENDBRANCH   5  23
BRANCH   1  26
HETATM   26  N1  UNL     1      41.917  52.925  10.693  1.00  0.00    -0.135 N 
HETATM   27  C3  UNL     1      42.476  53.660  11.757  1.00  0.00     0.379 C 
HETATM   28  O2  UNL     1      43.083  54.736  11.546  1.00  0.00    -0.238 OA
ATOM     29  H1  UNL     1      40.929  53.042  10.470  1.00  0.00     0.189 HD
BRANCH  27  30
HETATM   30  O1  UNL     1      42.347  53.180  13.044  1.00  0.00    -0.304 OA
BRANCH  30  31
HETATM   31  C2  UNL     1      41.883  53.959  14.116  1.00  0.00     0.176 C 
HETATM   32  C1  UNL     1      41.024  55.114  13.701  1.00  0.00     0.034 C 
ENDBRANCH  30  31
ENDBRANCH  27  30
ENDBRANCH   1  26
TORSDOF 11
ENDMDL
MODEL 4
REMARK VINA RESULT: -7.825939379      1.219      1.440
REMARK  11 active torsions:
REMARK  status: ('A' for Active; 'I' for Inactive)
REMARK    1  A    between atoms: C2_2  and  O1_3 
REMARK    2  A    between atoms: O1_3  and  C3_4 
REMARK       I    between atoms: C3_4  and  N1_6 
REMARK    3  A    between atoms: N1_6  and  C4_8 
REMARK    4  A    between atoms: C5_11  and  N3_12 
REMARK    5  A    between atoms: N3_12  and  C6_14 
REMARK    6  A    between atoms: C6_14  and  C7_15 
REMARK    7  A    between atoms: C7_15  and  N4_16 
REMARK    8  A    between atoms: N4_16  and  N5_17 
REMARK    9  A    between atoms: N5_17  and  S1_19 
REMARK   10  A    between atoms: S1_19  and  C8_22 
REMARK   11  A    between atoms: C10_25  and  N6_26 
ROOT
HETATM    1  C4  UNL     1      44.467  48.927   9.232  1.00  0.00     0.691 A 
HETATM    2  N2  UNL     1      44.703  48.928   7.894  1.00  0.00    -0.174 N 
ATOM      3  H2  UNL     1      45.114  48.088   7.486  1.00  0.00     0.186 HD
HETATM    4  C5  UNL     1      44.439  49.945   7.076  1.00  0.00     0.156 A 
HETATM    5  C10 UNL     1      43.877  51.098   7.631  1.00  0.00     0.214 A 
HETATM    6  C11 UNL     1      43.639  51.095   8.982  1.00  0.00     0.296 A 
HETATM    7  O8  UNL     1      43.131  52.131   9.505  1.00  0.00    -0.265 OA
HETATM    8  N7  UNL     1      43.929  50.032   9.759  1.00  0.00    -0.153 N 
ATOM      9  H7  UNL     1      43.735  50.071  10.760  1.00  0.00     0.187 HD
ENDROOT
BRANCH   4  10
HETATM   10  N3  UNL     1      44.706  49.947   5.695  1.00  0.00    -0.372 N 
ATOM     11  H3  UNL     1      44.210  49.256   5.133  1.00  0.00     0.161 HD
BRANCH  10  12
HETATM   12  C6  UNL     1      45.605  50.823   4.993  1.00  0.00     0.139 C 
BRANCH  12  13
HETATM   13  C7  UNL     1      45.096  51.040   3.594  1.00  0.00     0.155 C 
BRANCH  13  14
HETATM   14  N4  UNL     1      44.749  52.444   3.427  1.00  0.00    -0.130 NA
BRANCH  14  15
HETATM   15  N5  UNL     1      43.392  52.684   3.505  1.00  0.00    -0.225 N 
ATOM     16  H5  UNL     1      42.882  52.736   4.387  1.00  0.00     0.195 HD
BRANCH  15  17
HETATM   17  S1  UNL     1      42.642  52.885   1.962  1.00  0.00     0.306 S 
HETATM   18  O3  UNL     1      42.766  51.544   1.255  1.00  0.00    -0.196 OA
HETATM   19  O4  UNL     1      43.372  53.899   1.157  1.00  0.00    -0.196 OA
BRANCH  17  20
HETATM   20  C8  UNL     1      40.941  53.294   2.155  1.00  0.00     0.260 C 
HETATM   21  C9  UNL     1      40.577  54.167   3.306  1.00  0.00     0.111 C 
HETATM   22  O5  UNL     1      40.091  52.877   1.373  1.00  0.00    -0.279 OA
ENDBRANCH  17  20
ENDBRANCH  15  17
ENDBRANCH  14  15
ENDBRANCH  13  14
ENDBRANCH  12  13
ENDBRANCH  10  12
ENDBRANCH   4  10
BRANCH   5  23
HETATM   23  N6  UNL     1      43.566  52.226   6.817  1.00  0.00    -0.106 N 
HETATM   24  O6  UNL     1      44.310  53.217   6.688  1.00  0.00    -0.531 OA
HETATM   25  O7  UNL     1      42.377  52.221   6.133  1.00  0.00    -0.531 OA
ENDBRANCH   5  23
BRANCH   1  26
HETATM   26  N1  UNL     1      44.765  47.872   9.947  1.00  0.00    -0.135 N 
HETATM   27  C3  UNL     1      45.265  47.995  11.258  1.00  0.00     0.379 C 
HETATM   28  O2  UNL     1      44.491  48.148  12.231  1.00  0.00    -0.238 OA
ATOM     29  H1  UNL     1      44.631  46.942   9.548  1.00  0.00     0.189 HD
BRANCH  27  30
HETATM   30  O1  UNL     1      46.630  47.943  11.461  1.00  0.00    -0.304 OA
BRANCH  30  31
HETATM   31  C2  UNL     1      47.276  46.870  12.094  1.00  0.00     0.176 C 
HETATM   32  C1  UNL     1      47.453  45.666  11.221  1.00  0.00     0.034 C 
ENDBRANCH  30  31
ENDBRANCH  27  30
ENDBRANCH   1  26
TORSDOF 11
ENDMDL
MODEL 5
REMARK VINA RESULT: -7.655181659      3.143      4.035
REMARK  11 active torsions:
REMARK  status: ('A' for Active; 'I' for Inactive)
REMARK    1  A    between atoms: C2_2  and  O1_3 
REMARK    2  A    between atoms: O1_3  and  C3_4 
REMARK       I    between atoms: C3_4  and  N1_6 
REMARK    3  A    between atoms: N1_6  and  C4_8 
REMARK    4  A    between atoms: C5_11  and  N3_12 
REMARK    5  A    between atoms: N3_12  and  C6_14 
REMARK    6  A    between atoms: C6_14  and  C7_15 
REMARK    7  A    between atoms: C7_15  and  N4_16 
REMARK    8  A    between atoms: N4_16  and  N5_17 
REMARK    9  A    between atoms: N5_17  and  S1_19 
REMARK   10  A    between atoms: S1_19  and  C8_22 
REMARK   11  A    between atoms: C10_25  and  N6_26 
ROOT
HETATM    1  C4  UNL     1      44.935  49.496   8.740  1.00  0.00     0.691 A 
HETATM    2  N2  UNL     1      45.173  49.507   7.404  1.00  0.00    -0.174 N 
ATOM      3  H2  UNL     1      45.807  48.800   7.031  1.00  0.00     0.186 HD
HETATM    4  C5  UNL     1      44.641  50.372   6.543  1.00  0.00     0.156 A 
HETATM    5  C10 UNL     1      43.773  51.343   7.048  1.00  0.00     0.214 A 
HETATM    6  C11 UNL     1      43.533  51.331   8.400  1.00  0.00     0.296 A 
HETATM    7  O8  UNL     1      42.749  52.203   8.878  1.00  0.00    -0.265 OA
HETATM    8  N7  UNL     1      44.102  50.427   9.221  1.00  0.00    -0.153 N 
ATOM      9  H7  UNL     1      43.896  50.452  10.220  1.00  0.00     0.187 HD
ENDROOT
BRANCH   4  10
HETATM   10  N3  UNL     1      44.909  50.390   5.162  1.00  0.00    -0.372 N 
ATOM     11  H3  UNL     1      44.726  49.527   4.650  1.00  0.00     0.161 HD
BRANCH  10  12
HETATM   12  C6  UNL     1      45.415  51.498   4.398  1.00  0.00     0.139 C 
BRANCH  12  13
HETATM   13  C7  UNL     1      46.665  52.024   5.052  1.00  0.00     0.155 C 
BRANCH  13  14
HETATM   14  N4  UNL     1      46.837  53.424   4.691  1.00  0.00    -0.130 NA
BRANCH  14  15
HETATM   15  N5  UNL     1      48.018  53.674   4.023  1.00  0.00    -0.225 N 
ATOM     16  H5  UNL     1      48.492  52.982   3.443  1.00  0.00     0.195 HD
BRANCH  15  17
HETATM   17  S1  UNL     1      48.616  55.276   4.266  1.00  0.00     0.306 S 
HETATM   18  O3  UNL     1      50.114  55.137   4.490  1.00  0.00    -0.196 OA
HETATM   19  O4  UNL     1      48.021  55.875   5.489  1.00  0.00    -0.196 OA
BRANCH  17  20
HETATM   20  C8  UNL     1      48.324  56.264   2.837  1.00  0.00     0.260 C 
HETATM   21  C9  UNL     1      49.504  56.928   2.217  1.00  0.00     0.111 C 
HETATM   22  O5  UNL     1      47.195  56.398   2.374  1.00  0.00    -0.279 OA
ENDBRANCH  17  20
ENDBRANCH  15  17
ENDBRANCH  14  15
ENDBRANCH  13  14
ENDBRANCH  12  13
ENDBRANCH  10  12
ENDBRANCH   4  10
BRANCH   5  23
HETATM   23  N6  UNL     1      43.164  52.303   6.187  1.00  0.00    -0.106 N 
HETATM   24  O6  UNL     1      42.120  52.093   5.540  1.00  0.00    -0.531 OA
HETATM   25  O7  UNL     1      43.764  53.530   6.063  1.00  0.00    -0.531 OA
ENDBRANCH   5  23
BRANCH   1  26
HETATM   26  N1  UNL     1      45.510  48.599   9.500  1.00  0.00    -0.135 N 
HETATM   27  C3  UNL     1      45.896  47.345   8.986  1.00  0.00     0.379 C 
HETATM   28  O2  UNL     1      46.990  47.203   8.391  1.00  0.00    -0.238 OA
ATOM     29  H1  UNL     1      45.682  48.810  10.483  1.00  0.00     0.189 HD
BRANCH  27  30
HETATM   30  O1  UNL     1      45.051  46.266   9.147  1.00  0.00    -0.304 OA
BRANCH  30  31
HETATM   31  C2  UNL     1      45.505  44.947   9.305  1.00  0.00     0.176 C 
HETATM   32  C1  UNL     1      44.484  43.907   8.959  1.00  0.00     0.034 C 
ENDBRANCH  30  31
ENDBRANCH  27  30
ENDBRANCH   1  26
TORSDOF 11
ENDMDL
