MODEL 1
REMARK VINA RESULT: -8.547663137      0.000      0.000
REMARK  13 active torsions:
REMARK  status: ('A' for Active; 'I' for Inactive)
REMARK    1  A    between atoms: O1_3  and  N2_4 
REMARK    2  A    between atoms: N2_4  and  C2_6 
REMARK    3  A    between atoms: C2_6  and  O2_7 
REMARK    4  A    between atoms: C2_6  and  N3_9 
REMARK    5  A    between atoms: N3_9  and  C3_10 
REMARK    6  A    between atoms: C3_10  and  C4_11 
REMARK    7  A    between atoms: C3_10  and  C8_21 
REMARK    8  A    between atoms: C4_11  and  C5_12 
REMARK    9  A    between atoms: C6_13  and  C7_14 
REMARK   10  A    between atoms: C7_14  and  N4_15 
REMARK   11  A    between atoms: C7_14  and  O3_19 
REMARK   12  A    between atoms: C8_21  and  O4_22 
REMARK   13  A    between atoms: C8_21  and  C9_24 
ROOT
HETATM    1  N1  UNL     1      42.254  53.715  12.588  1.00  0.00    -0.162 NA
HETATM    2  C1  UNL     1      42.350  53.384  11.490  1.00  0.00     0.253 C 
HETATM    3  O1  UNL     1      42.471  53.042  10.215  1.00  0.00    -0.155 OA
ENDROOT
BRANCH   3   4
HETATM    4  N2  UNL     1      42.536  51.819   9.613  1.00  0.00    -0.201 N 
ATOM      5  H2  UNL     1      41.672  51.336   9.364  1.00  0.00     0.200 HD
BRANCH   4   6
HETATM    6  C2  UNL     1      43.785  51.205   9.327  1.00  0.00     0.319 C 
BRANCH   6   7
HETATM    7  O2  UNL     1      44.592  52.037   8.695  1.00  0.00    -0.320 OA
ATOM      8  H2  UNL     1      44.888  52.733   9.270  1.00  0.00     0.222 HD
ENDBRANCH   6   7
BRANCH   6   9
HETATM    9  N3  UNL     1      44.183  49.921   9.631  1.00  0.00    -0.370 NA
BRANCH   9  10
HETATM   10  C3  UNL     1      44.577  48.648   9.953  1.00  0.00     0.101 C 
BRANCH  10  11
HETATM   11  C4  UNL     1      45.118  48.311  11.285  1.00  0.00     0.098 C 
BRANCH  11  12
HETATM   12  C5  UNL     1      44.222  48.131  12.427  1.00  0.00    -0.020 C 
HETATM   13  C6  UNL     1      44.656  48.000  13.678  1.00  0.00     0.029 C 
BRANCH  13  14
HETATM   14  C7  UNL     1      46.051  48.012  14.139  1.00  0.00     0.340 C 
BRANCH  14  15
HETATM   15  N4  UNL     1      46.677  46.700  14.001  1.00  0.00    -0.050 N 
ATOM     16  H43 UNL     1      47.278  46.489  14.798  1.00  0.00     0.277 HD
ATOM     17  H42 UNL     1      45.996  45.949  14.111  1.00  0.00     0.277 HD
ATOM     18  H41 UNL     1      47.185  46.615  13.121  1.00  0.00     0.277 HD
ENDBRANCH  14  15
BRANCH  14  19
HETATM   19  O3  UNL     1      46.176  48.505  15.457  1.00  0.00    -0.367 OA
ATOM     20  H3  UNL     1      47.059  48.414  15.794  1.00  0.00     0.212 HD
ENDBRANCH  14  19
ENDBRANCH  13  14
ENDBRANCH  11  12
ENDBRANCH  10  11
BRANCH  10  21
HETATM   21  C8  UNL     1      45.060  47.776   8.828  1.00  0.00     0.207 C 
BRANCH  21  22
HETATM   22  O4  UNL     1      46.098  48.487   8.134  1.00  0.00    -0.386 OA
ATOM     23  H4  UNL     1      45.684  49.134   7.574  1.00  0.00     0.210 HD
ENDBRANCH  21  22
BRANCH  21  24
HETATM   24  C9  UNL     1      45.940  46.613   9.368  1.00  0.00     0.169 C 
HETATM   25  C10 UNL     1      47.206  46.432   8.644  1.00  0.00     0.066 C 
HETATM   26  C11 UNL     1      48.107  45.415   9.382  1.00  0.00     0.275 C 
HETATM   27  N5  UNL     1      47.547  44.975  10.587  1.00  0.00     0.093 N 
HETATM   28  C12 UNL     1      48.541  44.994  11.646  1.00  0.00     0.273 C 
HETATM   29  C15 UNL     1      47.086  43.625  10.665  1.00  0.00     0.232 C 
HETATM   30  C13 UNL     1      49.309  43.698  11.389  1.00  0.00     0.032 C 
HETATM   31  C14 UNL     1      48.230  42.731  10.992  1.00  0.00     0.038 C 
HETATM   32  C16 UNL     1      46.346  43.110   9.459  1.00  0.00     0.146 C 
HETATM   33  C17 UNL     1      45.257  44.099   9.191  1.00  0.00     0.261 C 
HETATM   34  O5  UNL     1      44.205  43.561   8.726  1.00  0.00    -0.265 OA
HETATM   35  O6  UNL     1      45.141  45.433   9.335  1.00  0.00    -0.313 OA
ENDBRANCH  21  24
ENDBRANCH  10  21
ENDBRANCH   9  10
ENDBRANCH   6   9
ENDBRANCH   4   6
ENDBRANCH   3   4
TORSDOF 13
ENDMDL
MODEL 2
REMARK VINA RESULT: -8.542811217      1.183      2.082
REMARK  13 active torsions:
REMARK  status: ('A' for Active; 'I' for Inactive)
REMARK    1  A    between atoms: O1_3  and  N2_4 
REMARK    2  A    between atoms: N2_4  and  C2_6 
REMARK    3  A    between atoms: C2_6  and  O2_7 
REMARK    4  A    between atoms: C2_6  and  N3_9 
REMARK    5  A    between atoms: N3_9  and  C3_10 
REMARK    6  A    between atoms: C3_10  and  C4_11 
REMARK    7  A    between atoms: C3_10  and  C8_21 
REMARK    8  A    between atoms: C4_11  and  C5_12 
REMARK    9  A    between atoms: C6_13  and  C7_14 
REMARK   10  A    between atoms: C7_14  and  N4_15 
REMARK   11  A    between atoms: C7_14  and  O3_19 
REMARK   12  A    between atoms: C8_21  and  O4_22 
REMARK   13  A    between atoms: C8_21  and  C9_24 
ROOT
HETATM    1  N1  UNL     1      44.940  50.367   5.809  1.00  0.00    -0.162 NA
HETATM    2  C1  UNL     1      44.619  51.182   6.556  1.00  0.00     0.253 C 
HETATM    3  O1  UNL     1      44.228  52.140   7.385  1.00  0.00    -0.155 OA
ENDROOT
BRANCH   3   4
HETATM    4  N2  UNL     1      44.265  52.222   8.746  1.00  0.00    -0.201 N 
ATOM      5  H2  UNL     1      44.741  53.009   9.188  1.00  0.00     0.200 HD
BRANCH   4   6
HETATM    6  C2  UNL     1      43.652  51.232   9.560  1.00  0.00     0.319 C 
BRANCH   6   7
HETATM    7  O2  UNL     1      42.531  51.680  10.094  1.00  0.00    -0.320 OA
ATOM      8  H2  UNL     1      41.893  51.897   9.423  1.00  0.00     0.222 HD
ENDBRANCH   6   7
BRANCH   6   9
HETATM    9  N3  UNL     1      44.099  49.953   9.814  1.00  0.00    -0.370 NA
BRANCH   9  10
HETATM   10  C3  UNL     1      44.529  48.679  10.081  1.00  0.00     0.101 C 
BRANCH  10  11
HETATM   11  C4  UNL     1      45.108  48.307  11.387  1.00  0.00     0.098 C 
BRANCH  11  12
HETATM   12  C5  UNL     1      44.253  48.166  12.565  1.00  0.00    -0.020 C 
HETATM   13  C6  UNL     1      44.733  48.021  13.798  1.00  0.00     0.029 C 
BRANCH  13  14
HETATM   14  C7  UNL     1      46.144  47.979  14.202  1.00  0.00     0.340 C 
BRANCH  14  15
HETATM   15  N4  UNL     1      46.704  46.636  14.068  1.00  0.00    -0.050 N 
ATOM     16  H43 UNL     1      46.001  45.970  13.749  1.00  0.00     0.277 HD
ATOM     17  H42 UNL     1      47.348  46.578  13.279  1.00  0.00     0.277 HD
ATOM     18  H41 UNL     1      47.147  46.324  14.932  1.00  0.00     0.277 HD
ENDBRANCH  14  15
BRANCH  14  19
HETATM   19  O3  UNL     1      46.346  48.491  15.503  1.00  0.00    -0.367 OA
ATOM     20  H3  UNL     1      47.179  48.224  15.871  1.00  0.00     0.212 HD
ENDBRANCH  14  19
ENDBRANCH  13  14
ENDBRANCH  11  12
ENDBRANCH  10  11
BRANCH  10  21
HETATM   21  C8  UNL     1      45.007  47.860   8.914  1.00  0.00     0.207 C 
BRANCH  21  22
HETATM   22  O4  UNL     1      46.049  48.598   8.255  1.00  0.00    -0.386 OA
ATOM     23  H4  UNL     1      46.781  48.008   8.116  1.00  0.00     0.210 HD
ENDBRANCH  21  22
BRANCH  21  24
HETATM   24  C9  UNL     1      45.879  46.666   9.396  1.00  0.00     0.169 C 
HETATM   25  C10 UNL     1      47.124  46.488   8.636  1.00  0.00     0.066 C 
HETATM   26  C11 UNL     1      48.025  45.434   9.320  1.00  0.00     0.275 C 
HETATM   27  N5  UNL     1      47.487  44.965  10.524  1.00  0.00     0.093 N 
HETATM   28  C12 UNL     1      48.506  44.934  11.558  1.00  0.00     0.273 C 
HETATM   29  C15 UNL     1      47.005  43.620  10.572  1.00  0.00     0.232 C 
HETATM   30  C13 UNL     1      49.245  43.635  11.243  1.00  0.00     0.032 C 
HETATM   31  C14 UNL     1      48.140  42.698  10.842  1.00  0.00     0.038 C 
HETATM   32  C16 UNL     1      46.228  43.156   9.369  1.00  0.00     0.146 C 
HETATM   33  C17 UNL     1      45.149  44.171   9.158  1.00  0.00     0.261 C 
HETATM   34  O5  UNL     1      44.077  43.665   8.702  1.00  0.00    -0.265 OA
HETATM   35  O6  UNL     1      45.059  45.502   9.347  1.00  0.00    -0.313 OA
ENDBRANCH  21  24
ENDBRANCH  10  21
ENDBRANCH   9  10
ENDBRANCH   6   9
ENDBRANCH   4   6
ENDBRANCH   3   4
TORSDOF 13
ENDMDL
MODEL 3
REMARK VINA RESULT: -8.219538141      4.914      7.682
REMARK  13 active torsions:
REMARK  status: ('A' for Active; 'I' for Inactive)
REMARK    1  A    between atoms: O1_3  and  N2_4 
REMARK    2  A    between atoms: N2_4  and  C2_6 
REMARK    3  A    between atoms: C2_6  and  O2_7 
REMARK    4  A    between atoms: C2_6  and  N3_9 
REMARK    5  A    between atoms: N3_9  and  C3_10 
REMARK    6  A    between atoms: C3_10  and  C4_11 
REMARK    7  A    between atoms: C3_10  and  C8_21 
REMARK    8  A    between atoms: C4_11  and  C5_12 
REMARK    9  A    between atoms: C6_13  and  C7_14 
REMARK   10  A    between atoms: C7_14  and  N4_15 
REMARK   11  A    between atoms: C7_14  and  O3_19 
REMARK   12  A    between atoms: C8_21  and  O4_22 
REMARK   13  A    between atoms: C8_21  and  C9_24 
ROOT
HETATM    1  N1  UNL     1      48.334  56.364   5.356  1.00  0.00    -0.162 NA
HETATM    2  C1  UNL     1      48.738  55.363   4.955  1.00  0.00     0.253 C 
HETATM    3  O1  UNL     1      49.242  54.226   4.497  1.00  0.00    -0.155 OA
ENDROOT
BRANCH   3   4
HETATM    4  N2  UNL     1      48.673  53.001   4.305  1.00  0.00    -0.201 N 
ATOM      5  H2  UNL     1      48.742  52.554   3.391  1.00  0.00     0.200 HD
BRANCH   4   6
HETATM    6  C2  UNL     1      47.987  52.337   5.357  1.00  0.00     0.319 C 
BRANCH   6   7
HETATM    7  O2  UNL     1      48.747  52.229   6.431  1.00  0.00    -0.320 OA
ATOM      8  H2  UNL     1      48.562  52.922   7.054  1.00  0.00     0.222 HD
ENDBRANCH   6   7
BRANCH   6   9
HETATM    9  N3  UNL     1      46.701  51.839   5.343  1.00  0.00    -0.370 NA
BRANCH   9  10
HETATM   10  C3  UNL     1      45.430  51.327   5.319  1.00  0.00     0.101 C 
BRANCH  10  11
HETATM   11  C4  UNL     1      44.595  51.367   4.102  1.00  0.00     0.098 C 
BRANCH  11  12
HETATM   12  C5  UNL     1      44.386  52.624   3.385  1.00  0.00    -0.020 C 
HETATM   13  C6  UNL     1      43.275  52.896   2.704  1.00  0.00     0.029 C 
BRANCH  13  14
HETATM   14  C7  UNL     1      42.097  52.034   2.547  1.00  0.00     0.340 C 
BRANCH  14  15
HETATM   15  N4  UNL     1      42.234  51.134   1.404  1.00  0.00    -0.050 N 
ATOM     16  H43 UNL     1      42.891  51.504   0.716  1.00  0.00     0.277 HD
ATOM     17  H42 UNL     1      42.733  50.282   1.659  1.00  0.00     0.277 HD
ATOM     18  H41 UNL     1      41.331  50.923   0.979  1.00  0.00     0.277 HD
ENDBRANCH  14  15
BRANCH  14  19
HETATM   19  O3  UNL     1      40.896  52.775   2.475  1.00  0.00    -0.367 OA
ATOM     20  H3  UNL     1      40.817  53.255   1.660  1.00  0.00     0.212 HD
ENDBRANCH  14  19
ENDBRANCH  13  14
ENDBRANCH  11  12
ENDBRANCH  10  11
BRANCH  10  21
HETATM   21  C8  UNL     1      44.670  51.322   6.616  1.00  0.00     0.207 C 
BRANCH  21  22
HETATM   22  O4  UNL     1      43.303  50.988   6.324  1.00  0.00    -0.386 OA
ATOM     23  H4  UNL     1      43.103  51.311   5.453  1.00  0.00     0.210 HD
ENDBRANCH  21  22
BRANCH  21  24
HETATM   24  C9  UNL     1      45.012  50.058   7.454  1.00  0.00     0.169 C 
HETATM   25  C10 UNL     1      44.312  48.841   7.017  1.00  0.00     0.066 C 
HETATM   26  C11 UNL     1      44.876  47.603   7.751  1.00  0.00     0.275 C 
HETATM   27  N5  UNL     1      45.957  47.917   8.584  1.00  0.00     0.093 N 
HETATM   28  C12 UNL     1      47.035  46.961   8.400  1.00  0.00     0.273 C 
HETATM   29  C15 UNL     1      45.764  47.847   9.998  1.00  0.00     0.232 C 
HETATM   30  C13 UNL     1      46.567  45.781   9.251  1.00  0.00     0.032 C 
HETATM   31  C14 UNL     1      45.956  46.444  10.453  1.00  0.00     0.038 C 
HETATM   32  C16 UNL     1      44.457  48.390  10.513  1.00  0.00     0.146 C 
HETATM   33  C17 UNL     1      44.341  49.776   9.961  1.00  0.00     0.261 C 
HETATM   34  O5  UNL     1      43.746  50.573  10.751  1.00  0.00    -0.265 OA
HETATM   35  O6  UNL     1      44.730  50.369   8.816  1.00  0.00    -0.313 OA
ENDBRANCH  21  24
ENDBRANCH  10  21
ENDBRANCH   9  10
ENDBRANCH   6   9
ENDBRANCH   4   6
ENDBRANCH   3   4
TORSDOF 13
ENDMDL
MODEL 4
REMARK VINA RESULT: -8.079880142      2.131      4.920
REMARK  13 active torsions:
REMARK  status: ('A' for Active; 'I' for Inactive)
REMARK    1  A    between atoms: O1_3  and  N2_4 
REMARK    2  A    between atoms: N2_4  and  C2_6 
REMARK    3  A    between atoms: C2_6  and  O2_7 
REMARK    4  A    between atoms: C2_6  and  N3_9 
REMARK    5  A    between atoms: N3_9  and  C3_10 
REMARK    6  A    between atoms: C3_10  and  C4_11 
REMARK    7  A    between atoms: C3_10  and  C8_21 
REMARK    8  A    between atoms: C4_11  and  C5_12 
REMARK    9  A    between atoms: C6_13  and  C7_14 
REMARK   10  A    between atoms: C7_14  and  N4_15 
REMARK   11  A    between atoms: C7_14  and  O3_19 
REMARK   12  A    between atoms: C8_21  and  O4_22 
REMARK   13  A    between atoms: C8_21  and  C9_24 
ROOT
HETATM    1  N1  UNL     1      49.027  47.787  14.782  1.00  0.00    -0.162 NA
HETATM    2  C1  UNL     1      48.222  47.774  13.959  1.00  0.00     0.253 C 
HETATM    3  O1  UNL     1      47.325  47.767  12.984  1.00  0.00    -0.155 OA
ENDROOT
BRANCH   3   4
HETATM    4  N2  UNL     1      46.031  47.335  12.954  1.00  0.00    -0.201 N 
ATOM      5  H2  UNL     1      45.798  46.421  13.343  1.00  0.00     0.200 HD
BRANCH   4   6
HETATM    6  C2  UNL     1      45.001  48.137  12.392  1.00  0.00     0.319 C 
BRANCH   6   7
HETATM    7  O2  UNL     1      44.095  48.456  13.299  1.00  0.00    -0.320 OA
ATOM      8  H2  UNL     1      44.173  49.367  13.557  1.00  0.00     0.222 HD
ENDBRANCH   6   7
BRANCH   6   9
HETATM    9  N3  UNL     1      44.884  48.568  11.088  1.00  0.00    -0.370 NA
BRANCH   9  10
HETATM   10  C3  UNL     1      44.749  49.003   9.795  1.00  0.00     0.101 C 
BRANCH  10  11
HETATM   11  C4  UNL     1      43.885  50.148   9.443  1.00  0.00     0.098 C 
BRANCH  11  12
HETATM   12  C5  UNL     1      44.457  51.352   8.841  1.00  0.00    -0.020 C 
HETATM   13  C6  UNL     1      44.366  51.629   7.542  1.00  0.00     0.029 C 
BRANCH  13  14
HETATM   14  C7  UNL     1      43.707  50.822   6.507  1.00  0.00     0.340 C 
BRANCH  14  15
HETATM   15  N4  UNL     1      44.658  50.351   5.503  1.00  0.00    -0.050 N 
ATOM     16  H43 UNL     1      45.076  51.128   4.992  1.00  0.00     0.277 HD
ATOM     17  H42 UNL     1      45.500  49.973   5.936  1.00  0.00     0.277 HD
ATOM     18  H41 UNL     1      44.232  49.676   4.868  1.00  0.00     0.277 HD
ENDBRANCH  14  15
BRANCH  14  19
HETATM   19  O3  UNL     1      42.622  51.500   5.909  1.00  0.00    -0.367 OA
ATOM     20  H3  UNL     1      41.860  50.942   5.806  1.00  0.00     0.212 HD
ENDBRANCH  14  19
ENDBRANCH  13  14
ENDBRANCH  11  12
ENDBRANCH  10  11
BRANCH  10  21
HETATM   21  C8  UNL     1      44.932  47.982   8.707  1.00  0.00     0.207 C 
BRANCH  21  22
HETATM   22  O4  UNL     1      45.892  48.502   7.772  1.00  0.00    -0.386 OA
ATOM     23  H4  UNL     1      46.553  48.973   8.265  1.00  0.00     0.210 HD
ENDBRANCH  21  22
BRANCH  21  24
HETATM   24  C9  UNL     1      45.775  46.778   9.214  1.00  0.00     0.169 C 
HETATM   25  C10 UNL     1      47.008  46.546   8.449  1.00  0.00     0.066 C 
HETATM   26  C11 UNL     1      47.886  45.486   9.153  1.00  0.00     0.275 C 
HETATM   27  N5  UNL     1      47.347  45.065  10.375  1.00  0.00     0.093 N 
HETATM   28  C12 UNL     1      48.375  45.034  11.400  1.00  0.00     0.273 C 
HETATM   29  C15 UNL     1      46.829  43.736  10.463  1.00  0.00     0.232 C 
HETATM   30  C13 UNL     1      49.075  43.706  11.114  1.00  0.00     0.032 C 
HETATM   31  C14 UNL     1      47.941  42.791  10.749  1.00  0.00     0.038 C 
HETATM   32  C16 UNL     1      46.028  43.260   9.280  1.00  0.00     0.146 C 
HETATM   33  C17 UNL     1      44.975  44.299   9.051  1.00  0.00     0.261 C 
HETATM   34  O5  UNL     1      43.886  43.810   8.618  1.00  0.00    -0.265 OA
HETATM   35  O6  UNL     1      44.924  45.636   9.204  1.00  0.00    -0.313 OA
ENDBRANCH  21  24
ENDBRANCH  10  21
ENDBRANCH   9  10
ENDBRANCH   6   9
ENDBRANCH   4   6
ENDBRANCH   3   4
TORSDOF 13
ENDMDL
MODEL 5
REMARK VINA RESULT: -8.028463030      2.111      4.284
REMARK  13 active torsions:
REMARK  status: ('A' for Active; 'I' for Inactive)
REMARK    1  A    between atoms: O1_3  and  N2_4 
REMARK    2  A    between atoms: N2_4  and  C2_6 
REMARK    3  A    between atoms: C2_6  and  O2_7 
REMARK    4  A    between atoms: C2_6  and  N3_9 
REMARK    5  A    between atoms: N3_9  and  C3_10 
REMARK    6  A    between atoms: C3_10  and  C4_11 
REMARK    7  A    between atoms: C3_10  and  C8_21 
REMARK    8  A    between atoms: C4_11  and  C5_12 
REMARK    9  A    between atoms: C6_13  and  C7_14 
REMARK   10  A    between atoms: C7_14  and  N4_15 
REMARK   11  A    between atoms: C7_14  and  O3_19 
REMARK   12  A    between atoms: C8_21  and  O4_22 
REMARK   13  A    between atoms: C8_21  and  C9_24 
ROOT
HETATM    1  N1  UNL     1      42.242  54.508  12.326  1.00  0.00    -0.162 NA
HETATM    2  C1  UNL     1      42.300  53.779  11.436  1.00  0.00     0.253 C 
HETATM    3  O1  UNL     1      42.328  52.946  10.406  1.00  0.00    -0.155 OA
ENDROOT
BRANCH   3   4
HETATM    4  N2  UNL     1      43.372  52.408   9.711  1.00  0.00    -0.201 N 
ATOM      5  H2  UNL     1      43.881  52.986   9.043  1.00  0.00     0.200 HD
BRANCH   4   6
HETATM    6  C2  UNL     1      43.763  51.055   9.903  1.00  0.00     0.319 C 
BRANCH   6   7
HETATM    7  O2  UNL     1      43.665  50.704  11.171  1.00  0.00    -0.320 OA
ATOM      8  H2  UNL     1      44.397  50.159  11.435  1.00  0.00     0.222 HD
ENDBRANCH   6   7
BRANCH   6   9
HETATM    9  N3  UNL     1      44.199  50.160   8.949  1.00  0.00    -0.370 NA
BRANCH   9  10
HETATM   10  C3  UNL     1      44.648  49.284   7.996  1.00  0.00     0.101 C 
BRANCH  10  11
HETATM   11  C4  UNL     1      45.039  49.732   6.644  1.00  0.00     0.098 C 
BRANCH  11  12
HETATM   12  C5  UNL     1      45.459  51.113   6.412  1.00  0.00    -0.020 C 
HETATM   13  C6  UNL     1      44.626  52.069   6.009  1.00  0.00     0.029 C 
BRANCH  13  14
HETATM   14  C7  UNL     1      43.190  51.935   5.732  1.00  0.00     0.340 C 
BRANCH  14  15
HETATM   15  N4  UNL     1      42.713  52.981   4.831  1.00  0.00    -0.050 N 
ATOM     16  H43 UNL     1      43.439  53.673   4.647  1.00  0.00     0.277 HD
ATOM     17  H42 UNL     1      42.587  52.627   3.882  1.00  0.00     0.277 HD
ATOM     18  H41 UNL     1      41.861  53.420   5.179  1.00  0.00     0.277 HD
ENDBRANCH  14  15
BRANCH  14  19
HETATM   19  O3  UNL     1      42.417  51.885   6.914  1.00  0.00    -0.367 OA
ATOM     20  H3  UNL     1      41.502  52.082   6.755  1.00  0.00     0.212 HD
ENDBRANCH  14  19
ENDBRANCH  13  14
ENDBRANCH  11  12
ENDBRANCH  10  11
BRANCH  10  21
HETATM   21  C8  UNL     1      44.151  47.867   8.080  1.00  0.00     0.207 C 
BRANCH  21  22
HETATM   22  O4  UNL     1      44.353  47.252   6.797  1.00  0.00    -0.386 OA
ATOM     23  H4  UNL     1      45.143  46.727   6.846  1.00  0.00     0.210 HD
ENDBRANCH  21  22
BRANCH  21  24
HETATM   24  C9  UNL     1      45.141  46.980   8.887  1.00  0.00     0.169 C 
HETATM   25  C10 UNL     1      46.505  46.952   8.339  1.00  0.00     0.066 C 
HETATM   26  C11 UNL     1      47.463  46.238   9.319  1.00  0.00     0.275 C 
HETATM   27  N5  UNL     1      46.834  45.865  10.512  1.00  0.00     0.093 N 
HETATM   28  C12 UNL     1      47.659  46.219  11.654  1.00  0.00     0.273 C 
HETATM   29  C15 UNL     1      46.611  44.474  10.753  1.00  0.00     0.232 C 
HETATM   30  C13 UNL     1      48.670  45.073  11.688  1.00  0.00     0.032 C 
HETATM   31  C14 UNL     1      47.840  43.871  11.336  1.00  0.00     0.038 C 
HETATM   32  C16 UNL     1      46.141  43.667   9.572  1.00  0.00     0.146 C 
HETATM   33  C17 UNL     1      44.940  44.381   9.037  1.00  0.00     0.261 C 
HETATM   34  O5  UNL     1      44.070  43.592   8.554  1.00  0.00    -0.265 OA
HETATM   35  O6  UNL     1      44.573  45.675   8.956  1.00  0.00    -0.313 OA
ENDBRANCH  21  24
ENDBRANCH  10  21
ENDBRANCH   9  10
ENDBRANCH   6   9
ENDBRANCH   4   6
ENDBRANCH   3   4
TORSDOF 13
ENDMDL
