MODEL 1
REMARK VINA RESULT: -8.560800600      0.000      0.000
REMARK  11 active torsions:
REMARK  status: ('A' for Active; 'I' for Inactive)
REMARK    1  A    between atoms: C2_2  and  N1_3 
REMARK    2  A    between atoms: N1_3  and  C3_4 
REMARK    3  A    between atoms: N1_3  and  C5_6 
REMARK    4  A    between atoms: C5_6  and  C6_7 
REMARK    5  A    between atoms: C6_7  and  O1_8 
REMARK    6  A    between atoms: O1_8  and  C7_9 
REMARK    7  A    between atoms: C7_9  and  C8_11 
REMARK    8  A    between atoms: C8_11  and  N2_12 
REMARK    9  A    between atoms: C12_24  and  N7_25 
REMARK   10  A    between atoms: N7_25  and  C13_27 
REMARK   11  A    between atoms: C13_27  and  O4_30 
ROOT
HETATM    1  N2  UNL     1      44.560  48.599   8.646  1.00  0.00    -0.153 N 
HETATM    2  C9  UNL     1      44.494  48.545   9.987  1.00  0.00     0.172 A 
HETATM    3  N3  UNL     1      44.662  47.894  11.152  1.00  0.00    -0.282 N 
ATOM      4  H3  UNL     1      44.989  46.967  11.424  1.00  0.00     0.188 HD
HETATM    5  N4  UNL     1      44.225  48.961  11.794  1.00  0.00    -0.291 N 
ATOM      6  H4  UNL     1      44.084  49.173  12.781  1.00  0.00     0.187 HD
HETATM    7  C10 UNL     1      44.036  49.664  10.666  1.00  0.00     0.165 A 
HETATM    8  C11 UNL     1      43.673  50.764   9.933  1.00  0.00     0.314 A 
HETATM    9  O3  UNL     1      43.256  51.787  10.532  1.00  0.00    -0.263 OA
HETATM   10  N5  UNL     1      43.755  50.780   8.567  1.00  0.00    -0.030 N 
HETATM   11  N6  UNL     1      43.481  51.674   7.654  1.00  0.00    -0.107 N 
ATOM     12  H6  UNL     1      43.121  52.608   7.849  1.00  0.00     0.207 HD
HETATM   13  C12 UNL     1      43.736  51.199   6.434  1.00  0.00     0.710 A 
HETATM   14  N8  UNL     1      44.196  49.931   6.609  1.00  0.00    -0.019 N 
ATOM     15  H8  UNL     1      44.485  49.283   5.875  1.00  0.00     0.203 HD
HETATM   16  C16 UNL     1      44.199  49.696   7.919  1.00  0.00     0.726 A 
ENDROOT
BRANCH   1  17
HETATM   17  C8  UNL     1      45.039  47.447   7.883  1.00  0.00     0.260 C 
BRANCH  17  18
HETATM   18  C7  UNL     1      44.285  46.237   8.377  1.00  0.00     0.277 C 
HETATM   19  O2  UNL     1      43.110  46.022   7.983  1.00  0.00    -0.263 OA
BRANCH  18  20
HETATM   20  O1  UNL     1      44.859  45.348   9.258  1.00  0.00    -0.318 OA
BRANCH  20  21
HETATM   21  C6  UNL     1      45.049  43.981   9.062  1.00  0.00     0.209 C 
BRANCH  21  22
HETATM   22  C5  UNL     1      46.399  43.543   9.507  1.00  0.00     0.299 C 
BRANCH  22  23
HETATM   23  N1  UNL     1      47.228  44.654   9.954  1.00  0.00     0.089 N 
BRANCH  23  24
HETATM   24  C2  UNL     1      47.574  44.519  11.353  1.00  0.00     0.268 C 
HETATM   25  C1  UNL     1      47.611  45.890  11.976  1.00  0.00     0.037 C 
ENDBRANCH  23  24
BRANCH  23  26
HETATM   26  C3  UNL     1      48.389  44.813   9.103  1.00  0.00     0.268 C 
HETATM   27  C4  UNL     1      48.251  46.062   8.280  1.00  0.00     0.037 C 
ENDBRANCH  23  26
ENDBRANCH  22  23
ENDBRANCH  21  22
ENDBRANCH  20  21
ENDBRANCH  18  20
ENDBRANCH  17  18
ENDBRANCH   1  17
BRANCH  13  28
HETATM   28  N7  UNL     1      43.596  51.778   5.310  1.00  0.00    -0.193 N 
ATOM     29  H7  UNL     1      42.655  52.113   5.105  1.00  0.00     0.181 HD
BRANCH  28  30
HETATM   30  C13 UNL     1      44.563  52.023   4.299  1.00  0.00     0.140 C 
HETATM   31  C14 UNL     1      45.627  53.015   4.631  1.00  0.00     0.071 C 
HETATM   32  C15 UNL     1      43.831  52.537   3.054  1.00  0.00     0.071 C 
BRANCH  30  33
HETATM   33  O4  UNL     1      45.171  50.805   3.914  1.00  0.00    -0.371 OA
ATOM     34  H4  UNL     1      45.118  50.704   2.971  1.00  0.00     0.212 HD
ENDBRANCH  30  33
ENDBRANCH  28  30
ENDBRANCH  13  28
TORSDOF 11
ENDMDL
MODEL 2
REMARK VINA RESULT: -8.260578907      0.627      1.204
REMARK  11 active torsions:
REMARK  status: ('A' for Active; 'I' for Inactive)
REMARK    1  A    between atoms: C2_2  and  N1_3 
REMARK    2  A    between atoms: N1_3  and  C3_4 
REMARK    3  A    between atoms: N1_3  and  C5_6 
REMARK    4  A    between atoms: C5_6  and  C6_7 
REMARK    5  A    between atoms: C6_7  and  O1_8 
REMARK    6  A    between atoms: O1_8  and  C7_9 
REMARK    7  A    between atoms: C7_9  and  C8_11 
REMARK    8  A    between atoms: C8_11  and  N2_12 
REMARK    9  A    between atoms: C12_24  and  N7_25 
REMARK   10  A    between atoms: N7_25  and  C13_27 
REMARK   11  A    between atoms: C13_27  and  O4_30 
ROOT
HETATM    1  N2  UNL     1      44.574  48.547   8.710  1.00  0.00    -0.153 N 
HETATM    2  C9  UNL     1      44.509  48.498  10.051  1.00  0.00     0.172 A 
HETATM    3  N3  UNL     1      44.676  47.851  11.218  1.00  0.00    -0.282 N 
ATOM      4  H3  UNL     1      45.000  46.923  11.493  1.00  0.00     0.188 HD
HETATM    5  N4  UNL     1      44.242  48.922  11.857  1.00  0.00    -0.291 N 
ATOM      6  H4  UNL     1      44.103  49.137  12.844  1.00  0.00     0.187 HD
HETATM    7  C10 UNL     1      44.054  49.621  10.727  1.00  0.00     0.165 A 
HETATM    8  C11 UNL     1      43.695  50.720   9.990  1.00  0.00     0.314 A 
HETATM    9  O3  UNL     1      43.281  51.746  10.585  1.00  0.00    -0.263 OA
HETATM   10  N5  UNL     1      43.776  50.731   8.624  1.00  0.00    -0.030 N 
HETATM   11  N6  UNL     1      43.504  51.623   7.708  1.00  0.00    -0.107 N 
ATOM     12  H6  UNL     1      43.147  52.559   7.900  1.00  0.00     0.207 HD
HETATM   13  C12 UNL     1      43.756  51.142   6.490  1.00  0.00     0.710 A 
HETATM   14  N8  UNL     1      44.213  49.873   6.668  1.00  0.00    -0.019 N 
ATOM     15  H8  UNL     1      44.499  49.222   5.937  1.00  0.00     0.203 HD
HETATM   16  C16 UNL     1      44.216  49.643   7.979  1.00  0.00     0.726 A 
ENDROOT
BRANCH   1  17
HETATM   17  C8  UNL     1      45.048  47.391   7.951  1.00  0.00     0.260 C 
BRANCH  17  18
HETATM   18  C7  UNL     1      44.081  46.262   8.202  1.00  0.00     0.277 C 
HETATM   19  O2  UNL     1      42.846  46.441   8.044  1.00  0.00    -0.263 OA
BRANCH  18  20
HETATM   20  O1  UNL     1      44.521  45.020   8.603  1.00  0.00    -0.318 OA
BRANCH  20  21
HETATM   21  C6  UNL     1      45.416  44.744   9.637  1.00  0.00     0.209 C 
BRANCH  21  22
HETATM   22  C5  UNL     1      46.368  43.662   9.267  1.00  0.00     0.299 C 
BRANCH  22  23
HETATM   23  N1  UNL     1      47.758  44.048   9.472  1.00  0.00     0.089 N 
BRANCH  23  24
HETATM   24  C2  UNL     1      47.901  45.488   9.505  1.00  0.00     0.268 C 
HETATM   25  C1  UNL     1      48.419  45.953   8.168  1.00  0.00     0.037 C 
ENDBRANCH  23  24
BRANCH  23  26
HETATM   26  C3  UNL     1      48.310  43.404  10.646  1.00  0.00     0.268 C 
HETATM   27  C4  UNL     1      49.096  44.399  11.450  1.00  0.00     0.037 C 
ENDBRANCH  23  26
ENDBRANCH  22  23
ENDBRANCH  21  22
ENDBRANCH  20  21
ENDBRANCH  18  20
ENDBRANCH  17  18
ENDBRANCH   1  17
BRANCH  13  28
HETATM   28  N7  UNL     1      43.618  51.718   5.363  1.00  0.00    -0.193 N 
ATOM     29  H7  UNL     1      42.673  52.038   5.150  1.00  0.00     0.181 HD
BRANCH  28  30
HETATM   30  C13 UNL     1      44.589  51.978   4.362  1.00  0.00     0.140 C 
HETATM   31  C14 UNL     1      45.658  52.955   4.717  1.00  0.00     0.071 C 
HETATM   32  C15 UNL     1      43.866  52.520   3.124  1.00  0.00     0.071 C 
BRANCH  30  33
HETATM   33  O4  UNL     1      45.192  50.764   3.954  1.00  0.00    -0.371 OA
ATOM     34  H4  UNL     1      44.951  50.572   3.055  1.00  0.00     0.212 HD
ENDBRANCH  30  33
ENDBRANCH  28  30
ENDBRANCH  13  28
TORSDOF 11
ENDMDL
MODEL 3
REMARK VINA RESULT: -8.134679917      1.990      7.921
REMARK  11 active torsions:
REMARK  status: ('A' for Active; 'I' for Inactive)
REMARK    1  A    between atoms: C2_2  and  N1_3 
REMARK    2  A    between atoms: N1_3  and  C3_4 
REMARK    3  A    between atoms: N1_3  and  C5_6 
REMARK    4  A    between atoms: C5_6  and  C6_7 
REMARK    5  A    between atoms: C6_7  and  O1_8 
REMARK    6  A    between atoms: O1_8  and  C7_9 
REMARK    7  A    between atoms: C7_9  and  C8_11 
REMARK    8  A    between atoms: C8_11  and  N2_12 
REMARK    9  A    between atoms: C12_24  and  N7_25 
REMARK   10  A    between atoms: N7_25  and  C13_27 
REMARK   11  A    between atoms: C13_27  and  O4_30 
ROOT
HETATM    1  N2  UNL     1      44.498  49.790   7.928  1.00  0.00    -0.153 N 
HETATM    2  C9  UNL     1      43.824  50.678   8.678  1.00  0.00     0.172 A 
HETATM    3  N3  UNL     1      43.103  51.805   8.810  1.00  0.00    -0.282 N 
ATOM      4  H3  UNL     1      42.759  52.525   8.174  1.00  0.00     0.188 HD
HETATM    5  N4  UNL     1      43.026  51.587  10.109  1.00  0.00    -0.291 N 
ATOM      6  H4  UNL     1      42.586  52.092  10.878  1.00  0.00     0.187 HD
HETATM    7  C10 UNL     1      43.741  50.452  10.044  1.00  0.00     0.165 A 
HETATM    8  C11 UNL     1      44.351  49.337  10.556  1.00  0.00     0.314 A 
HETATM    9  O3  UNL     1      44.286  49.116  11.791  1.00  0.00    -0.263 OA
HETATM   10  N5  UNL     1      45.028  48.454   9.758  1.00  0.00    -0.030 N 
HETATM   11  N6  UNL     1      45.680  47.345   9.985  1.00  0.00    -0.107 N 
ATOM     12  H6  UNL     1      45.795  46.919  10.904  1.00  0.00     0.207 HD
HETATM   13  C12 UNL     1      46.174  46.845   8.851  1.00  0.00     0.710 A 
HETATM   14  N8  UNL     1      45.802  47.704   7.863  1.00  0.00    -0.019 N 
ATOM     15  H8  UNL     1      46.017  47.617   6.869  1.00  0.00     0.203 HD
HETATM   16  C16 UNL     1      45.103  48.679   8.440  1.00  0.00     0.726 A 
ENDROOT
BRANCH   1  17
HETATM   17  C8  UNL     1      44.612  49.981   6.483  1.00  0.00     0.260 C 
BRANCH  17  18
HETATM   18  C7  UNL     1      45.294  51.306   6.258  1.00  0.00     0.277 C 
HETATM   19  O2  UNL     1      46.548  51.387   6.301  1.00  0.00    -0.263 OA
BRANCH  18  20
HETATM   20  O1  UNL     1      44.568  52.449   6.001  1.00  0.00    -0.318 OA
BRANCH  20  21
HETATM   21  C6  UNL     1      43.442  52.558   5.186  1.00  0.00     0.209 C 
BRANCH  21  22
HETATM   22  C5  UNL     1      43.797  52.481   3.743  1.00  0.00     0.299 C 
BRANCH  22  23
HETATM   23  N1  UNL     1      42.841  53.181   2.895  1.00  0.00     0.089 N 
BRANCH  23  24
HETATM   24  C2  UNL     1      43.091  52.912   1.495  1.00  0.00     0.268 C 
HETATM   25  C1  UNL     1      42.368  51.648   1.109  1.00  0.00     0.037 C 
ENDBRANCH  23  24
BRANCH  23  26
HETATM   26  C3  UNL     1      41.480  52.883   3.288  1.00  0.00     0.268 C 
HETATM   27  C4  UNL     1      40.671  54.148   3.321  1.00  0.00     0.037 C 
ENDBRANCH  23  26
ENDBRANCH  22  23
ENDBRANCH  21  22
ENDBRANCH  20  21
ENDBRANCH  18  20
ENDBRANCH  17  18
ENDBRANCH   1  17
BRANCH  13  28
HETATM   28  N7  UNL     1      46.856  45.785   8.679  1.00  0.00    -0.193 N 
ATOM     29  H7  UNL     1      47.420  45.761   7.830  1.00  0.00     0.181 HD
BRANCH  28  30
HETATM   30  C13 UNL     1      46.944  44.630   9.500  1.00  0.00     0.140 C 
HETATM   31  C14 UNL     1      48.083  43.709   9.222  1.00  0.00     0.071 C 
HETATM   32  C15 UNL     1      45.651  43.824   9.330  1.00  0.00     0.071 C 
BRANCH  30  33
HETATM   33  O4  UNL     1      46.982  45.014  10.862  1.00  0.00    -0.371 OA
ATOM     34  H4  UNL     1      46.123  44.900  11.252  1.00  0.00     0.212 HD
ENDBRANCH  30  33
ENDBRANCH  28  30
ENDBRANCH  13  28
TORSDOF 11
ENDMDL
MODEL 4
REMARK VINA RESULT: -8.134235262      2.007      7.954
REMARK  11 active torsions:
REMARK  status: ('A' for Active; 'I' for Inactive)
REMARK    1  A    between atoms: C2_2  and  N1_3 
REMARK    2  A    between atoms: N1_3  and  C3_4 
REMARK    3  A    between atoms: N1_3  and  C5_6 
REMARK    4  A    between atoms: C5_6  and  C6_7 
REMARK    5  A    between atoms: C6_7  and  O1_8 
REMARK    6  A    between atoms: O1_8  and  C7_9 
REMARK    7  A    between atoms: C7_9  and  C8_11 
REMARK    8  A    between atoms: C8_11  and  N2_12 
REMARK    9  A    between atoms: C12_24  and  N7_25 
REMARK   10  A    between atoms: N7_25  and  C13_27 
REMARK   11  A    between atoms: C13_27  and  O4_30 
ROOT
HETATM    1  N2  UNL     1      44.508  49.554   8.093  1.00  0.00    -0.153 N 
HETATM    2  C9  UNL     1      43.843  50.439   8.854  1.00  0.00     0.172 A 
HETATM    3  N3  UNL     1      43.099  51.551   8.995  1.00  0.00    -0.282 N 
ATOM      4  H3  UNL     1      42.714  52.251   8.361  1.00  0.00     0.188 HD
HETATM    5  N4  UNL     1      43.078  51.354  10.300  1.00  0.00    -0.291 N 
ATOM      6  H4  UNL     1      42.656  51.863  11.076  1.00  0.00     0.187 HD
HETATM    7  C10 UNL     1      43.818  50.236  10.226  1.00  0.00     0.165 A 
HETATM    8  C11 UNL     1      44.475  49.145  10.732  1.00  0.00     0.314 A 
HETATM    9  O3  UNL     1      44.463  48.945  11.972  1.00  0.00    -0.263 OA
HETATM   10  N5  UNL     1      45.142  48.265   9.923  1.00  0.00    -0.030 N 
HETATM   11  N6  UNL     1      45.829  47.175  10.144  1.00  0.00    -0.107 N 
ATOM     12  H6  UNL     1      45.990  46.769  11.065  1.00  0.00     0.207 HD
HETATM   13  C12 UNL     1      46.292  46.668   9.000  1.00  0.00     0.710 A 
HETATM   14  N8  UNL     1      45.860  47.499   8.013  1.00  0.00    -0.019 N 
ATOM     15  H8  UNL     1      46.039  47.400   7.013  1.00  0.00     0.203 HD
HETATM   16  C16 UNL     1      45.161  48.468   8.600  1.00  0.00     0.726 A 
ENDROOT
BRANCH   1  17
HETATM   17  C8  UNL     1      44.563  49.722   6.642  1.00  0.00     0.260 C 
BRANCH  17  18
HETATM   18  C7  UNL     1      44.976  51.146   6.369  1.00  0.00     0.277 C 
HETATM   19  O2  UNL     1      46.185  51.481   6.458  1.00  0.00    -0.263 OA
BRANCH  18  20
HETATM   20  O1  UNL     1      44.050  52.104   6.019  1.00  0.00    -0.318 OA
BRANCH  20  21
HETATM   21  C6  UNL     1      43.821  52.618   4.743  1.00  0.00     0.209 C 
BRANCH  21  22
HETATM   22  C5  UNL     1      42.385  52.942   4.529  1.00  0.00     0.299 C 
BRANCH  22  23
HETATM   23  N1  UNL     1      41.958  52.707   3.156  1.00  0.00     0.089 N 
BRANCH  23  24
HETATM   24  C2  UNL     1      41.217  53.838   2.639  1.00  0.00     0.268 C 
HETATM   25  C1  UNL     1      40.112  54.175   3.606  1.00  0.00     0.037 C 
ENDBRANCH  23  24
BRANCH  23  26
HETATM   26  C3  UNL     1      43.080  52.341   2.317  1.00  0.00     0.268 C 
HETATM   27  C4  UNL     1      42.584  51.880   0.977  1.00  0.00     0.037 C 
ENDBRANCH  23  26
ENDBRANCH  22  23
ENDBRANCH  21  22
ENDBRANCH  20  21
ENDBRANCH  18  20
ENDBRANCH  17  18
ENDBRANCH   1  17
BRANCH  13  28
HETATM   28  N7  UNL     1      46.992  45.622   8.820  1.00  0.00    -0.193 N 
ATOM     29  H7  UNL     1      47.601  45.639   8.001  1.00  0.00     0.181 HD
BRANCH  28  30
HETATM   30  C13 UNL     1      47.049  44.433   9.594  1.00  0.00     0.140 C 
HETATM   31  C14 UNL     1      48.198  43.522   9.322  1.00  0.00     0.071 C 
HETATM   32  C15 UNL     1      45.764  43.637   9.342  1.00  0.00     0.071 C 
BRANCH  30  33
HETATM   33  O4  UNL     1      47.035  44.760  10.971  1.00  0.00    -0.371 OA
ATOM     34  H4  UNL     1      47.920  44.729  11.317  1.00  0.00     0.212 HD
ENDBRANCH  30  33
ENDBRANCH  28  30
ENDBRANCH  13  28
TORSDOF 11
ENDMDL
MODEL 5
REMARK VINA RESULT: -7.956707554      0.834      1.416
REMARK  11 active torsions:
REMARK  status: ('A' for Active; 'I' for Inactive)
REMARK    1  A    between atoms: C2_2  and  N1_3 
REMARK    2  A    between atoms: N1_3  and  C3_4 
REMARK    3  A    between atoms: N1_3  and  C5_6 
REMARK    4  A    between atoms: C5_6  and  C6_7 
REMARK    5  A    between atoms: C6_7  and  O1_8 
REMARK    6  A    between atoms: O1_8  and  C7_9 
REMARK    7  A    between atoms: C7_9  and  C8_11 
REMARK    8  A    between atoms: C8_11  and  N2_12 
REMARK    9  A    between atoms: C12_24  and  N7_25 
REMARK   10  A    between atoms: N7_25  and  C13_27 
REMARK   11  A    between atoms: C13_27  and  O4_30 
ROOT
HETATM    1  N2  UNL     1      44.730  48.534   8.765  1.00  0.00    -0.153 N 
HETATM    2  C9  UNL     1      44.609  48.476  10.101  1.00  0.00     0.172 A 
HETATM    3  N3  UNL     1      44.754  47.832  11.273  1.00  0.00    -0.282 N 
ATOM      4  H3  UNL     1      45.107  46.918  11.560  1.00  0.00     0.188 HD
HETATM    5  N4  UNL     1      44.246  48.879  11.895  1.00  0.00    -0.291 N 
ATOM      6  H4  UNL     1      44.054  49.084  12.876  1.00  0.00     0.187 HD
HETATM    7  C10 UNL     1      44.076  49.575  10.760  1.00  0.00     0.165 A 
HETATM    8  C11 UNL     1      43.699  50.659  10.011  1.00  0.00     0.314 A 
HETATM    9  O3  UNL     1      43.215  51.663  10.591  1.00  0.00    -0.263 OA
HETATM   10  N5  UNL     1      43.839  50.680   8.650  1.00  0.00    -0.030 N 
HETATM   11  N6  UNL     1      43.567  51.564   7.726  1.00  0.00    -0.107 N 
ATOM     12  H6  UNL     1      43.160  52.482   7.904  1.00  0.00     0.207 HD
HETATM   13  C12 UNL     1      43.893  51.101   6.518  1.00  0.00     0.710 A 
HETATM   14  N8  UNL     1      44.398  49.852   6.713  1.00  0.00    -0.019 N 
ATOM     15  H8  UNL     1      44.744  49.218   5.992  1.00  0.00     0.203 HD
HETATM   16  C16 UNL     1      44.355  49.616   8.022  1.00  0.00     0.726 A 
ENDROOT
BRANCH   1  17
HETATM   17  C8  UNL     1      45.288  47.404   8.024  1.00  0.00     0.260 C 
BRANCH  17  18
HETATM   18  C7  UNL     1      44.559  46.165   8.479  1.00  0.00     0.277 C 
HETATM   19  O2  UNL     1      43.379  45.952   8.100  1.00  0.00    -0.263 OA
BRANCH  18  20
HETATM   20  O1  UNL     1      45.161  45.247   9.310  1.00  0.00    -0.318 OA
BRANCH  20  21
HETATM   21  C6  UNL     1      46.490  44.827   9.269  1.00  0.00     0.209 C 
BRANCH  21  22
HETATM   22  C5  UNL     1      47.307  45.477  10.329  1.00  0.00     0.299 C 
BRANCH  22  23
HETATM   23  N1  UNL     1      47.469  44.632  11.505  1.00  0.00     0.089 N 
BRANCH  23  24
HETATM   24  C2  UNL     1      47.919  43.307  11.138  1.00  0.00     0.268 C 
HETATM   25  C1  UNL     1      49.378  43.177  11.490  1.00  0.00     0.037 C 
ENDBRANCH  23  24
BRANCH  23  26
HETATM   26  C3  UNL     1      48.327  45.263  12.486  1.00  0.00     0.268 C 
HETATM   27  C4  UNL     1      47.855  46.664  12.750  1.00  0.00     0.037 C 
ENDBRANCH  23  26
ENDBRANCH  22  23
ENDBRANCH  21  22
ENDBRANCH  20  21
ENDBRANCH  18  20
ENDBRANCH  17  18
ENDBRANCH   1  17
BRANCH  13  28
HETATM   28  N7  UNL     1      43.778  51.674   5.388  1.00  0.00    -0.193 N 
ATOM     29  H7  UNL     1      42.853  52.051   5.183  1.00  0.00     0.181 HD
BRANCH  28  30
HETATM   30  C13 UNL     1      44.752  51.865   4.374  1.00  0.00     0.140 C 
HETATM   31  C14 UNL     1      45.896  52.759   4.716  1.00  0.00     0.071 C 
HETATM   32  C15 UNL     1      44.054  52.465   3.148  1.00  0.00     0.071 C 
BRANCH  30  33
HETATM   33  O4  UNL     1      45.256  50.611   3.954  1.00  0.00    -0.371 OA
ATOM     34  H4  UNL     1      44.606  49.935   4.110  1.00  0.00     0.212 HD
ENDBRANCH  30  33
ENDBRANCH  28  30
ENDBRANCH  13  28
TORSDOF 11
ENDMDL
