MODEL 1
REMARK VINA RESULT: -9.083979080      0.000      0.000
REMARK  13 active torsions:
REMARK  status: ('A' for Active; 'I' for Inactive)
REMARK    1  A    between atoms: C2_2  and  N1_3 
REMARK    2  A    between atoms: N2_6  and  C5_7 
REMARK    3  A    between atoms: C5_7  and  C6_8 
REMARK    4  A    between atoms: C6_8  and  C7_9 
REMARK    5  A    between atoms: C7_9  and  N3_10 
REMARK    6  A    between atoms: N3_10  and  C8_12 
REMARK    7  A    between atoms: C8_12  and  C9_14 
REMARK    8  A    between atoms: C11_16  and  N4_17 
REMARK       I    between atoms: N4_17  and  C12_19 
REMARK    9  A    between atoms: C14_22  and  N5_23 
REMARK       I    between atoms: N5_23  and  C15_25 
REMARK   10  A    between atoms: C15_25  and  C16_27 
REMARK   11  A    between atoms: C16_27  and  N6_28 
REMARK   12  A    between atoms: C22_35  and  O4_36 
REMARK   13  A    between atoms: O4_36  and  C23_37 
ROOT
HETATM    1  C9  UNL     1      14.883  21.667  18.244  1.00  0.00     0.037 A 
HETATM    2  C10 UNL     1      14.764  20.577  19.130  1.00  0.00     0.049 A 
HETATM    3  C11 UNL     1      13.935  19.528  18.844  1.00  0.00     0.062 A 
HETATM    4  C14 UNL     1      13.207  19.570  17.640  1.00  0.00     0.064 A 
HETATM    5  C21 UNL     1      13.346  20.638  16.813  1.00  0.00     0.069 A 
HETATM    6  C22 UNL     1      14.200  21.758  17.072  1.00  0.00     0.085 A 
ENDROOT
BRANCH   1   7
HETATM    7  C8  UNL     1      15.815  22.736  18.640  1.00  0.00     0.109 C 
HETATM    8  S1  UNL     1      17.165  22.273  19.467  1.00  0.00    -0.060 SA
BRANCH   7   9
HETATM    9  N3  UNL     1      15.554  24.098  18.366  1.00  0.00    -0.380 N 
ATOM     10  H3  UNL     1      14.605  24.469  18.406  1.00  0.00     0.160 HD
BRANCH   9  11
HETATM   11  C7  UNL     1      16.677  24.954  18.028  1.00  0.00     0.122 C 
BRANCH  11  12
HETATM   12  C6  UNL     1      17.301  24.537  16.732  1.00  0.00     0.039 C 
BRANCH  12  13
HETATM   13  C5  UNL     1      17.327  25.659  15.718  1.00  0.00     0.118 C 
BRANCH  13  14
HETATM   14  N2  UNL     1      18.555  25.757  15.009  1.00  0.00    -0.409 N 
HETATM   15  C4  UNL     1      19.672  25.144  15.631  1.00  0.00     0.147 C 
HETATM   16  C3  UNL     1      20.978  25.375  14.936  1.00  0.00     0.291 C 
HETATM   17  N1  UNL     1      21.183  26.756  14.562  1.00  0.00     0.091 N 
HETATM   18  C29 UNL     1      20.069  27.596  14.953  1.00  0.00     0.291 C 
HETATM   19  C28 UNL     1      18.823  26.986  14.352  1.00  0.00     0.147 C 
BRANCH  17  20
HETATM   20  C2  UNL     1      22.459  27.264  15.020  1.00  0.00     0.268 C 
HETATM   21  C1  UNL     1      22.591  28.723  14.719  1.00  0.00     0.037 C 
ENDBRANCH  17  20
ENDBRANCH  13  14
ENDBRANCH  12  13
ENDBRANCH  11  12
ENDBRANCH   9  11
ENDBRANCH   7   9
ENDBRANCH   1   7
BRANCH   6  22
HETATM   22  O4  UNL     1      14.229  22.729  16.160  1.00  0.00    -0.345 OA
BRANCH  22  23
HETATM   23  C23 UNL     1      14.471  23.007  14.896  1.00  0.00     0.129 C 
HETATM   24  C24 UNL     1      15.664  22.235  14.302  1.00  0.00     0.032 C 
HETATM   25  C25 UNL     1      15.348  21.917  12.877  1.00  0.00     0.002 C 
HETATM   26  C26 UNL     1      13.993  22.499  12.628  1.00  0.00     0.002 C 
HETATM   27  C27 UNL     1      13.311  22.628  13.946  1.00  0.00     0.032 C 
ENDBRANCH  22  23
ENDBRANCH   6  22
BRANCH   3  28
HETATM   28  N4  UNL     1      13.715  18.451  19.719  1.00  0.00    -0.326 N 
HETATM   29  C12 UNL     1      12.578  18.261  20.520  1.00  0.00     0.218 C 
HETATM   30  C13 UNL     1      12.459  17.049  21.421  1.00  0.00     0.117 C 
HETATM   31  O1  UNL     1      11.594  19.024  20.580  1.00  0.00    -0.274 OA
ATOM     32  H4  UNL     1      14.448  17.744  19.779  1.00  0.00     0.169 HD
ENDBRANCH   3  28
BRANCH   4  33
HETATM   33  N5  UNL     1      12.415  18.454  17.300  1.00  0.00    -0.324 N 
HETATM   34  C15 UNL     1      11.021  18.334  17.261  1.00  0.00     0.250 C 
HETATM   35  O2  UNL     1      10.268  19.270  17.540  1.00  0.00    -0.271 OA
ATOM     36  H5  UNL     1      12.932  17.612  17.047  1.00  0.00     0.169 HD
BRANCH  34  37
HETATM   37  C16 UNL     1      10.350  17.054  16.869  1.00  0.00     0.375 C 
BRANCH  37  38
HETATM   38  N6  UNL     1      10.863  16.488  15.650  1.00  0.00     0.101 N 
HETATM   39  C17 UNL     1      10.284  17.292  14.555  1.00  0.00     0.299 C 
HETATM   40  C18 UNL     1      10.585  16.624  13.220  1.00  0.00     0.198 C 
HETATM   41  O3  UNL     1      10.145  15.326  13.145  1.00  0.00    -0.388 OA
HETATM   42  C19 UNL     1      10.546  14.533  14.223  1.00  0.00     0.198 C 
HETATM   43  C20 UNL     1      10.151  15.185  15.513  1.00  0.00     0.299 C 
ENDBRANCH  37  38
ENDBRANCH  34  37
ENDBRANCH   4  33
TORSDOF 13
ENDMDL
MODEL 2
REMARK VINA RESULT: -8.925057222      2.707      4.174
REMARK  13 active torsions:
REMARK  status: ('A' for Active; 'I' for Inactive)
REMARK    1  A    between atoms: C2_2  and  N1_3 
REMARK    2  A    between atoms: N2_6  and  C5_7 
REMARK    3  A    between atoms: C5_7  and  C6_8 
REMARK    4  A    between atoms: C6_8  and  C7_9 
REMARK    5  A    between atoms: C7_9  and  N3_10 
REMARK    6  A    between atoms: N3_10  and  C8_12 
REMARK    7  A    between atoms: C8_12  and  C9_14 
REMARK    8  A    between atoms: C11_16  and  N4_17 
REMARK       I    between atoms: N4_17  and  C12_19 
REMARK    9  A    between atoms: C14_22  and  N5_23 
REMARK       I    between atoms: N5_23  and  C15_25 
REMARK   10  A    between atoms: C15_25  and  C16_27 
REMARK   11  A    between atoms: C16_27  and  N6_28 
REMARK   12  A    between atoms: C22_35  and  O4_36 
REMARK   13  A    between atoms: O4_36  and  C23_37 
ROOT
HETATM    1  C9  UNL     1      16.881  22.358  18.874  1.00  0.00     0.037 A 
HETATM    2  C10 UNL     1      16.353  21.054  18.962  1.00  0.00     0.049 A 
HETATM    3  C11 UNL     1      15.507  20.574  18.000  1.00  0.00     0.062 A 
HETATM    4  C14 UNL     1      15.181  21.420  16.924  1.00  0.00     0.064 A 
HETATM    5  C21 UNL     1      15.706  22.671  16.876  1.00  0.00     0.069 A 
HETATM    6  C22 UNL     1      16.595  23.216  17.858  1.00  0.00     0.085 A 
ENDROOT
BRANCH   1   7
HETATM    7  C8  UNL     1      17.794  22.769  19.953  1.00  0.00     0.109 C 
HETATM    8  S1  UNL     1      18.728  21.587  20.625  1.00  0.00    -0.060 SA
BRANCH   7   9
HETATM    9  N3  UNL     1      17.847  24.101  20.424  1.00  0.00    -0.380 N 
ATOM     10  H3  UNL     1      17.057  24.735  20.298  1.00  0.00     0.160 HD
BRANCH   9  11
HETATM   11  C7  UNL     1      19.058  24.543  21.092  1.00  0.00     0.122 C 
BRANCH  11  12
HETATM   12  C6  UNL     1      20.060  25.060  20.107  1.00  0.00     0.039 C 
BRANCH  12  13
HETATM   13  C5  UNL     1      20.899  26.183  20.676  1.00  0.00     0.118 C 
BRANCH  13  14
HETATM   14  N2  UNL     1      21.511  26.995  19.683  1.00  0.00    -0.409 N 
HETATM   15  C4  UNL     1      20.852  27.030  18.428  1.00  0.00     0.147 C 
HETATM   16  C3  UNL     1      21.584  27.780  17.359  1.00  0.00     0.291 C 
HETATM   17  N1  UNL     1      22.987  27.441  17.290  1.00  0.00     0.091 N 
HETATM   18  C29 UNL     1      23.355  26.446  18.277  1.00  0.00     0.291 C 
HETATM   19  C28 UNL     1      22.929  26.982  19.625  1.00  0.00     0.147 C 
BRANCH  17  20
HETATM   20  C2  UNL     1      23.398  27.081  15.949  1.00  0.00     0.268 C 
HETATM   21  C1  UNL     1      22.439  27.618  14.935  1.00  0.00     0.037 C 
ENDBRANCH  17  20
ENDBRANCH  13  14
ENDBRANCH  12  13
ENDBRANCH  11  12
ENDBRANCH   9  11
ENDBRANCH   7   9
ENDBRANCH   1   7
BRANCH   6  22
HETATM   22  O4  UNL     1      17.027  24.462  17.669  1.00  0.00    -0.345 OA
BRANCH  22  23
HETATM   23  C23 UNL     1      17.920  25.204  17.048  1.00  0.00     0.129 C 
HETATM   24  C24 UNL     1      19.190  24.440  16.630  1.00  0.00     0.032 C 
HETATM   25  C25 UNL     1      19.655  24.990  15.321  1.00  0.00     0.002 C 
HETATM   26  C26 UNL     1      18.680  26.069  14.973  1.00  0.00     0.002 C 
HETATM   27  C27 UNL     1      17.415  25.786  15.707  1.00  0.00     0.032 C 
ENDBRANCH  22  23
ENDBRANCH   6  22
BRANCH   3  28
HETATM   28  N4  UNL     1      14.889  19.314  18.069  1.00  0.00    -0.326 N 
HETATM   29  C12 UNL     1      13.845  18.956  18.937  1.00  0.00     0.218 C 
HETATM   30  C13 UNL     1      13.259  17.559  18.908  1.00  0.00     0.117 C 
HETATM   31  O1  UNL     1      13.314  19.702  19.783  1.00  0.00    -0.274 OA
ATOM     32  H4  UNL     1      15.231  18.594  17.432  1.00  0.00     0.169 HD
ENDBRANCH   3  28
BRANCH   4  33
HETATM   33  N5  UNL     1      14.376  20.902  15.889  1.00  0.00    -0.324 N 
HETATM   34  C15 UNL     1      14.566  20.960  14.503  1.00  0.00     0.250 C 
HETATM   35  O2  UNL     1      15.542  21.514  13.992  1.00  0.00    -0.271 OA
ATOM     36  H5  UNL     1      13.533  20.415  16.193  1.00  0.00     0.169 HD
BRANCH  34  37
HETATM   37  C16 UNL     1      13.593  20.343  13.547  1.00  0.00     0.375 C 
BRANCH  37  38
HETATM   38  N6  UNL     1      12.353  19.953  14.165  1.00  0.00     0.101 N 
HETATM   39  C17 UNL     1      11.701  19.027  13.217  1.00  0.00     0.299 C 
HETATM   40  C18 UNL     1      10.279  18.744  13.679  1.00  0.00     0.198 C 
HETATM   41  O3  UNL     1       9.520  19.877  13.841  1.00  0.00    -0.388 OA
HETATM   42  C19 UNL     1      10.133  20.858  14.623  1.00  0.00     0.198 C 
HETATM   43  C20 UNL     1      11.494  21.169  14.079  1.00  0.00     0.299 C 
ENDBRANCH  37  38
ENDBRANCH  34  37
ENDBRANCH   4  33
TORSDOF 13
ENDMDL
MODEL 3
REMARK VINA RESULT: -8.834135425      3.423     10.790
REMARK  13 active torsions:
REMARK  status: ('A' for Active; 'I' for Inactive)
REMARK    1  A    between atoms: C2_2  and  N1_3 
REMARK    2  A    between atoms: N2_6  and  C5_7 
REMARK    3  A    between atoms: C5_7  and  C6_8 
REMARK    4  A    between atoms: C6_8  and  C7_9 
REMARK    5  A    between atoms: C7_9  and  N3_10 
REMARK    6  A    between atoms: N3_10  and  C8_12 
REMARK    7  A    between atoms: C8_12  and  C9_14 
REMARK    8  A    between atoms: C11_16  and  N4_17 
REMARK       I    between atoms: N4_17  and  C12_19 
REMARK    9  A    between atoms: C14_22  and  N5_23 
REMARK       I    between atoms: N5_23  and  C15_25 
REMARK   10  A    between atoms: C15_25  and  C16_27 
REMARK   11  A    between atoms: C16_27  and  N6_28 
REMARK   12  A    between atoms: C22_35  and  O4_36 
REMARK   13  A    between atoms: O4_36  and  C23_37 
ROOT
HETATM    1  C9  UNL     1      15.886  21.638  15.683  1.00  0.00     0.037 A 
HETATM    2  C10 UNL     1      16.762  22.638  15.214  1.00  0.00     0.049 A 
HETATM    3  C11 UNL     1      17.769  23.116  16.006  1.00  0.00     0.062 A 
HETATM    4  C14 UNL     1      17.904  22.579  17.300  1.00  0.00     0.064 A 
HETATM    5  C21 UNL     1      17.040  21.619  17.717  1.00  0.00     0.069 A 
HETATM    6  C22 UNL     1      15.972  21.089  16.924  1.00  0.00     0.085 A 
ENDROOT
BRANCH   1   7
HETATM    7  C8  UNL     1      14.847  21.183  14.745  1.00  0.00     0.109 C 
HETATM    8  S1  UNL     1      14.969  21.716  13.188  1.00  0.00    -0.060 SA
BRANCH   7   9
HETATM    9  N3  UNL     1      13.772  20.363  15.156  1.00  0.00    -0.380 N 
ATOM     10  H3  UNL     1      13.857  19.346  15.157  1.00  0.00     0.160 HD
BRANCH   9  11
HETATM   11  C7  UNL     1      12.542  21.009  15.578  1.00  0.00     0.122 C 
BRANCH  11  12
HETATM   12  C6  UNL     1      11.669  20.061  16.342  1.00  0.00     0.039 C 
BRANCH  12  13
HETATM   13  C5  UNL     1      10.255  20.022  15.806  1.00  0.00     0.118 C 
BRANCH  13  14
HETATM   14  N2  UNL     1       9.999  18.911  14.959  1.00  0.00    -0.409 N 
HETATM   15  C4  UNL     1      10.415  17.651  15.458  1.00  0.00     0.147 C 
HETATM   16  C3  UNL     1      10.259  16.515  14.496  1.00  0.00     0.291 C 
HETATM   17  N1  UNL     1      10.745  16.826  13.171  1.00  0.00     0.091 N 
HETATM   18  C29 UNL     1      11.275  18.171  13.088  1.00  0.00     0.291 C 
HETATM   19  C28 UNL     1      10.187  19.106  13.566  1.00  0.00     0.147 C 
BRANCH  17  20
HETATM   20  C2  UNL     1      11.670  15.826  12.678  1.00  0.00     0.268 C 
HETATM   21  C1  UNL     1      12.662  16.434  11.739  1.00  0.00     0.037 C 
ENDBRANCH  17  20
ENDBRANCH  13  14
ENDBRANCH  12  13
ENDBRANCH  11  12
ENDBRANCH   9  11
ENDBRANCH   7   9
ENDBRANCH   1   7
BRANCH   6  22
HETATM   22  O4  UNL     1      15.209  20.147  17.476  1.00  0.00    -0.345 OA
BRANCH  22  23
HETATM   23  C23 UNL     1      14.929  19.513  18.596  1.00  0.00     0.129 C 
HETATM   24  C24 UNL     1      13.787  20.151  19.409  1.00  0.00     0.032 C 
HETATM   25  C25 UNL     1      13.005  19.054  20.054  1.00  0.00     0.002 C 
HETATM   26  C26 UNL     1      13.679  17.785  19.637  1.00  0.00     0.002 C 
HETATM   27  C27 UNL     1      14.427  18.066  18.380  1.00  0.00     0.032 C 
ENDBRANCH  22  23
ENDBRANCH   6  22
BRANCH   3  28
HETATM   28  N4  UNL     1      18.625  24.164  15.625  1.00  0.00    -0.326 N 
HETATM   29  C12 UNL     1      18.269  25.517  15.511  1.00  0.00     0.218 C 
HETATM   30  C13 UNL     1      19.291  26.554  15.096  1.00  0.00     0.117 C 
HETATM   31  O1  UNL     1      17.135  25.992  15.724  1.00  0.00    -0.274 OA
ATOM     32  H4  UNL     1      19.592  23.919  15.412  1.00  0.00     0.169 HD
ENDBRANCH   3  28
BRANCH   4  33
HETATM   33  N5  UNL     1      18.991  23.008  18.090  1.00  0.00    -0.324 N 
HETATM   34  C15 UNL     1      19.002  23.881  19.183  1.00  0.00     0.250 C 
HETATM   35  O2  UNL     1      17.978  24.415  19.615  1.00  0.00    -0.271 OA
ATOM     36  H5  UNL     1      19.900  22.628  17.826  1.00  0.00     0.169 HD
BRANCH  34  37
HETATM   37  C16 UNL     1      20.268  24.222  19.907  1.00  0.00     0.375 C 
BRANCH  37  38
HETATM   38  N6  UNL     1      20.635  25.609  19.797  1.00  0.00     0.101 N 
HETATM   39  C17 UNL     1      22.033  25.622  19.320  1.00  0.00     0.299 C 
HETATM   40  C18 UNL     1      22.583  27.039  19.396  1.00  0.00     0.198 C 
HETATM   41  O3  UNL     1      22.499  27.594  20.649  1.00  0.00    -0.388 OA
HETATM   42  C19 UNL     1      21.228  27.500  21.222  1.00  0.00     0.198 C 
HETATM   43  C20 UNL     1      20.765  26.076  21.207  1.00  0.00     0.299 C 
ENDBRANCH  37  38
ENDBRANCH  34  37
ENDBRANCH   4  33
TORSDOF 13
ENDMDL
MODEL 4
REMARK VINA RESULT: -8.791484292      2.902     10.496
REMARK  13 active torsions:
REMARK  status: ('A' for Active; 'I' for Inactive)
REMARK    1  A    between atoms: C2_2  and  N1_3 
REMARK    2  A    between atoms: N2_6  and  C5_7 
REMARK    3  A    between atoms: C5_7  and  C6_8 
REMARK    4  A    between atoms: C6_8  and  C7_9 
REMARK    5  A    between atoms: C7_9  and  N3_10 
REMARK    6  A    between atoms: N3_10  and  C8_12 
REMARK    7  A    between atoms: C8_12  and  C9_14 
REMARK    8  A    between atoms: C11_16  and  N4_17 
REMARK       I    between atoms: N4_17  and  C12_19 
REMARK    9  A    between atoms: C14_22  and  N5_23 
REMARK       I    between atoms: N5_23  and  C15_25 
REMARK   10  A    between atoms: C15_25  and  C16_27 
REMARK   11  A    between atoms: C16_27  and  N6_28 
REMARK   12  A    between atoms: C22_35  and  O4_36 
REMARK   13  A    between atoms: O4_36  and  C23_37 
ROOT
HETATM    1  C9  UNL     1      16.679  22.598  17.464  1.00  0.00     0.037 A 
HETATM    2  C10 UNL     1      17.421  23.516  18.235  1.00  0.00     0.049 A 
HETATM    3  C11 UNL     1      18.372  24.310  17.655  1.00  0.00     0.062 A 
HETATM    4  C14 UNL     1      18.584  24.185  16.270  1.00  0.00     0.064 A 
HETATM    5  C21 UNL     1      17.851  23.288  15.561  1.00  0.00     0.069 A 
HETATM    6  C22 UNL     1      16.848  22.435  16.124  1.00  0.00     0.085 A 
ENDROOT
BRANCH   1   7
HETATM    7  C8  UNL     1      15.670  21.803  18.183  1.00  0.00     0.109 C 
HETATM    8  S1  UNL     1      14.291  22.589  18.635  1.00  0.00    -0.060 SA
BRANCH   7   9
HETATM    9  N3  UNL     1      15.879  20.444  18.510  1.00  0.00    -0.380 N 
ATOM     10  H3  UNL     1      16.521  20.177  19.257  1.00  0.00     0.160 HD
BRANCH   9  11
HETATM   11  C7  UNL     1      15.155  19.439  17.753  1.00  0.00     0.122 C 
BRANCH  11  12
HETATM   12  C6  UNL     1      14.504  18.444  18.663  1.00  0.00     0.039 C 
BRANCH  12  13
HETATM   13  C5  UNL     1      13.245  18.986  19.302  1.00  0.00     0.118 C 
BRANCH  13  14
HETATM   14  N2  UNL     1      12.080  18.801  18.509  1.00  0.00    -0.409 N 
HETATM   15  C4  UNL     1      11.989  17.557  17.834  1.00  0.00     0.147 C 
HETATM   16  C3  UNL     1      10.825  17.437  16.900  1.00  0.00     0.291 C 
HETATM   17  N1  UNL     1      10.659  18.594  16.051  1.00  0.00     0.091 N 
HETATM   18  C29 UNL     1      11.668  19.603  16.304  1.00  0.00     0.291 C 
HETATM   19  C28 UNL     1      11.612  19.925  17.780  1.00  0.00     0.147 C 
BRANCH  17  20
HETATM   20  C2  UNL     1      10.560  18.236  14.651  1.00  0.00     0.268 C 
HETATM   21  C1  UNL     1      11.294  19.219  13.796  1.00  0.00     0.037 C 
ENDBRANCH  17  20
ENDBRANCH  13  14
ENDBRANCH  12  13
ENDBRANCH  11  12
ENDBRANCH   9  11
ENDBRANCH   7   9
ENDBRANCH   1   7
BRANCH   6  22
HETATM   22  O4  UNL     1      16.212  21.607  15.296  1.00  0.00    -0.345 OA
BRANCH  22  23
HETATM   23  C23 UNL     1      15.163  21.471  14.512  1.00  0.00     0.129 C 
HETATM   24  C24 UNL     1      13.967  22.358  14.906  1.00  0.00     0.032 C 
HETATM   25  C25 UNL     1      13.285  22.802  13.653  1.00  0.00     0.002 C 
HETATM   26  C26 UNL     1      14.059  22.180  12.535  1.00  0.00     0.002 C 
HETATM   27  C27 UNL     1      15.427  21.884  13.046  1.00  0.00     0.032 C 
ENDBRANCH  22  23
ENDBRANCH   6  22
BRANCH   3  28
HETATM   28  N4  UNL     1      19.196  25.188  18.380  1.00  0.00    -0.326 N 
HETATM   29  C12 UNL     1      20.320  24.824  19.137  1.00  0.00     0.218 C 
HETATM   30  C13 UNL     1      21.133  25.871  19.870  1.00  0.00     0.117 C 
HETATM   31  O1  UNL     1      20.753  23.664  19.286  1.00  0.00    -0.274 OA
ATOM     32  H4  UNL     1      18.955  26.179  18.353  1.00  0.00     0.169 HD
ENDBRANCH   3  28
BRANCH   4  33
HETATM   33  N5  UNL     1      19.503  25.059  15.654  1.00  0.00    -0.324 N 
HETATM   34  C15 UNL     1      19.260  26.190  14.866  1.00  0.00     0.250 C 
HETATM   35  O2  UNL     1      18.121  26.582  14.604  1.00  0.00    -0.271 OA
ATOM     36  H5  UNL     1      20.487  24.834  15.803  1.00  0.00     0.169 HD
BRANCH  34  37
HETATM   37  C16 UNL     1      20.377  27.006  14.293  1.00  0.00     0.375 C 
BRANCH  37  38
HETATM   38  N6  UNL     1      21.359  27.400  15.269  1.00  0.00     0.101 N 
HETATM   39  C17 UNL     1      21.946  28.659  14.769  1.00  0.00     0.299 C 
HETATM   40  C18 UNL     1      23.155  29.027  15.617  1.00  0.00     0.198 C 
HETATM   41  O3  UNL     1      24.109  28.041  15.670  1.00  0.00    -0.388 OA
HETATM   42  C19 UNL     1      23.602  26.785  16.010  1.00  0.00     0.198 C 
HETATM   43  C20 UNL     1      22.473  26.424  15.094  1.00  0.00     0.299 C 
ENDBRANCH  37  38
ENDBRANCH  34  37
ENDBRANCH   4  33
TORSDOF 13
ENDMDL
MODEL 5
REMARK VINA RESULT: -8.749574688      3.320     11.301
REMARK  13 active torsions:
REMARK  status: ('A' for Active; 'I' for Inactive)
REMARK    1  A    between atoms: C2_2  and  N1_3 
REMARK    2  A    between atoms: N2_6  and  C5_7 
REMARK    3  A    between atoms: C5_7  and  C6_8 
REMARK    4  A    between atoms: C6_8  and  C7_9 
REMARK    5  A    between atoms: C7_9  and  N3_10 
REMARK    6  A    between atoms: N3_10  and  C8_12 
REMARK    7  A    between atoms: C8_12  and  C9_14 
REMARK    8  A    between atoms: C11_16  and  N4_17 
REMARK       I    between atoms: N4_17  and  C12_19 
REMARK    9  A    between atoms: C14_22  and  N5_23 
REMARK       I    between atoms: N5_23  and  C15_25 
REMARK   10  A    between atoms: C15_25  and  C16_27 
REMARK   11  A    between atoms: C16_27  and  N6_28 
REMARK   12  A    between atoms: C22_35  and  O4_36 
REMARK   13  A    between atoms: O4_36  and  C23_37 
ROOT
HETATM    1  C9  UNL     1      15.583  21.674  15.615  1.00  0.00     0.037 A 
HETATM    2  C10 UNL     1      16.458  22.635  15.068  1.00  0.00     0.049 A 
HETATM    3  C11 UNL     1      17.533  23.090  15.780  1.00  0.00     0.062 A 
HETATM    4  C14 UNL     1      17.739  22.571  17.072  1.00  0.00     0.064 A 
HETATM    5  C21 UNL     1      16.874  21.649  17.566  1.00  0.00     0.069 A 
HETATM    6  C22 UNL     1      15.736  21.144  16.858  1.00  0.00     0.085 A 
ENDROOT
BRANCH   1   7
HETATM    7  C8  UNL     1      14.467  21.240  14.759  1.00  0.00     0.109 C 
HETATM    8  S1  UNL     1      14.081  22.221  13.490  1.00  0.00    -0.060 SA
BRANCH   7   9
HETATM    9  N3  UNL     1      13.731  20.063  15.026  1.00  0.00    -0.380 N 
ATOM     10  H3  UNL     1      14.203  19.193  15.274  1.00  0.00     0.160 HD
BRANCH   9  11
HETATM   11  C7  UNL     1      12.283  20.128  14.936  1.00  0.00     0.122 C 
BRANCH  11  12
HETATM   12  C6  UNL     1      11.653  19.996  16.288  1.00  0.00     0.039 C 
BRANCH  12  13
HETATM   13  C5  UNL     1      10.500  19.016  16.292  1.00  0.00     0.118 C 
BRANCH  13  14
HETATM   14  N2  UNL     1      10.904  17.661  16.155  1.00  0.00    -0.409 N 
HETATM   15  C4  UNL     1      10.231  16.919  15.152  1.00  0.00     0.147 C 
HETATM   16  C3  UNL     1      10.574  15.462  15.116  1.00  0.00     0.291 C 
HETATM   17  N1  UNL     1      10.567  14.847  16.424  1.00  0.00     0.091 N 
HETATM   18  C29 UNL     1      10.224  15.792  17.467  1.00  0.00     0.291 C 
HETATM   19  C28 UNL     1      11.188  16.950  17.350  1.00  0.00     0.147 C 
BRANCH  17  20
HETATM   20  C2  UNL     1       9.755  13.649  16.461  1.00  0.00     0.268 C 
HETATM   21  C1  UNL     1       9.238  13.397  17.841  1.00  0.00     0.037 C 
ENDBRANCH  17  20
ENDBRANCH  13  14
ENDBRANCH  12  13
ENDBRANCH  11  12
ENDBRANCH   9  11
ENDBRANCH   7   9
ENDBRANCH   1   7
BRANCH   6  22
HETATM   22  O4  UNL     1      14.981  20.238  17.479  1.00  0.00    -0.345 OA
BRANCH  22  23
HETATM   23  C23 UNL     1      14.797  19.589  18.610  1.00  0.00     0.129 C 
HETATM   24  C24 UNL     1      13.610  20.107  19.444  1.00  0.00     0.032 C 
HETATM   25  C25 UNL     1      12.968  18.936  20.114  1.00  0.00     0.002 C 
HETATM   26  C26 UNL     1      13.767  17.745  19.692  1.00  0.00     0.002 C 
HETATM   27  C27 UNL     1      14.452  18.094  18.416  1.00  0.00     0.032 C 
ENDBRANCH  22  23
ENDBRANCH   6  22
BRANCH   3  28
HETATM   28  N4  UNL     1      18.395  24.101  15.322  1.00  0.00    -0.326 N 
HETATM   29  C12 UNL     1      18.141  25.481  15.362  1.00  0.00     0.218 C 
HETATM   30  C13 UNL     1      19.160  26.472  14.839  1.00  0.00     0.117 C 
HETATM   31  O1  UNL     1      17.106  26.018  15.805  1.00  0.00    -0.274 OA
ATOM     32  H4  UNL     1      19.287  23.804  14.923  1.00  0.00     0.169 HD
ENDBRANCH   3  28
BRANCH   4  33
HETATM   33  N5  UNL     1      18.891  22.975  17.777  1.00  0.00    -0.324 N 
HETATM   34  C15 UNL     1      19.020  23.928  18.795  1.00  0.00     0.250 C 
HETATM   35  O2  UNL     1      18.060  24.571  19.224  1.00  0.00    -0.271 OA
ATOM     36  H5  UNL     1      19.756  22.506  17.507  1.00  0.00     0.169 HD
BRANCH  34  37
HETATM   37  C16 UNL     1      20.341  24.224  19.434  1.00  0.00     0.375 C 
BRANCH  37  38
HETATM   38  N6  UNL     1      20.638  25.631  19.508  1.00  0.00     0.101 N 
HETATM   39  C17 UNL     1      22.037  25.774  19.059  1.00  0.00     0.299 C 
HETATM   40  C18 UNL     1      22.513  27.195  19.323  1.00  0.00     0.198 C 
HETATM   41  O3  UNL     1      22.390  27.579  20.636  1.00  0.00    -0.388 OA
HETATM   42  C19 UNL     1      21.120  27.350  21.172  1.00  0.00     0.198 C 
HETATM   43  C20 UNL     1      20.730  25.918  20.968  1.00  0.00     0.299 C 
ENDBRANCH  37  38
ENDBRANCH  34  37
ENDBRANCH   4  33
TORSDOF 13
ENDMDL
