MODEL 1
REMARK VINA RESULT: -7.618147295      0.000      0.000
REMARK  13 active torsions:
REMARK  status: ('A' for Active; 'I' for Inactive)
REMARK    1  A    between atoms: N2_5  and  C4_6 
REMARK    2  A    between atoms: C4_6  and  C5_7 
REMARK    3  A    between atoms: C5_7  and  C6_8 
REMARK    4  A    between atoms: C6_8  and  N3_9 
REMARK    5  A    between atoms: N3_9  and  C7_11 
REMARK    6  A    between atoms: C7_11  and  C8_12 
REMARK    7  A    between atoms: C8_12  and  C9_13 
REMARK    8  A    between atoms: C9_13  and  N4_14 
REMARK       I    between atoms: N4_14  and  C10_16 
REMARK    9  A    between atoms: C10_16  and  C11_18 
REMARK   10  A    between atoms: C12_21  and  C13_22 
REMARK   11  A    between atoms: N6_27  and  C17_28 
REMARK   12  A    between atoms: C17_28  and  C18_29 
REMARK   13  A    between atoms: C26_37  and  O2_38 
ROOT
HETATM    1  C11 UNL     1      19.255  24.408  16.709  1.00  0.00     0.074 C 
HETATM    2  N5  UNL     1      19.879  25.094  15.842  1.00  0.00    -0.382 N 
ATOM      3  H5  UNL     1      19.746  24.829  14.866  1.00  0.00     0.160 HD
HETATM    4  C12 UNL     1      20.758  26.211  16.094  1.00  0.00     0.105 C 
HETATM    5  C14 UNL     1      21.268  26.372  17.468  1.00  0.00     0.016 C 
HETATM    6  C15 UNL     1      20.798  27.566  18.226  1.00  0.00     0.047 C 
HETATM    7  C16 UNL     1      21.252  27.492  19.680  1.00  0.00     0.274 C 
HETATM    8  N6  UNL     1      20.799  26.269  20.258  1.00  0.00     0.094 N 
HETATM    9  C21 UNL     1      21.402  25.108  19.641  1.00  0.00     0.232 C 
HETATM   10  C22 UNL     1      22.916  25.169  19.699  1.00  0.00     0.075 C 
HETATM   11  C23 UNL     1      23.497  25.855  18.508  1.00  0.00    -0.049 A 
HETATM   12  C24 UNL     1      24.877  25.906  18.479  1.00  0.00     0.010 A 
HETATM   13  C25 UNL     1      25.518  26.522  17.427  1.00  0.00     0.037 A 
HETATM   14  C26 UNL     1      24.834  27.091  16.395  1.00  0.00     0.066 A 
HETATM   15  C27 UNL     1      23.433  27.026  16.445  1.00  0.00     0.045 A 
HETATM   16  C28 UNL     1      22.790  26.415  17.490  1.00  0.00    -0.038 A 
HETATM   17  C29 UNL     1      20.976  25.056  18.212  1.00  0.00     0.040 C 
HETATM   18  C30 UNL     1      19.488  24.800  18.139  1.00  0.00     0.070 C 
ENDROOT
BRANCH   1  19
HETATM   19  C10 UNL     1      18.378  23.294  16.427  1.00  0.00     0.263 C 
HETATM   20  N4  UNL     1      17.423  23.419  15.383  1.00  0.00    -0.356 N 
ATOM     21  H4  UNL     1      17.352  24.281  14.842  1.00  0.00     0.162 HD
HETATM   22  O1  UNL     1      18.521  22.260  17.138  1.00  0.00    -0.266 OA
BRANCH  20  23
HETATM   23  C9  UNL     1      16.542  22.281  15.100  1.00  0.00     0.128 C 
BRANCH  23  24
HETATM   24  C8  UNL     1      15.122  22.644  14.880  1.00  0.00     0.064 C 
BRANCH  24  25
HETATM   25  C7  UNL     1      14.548  23.773  15.629  1.00  0.00     0.061 C 
BRANCH  25  26
HETATM   26  N3  UNL     1      14.023  23.710  16.903  1.00  0.00    -0.382 N 
ATOM     27  H3  UNL     1      13.014  23.646  17.039  1.00  0.00     0.163 HD
BRANCH  26  28
HETATM   28  C6  UNL     1      14.882  23.734  18.011  1.00  0.00     0.062 C 
BRANCH  28  29
HETATM   29  C5  UNL     1      15.237  22.351  18.557  1.00  0.00     0.074 C 
BRANCH  29  30
HETATM   30  C4  UNL     1      14.043  21.479  18.679  1.00  0.00     0.277 C 
BRANCH  30  31
HETATM   31  N2  UNL     1      14.085  20.352  17.771  1.00  0.00     0.091 N 
HETATM   32  C3  UNL     1      12.740  20.027  17.350  1.00  0.00     0.291 C 
HETATM   33  C2  UNL     1      12.327  18.641  17.784  1.00  0.00     0.146 C 
HETATM   34  N1  UNL     1      12.745  18.274  19.098  1.00  0.00    -0.413 N 
HETATM   35  C1  UNL     1      11.795  18.479  20.140  1.00  0.00     0.143 C 
HETATM   36  C32 UNL     1      14.098  18.659  19.435  1.00  0.00     0.146 C 
HETATM   37  C31 UNL     1      14.826  19.225  18.231  1.00  0.00     0.291 C 
ENDBRANCH  30  31
ENDBRANCH  29  30
ENDBRANCH  28  29
ENDBRANCH  26  28
ENDBRANCH  25  26
ENDBRANCH  24  25
ENDBRANCH  23  24
ENDBRANCH  20  23
ENDBRANCH   1  19
BRANCH   4  38
HETATM   38  C13 UNL     1      20.142  27.401  15.421  1.00  0.00     0.112 C 
HETATM   39  S1  UNL     1      18.846  26.956  14.237  1.00  0.00    -0.096 SA
ENDBRANCH   4  38
BRANCH   8  40
HETATM   40  C17 UNL     1      20.809  26.208  21.686  1.00  0.00     0.277 C 
BRANCH  40  41
HETATM   41  C18 UNL     1      21.671  27.249  22.352  1.00  0.00     0.014 A 
HETATM   42  C19 UNL     1      21.564  27.268  23.884  1.00  0.00     0.007 A 
HETATM   43  C20 UNL     1      22.829  26.913  23.179  1.00  0.00     0.007 A 
ENDBRANCH  40  41
ENDBRANCH   8  40
BRANCH  14  44
HETATM   44  O2  UNL     1      25.476  27.717  15.324  1.00  0.00    -0.361 OA
ATOM     45  H2  UNL     1      25.249  27.540  14.418  1.00  0.00     0.217 HD
ENDBRANCH  14  44
TORSDOF 13
ENDMDL
MODEL 2
REMARK VINA RESULT: -7.567267144      0.893      1.374
REMARK  13 active torsions:
REMARK  status: ('A' for Active; 'I' for Inactive)
REMARK    1  A    between atoms: N2_5  and  C4_6 
REMARK    2  A    between atoms: C4_6  and  C5_7 
REMARK    3  A    between atoms: C5_7  and  C6_8 
REMARK    4  A    between atoms: C6_8  and  N3_9 
REMARK    5  A    between atoms: N3_9  and  C7_11 
REMARK    6  A    between atoms: C7_11  and  C8_12 
REMARK    7  A    between atoms: C8_12  and  C9_13 
REMARK    8  A    between atoms: C9_13  and  N4_14 
REMARK       I    between atoms: N4_14  and  C10_16 
REMARK    9  A    between atoms: C10_16  and  C11_18 
REMARK   10  A    between atoms: C12_21  and  C13_22 
REMARK   11  A    between atoms: N6_27  and  C17_28 
REMARK   12  A    between atoms: C17_28  and  C18_29 
REMARK   13  A    between atoms: C26_37  and  O2_38 
ROOT
HETATM    1  C11 UNL     1      19.257  24.648  16.522  1.00  0.00     0.074 C 
HETATM    2  N5  UNL     1      19.921  25.336  15.687  1.00  0.00    -0.382 N 
ATOM      3  H5  UNL     1      19.794  25.107  14.701  1.00  0.00     0.160 HD
HETATM    4  C12 UNL     1      20.837  26.410  15.988  1.00  0.00     0.105 C 
HETATM    5  C14 UNL     1      21.331  26.509  17.373  1.00  0.00     0.016 C 
HETATM    6  C15 UNL     1      20.894  27.695  18.162  1.00  0.00     0.047 C 
HETATM    7  C16 UNL     1      21.321  27.558  19.620  1.00  0.00     0.274 C 
HETATM    8  N6  UNL     1      20.814  26.335  20.152  1.00  0.00     0.094 N 
HETATM    9  C21 UNL     1      21.382  25.172  19.506  1.00  0.00     0.232 C 
HETATM   10  C22 UNL     1      22.897  25.174  19.589  1.00  0.00     0.075 C 
HETATM   11  C23 UNL     1      23.522  25.874  18.430  1.00  0.00    -0.049 A 
HETATM   12  C24 UNL     1      24.903  25.874  18.422  1.00  0.00     0.010 A 
HETATM   13  C25 UNL     1      25.583  26.498  17.400  1.00  0.00     0.037 A 
HETATM   14  C26 UNL     1      24.938  27.125  16.377  1.00  0.00     0.066 A 
HETATM   15  C27 UNL     1      23.535  27.111  16.404  1.00  0.00     0.045 A 
HETATM   16  C28 UNL     1      22.852  26.493  17.419  1.00  0.00    -0.038 A 
HETATM   17  C29 UNL     1      20.978  25.181  18.071  1.00  0.00     0.040 C 
HETATM   18  C30 UNL     1      19.482  24.985  17.968  1.00  0.00     0.070 C 
ENDROOT
BRANCH   1  19
HETATM   19  C10 UNL     1      18.344  23.577  16.192  1.00  0.00     0.263 C 
HETATM   20  N4  UNL     1      17.251  23.850  15.327  1.00  0.00    -0.356 N 
ATOM     21  H4  UNL     1      17.107  24.785  14.947  1.00  0.00     0.162 HD
HETATM   22  O1  UNL     1      18.582  22.445  16.700  1.00  0.00    -0.266 OA
BRANCH  20  23
HETATM   23  C9  UNL     1      16.332  22.756  14.993  1.00  0.00     0.128 C 
BRANCH  23  24
HETATM   24  C8  UNL     1      14.945  22.951  15.475  1.00  0.00     0.064 C 
BRANCH  24  25
HETATM   25  C7  UNL     1      14.716  23.250  16.897  1.00  0.00     0.061 C 
BRANCH  25  26
HETATM   26  N3  UNL     1      14.063  22.434  17.797  1.00  0.00    -0.382 N 
ATOM     27  H3  UNL     1      13.810  22.788  18.719  1.00  0.00     0.163 HD
BRANCH  26  28
HETATM   28  C6  UNL     1      13.749  21.115  17.439  1.00  0.00     0.062 C 
BRANCH  28  29
HETATM   29  C5  UNL     1      14.623  20.058  18.114  1.00  0.00     0.074 C 
BRANCH  29  30
HETATM   30  C4  UNL     1      14.185  19.783  19.506  1.00  0.00     0.277 C 
BRANCH  30  31
HETATM   31  N2  UNL     1      13.899  18.381  19.729  1.00  0.00     0.091 N 
HETATM   32  C3  UNL     1      13.839  17.698  18.456  1.00  0.00     0.291 C 
HETATM   33  C2  UNL     1      12.473  17.113  18.188  1.00  0.00     0.146 C 
HETATM   34  N1  UNL     1      11.379  17.942  18.578  1.00  0.00    -0.413 N 
HETATM   35  C1  UNL     1      10.817  18.763  17.557  1.00  0.00     0.143 C 
HETATM   36  C32 UNL     1      11.539  18.599  19.856  1.00  0.00     0.146 C 
HETATM   37  C31 UNL     1      12.784  18.113  20.573  1.00  0.00     0.291 C 
ENDBRANCH  30  31
ENDBRANCH  29  30
ENDBRANCH  28  29
ENDBRANCH  26  28
ENDBRANCH  25  26
ENDBRANCH  24  25
ENDBRANCH  23  24
ENDBRANCH  20  23
ENDBRANCH   1  19
BRANCH   4  38
HETATM   38  C13 UNL     1      20.277  27.644  15.344  1.00  0.00     0.112 C 
HETATM   39  S1  UNL     1      21.251  28.212  13.928  1.00  0.00    -0.096 SA
ENDBRANCH   4  38
BRANCH   8  40
HETATM   40  C17 UNL     1      20.799  26.229  21.577  1.00  0.00     0.277 C 
BRANCH  40  41
HETATM   41  C18 UNL     1      21.635  27.259  22.291  1.00  0.00     0.014 A 
HETATM   42  C19 UNL     1      21.461  27.262  23.818  1.00  0.00     0.007 A 
HETATM   43  C20 UNL     1      22.754  26.909  23.164  1.00  0.00     0.007 A 
ENDBRANCH  40  41
ENDBRANCH   8  40
BRANCH  14  44
HETATM   44  O2  UNL     1      25.620  27.760  15.336  1.00  0.00    -0.361 OA
ATOM     45  H2  UNL     1      25.479  28.673  15.115  1.00  0.00     0.217 HD
ENDBRANCH  14  44
TORSDOF 13
ENDMDL
MODEL 3
REMARK VINA RESULT: -7.554513595      1.784      2.837
REMARK  13 active torsions:
REMARK  status: ('A' for Active; 'I' for Inactive)
REMARK    1  A    between atoms: N2_5  and  C4_6 
REMARK    2  A    between atoms: C4_6  and  C5_7 
REMARK    3  A    between atoms: C5_7  and  C6_8 
REMARK    4  A    between atoms: C6_8  and  N3_9 
REMARK    5  A    between atoms: N3_9  and  C7_11 
REMARK    6  A    between atoms: C7_11  and  C8_12 
REMARK    7  A    between atoms: C8_12  and  C9_13 
REMARK    8  A    between atoms: C9_13  and  N4_14 
REMARK       I    between atoms: N4_14  and  C10_16 
REMARK    9  A    between atoms: C10_16  and  C11_18 
REMARK   10  A    between atoms: C12_21  and  C13_22 
REMARK   11  A    between atoms: N6_27  and  C17_28 
REMARK   12  A    between atoms: C17_28  and  C18_29 
REMARK   13  A    between atoms: C26_37  and  O2_38 
ROOT
HETATM    1  C11 UNL     1      19.507  24.588  16.856  1.00  0.00     0.074 C 
HETATM    2  N5  UNL     1      20.124  25.329  16.029  1.00  0.00    -0.382 N 
ATOM      3  H5  UNL     1      19.992  25.119  15.040  1.00  0.00     0.160 HD
HETATM    4  C12 UNL     1      20.991  26.439  16.346  1.00  0.00     0.105 C 
HETATM    5  C14 UNL     1      21.501  26.526  17.726  1.00  0.00     0.016 C 
HETATM    6  C15 UNL     1      21.019  27.669  18.552  1.00  0.00     0.047 C 
HETATM    7  C16 UNL     1      21.475  27.516  20.000  1.00  0.00     0.274 C 
HETATM    8  N6  UNL     1      21.035  26.256  20.506  1.00  0.00     0.094 N 
HETATM    9  C21 UNL     1      21.649  25.139  19.822  1.00  0.00     0.232 C 
HETATM   10  C22 UNL     1      23.163  25.213  19.883  1.00  0.00     0.075 C 
HETATM   11  C23 UNL     1      23.736  25.972  18.734  1.00  0.00    -0.049 A 
HETATM   12  C24 UNL     1      25.115  26.039  18.708  1.00  0.00     0.010 A 
HETATM   13  C25 UNL     1      25.749  26.721  17.693  1.00  0.00     0.037 A 
HETATM   14  C26 UNL     1      25.058  27.342  16.696  1.00  0.00     0.066 A 
HETATM   15  C27 UNL     1      23.658  27.259  16.742  1.00  0.00     0.045 A 
HETATM   16  C28 UNL     1      23.022  26.582  17.750  1.00  0.00    -0.038 A 
HETATM   17  C29 UNL     1      21.223  25.165  18.393  1.00  0.00     0.040 C 
HETATM   18  C30 UNL     1      19.737  24.899  18.306  1.00  0.00     0.070 C 
ENDROOT
BRANCH   1  19
HETATM   19  C10 UNL     1      18.641  23.483  16.511  1.00  0.00     0.263 C 
HETATM   20  N4  UNL     1      18.485  22.418  17.438  1.00  0.00    -0.356 N 
ATOM     21  H4  UNL     1      18.978  22.427  18.330  1.00  0.00     0.162 HD
HETATM   22  O1  UNL     1      18.065  23.538  15.388  1.00  0.00    -0.266 OA
BRANCH  20  23
HETATM   23  C9  UNL     1      17.600  21.304  17.081  1.00  0.00     0.128 C 
BRANCH  23  24
HETATM   24  C8  UNL     1      16.848  20.729  18.221  1.00  0.00     0.064 C 
BRANCH  24  25
HETATM   25  C7  UNL     1      16.525  21.587  19.371  1.00  0.00     0.061 C 
BRANCH  25  26
HETATM   26  N3  UNL     1      15.442  22.438  19.462  1.00  0.00    -0.382 N 
ATOM     27  H3  UNL     1      15.379  23.106  20.230  1.00  0.00     0.163 HD
BRANCH  26  28
HETATM   28  C6  UNL     1      14.430  22.381  18.494  1.00  0.00     0.062 C 
BRANCH  28  29
HETATM   29  C5  UNL     1      14.443  23.546  17.505  1.00  0.00     0.074 C 
BRANCH  29  30
HETATM   30  C4  UNL     1      14.521  23.077  16.098  1.00  0.00     0.277 C 
BRANCH  30  31
HETATM   31  N2  UNL     1      13.697  21.911  15.857  1.00  0.00     0.091 N 
HETATM   32  C3  UNL     1      14.492  20.892  15.207  1.00  0.00     0.291 C 
HETATM   33  C2  UNL     1      13.972  20.558  13.829  1.00  0.00     0.146 C 
HETATM   34  N1  UNL     1      13.532  21.680  13.065  1.00  0.00    -0.413 N 
HETATM   35  C1  UNL     1      14.482  22.240  12.163  1.00  0.00     0.143 C 
HETATM   36  C32 UNL     1      12.761  22.654  13.806  1.00  0.00     0.146 C 
HETATM   37  C31 UNL     1      12.455  22.164  15.208  1.00  0.00     0.291 C 
ENDBRANCH  30  31
ENDBRANCH  29  30
ENDBRANCH  28  29
ENDBRANCH  26  28
ENDBRANCH  25  26
ENDBRANCH  24  25
ENDBRANCH  23  24
ENDBRANCH  20  23
ENDBRANCH   1  19
BRANCH   4  38
HETATM   38  C13 UNL     1      20.362  27.659  15.743  1.00  0.00     0.112 C 
HETATM   39  S1  UNL     1      19.302  27.285  14.323  1.00  0.00    -0.096 SA
ENDBRANCH   4  38
BRANCH   8  40
HETATM   40  C17 UNL     1      21.047  26.113  21.928  1.00  0.00     0.277 C 
BRANCH  40  41
HETATM   41  C18 UNL     1      21.720  27.241  22.666  1.00  0.00     0.014 A 
HETATM   42  C19 UNL     1      21.273  27.392  24.128  1.00  0.00     0.007 A 
HETATM   43  C20 UNL     1      22.669  27.025  23.756  1.00  0.00     0.007 A 
ENDBRANCH  40  41
ENDBRANCH   8  40
BRANCH  14  44
HETATM   44  O2  UNL     1      25.693  28.035  15.662  1.00  0.00    -0.361 OA
ATOM     45  H2  UNL     1      25.300  28.789  15.236  1.00  0.00     0.217 HD
ENDBRANCH  14  44
TORSDOF 13
ENDMDL
MODEL 4
REMARK VINA RESULT: -7.534801858      3.801      6.963
REMARK  13 active torsions:
REMARK  status: ('A' for Active; 'I' for Inactive)
REMARK    1  A    between atoms: N2_5  and  C4_6 
REMARK    2  A    between atoms: C4_6  and  C5_7 
REMARK    3  A    between atoms: C5_7  and  C6_8 
REMARK    4  A    between atoms: C6_8  and  N3_9 
REMARK    5  A    between atoms: N3_9  and  C7_11 
REMARK    6  A    between atoms: C7_11  and  C8_12 
REMARK    7  A    between atoms: C8_12  and  C9_13 
REMARK    8  A    between atoms: C9_13  and  N4_14 
REMARK       I    between atoms: N4_14  and  C10_16 
REMARK    9  A    between atoms: C10_16  and  C11_18 
REMARK   10  A    between atoms: C12_21  and  C13_22 
REMARK   11  A    between atoms: N6_27  and  C17_28 
REMARK   12  A    between atoms: C17_28  and  C18_29 
REMARK   13  A    between atoms: C26_37  and  O2_38 
ROOT
HETATM    1  C11 UNL     1      14.528  22.515  16.078  1.00  0.00     0.074 C 
HETATM    2  N5  UNL     1      14.811  21.680  16.992  1.00  0.00    -0.382 N 
ATOM      3  H5  UNL     1      14.035  21.138  17.373  1.00  0.00     0.160 HD
HETATM    4  C12 UNL     1      16.117  21.417  17.546  1.00  0.00     0.105 C 
HETATM    5  C14 UNL     1      17.168  22.423  17.306  1.00  0.00     0.016 C 
HETATM    6  C15 UNL     1      18.306  22.014  16.435  1.00  0.00     0.047 C 
HETATM    7  C16 UNL     1      19.201  23.210  16.125  1.00  0.00     0.274 C 
HETATM    8  N6  UNL     1      18.418  24.252  15.543  1.00  0.00     0.094 N 
HETATM    9  C21 UNL     1      17.430  24.779  16.458  1.00  0.00     0.232 C 
HETATM   10  C22 UNL     1      18.068  25.276  17.741  1.00  0.00     0.075 C 
HETATM   11  C23 UNL     1      18.161  24.205  18.775  1.00  0.00    -0.049 A 
HETATM   12  C24 UNL     1      18.694  24.604  19.984  1.00  0.00     0.010 A 
HETATM   13  C25 UNL     1      18.830  23.693  21.008  1.00  0.00     0.037 A 
HETATM   14  C26 UNL     1      18.453  22.391  20.874  1.00  0.00     0.066 A 
HETATM   15  C27 UNL     1      17.912  22.008  19.637  1.00  0.00     0.045 A 
HETATM   16  C28 UNL     1      17.775  22.910  18.614  1.00  0.00    -0.038 A 
HETATM   17  C29 UNL     1      16.464  23.692  16.790  1.00  0.00     0.040 C 
HETATM   18  C30 UNL     1      15.681  23.319  15.552  1.00  0.00     0.070 C 
ENDROOT
BRANCH   1  19
HETATM   19  C10 UNL     1      13.208  22.756  15.539  1.00  0.00     0.263 C 
HETATM   20  N4  UNL     1      12.377  21.644  15.235  1.00  0.00    -0.356 N 
ATOM     21  H4  UNL     1      12.705  20.691  15.388  1.00  0.00     0.162 HD
HETATM   22  O1  UNL     1      12.870  23.962  15.374  1.00  0.00    -0.266 OA
BRANCH  20  23
HETATM   23  C9  UNL     1      11.037  21.900  14.694  1.00  0.00     0.128 C 
BRANCH  23  24
HETATM   24  C8  UNL     1       9.986  20.988  15.204  1.00  0.00     0.064 C 
BRANCH  24  25
HETATM   25  C7  UNL     1      10.322  20.037  16.275  1.00  0.00     0.061 C 
BRANCH  25  26
HETATM   26  N3  UNL     1      10.044  18.686  16.269  1.00  0.00    -0.382 N 
ATOM     27  H3  UNL     1       9.123  18.354  15.983  1.00  0.00     0.163 HD
BRANCH  26  28
HETATM   28  C6  UNL     1      11.033  17.770  16.657  1.00  0.00     0.062 C 
BRANCH  28  29
HETATM   29  C5  UNL     1      10.825  16.357  16.113  1.00  0.00     0.074 C 
BRANCH  29  30
HETATM   30  C4  UNL     1       9.539  16.228  15.382  1.00  0.00     0.277 C 
BRANCH  30  31
HETATM   31  N2  UNL     1       9.694  15.569  14.101  1.00  0.00     0.091 N 
HETATM   32  C3  UNL     1      11.103  15.395  13.823  1.00  0.00     0.291 C 
HETATM   33  C2  UNL     1      11.536  16.150  12.589  1.00  0.00     0.146 C 
HETATM   34  N1  UNL     1      10.961  17.448  12.447  1.00  0.00    -0.413 N 
HETATM   35  C1  UNL     1      11.741  18.538  12.932  1.00  0.00     0.143 C 
HETATM   36  C32 UNL     1       9.553  17.527  12.767  1.00  0.00     0.146 C 
HETATM   37  C31 UNL     1       8.968  16.152  13.024  1.00  0.00     0.291 C 
ENDBRANCH  30  31
ENDBRANCH  29  30
ENDBRANCH  28  29
ENDBRANCH  26  28
ENDBRANCH  25  26
ENDBRANCH  24  25
ENDBRANCH  23  24
ENDBRANCH  20  23
ENDBRANCH   1  19
BRANCH   4  38
HETATM   38  C13 UNL     1      16.428  19.980  17.247  1.00  0.00     0.112 C 
HETATM   39  S1  UNL     1      15.241  18.828  17.984  1.00  0.00    -0.096 SA
ENDBRANCH   4  38
BRANCH   8  40
HETATM   40  C17 UNL     1      19.145  25.275  14.859  1.00  0.00     0.277 C 
BRANCH  40  41
HETATM   41  C18 UNL     1      20.629  25.272  15.121  1.00  0.00     0.014 A 
HETATM   42  C19 UNL     1      21.375  26.475  14.524  1.00  0.00     0.007 A 
HETATM   43  C20 UNL     1      21.284  26.243  15.994  1.00  0.00     0.007 A 
ENDBRANCH  40  41
ENDBRANCH   8  40
BRANCH  14  44
HETATM   44  O2  UNL     1      18.588  21.460  21.907  1.00  0.00    -0.361 OA
ATOM     45  H2  UNL     1      18.706  20.531  21.745  1.00  0.00     0.217 HD
ENDBRANCH  14  44
TORSDOF 13
ENDMDL
MODEL 5
REMARK VINA RESULT: -7.529865307      3.733      6.681
REMARK  13 active torsions:
REMARK  status: ('A' for Active; 'I' for Inactive)
REMARK    1  A    between atoms: N2_5  and  C4_6 
REMARK    2  A    between atoms: C4_6  and  C5_7 
REMARK    3  A    between atoms: C5_7  and  C6_8 
REMARK    4  A    between atoms: C6_8  and  N3_9 
REMARK    5  A    between atoms: N3_9  and  C7_11 
REMARK    6  A    between atoms: C7_11  and  C8_12 
REMARK    7  A    between atoms: C8_12  and  C9_13 
REMARK    8  A    between atoms: C9_13  and  N4_14 
REMARK       I    between atoms: N4_14  and  C10_16 
REMARK    9  A    between atoms: C10_16  and  C11_18 
REMARK   10  A    between atoms: C12_21  and  C13_22 
REMARK   11  A    between atoms: N6_27  and  C17_28 
REMARK   12  A    between atoms: C17_28  and  C18_29 
REMARK   13  A    between atoms: C26_37  and  O2_38 
ROOT
HETATM    1  C11 UNL     1      14.541  22.541  16.046  1.00  0.00     0.074 C 
HETATM    2  N5  UNL     1      14.831  21.702  16.955  1.00  0.00    -0.382 N 
ATOM      3  H5  UNL     1      14.059  21.153  17.334  1.00  0.00     0.160 HD
HETATM    4  C12 UNL     1      16.140  21.446  17.507  1.00  0.00     0.105 C 
HETATM    5  C14 UNL     1      17.183  22.461  17.273  1.00  0.00     0.016 C 
HETATM    6  C15 UNL     1      18.323  22.065  16.399  1.00  0.00     0.047 C 
HETATM    7  C16 UNL     1      19.210  23.269  16.095  1.00  0.00     0.274 C 
HETATM    8  N6  UNL     1      18.419  24.308  15.519  1.00  0.00     0.094 N 
HETATM    9  C21 UNL     1      17.428  24.823  16.438  1.00  0.00     0.232 C 
HETATM   10  C22 UNL     1      18.063  25.317  17.723  1.00  0.00     0.075 C 
HETATM   11  C23 UNL     1      18.164  24.241  18.751  1.00  0.00    -0.049 A 
HETATM   12  C24 UNL     1      18.695  24.638  19.962  1.00  0.00     0.010 A 
HETATM   13  C25 UNL     1      18.838  23.722  20.981  1.00  0.00     0.037 A 
HETATM   14  C26 UNL     1      18.470  22.418  20.840  1.00  0.00     0.066 A 
HETATM   15  C27 UNL     1      17.931  22.037  19.601  1.00  0.00     0.045 A 
HETATM   16  C28 UNL     1      17.787  22.945  18.583  1.00  0.00    -0.038 A 
HETATM   17  C29 UNL     1      16.470  23.728  16.764  1.00  0.00     0.040 C 
HETATM   18  C30 UNL     1      15.689  23.356  15.524  1.00  0.00     0.070 C 
ENDROOT
BRANCH   1  19
HETATM   19  C10 UNL     1      13.220  22.776  15.509  1.00  0.00     0.263 C 
HETATM   20  N4  UNL     1      12.376  21.662  15.251  1.00  0.00    -0.356 N 
ATOM     21  H4  UNL     1      12.696  20.712  15.436  1.00  0.00     0.162 HD
HETATM   22  O1  UNL     1      12.892  23.978  15.304  1.00  0.00    -0.266 OA
BRANCH  20  23
HETATM   23  C9  UNL     1      11.034  21.911  14.712  1.00  0.00     0.128 C 
BRANCH  23  24
HETATM   24  C8  UNL     1      10.011  20.928  15.136  1.00  0.00     0.064 C 
BRANCH  24  25
HETATM   25  C7  UNL     1      10.421  19.774  15.952  1.00  0.00     0.061 C 
BRANCH  25  26
HETATM   26  N3  UNL     1      10.297  19.673  17.323  1.00  0.00    -0.382 N 
ATOM     27  H3  UNL     1       9.644  20.275  17.824  1.00  0.00     0.163 HD
BRANCH  26  28
HETATM   28  C6  UNL     1      11.072  18.738  18.024  1.00  0.00     0.062 C 
BRANCH  28  29
HETATM   29  C5  UNL     1      11.467  17.511  17.202  1.00  0.00     0.074 C 
BRANCH  29  30
HETATM   30  C4  UNL     1      10.831  16.271  17.716  1.00  0.00     0.277 C 
BRANCH  30  31
HETATM   31  N2  UNL     1      10.334  15.423  16.653  1.00  0.00     0.091 N 
HETATM   32  C3  UNL     1       9.119  15.993  16.116  1.00  0.00     0.291 C 
HETATM   33  C2  UNL     1       7.929  15.085  16.314  1.00  0.00     0.146 C 
HETATM   34  N1  UNL     1       7.880  14.427  17.579  1.00  0.00    -0.413 N 
HETATM   35  C1  UNL     1       7.096  15.058  18.588  1.00  0.00     0.143 C 
HETATM   36  C32 UNL     1       9.148  13.908  18.043  1.00  0.00     0.146 C 
HETATM   37  C31 UNL     1      10.220  14.041  16.978  1.00  0.00     0.291 C 
ENDBRANCH  30  31
ENDBRANCH  29  30
ENDBRANCH  28  29
ENDBRANCH  26  28
ENDBRANCH  25  26
ENDBRANCH  24  25
ENDBRANCH  23  24
ENDBRANCH  20  23
ENDBRANCH   1  19
BRANCH   4  38
HETATM   38  C13 UNL     1      16.460  20.013  17.200  1.00  0.00     0.112 C 
HETATM   39  S1  UNL     1      15.283  18.848  17.933  1.00  0.00    -0.096 SA
ENDBRANCH   4  38
BRANCH   8  40
HETATM   40  C17 UNL     1      19.139  25.340  14.841  1.00  0.00     0.277 C 
BRANCH  40  41
HETATM   41  C18 UNL     1      20.625  25.335  15.088  1.00  0.00     0.014 A 
HETATM   42  C19 UNL     1      21.352  26.588  14.575  1.00  0.00     0.007 A 
HETATM   43  C20 UNL     1      21.279  26.247  16.025  1.00  0.00     0.007 A 
ENDBRANCH  40  41
ENDBRANCH   8  40
BRANCH  14  44
HETATM   44  O2  UNL     1      18.612  21.482  21.867  1.00  0.00    -0.361 OA
ATOM     45  H2  UNL     1      19.401  20.966  21.983  1.00  0.00     0.217 HD
ENDBRANCH  14  44
TORSDOF 13
ENDMDL
