MODEL 1
REMARK VINA RESULT: -8.747124196      0.000      0.000
REMARK  14 active torsions:
REMARK  status: ('A' for Active; 'I' for Inactive)
REMARK    1  A    between atoms: C2_2  and  O2_4 
REMARK    2  A    between atoms: O2_4  and  C3_5 
REMARK    3  A    between atoms: C3_5  and  C4_6 
REMARK    4  A    between atoms: C5_8  and  O4_9 
REMARK    5  A    between atoms: O4_9  and  C6_10 
REMARK    6  A    between atoms: C7_11  and  C8_12 
REMARK    7  A    between atoms: C16_22  and  C17_23 
REMARK    8  A    between atoms: C17_23  and  C18_24 
REMARK    9  A    between atoms: C18_24  and  C19_25 
REMARK   10  A    between atoms: C19_25  and  O6_27 
REMARK   11  A    between atoms: C26_35  and  O8_36 
REMARK   12  A    between atoms: C31_42  and  O9_43 
REMARK   13  A    between atoms: C32_45  and  O10_46 
REMARK   14  A    between atoms: C33_48  and  O11_49 
ROOT
HETATM    1  C6  UNL     1      25.329  -8.151   6.021  1.00  0.00     0.059 C 
HETATM    2  C7  UNL     1      24.644  -8.397   7.088  1.00  0.00     0.013 C 
HETATM    3  C9  UNL     1      23.777  -9.568   7.230  1.00  0.00     0.032 C 
HETATM    4  C10 UNL     1      22.405  -9.049   7.611  1.00  0.00     0.055 C 
HETATM    5  C11 UNL     1      21.584 -10.138   8.304  1.00  0.00     0.122 C 
HETATM    6  F1  UNL     1      22.511 -10.791   9.138  1.00  0.00    -0.241 F 
HETATM    7  C12 UNL     1      21.073 -11.064   7.290  1.00  0.00     0.096 C 
HETATM    8  C13 UNL     1      21.214 -10.610   5.849  1.00  0.00     0.016 C 
HETATM    9  C14 UNL     1      22.569 -10.665   5.284  1.00  0.00     0.006 C 
HETATM   10  C15 UNL     1      23.764 -10.577   6.160  1.00  0.00    -0.001 C 
HETATM   11  C16 UNL     1      24.983 -10.513   5.244  1.00  0.00    -0.004 C 
HETATM   12  C21 UNL     1      25.294  -9.052   4.900  1.00  0.00     0.070 C 
HETATM   13  C22 UNL     1      19.684 -11.585   7.522  1.00  0.00     0.134 C 
HETATM   14  O7  UNL     1      19.369 -12.643   7.021  1.00  0.00    -0.297 OA
HETATM   15  C23 UNL     1      18.736 -10.803   8.351  1.00  0.00     0.084 C 
HETATM   16  C24 UNL     1      19.504 -10.452   9.611  1.00  0.00     0.006 C 
HETATM   17  C25 UNL     1      18.569  -9.948  10.645  1.00  0.00     0.037 C 
HETATM   18  C26 UNL     1      19.262  -9.430  11.883  1.00  0.00     0.118 C 
HETATM   19  C27 UNL     1      20.401  -8.501  11.545  1.00  0.00     0.032 C 
HETATM   20  C28 UNL     1      21.315  -9.166  10.543  1.00  0.00     0.015 C 
HETATM   21  C29 UNL     1      20.606  -9.495   9.243  1.00  0.00    -0.003 C 
HETATM   22  C30 UNL     1      20.060  -8.196   8.707  1.00  0.00     0.019 C 
ENDROOT
BRANCH   1  23
HETATM   23  O4  UNL     1      26.142  -6.995   5.900  1.00  0.00    -0.321 OA
BRANCH  23  24
HETATM   24  C5  UNL     1      25.717  -5.824   5.254  1.00  0.00     0.297 C 
HETATM   25  O3  UNL     1      25.389  -4.860   6.166  1.00  0.00    -0.348 OA
HETATM   26  C4  UNL     1      26.371  -4.266   6.882  1.00  0.00     0.180 C 
HETATM   27  C33 UNL     1      27.650  -4.071   6.042  1.00  0.00     0.180 C 
HETATM   28  C32 UNL     1      27.122  -3.885   4.612  1.00  0.00     0.183 C 
HETATM   29  C31 UNL     1      26.657  -5.301   4.234  1.00  0.00     0.205 C 
BRANCH  26  30
HETATM   30  C3  UNL     1      26.018  -2.879   7.354  1.00  0.00     0.213 C 
BRANCH  30  31
HETATM   31  O2  UNL     1      26.021  -2.636   8.700  1.00  0.00    -0.319 OA
BRANCH  31  32
HETATM   32  C2  UNL     1      25.852  -3.441   9.771  1.00  0.00     0.254 C 
HETATM   33  C1  UNL     1      24.541  -4.107  10.104  1.00  0.00     0.126 C 
HETATM   34  O1  UNL     1      26.824  -3.650  10.527  1.00  0.00    -0.266 OA
ENDBRANCH  31  32
ENDBRANCH  30  31
ENDBRANCH  26  30
BRANCH  27  35
HETATM   35  O11 UNL     1      28.322  -2.923   6.380  1.00  0.00    -0.390 OA
ATOM     36  H11 UNL     1      29.010  -3.083   7.014  1.00  0.00     0.210 HD
ENDBRANCH  27  35
BRANCH  28  37
HETATM   37  O10 UNL     1      28.137  -3.473   3.761  1.00  0.00    -0.390 OA
ATOM     38  H10 UNL     1      27.828  -2.771   3.200  1.00  0.00     0.210 HD
ENDBRANCH  28  37
BRANCH  29  39
HETATM   39  O9  UNL     1      27.828  -6.046   4.115  1.00  0.00    -0.388 OA
ATOM     40  H9  UNL     1      28.097  -6.195   3.216  1.00  0.00     0.210 HD
ENDBRANCH  29  39
ENDBRANCH  23  24
ENDBRANCH   1  23
BRANCH   2  41
HETATM   41  C8  UNL     1      24.745  -7.419   8.196  1.00  0.00     0.268 C 
HETATM   42  O5  UNL     1      25.722  -7.390   8.962  1.00  0.00    -0.302 OA
ENDBRANCH   2  41
BRANCH  11  43
HETATM   43  C17 UNL     1      24.843 -11.201   3.963  1.00  0.00     0.008 C 
BRANCH  43  44
HETATM   44  C18 UNL     1      25.959 -11.127   2.981  1.00  0.00     0.032 C 
BRANCH  44  45
HETATM   45  C19 UNL     1      25.602 -10.567   1.656  1.00  0.00     0.114 C 
HETATM   46  C20 UNL     1      24.075 -10.364   1.608  1.00  0.00     0.039 C 
BRANCH  45  47
HETATM   47  O6  UNL     1      26.212  -9.415   1.258  1.00  0.00    -0.396 OA
ATOM     48  H6  UNL     1      25.758  -8.857   0.637  1.00  0.00     0.210 HD
ENDBRANCH  45  47
ENDBRANCH  44  45
ENDBRANCH  43  44
ENDBRANCH  11  43
BRANCH  18  49
HETATM   49  O8  UNL     1      18.352  -8.792  12.706  1.00  0.00    -0.396 OA
ATOM     50  H8  UNL     1      18.224  -9.294  13.502  1.00  0.00     0.210 HD
ENDBRANCH  18  49
TORSDOF 14
ENDMDL
MODEL 2
REMARK VINA RESULT: -8.497902933      1.142      1.436
REMARK  14 active torsions:
REMARK  status: ('A' for Active; 'I' for Inactive)
REMARK    1  A    between atoms: C2_2  and  O2_4 
REMARK    2  A    between atoms: O2_4  and  C3_5 
REMARK    3  A    between atoms: C3_5  and  C4_6 
REMARK    4  A    between atoms: C5_8  and  O4_9 
REMARK    5  A    between atoms: O4_9  and  C6_10 
REMARK    6  A    between atoms: C7_11  and  C8_12 
REMARK    7  A    between atoms: C16_22  and  C17_23 
REMARK    8  A    between atoms: C17_23  and  C18_24 
REMARK    9  A    between atoms: C18_24  and  C19_25 
REMARK   10  A    between atoms: C19_25  and  O6_27 
REMARK   11  A    between atoms: C26_35  and  O8_36 
REMARK   12  A    between atoms: C31_42  and  O9_43 
REMARK   13  A    between atoms: C32_45  and  O10_46 
REMARK   14  A    between atoms: C33_48  and  O11_49 
ROOT
HETATM    1  C6  UNL     1      25.323  -8.161   6.351  1.00  0.00     0.059 C 
HETATM    2  C7  UNL     1      24.609  -8.368   7.407  1.00  0.00     0.013 C 
HETATM    3  C9  UNL     1      23.795  -9.570   7.600  1.00  0.00     0.032 C 
HETATM    4  C10 UNL     1      22.385  -9.096   7.894  1.00  0.00     0.055 C 
HETATM    5  C11 UNL     1      21.592 -10.175   8.631  1.00  0.00     0.122 C 
HETATM    6  F1  UNL     1      22.515 -10.722   9.542  1.00  0.00    -0.241 F 
HETATM    7  C12 UNL     1      21.166 -11.193   7.668  1.00  0.00     0.096 C 
HETATM    8  C13 UNL     1      21.341 -10.833   6.204  1.00  0.00     0.016 C 
HETATM    9  C14 UNL     1      22.718 -10.857   5.694  1.00  0.00     0.006 C 
HETATM   10  C15 UNL     1      23.873 -10.649   6.603  1.00  0.00    -0.001 C 
HETATM   11  C16 UNL     1      25.122 -10.585   5.730  1.00  0.00    -0.004 C 
HETATM   12  C21 UNL     1      25.375  -9.137   5.295  1.00  0.00     0.070 C 
HETATM   13  C22 UNL     1      19.796 -11.767   7.886  1.00  0.00     0.134 C 
HETATM   14  O7  UNL     1      19.552 -12.871   7.449  1.00  0.00    -0.297 OA
HETATM   15  C23 UNL     1      18.779 -10.979   8.624  1.00  0.00     0.084 C 
HETATM   16  C24 UNL     1      19.479 -10.504   9.882  1.00  0.00     0.006 C 
HETATM   17  C25 UNL     1      18.481  -9.979  10.844  1.00  0.00     0.037 C 
HETATM   18  C26 UNL     1      19.099  -9.343  12.067  1.00  0.00     0.118 C 
HETATM   19  C27 UNL     1      20.204  -8.382  11.706  1.00  0.00     0.032 C 
HETATM   20  C28 UNL     1      21.188  -9.067  10.786  1.00  0.00     0.015 C 
HETATM   21  C29 UNL     1      20.547  -9.520   9.488  1.00  0.00    -0.003 C 
HETATM   22  C30 UNL     1      19.960  -8.290   8.843  1.00  0.00     0.019 C 
ENDROOT
BRANCH   1  23
HETATM   23  O4  UNL     1      26.083  -6.977   6.177  1.00  0.00    -0.321 OA
BRANCH  23  24
HETATM   24  C5  UNL     1      25.567  -5.814   5.584  1.00  0.00     0.297 C 
HETATM   25  O3  UNL     1      25.462  -4.808   6.503  1.00  0.00    -0.348 OA
HETATM   26  C4  UNL     1      26.588  -4.225   6.975  1.00  0.00     0.180 C 
HETATM   27  C33 UNL     1      27.669  -4.105   5.883  1.00  0.00     0.180 C 
HETATM   28  C32 UNL     1      26.861  -3.951   4.586  1.00  0.00     0.183 C 
HETATM   29  C31 UNL     1      26.288  -5.362   4.371  1.00  0.00     0.205 C 
BRANCH  26  30
HETATM   30  C3  UNL     1      26.379  -2.810   7.452  1.00  0.00     0.213 C 
BRANCH  30  31
HETATM   31  O2  UNL     1      26.160  -2.605   8.787  1.00  0.00    -0.319 OA
BRANCH  31  32
HETATM   32  C2  UNL     1      25.890  -3.450   9.805  1.00  0.00     0.254 C 
HETATM   33  C1  UNL     1      24.505  -3.961  10.109  1.00  0.00     0.126 C 
HETATM   34  O1  UNL     1      26.829  -3.832  10.535  1.00  0.00    -0.266 OA
ENDBRANCH  31  32
ENDBRANCH  30  31
ENDBRANCH  26  30
BRANCH  27  35
HETATM   35  O11 UNL     1      28.428  -2.971   6.026  1.00  0.00    -0.390 OA
ATOM     36  H11 UNL     1      28.036  -2.351   6.629  1.00  0.00     0.210 HD
ENDBRANCH  27  35
BRANCH  28  37
HETATM   37  O10 UNL     1      27.688  -3.606   3.527  1.00  0.00    -0.390 OA
ATOM     38  H10 UNL     1      27.952  -2.696   3.601  1.00  0.00     0.210 HD
ENDBRANCH  28  37
BRANCH  29  39
HETATM   39  O9  UNL     1      27.387  -6.153   4.044  1.00  0.00    -0.388 OA
ATOM     40  H9  UNL     1      27.774  -6.598   4.789  1.00  0.00     0.210 HD
ENDBRANCH  29  39
ENDBRANCH  23  24
ENDBRANCH   1  23
BRANCH   2  41
HETATM   41  C8  UNL     1      24.619  -7.313   8.446  1.00  0.00     0.268 C 
HETATM   42  O5  UNL     1      25.463  -7.294   9.358  1.00  0.00    -0.302 OA
ENDBRANCH   2  41
BRANCH  11  43
HETATM   43  C17 UNL     1      25.066 -11.365   4.496  1.00  0.00     0.008 C 
BRANCH  43  44
HETATM   44  C18 UNL     1      26.207 -12.258   4.157  1.00  0.00     0.032 C 
BRANCH  44  45
HETATM   45  C19 UNL     1      27.209 -12.444   5.233  1.00  0.00     0.114 C 
HETATM   46  C20 UNL     1      26.935 -13.792   5.927  1.00  0.00     0.039 C 
BRANCH  45  47
HETATM   47  O6  UNL     1      28.530 -12.378   4.903  1.00  0.00    -0.396 OA
ATOM     48  H6  UNL     1      29.156 -12.184   5.592  1.00  0.00     0.210 HD
ENDBRANCH  45  47
ENDBRANCH  44  45
ENDBRANCH  43  44
ENDBRANCH  11  43
BRANCH  18  49
HETATM   49  O8  UNL     1      18.128  -8.698  12.809  1.00  0.00    -0.396 OA
ATOM     50  H8  UNL     1      18.021  -7.805  12.503  1.00  0.00     0.210 HD
ENDBRANCH  18  49
TORSDOF 14
ENDMDL
MODEL 3
REMARK VINA RESULT: -8.252879918      2.829      6.035
REMARK  14 active torsions:
REMARK  status: ('A' for Active; 'I' for Inactive)
REMARK    1  A    between atoms: C2_2  and  O2_4 
REMARK    2  A    between atoms: O2_4  and  C3_5 
REMARK    3  A    between atoms: C3_5  and  C4_6 
REMARK    4  A    between atoms: C5_8  and  O4_9 
REMARK    5  A    between atoms: O4_9  and  C6_10 
REMARK    6  A    between atoms: C7_11  and  C8_12 
REMARK    7  A    between atoms: C16_22  and  C17_23 
REMARK    8  A    between atoms: C17_23  and  C18_24 
REMARK    9  A    between atoms: C18_24  and  C19_25 
REMARK   10  A    between atoms: C19_25  and  O6_27 
REMARK   11  A    between atoms: C26_35  and  O8_36 
REMARK   12  A    between atoms: C31_42  and  O9_43 
REMARK   13  A    between atoms: C32_45  and  O10_46 
REMARK   14  A    between atoms: C33_48  and  O11_49 
ROOT
HETATM    1  C6  UNL     1      25.164  -7.988   6.669  1.00  0.00     0.059 C 
HETATM    2  C7  UNL     1      25.258  -9.151   6.115  1.00  0.00     0.013 C 
HETATM    3  C9  UNL     1      24.462 -10.305   6.536  1.00  0.00     0.032 C 
HETATM    4  C10 UNL     1      25.442 -11.420   6.842  1.00  0.00     0.055 C 
HETATM    5  C11 UNL     1      24.757 -12.785   6.758  1.00  0.00     0.122 C 
HETATM    6  F1  UNL     1      23.910 -12.677   5.640  1.00  0.00    -0.241 F 
HETATM    7  C12 UNL     1      23.968 -12.996   7.974  1.00  0.00     0.096 C 
HETATM    8  C13 UNL     1      24.218 -12.012   9.103  1.00  0.00     0.016 C 
HETATM    9  C14 UNL     1      23.663 -10.665   8.919  1.00  0.00     0.006 C 
HETATM   10  C15 UNL     1      23.424 -10.117   7.561  1.00  0.00    -0.001 C 
HETATM   11  C16 UNL     1      22.994  -8.663   7.736  1.00  0.00    -0.004 C 
HETATM   12  C21 UNL     1      24.229  -7.756   7.739  1.00  0.00     0.070 C 
HETATM   13  C22 UNL     1      23.965 -14.396   8.516  1.00  0.00     0.134 C 
HETATM   14  O7  UNL     1      23.033 -14.750   9.206  1.00  0.00    -0.297 OA
HETATM   15  C23 UNL     1      25.091 -15.308   8.200  1.00  0.00     0.084 C 
HETATM   16  C24 UNL     1      25.277 -15.206   6.699  1.00  0.00     0.006 C 
HETATM   17  C25 UNL     1      26.155 -16.302   6.225  1.00  0.00     0.037 C 
HETATM   18  C26 UNL     1      26.520 -16.194   4.764  1.00  0.00     0.118 C 
HETATM   19  C27 UNL     1      26.981 -14.805   4.399  1.00  0.00     0.032 C 
HETATM   20  C28 UNL     1      25.960 -13.795   4.870  1.00  0.00     0.015 C 
HETATM   21  C29 UNL     1      25.772 -13.822   6.375  1.00  0.00    -0.003 C 
HETATM   22  C30 UNL     1      27.126 -13.559   6.985  1.00  0.00     0.019 C 
ENDROOT
BRANCH   1  23
HETATM   23  O4  UNL     1      25.965  -6.892   6.259  1.00  0.00    -0.321 OA
BRANCH  23  24
HETATM   24  C5  UNL     1      25.428  -5.691   5.771  1.00  0.00     0.297 C 
HETATM   25  O3  UNL     1      25.502  -4.707   6.717  1.00  0.00    -0.348 OA
HETATM   26  C4  UNL     1      26.710  -4.190   7.039  1.00  0.00     0.180 C 
HETATM   27  C33 UNL     1      27.633  -4.088   5.808  1.00  0.00     0.180 C 
HETATM   28  C32 UNL     1      26.661  -3.860   4.641  1.00  0.00     0.183 C 
HETATM   29  C31 UNL     1      25.995  -5.237   4.478  1.00  0.00     0.205 C 
BRANCH  26  30
HETATM   30  C3  UNL     1      26.639  -2.782   7.572  1.00  0.00     0.213 C 
BRANCH  30  31
HETATM   31  O2  UNL     1      26.233  -2.601   8.865  1.00  0.00    -0.319 OA
BRANCH  31  32
HETATM   32  C2  UNL     1      25.926  -3.470   9.852  1.00  0.00     0.254 C 
HETATM   33  C1  UNL     1      24.556  -4.076  10.022  1.00  0.00     0.126 C 
HETATM   34  O1  UNL     1      26.814  -3.792  10.668  1.00  0.00    -0.266 OA
ENDBRANCH  31  32
ENDBRANCH  30  31
ENDBRANCH  26  30
BRANCH  27  35
HETATM   35  O11 UNL     1      28.459  -2.994   5.868  1.00  0.00    -0.390 OA
ATOM     36  H11 UNL     1      29.281  -3.140   5.416  1.00  0.00     0.210 HD
ENDBRANCH  27  35
BRANCH  28  37
HETATM   37  O10 UNL     1      27.348  -3.523   3.485  1.00  0.00    -0.390 OA
ATOM     38  H10 UNL     1      27.178  -2.616   3.256  1.00  0.00     0.210 HD
ENDBRANCH  28  37
BRANCH  29  39
HETATM   39  O9  UNL     1      26.998  -6.067   3.983  1.00  0.00    -0.388 OA
ATOM     40  H9  UNL     1      27.059  -6.070   3.035  1.00  0.00     0.210 HD
ENDBRANCH  29  39
ENDBRANCH  23  24
ENDBRANCH   1  23
BRANCH   2  41
HETATM   41  C8  UNL     1      26.241  -9.297   5.017  1.00  0.00     0.268 C 
HETATM   42  O5  UNL     1      25.980  -8.963   3.850  1.00  0.00    -0.302 OA
ENDBRANCH   2  41
BRANCH  11  43
HETATM   43  C17 UNL     1      22.280  -8.365   8.975  1.00  0.00     0.008 C 
BRANCH  43  44
HETATM   44  C18 UNL     1      20.806  -8.561   9.022  1.00  0.00     0.032 C 
BRANCH  44  45
HETATM   45  C19 UNL     1      20.319  -9.459  10.095  1.00  0.00     0.114 C 
HETATM   46  C20 UNL     1      20.954  -9.015  11.427  1.00  0.00     0.039 C 
BRANCH  45  47
HETATM   47  O6  UNL     1      18.973  -9.587  10.269  1.00  0.00    -0.396 OA
ATOM     48  H6  UNL     1      18.636 -10.421  10.575  1.00  0.00     0.210 HD
ENDBRANCH  45  47
ENDBRANCH  44  45
ENDBRANCH  43  44
ENDBRANCH  11  43
BRANCH  18  49
HETATM   49  O8  UNL     1      27.496 -17.120   4.448  1.00  0.00    -0.396 OA
ATOM     50  H8  UNL     1      28.174 -16.714   3.920  1.00  0.00     0.210 HD
ENDBRANCH  18  49
TORSDOF 14
ENDMDL
MODEL 4
REMARK VINA RESULT: -7.816922981      4.066      5.740
REMARK  14 active torsions:
REMARK  status: ('A' for Active; 'I' for Inactive)
REMARK    1  A    between atoms: C2_2  and  O2_4 
REMARK    2  A    between atoms: O2_4  and  C3_5 
REMARK    3  A    between atoms: C3_5  and  C4_6 
REMARK    4  A    between atoms: C5_8  and  O4_9 
REMARK    5  A    between atoms: O4_9  and  C6_10 
REMARK    6  A    between atoms: C7_11  and  C8_12 
REMARK    7  A    between atoms: C16_22  and  C17_23 
REMARK    8  A    between atoms: C17_23  and  C18_24 
REMARK    9  A    between atoms: C18_24  and  C19_25 
REMARK   10  A    between atoms: C19_25  and  O6_27 
REMARK   11  A    between atoms: C26_35  and  O8_36 
REMARK   12  A    between atoms: C31_42  and  O9_43 
REMARK   13  A    between atoms: C32_45  and  O10_46 
REMARK   14  A    between atoms: C33_48  and  O11_49 
ROOT
HETATM    1  C6  UNL     1      24.216  -7.781   4.468  1.00  0.00     0.059 C 
HETATM    2  C7  UNL     1      23.001  -7.482   4.147  1.00  0.00     0.013 C 
HETATM    3  C9  UNL     1      22.101  -8.413   3.463  1.00  0.00     0.032 C 
HETATM    4  C10 UNL     1      21.602  -7.701   2.222  1.00  0.00     0.055 C 
HETATM    5  C11 UNL     1      20.288  -8.314   1.735  1.00  0.00     0.122 C 
HETATM    6  F1  UNL     1      19.569  -8.574   2.917  1.00  0.00    -0.241 F 
HETATM    7  C12 UNL     1      20.579  -9.566   1.033  1.00  0.00     0.096 C 
HETATM    8  C13 UNL     1      22.041  -9.818   0.709  1.00  0.00     0.016 C 
HETATM    9  C14 UNL     1      22.897 -10.197   1.840  1.00  0.00     0.006 C 
HETATM   10  C15 UNL     1      22.553  -9.793   3.226  1.00  0.00    -0.001 C 
HETATM   11  C16 UNL     1      23.718 -10.217   4.115  1.00  0.00    -0.004 C 
HETATM   12  C21 UNL     1      24.751  -9.087   4.186  1.00  0.00     0.070 C 
HETATM   13  C22 UNL     1      19.738  -9.847  -0.178  1.00  0.00     0.134 C 
HETATM   14  O7  UNL     1      19.596 -10.998  -0.534  1.00  0.00    -0.297 OA
HETATM   15  C23 UNL     1      19.103  -8.723  -0.908  1.00  0.00     0.084 C 
HETATM   16  C24 UNL     1      18.424  -7.888   0.160  1.00  0.00     0.006 C 
HETATM   17  C25 UNL     1      17.497  -6.920  -0.473  1.00  0.00     0.037 C 
HETATM   18  C26 UNL     1      16.888  -5.942   0.503  1.00  0.00     0.118 C 
HETATM   19  C27 UNL     1      17.926  -5.329   1.410  1.00  0.00     0.032 C 
HETATM   20  C28 UNL     1      18.749  -6.426   2.046  1.00  0.00     0.015 C 
HETATM   21  C29 UNL     1      19.489  -7.263   1.021  1.00  0.00    -0.003 C 
HETATM   22  C30 UNL     1      20.357  -6.315   0.232  1.00  0.00     0.019 C 
ENDROOT
BRANCH   1  23
HETATM   23  O4  UNL     1      25.075  -6.852   5.108  1.00  0.00    -0.321 OA
BRANCH  23  24
HETATM   24  C5  UNL     1      25.483  -5.649   4.511  1.00  0.00     0.297 C 
HETATM   25  O3  UNL     1      25.221  -4.588   5.332  1.00  0.00    -0.348 OA
HETATM   26  C4  UNL     1      25.952  -4.430   6.460  1.00  0.00     0.180 C 
HETATM   27  C33 UNL     1      27.422  -4.844   6.249  1.00  0.00     0.180 C 
HETATM   28  C32 UNL     1      27.681  -4.531   4.768  1.00  0.00     0.183 C 
HETATM   29  C31 UNL     1      26.890  -5.634   4.044  1.00  0.00     0.205 C 
BRANCH  26  30
HETATM   30  C3  UNL     1      26.029  -3.001   6.931  1.00  0.00     0.213 C 
BRANCH  30  31
HETATM   31  O2  UNL     1      25.911  -2.756   8.272  1.00  0.00    -0.319 OA
BRANCH  31  32
HETATM   32  C2  UNL     1      25.897  -3.572   9.348  1.00  0.00     0.254 C 
HETATM   33  C1  UNL     1      24.638  -3.931  10.096  1.00  0.00     0.126 C 
HETATM   34  O1  UNL     1      26.975  -4.058   9.749  1.00  0.00    -0.266 OA
ENDBRANCH  31  32
ENDBRANCH  30  31
ENDBRANCH  26  30
BRANCH  27  35
HETATM   35  O11 UNL     1      28.288  -4.074   6.984  1.00  0.00    -0.390 OA
ATOM     36  H11 UNL     1      29.168  -4.082   6.626  1.00  0.00     0.210 HD
ENDBRANCH  27  35
BRANCH  28  37
HETATM   37  O10 UNL     1      29.031  -4.638   4.469  1.00  0.00    -0.390 OA
ATOM     38  H10 UNL     1      29.535  -4.046   5.015  1.00  0.00     0.210 HD
ENDBRANCH  28  37
BRANCH  29  39
HETATM   39  O9  UNL     1      27.584  -6.811   4.312  1.00  0.00    -0.388 OA
ATOM     40  H9  UNL     1      27.126  -7.597   4.035  1.00  0.00     0.210 HD
ENDBRANCH  29  39
ENDBRANCH  23  24
ENDBRANCH   1  23
BRANCH   2  41
HETATM   41  C8  UNL     1      22.530  -6.118   4.481  1.00  0.00     0.268 C 
HETATM   42  O5  UNL     1      21.554  -5.921   5.223  1.00  0.00    -0.302 OA
ENDBRANCH   2  41
BRANCH  11  43
HETATM   43  C17 UNL     1      24.452 -11.398   3.669  1.00  0.00     0.008 C 
BRANCH  43  44
HETATM   44  C18 UNL     1      25.895 -11.263   3.330  1.00  0.00     0.032 C 
BRANCH  44  45
HETATM   45  C19 UNL     1      26.405 -12.232   2.331  1.00  0.00     0.114 C 
HETATM   46  C20 UNL     1      26.074 -11.701   0.923  1.00  0.00     0.039 C 
BRANCH  45  47
HETATM   47  O6  UNL     1      27.724 -12.571   2.377  1.00  0.00    -0.396 OA
ATOM     48  H6  UNL     1      28.241 -12.475   1.584  1.00  0.00     0.210 HD
ENDBRANCH  45  47
ENDBRANCH  44  45
ENDBRANCH  43  44
ENDBRANCH  11  43
BRANCH  18  49
HETATM   49  O8  UNL     1      16.206  -4.952  -0.180  1.00  0.00    -0.396 OA
ATOM     50  H8  UNL     1      15.323  -5.241  -0.381  1.00  0.00     0.210 HD
ENDBRANCH  18  49
TORSDOF 14
ENDMDL
MODEL 5
REMARK VINA RESULT: -7.811843600      1.913      6.901
REMARK  14 active torsions:
REMARK  status: ('A' for Active; 'I' for Inactive)
REMARK    1  A    between atoms: C2_2  and  O2_4 
REMARK    2  A    between atoms: O2_4  and  C3_5 
REMARK    3  A    between atoms: C3_5  and  C4_6 
REMARK    4  A    between atoms: C5_8  and  O4_9 
REMARK    5  A    between atoms: O4_9  and  C6_10 
REMARK    6  A    between atoms: C7_11  and  C8_12 
REMARK    7  A    between atoms: C16_22  and  C17_23 
REMARK    8  A    between atoms: C17_23  and  C18_24 
REMARK    9  A    between atoms: C18_24  and  C19_25 
REMARK   10  A    between atoms: C19_25  and  O6_27 
REMARK   11  A    between atoms: C26_35  and  O8_36 
REMARK   12  A    between atoms: C31_42  and  O9_43 
REMARK   13  A    between atoms: C32_45  and  O10_46 
REMARK   14  A    between atoms: C33_48  and  O11_49 
ROOT
HETATM    1  C6  UNL     1      23.704  -7.398   8.097  1.00  0.00     0.059 C 
HETATM    2  C7  UNL     1      23.862  -7.946   6.939  1.00  0.00     0.013 C 
HETATM    3  C9  UNL     1      23.397  -9.298   6.623  1.00  0.00     0.032 C 
HETATM    4  C10 UNL     1      24.597 -10.058   6.094  1.00  0.00     0.055 C 
HETATM    5  C11 UNL     1      24.155 -11.249   5.243  1.00  0.00     0.122 C 
HETATM    6  F1  UNL     1      23.062 -10.759   4.504  1.00  0.00    -0.241 F 
HETATM    7  C12 UNL     1      23.723 -12.332   6.130  1.00  0.00     0.096 C 
HETATM    8  C13 UNL     1      24.060 -12.156   7.600  1.00  0.00     0.016 C 
HETATM    9  C14 UNL     1      23.255 -11.170   8.333  1.00  0.00     0.006 C 
HETATM   10  C15 UNL     1      22.613 -10.033   7.627  1.00  0.00    -0.001 C 
HETATM   11  C16 UNL     1      21.995  -9.137   8.696  1.00  0.00    -0.004 C 
HETATM   12  C21 UNL     1      23.023  -8.097   9.155  1.00  0.00     0.070 C 
HETATM   13  C22 UNL     1      24.087 -13.721   5.691  1.00  0.00     0.134 C 
HETATM   14  O7  UNL     1      23.418 -14.650   6.090  1.00  0.00    -0.297 OA
HETATM   15  C23 UNL     1      25.245 -13.926   4.788  1.00  0.00     0.084 C 
HETATM   16  C24 UNL     1      25.051 -12.931   3.660  1.00  0.00     0.006 C 
HETATM   17  C25 UNL     1      25.967 -13.255   2.541  1.00  0.00     0.037 C 
HETATM   18  C26 UNL     1      25.953 -12.229   1.433  1.00  0.00     0.118 C 
HETATM   19  C27 UNL     1      26.071 -10.823   1.966  1.00  0.00     0.032 C 
HETATM   20  C28 UNL     1      25.033 -10.603   3.042  1.00  0.00     0.015 C 
HETATM   21  C29 UNL     1      25.213 -11.543   4.219  1.00  0.00    -0.003 C 
HETATM   22  C30 UNL     1      26.607 -11.314   4.747  1.00  0.00     0.019 C 
ENDROOT
BRANCH   1  23
HETATM   23  O4  UNL     1      24.187  -6.096   8.385  1.00  0.00    -0.321 OA
BRANCH  23  24
HETATM   24  C5  UNL     1      25.429  -5.856   8.993  1.00  0.00     0.297 C 
HETATM   25  O3  UNL     1      26.384  -5.585   8.052  1.00  0.00    -0.348 OA
HETATM   26  C4  UNL     1      26.336  -4.410   7.383  1.00  0.00     0.180 C 
HETATM   27  C33 UNL     1      25.855  -3.258   8.288  1.00  0.00     0.180 C 
HETATM   28  C32 UNL     1      26.348  -3.661   9.685  1.00  0.00     0.183 C 
HETATM   29  C31 UNL     1      25.412  -4.823  10.056  1.00  0.00     0.205 C 
BRANCH  26  30
HETATM   30  C3  UNL     1      27.679  -3.952   6.875  1.00  0.00     0.213 C 
BRANCH  30  31
HETATM   31  O2  UNL     1      27.835  -3.784   5.527  1.00  0.00    -0.319 OA
BRANCH  31  32
HETATM   32  C2  UNL     1      28.466  -4.520   4.586  1.00  0.00     0.254 C 
HETATM   33  C1  UNL     1      27.844  -5.724   3.926  1.00  0.00     0.126 C 
HETATM   34  O1  UNL     1      29.620  -4.194   4.240  1.00  0.00    -0.266 OA
ENDBRANCH  31  32
ENDBRANCH  30  31
ENDBRANCH  26  30
BRANCH  27  35
HETATM   35  O11 UNL     1      26.456  -2.066   7.973  1.00  0.00    -0.390 OA
ATOM     36  H11 UNL     1      27.380  -2.060   8.192  1.00  0.00     0.210 HD
ENDBRANCH  27  35
BRANCH  28  37
HETATM   37  O10 UNL     1      26.192  -2.617  10.585  1.00  0.00    -0.390 OA
ATOM     38  H10 UNL     1      25.451  -2.785  11.156  1.00  0.00     0.210 HD
ENDBRANCH  28  37
BRANCH  29  39
HETATM   39  O9  UNL     1      24.164  -4.235  10.247  1.00  0.00    -0.388 OA
ATOM     40  H9  UNL     1      24.071  -3.389   9.827  1.00  0.00     0.210 HD
ENDBRANCH  29  39
ENDBRANCH  23  24
ENDBRANCH   1  23
BRANCH   2  41
HETATM   41  C8  UNL     1      24.569  -7.152   5.907  1.00  0.00     0.268 C 
HETATM   42  O5  UNL     1      23.961  -6.426   5.103  1.00  0.00    -0.302 OA
ENDBRANCH   2  41
BRANCH  11  43
HETATM   43  C17 UNL     1      21.554  -9.820   9.909  1.00  0.00     0.008 C 
BRANCH  43  44
HETATM   44  C18 UNL     1      21.374  -9.028  11.157  1.00  0.00     0.032 C 
BRANCH  44  45
HETATM   45  C19 UNL     1      19.972  -8.862  11.606  1.00  0.00     0.114 C 
HETATM   46  C20 UNL     1      19.925  -9.044  13.136  1.00  0.00     0.039 C 
BRANCH  45  47
HETATM   47  O6  UNL     1      19.322  -7.709  11.279  1.00  0.00    -0.396 OA
ATOM     48  H6  UNL     1      19.155  -7.533  10.360  1.00  0.00     0.210 HD
ENDBRANCH  45  47
ENDBRANCH  44  45
ENDBRANCH  43  44
ENDBRANCH  11  43
BRANCH  18  49
HETATM   49  O8  UNL     1      26.971 -12.486   0.534  1.00  0.00    -0.396 OA
ATOM     50  H8  UNL     1      26.655 -12.381  -0.356  1.00  0.00     0.210 HD
ENDBRANCH  18  49
TORSDOF 14
ENDMDL
