MODEL 1
REMARK VINA RESULT: -6.528141711      0.000      0.000
REMARK  15 active torsions:
REMARK  status: ('A' for Active; 'I' for Inactive)
REMARK    1  A    between atoms: C9_10  and  O2_11 
REMARK    2  A    between atoms: C9_10  and  C10_13 
REMARK    3  A    between atoms: C10_13  and  O3_14 
REMARK    4  A    between atoms: C12_17  and  O4_19 
REMARK    5  A    between atoms: C14_21  and  O5_22 
REMARK    6  A    between atoms: O5_22  and  C15_23 
REMARK    7  A    between atoms: C19_28  and  O7_29 
REMARK    8  A    between atoms: C21_31  and  C22_32 
REMARK    9  A    between atoms: C24_35  and  O8_36 
REMARK   10  A    between atoms: O8_36  and  C25_37 
REMARK   11  A    between atoms: C25_37  and  C26_39 
REMARK   12  A    between atoms: C26_39  and  O10_40 
REMARK   13  A    between atoms: O10_40  and  C27_41 
REMARK   14  A    between atoms: C29_43  and  O11_45 
REMARK   15  A    between atoms: C31_47  and  O12_48 
ROOT
HETATM    1  C1  UNL     1      21.261  -6.192   2.395  1.00  0.00     0.036 C 
HETATM    2  C2  UNL     1      21.494  -7.297   3.394  1.00  0.00    -0.018 C 
HETATM    3  C3  UNL     1      21.312  -8.575   3.137  1.00  0.00     0.016 C 
HETATM    4  C4  UNL     1      20.852  -8.906   1.769  1.00  0.00     0.165 C 
HETATM    5  O1  UNL     1      19.861  -8.271   1.325  1.00  0.00    -0.292 OA
HETATM    6  C5  UNL     1      21.489  -9.939   0.888  1.00  0.00     0.078 C 
HETATM    7  C6  UNL     1      20.525 -11.157   0.974  1.00  0.00     0.022 C 
HETATM    8  C7  UNL     1      22.820 -10.388   1.392  1.00  0.00    -0.016 C 
HETATM    9  C8  UNL     1      24.021  -9.900   1.421  1.00  0.00     0.009 C 
HETATM   10  C9  UNL     1      25.357 -10.341   1.926  1.00  0.00     0.099 C 
HETATM   11  C11 UNL     1      25.606  -9.965   3.326  1.00  0.00     0.084 C 
HETATM   12  C12 UNL     1      24.762 -10.298   4.465  1.00  0.00     0.086 C 
HETATM   13  C13 UNL     1      25.686 -10.707   5.598  1.00  0.00     0.049 C 
HETATM   14  C14 UNL     1      23.911  -9.098   4.985  1.00  0.00     0.195 C 
HETATM   15  C29 UNL     1      22.509  -9.405   5.257  1.00  0.00     0.113 C 
HETATM   16  C30 UNL     1      22.303 -10.655   6.158  1.00  0.00     0.052 C 
HETATM   17  C31 UNL     1      21.529  -9.585   4.165  1.00  0.00     0.191 C 
ENDROOT
BRANCH  14  18
HETATM   18  O5  UNL     1      24.553  -8.693   6.130  1.00  0.00    -0.347 OA
BRANCH  18  19
HETATM   19  C15 UNL     1      24.833  -7.387   6.343  1.00  0.00     0.295 C 
HETATM   20  O6  UNL     1      26.031  -7.066   5.574  1.00  0.00    -0.341 OA
HETATM   21  C16 UNL     1      26.138  -5.682   5.579  1.00  0.00     0.105 C 
HETATM   22  C17 UNL     1      27.502  -5.304   4.949  1.00  0.00     0.053 C 
HETATM   23  C18 UNL     1      25.113  -5.029   4.689  1.00  0.00     0.053 C 
HETATM   24  C19 UNL     1      26.158  -5.072   6.932  1.00  0.00     0.086 C 
HETATM   25  C21 UNL     1      25.758  -5.741   7.964  1.00  0.00     0.004 C 
HETATM   26  C24 UNL     1      25.216  -7.129   7.754  1.00  0.00     0.220 C 
BRANCH  24  27
HETATM   27  O7  UNL     1      26.613  -3.760   7.097  1.00  0.00    -0.357 OA
HETATM   28  C20 UNL     1      25.852  -2.622   6.781  1.00  0.00     0.209 C 
ENDBRANCH  24  27
BRANCH  25  29
HETATM   29  C22 UNL     1      25.734  -5.236   9.370  1.00  0.00     0.112 C 
HETATM   30  C23 UNL     1      26.940  -4.438   9.773  1.00  0.00     0.031 C 
HETATM   31 CL1  UNL     1      24.251  -4.234   9.609  1.00  0.00    -0.120 Cl
ENDBRANCH  25  29
BRANCH  26  32
HETATM   32  O8  UNL     1      24.253  -7.362   8.738  1.00  0.00    -0.305 OA
BRANCH  32  33
HETATM   33  C25 UNL     1      23.949  -8.682   9.109  1.00  0.00     0.283 C 
HETATM   34  O9  UNL     1      24.857  -9.549   9.012  1.00  0.00    -0.263 OA
BRANCH  33  35
HETATM   35  C26 UNL     1      22.593  -9.002   9.591  1.00  0.00     0.278 C 
BRANCH  35  36
HETATM   36  O10 UNL     1      21.654  -8.162   9.000  1.00  0.00    -0.382 OA
BRANCH  36  37
HETATM   37  C27 UNL     1      20.437  -8.440   9.645  1.00  0.00     0.163 C 
HETATM   38  C28 UNL     1      20.708  -8.754  11.098  1.00  0.00     0.033 C 
ENDBRANCH  36  37
ENDBRANCH  35  36
ENDBRANCH  33  35
ENDBRANCH  32  33
ENDBRANCH  26  32
ENDBRANCH  18  19
ENDBRANCH  14  18
BRANCH  12  39
HETATM   39  O4  UNL     1      23.880 -11.333   4.348  1.00  0.00    -0.387 OA
ATOM     40  H4  UNL     1      23.104 -11.336   4.895  1.00  0.00     0.210 HD
ENDBRANCH  12  39
BRANCH  15  41
HETATM   41  O11 UNL     1      21.980  -8.399   6.068  1.00  0.00    -0.385 OA
ATOM     42  H11 UNL     1      21.135  -8.685   6.395  1.00  0.00     0.210 HD
ENDBRANCH  15  41
BRANCH  17  43
HETATM   43  O12 UNL     1      20.273  -9.654   4.862  1.00  0.00    -0.388 OA
ATOM     44  H12 UNL     1      20.493  -9.435   5.761  1.00  0.00     0.210 HD
ENDBRANCH  17  43
BRANCH  10  45
HETATM   45  O2  UNL     1      26.309  -9.496   1.196  1.00  0.00    -0.384 OA
ATOM     46  H2  UNL     1      27.042  -9.406   1.793  1.00  0.00     0.211 HD
ENDBRANCH  10  45
BRANCH  10  47
HETATM   47  C10 UNL     1      25.788 -11.656   1.402  1.00  0.00     0.206 C 
BRANCH  47  48
HETATM   48  O3  UNL     1      27.070 -12.031   1.815  1.00  0.00    -0.398 OA
ATOM     49  H3  UNL     1      27.325 -12.898   1.523  1.00  0.00     0.209 HD
ENDBRANCH  47  48
ENDBRANCH  10  47
TORSDOF 15
ENDMDL
MODEL 2
REMARK VINA RESULT: -6.297376422      1.122      1.214
REMARK  15 active torsions:
REMARK  status: ('A' for Active; 'I' for Inactive)
REMARK    1  A    between atoms: C9_10  and  O2_11 
REMARK    2  A    between atoms: C9_10  and  C10_13 
REMARK    3  A    between atoms: C10_13  and  O3_14 
REMARK    4  A    between atoms: C12_17  and  O4_19 
REMARK    5  A    between atoms: C14_21  and  O5_22 
REMARK    6  A    between atoms: O5_22  and  C15_23 
REMARK    7  A    between atoms: C19_28  and  O7_29 
REMARK    8  A    between atoms: C21_31  and  C22_32 
REMARK    9  A    between atoms: C24_35  and  O8_36 
REMARK   10  A    between atoms: O8_36  and  C25_37 
REMARK   11  A    between atoms: C25_37  and  C26_39 
REMARK   12  A    between atoms: C26_39  and  O10_40 
REMARK   13  A    between atoms: O10_40  and  C27_41 
REMARK   14  A    between atoms: C29_43  and  O11_45 
REMARK   15  A    between atoms: C31_47  and  O12_48 
ROOT
HETATM    1  C1  UNL     1      20.712  -5.585   2.180  1.00  0.00     0.036 C 
HETATM    2  C2  UNL     1      20.714  -6.718   3.175  1.00  0.00    -0.018 C 
HETATM    3  C3  UNL     1      20.323  -7.944   2.899  1.00  0.00     0.016 C 
HETATM    4  C4  UNL     1      19.861  -8.184   1.513  1.00  0.00     0.165 C 
HETATM    5  O1  UNL     1      19.012  -7.385   1.041  1.00  0.00    -0.292 OA
HETATM    6  C5  UNL     1      20.341  -9.310   0.644  1.00  0.00     0.078 C 
HETATM    7  C6  UNL     1      19.178 -10.342   0.685  1.00  0.00     0.022 C 
HETATM    8  C7  UNL     1      21.555  -9.985   1.190  1.00  0.00    -0.016 C 
HETATM    9  C8  UNL     1      22.820  -9.713   1.266  1.00  0.00     0.009 C 
HETATM   10  C9  UNL     1      24.041 -10.381   1.813  1.00  0.00     0.099 C 
HETATM   11  C11 UNL     1      24.301 -10.059   3.224  1.00  0.00     0.084 C 
HETATM   12  C12 UNL     1      23.370 -10.245   4.329  1.00  0.00     0.086 C 
HETATM   13  C13 UNL     1      24.168 -10.812   5.490  1.00  0.00     0.049 C 
HETATM   14  C14 UNL     1      22.723  -8.917   4.832  1.00  0.00     0.195 C 
HETATM   15  C29 UNL     1      21.280  -8.977   5.051  1.00  0.00     0.113 C 
HETATM   16  C30 UNL     1      20.827 -10.176   5.932  1.00  0.00     0.052 C 
HETATM   17  C31 UNL     1      20.323  -8.980   3.924  1.00  0.00     0.191 C 
ENDROOT
BRANCH  14  18
HETATM   18  O5  UNL     1      23.384  -8.635   6.002  1.00  0.00    -0.347 OA
BRANCH  18  19
HETATM   19  C15 UNL     1      23.982  -7.436   6.188  1.00  0.00     0.295 C 
HETATM   20  O6  UNL     1      25.182  -7.413   5.358  1.00  0.00    -0.341 OA
HETATM   21  C16 UNL     1      25.621  -6.096   5.345  1.00  0.00     0.105 C 
HETATM   22  C17 UNL     1      27.003  -6.059   4.646  1.00  0.00     0.053 C 
HETATM   23  C18 UNL     1      24.743  -5.212   4.499  1.00  0.00     0.053 C 
HETATM   24  C19 UNL     1      25.856  -5.513   6.689  1.00  0.00     0.086 C 
HETATM   25  C21 UNL     1      25.357  -6.067   7.746  1.00  0.00     0.004 C 
HETATM   26  C24 UNL     1      24.486  -7.282   7.577  1.00  0.00     0.220 C 
BRANCH  24  27
HETATM   27  O7  UNL     1      26.623  -4.350   6.818  1.00  0.00    -0.357 OA
HETATM   28  C20 UNL     1      26.148  -3.062   6.523  1.00  0.00     0.209 C 
ENDBRANCH  24  27
BRANCH  25  29
HETATM   29  C22 UNL     1      25.526  -5.575   9.146  1.00  0.00     0.112 C 
HETATM   30  C23 UNL     1      26.925  -5.164   9.505  1.00  0.00     0.031 C 
HETATM   31 CL1  UNL     1      24.410  -4.182   9.418  1.00  0.00    -0.120 Cl
ENDBRANCH  25  29
BRANCH  26  32
HETATM   32  O8  UNL     1      23.545  -7.276   8.608  1.00  0.00    -0.305 OA
BRANCH  32  33
HETATM   33  C25 UNL     1      23.109  -8.496   9.153  1.00  0.00     0.283 C 
HETATM   34  O9  UNL     1      23.901  -9.474   9.126  1.00  0.00    -0.263 OA
BRANCH  33  35
HETATM   35  C26 UNL     1      21.755  -8.585   9.728  1.00  0.00     0.278 C 
BRANCH  35  36
HETATM   36  O10 UNL     1      20.800  -8.196   8.793  1.00  0.00    -0.382 OA
BRANCH  36  37
HETATM   37  C27 UNL     1      19.572  -8.212   9.476  1.00  0.00     0.163 C 
HETATM   38  C28 UNL     1      19.834  -8.212  10.964  1.00  0.00     0.033 C 
ENDBRANCH  36  37
ENDBRANCH  35  36
ENDBRANCH  33  35
ENDBRANCH  32  33
ENDBRANCH  26  32
ENDBRANCH  18  19
ENDBRANCH  14  18
BRANCH  12  39
HETATM   39  O4  UNL     1      22.328 -11.110   4.171  1.00  0.00    -0.387 OA
ATOM     40  H4  UNL     1      21.642 -11.126   4.829  1.00  0.00     0.210 HD
ENDBRANCH  12  39
BRANCH  15  41
HETATM   41  O11 UNL     1      20.904  -7.898   5.853  1.00  0.00    -0.385 OA
ATOM     42  H11 UNL     1      20.305  -8.210   6.521  1.00  0.00     0.210 HD
ENDBRANCH  15  41
BRANCH  17  43
HETATM   43  O12 UNL     1      19.051  -8.833   4.577  1.00  0.00    -0.388 OA
ATOM     44  H12 UNL     1      18.968  -9.617   5.107  1.00  0.00     0.210 HD
ENDBRANCH  17  43
BRANCH  10  45
HETATM   45  O2  UNL     1      25.150  -9.712   1.124  1.00  0.00    -0.384 OA
ATOM     46  H2  UNL     1      25.485 -10.374   0.531  1.00  0.00     0.211 HD
ENDBRANCH  10  45
BRANCH  10  47
HETATM   47  C10 UNL     1      24.256 -11.749   1.291  1.00  0.00     0.206 C 
BRANCH  47  48
HETATM   48  O3  UNL     1      23.645 -12.744   2.060  1.00  0.00    -0.398 OA
ATOM     49  H3  UNL     1      23.869 -13.626   1.787  1.00  0.00     0.209 HD
ENDBRANCH  47  48
ENDBRANCH  10  47
TORSDOF 15
ENDMDL
MODEL 3
REMARK VINA RESULT: -6.076722830      3.409      6.623
REMARK  15 active torsions:
REMARK  status: ('A' for Active; 'I' for Inactive)
REMARK    1  A    between atoms: C9_10  and  O2_11 
REMARK    2  A    between atoms: C9_10  and  C10_13 
REMARK    3  A    between atoms: C10_13  and  O3_14 
REMARK    4  A    between atoms: C12_17  and  O4_19 
REMARK    5  A    between atoms: C14_21  and  O5_22 
REMARK    6  A    between atoms: O5_22  and  C15_23 
REMARK    7  A    between atoms: C19_28  and  O7_29 
REMARK    8  A    between atoms: C21_31  and  C22_32 
REMARK    9  A    between atoms: C24_35  and  O8_36 
REMARK   10  A    between atoms: O8_36  and  C25_37 
REMARK   11  A    between atoms: C25_37  and  C26_39 
REMARK   12  A    between atoms: C26_39  and  O10_40 
REMARK   13  A    between atoms: O10_40  and  C27_41 
REMARK   14  A    between atoms: C29_43  and  O11_45 
REMARK   15  A    between atoms: C31_47  and  O12_48 
ROOT
HETATM    1  C1  UNL     1      20.914  -7.315   3.549  1.00  0.00     0.036 C 
HETATM    2  C2  UNL     1      21.060  -8.414   4.571  1.00  0.00    -0.018 C 
HETATM    3  C3  UNL     1      22.182  -9.062   4.805  1.00  0.00     0.016 C 
HETATM    4  C4  UNL     1      23.350  -8.653   3.993  1.00  0.00     0.165 C 
HETATM    5  O1  UNL     1      23.190  -8.581   2.748  1.00  0.00    -0.292 OA
HETATM    6  C5  UNL     1      24.700  -8.321   4.559  1.00  0.00     0.078 C 
HETATM    7  C6  UNL     1      25.557  -9.585   4.260  1.00  0.00     0.022 C 
HETATM    8  C7  UNL     1      24.678  -8.138   6.039  1.00  0.00    -0.016 C 
HETATM    9  C8  UNL     1      24.281  -7.217   6.861  1.00  0.00     0.009 C 
HETATM   10  C9  UNL     1      24.252  -7.027   8.344  1.00  0.00     0.099 C 
HETATM   11  C11 UNL     1      23.030  -7.548   8.976  1.00  0.00     0.084 C 
HETATM   12  C12 UNL     1      22.524  -8.909   8.866  1.00  0.00     0.086 C 
HETATM   13  C13 UNL     1      22.054  -9.321  10.249  1.00  0.00     0.049 C 
HETATM   14  C14 UNL     1      21.295  -9.044   7.913  1.00  0.00     0.195 C 
HETATM   15  C29 UNL     1      21.359 -10.165   6.977  1.00  0.00     0.113 C 
HETATM   16  C30 UNL     1      21.683 -11.528   7.651  1.00  0.00     0.052 C 
HETATM   17  C31 UNL     1      22.237 -10.135   5.790  1.00  0.00     0.191 C 
ENDROOT
BRANCH  14  18
HETATM   18  O5  UNL     1      20.219  -9.172   8.756  1.00  0.00    -0.347 OA
BRANCH  18  19
HETATM   19  C15 UNL     1      19.072  -8.494   8.524  1.00  0.00     0.295 C 
HETATM   20  O6  UNL     1      19.365  -7.468   7.530  1.00  0.00    -0.341 OA
HETATM   21  C16 UNL     1      18.139  -6.976   7.103  1.00  0.00     0.105 C 
HETATM   22  C17 UNL     1      18.403  -5.746   6.200  1.00  0.00     0.053 C 
HETATM   23  C18 UNL     1      17.412  -7.953   6.216  1.00  0.00     0.053 C 
HETATM   24  C19 UNL     1      17.266  -6.471   8.193  1.00  0.00     0.086 C 
HETATM   25  C21 UNL     1      17.494  -6.793   9.425  1.00  0.00     0.004 C 
HETATM   26  C24 UNL     1      18.628  -7.737   9.722  1.00  0.00     0.220 C 
BRANCH  24  27
HETATM   27  O7  UNL     1      16.184  -5.639   7.888  1.00  0.00    -0.357 OA
HETATM   28  C20 UNL     1      14.965  -6.102   7.366  1.00  0.00     0.209 C 
ENDBRANCH  24  27
BRANCH  25  29
HETATM   29  C22 UNL     1      16.691  -6.346  10.602  1.00  0.00     0.112 C 
HETATM   30  C23 UNL     1      16.414  -4.871  10.653  1.00  0.00     0.031 C 
HETATM   31 CL1  UNL     1      15.126  -7.245  10.619  1.00  0.00    -0.120 Cl
ENDBRANCH  25  29
BRANCH  26  32
HETATM   32  O8  UNL     1      18.282  -8.471  10.859  1.00  0.00    -0.305 OA
BRANCH  32  33
HETATM   33  C25 UNL     1      18.969  -8.244  12.063  1.00  0.00     0.283 C 
HETATM   34  O9  UNL     1      20.158  -7.837  12.000  1.00  0.00    -0.263 OA
BRANCH  33  35
HETATM   35  C26 UNL     1      18.280  -8.491  13.343  1.00  0.00     0.278 C 
BRANCH  35  36
HETATM   36  O10 UNL     1      18.546  -7.465  14.246  1.00  0.00    -0.382 OA
BRANCH  36  37
HETATM   37  C27 UNL     1      17.389  -6.666  14.264  1.00  0.00     0.163 C 
HETATM   38  C28 UNL     1      17.794  -5.211  14.244  1.00  0.00     0.033 C 
ENDBRANCH  36  37
ENDBRANCH  35  36
ENDBRANCH  33  35
ENDBRANCH  32  33
ENDBRANCH  26  32
ENDBRANCH  18  19
ENDBRANCH  14  18
BRANCH  12  39
HETATM   39  O4  UNL     1      23.380  -9.900   8.483  1.00  0.00    -0.387 OA
ATOM     40  H4  UNL     1      23.669 -10.531   9.131  1.00  0.00     0.210 HD
ENDBRANCH  12  39
BRANCH  15  41
HETATM   41  O11 UNL     1      20.076 -10.408   6.484  1.00  0.00    -0.385 OA
ATOM     42  H11 UNL     1      19.790  -9.647   5.992  1.00  0.00     0.210 HD
ENDBRANCH  15  41
BRANCH  17  43
HETATM   43  O12 UNL     1      21.836 -11.306   5.058  1.00  0.00    -0.388 OA
ATOM     44  H12 UNL     1      22.606 -11.863   5.069  1.00  0.00     0.210 HD
ENDBRANCH  17  43
BRANCH  10  45
HETATM   45  O2  UNL     1      24.104  -5.577   8.513  1.00  0.00    -0.384 OA
ATOM     46  H2  UNL     1      24.932  -5.305   8.890  1.00  0.00     0.211 HD
ENDBRANCH  10  45
BRANCH  10  47
HETATM   47  C10 UNL     1      25.573  -7.187   8.991  1.00  0.00     0.206 C 
BRANCH  47  48
HETATM   48  O3  UNL     1      26.557  -6.341   8.472  1.00  0.00    -0.398 OA
ATOM     49  H3  UNL     1      27.364  -6.789   8.248  1.00  0.00     0.209 HD
ENDBRANCH  47  48
ENDBRANCH  10  47
TORSDOF 15
ENDMDL
MODEL 4
REMARK VINA RESULT: -6.055670015      2.673      4.573
REMARK  15 active torsions:
REMARK  status: ('A' for Active; 'I' for Inactive)
REMARK    1  A    between atoms: C9_10  and  O2_11 
REMARK    2  A    between atoms: C9_10  and  C10_13 
REMARK    3  A    between atoms: C10_13  and  O3_14 
REMARK    4  A    between atoms: C12_17  and  O4_19 
REMARK    5  A    between atoms: C14_21  and  O5_22 
REMARK    6  A    between atoms: O5_22  and  C15_23 
REMARK    7  A    between atoms: C19_28  and  O7_29 
REMARK    8  A    between atoms: C21_31  and  C22_32 
REMARK    9  A    between atoms: C24_35  and  O8_36 
REMARK   10  A    between atoms: O8_36  and  C25_37 
REMARK   11  A    between atoms: C25_37  and  C26_39 
REMARK   12  A    between atoms: C26_39  and  O10_40 
REMARK   13  A    between atoms: O10_40  and  C27_41 
REMARK   14  A    between atoms: C29_43  and  O11_45 
REMARK   15  A    between atoms: C31_47  and  O12_48 
ROOT
HETATM    1  C1  UNL     1      26.166 -11.119   2.357  1.00  0.00     0.036 C 
HETATM    2  C2  UNL     1      25.121 -11.560   3.350  1.00  0.00    -0.018 C 
HETATM    3  C3  UNL     1      24.940 -12.808   3.727  1.00  0.00     0.016 C 
HETATM    4  C4  UNL     1      25.841 -13.810   3.114  1.00  0.00     0.165 C 
HETATM    5  O1  UNL     1      25.958 -13.790   1.862  1.00  0.00    -0.292 OA
HETATM    6  C5  UNL     1      26.616 -14.836   3.887  1.00  0.00     0.078 C 
HETATM    7  C6  UNL     1      25.815 -16.153   3.676  1.00  0.00     0.022 C 
HETATM    8  C7  UNL     1      26.640 -14.560   5.353  1.00  0.00    -0.016 C 
HETATM    9  C8  UNL     1      27.257 -13.733   6.137  1.00  0.00     0.009 C 
HETATM   10  C9  UNL     1      27.286 -13.446   7.605  1.00  0.00     0.099 C 
HETATM   11  C11 UNL     1      26.278 -12.463   8.028  1.00  0.00     0.084 C 
HETATM   12  C12 UNL     1      24.843 -12.555   7.796  1.00  0.00     0.086 C 
HETATM   13  C13 UNL     1      24.157 -12.119   9.078  1.00  0.00     0.049 C 
HETATM   14  C14 UNL     1      24.330 -11.609   6.665  1.00  0.00     0.195 C 
HETATM   15  C29 UNL     1      23.411 -12.226   5.712  1.00  0.00     0.113 C 
HETATM   16  C30 UNL     1      22.224 -12.977   6.379  1.00  0.00     0.052 C 
HETATM   17  C31 UNL     1      23.887 -13.161   4.671  1.00  0.00     0.191 C 
ENDROOT
BRANCH  14  18
HETATM   18  O5  UNL     1      23.719 -10.575   7.333  1.00  0.00    -0.347 OA
BRANCH  18  19
HETATM   19  C15 UNL     1      24.050  -9.290   7.071  1.00  0.00     0.295 C 
HETATM   20  O6  UNL     1      25.083  -9.305   6.041  1.00  0.00    -0.341 OA
HETATM   21  C16 UNL     1      25.204  -7.997   5.592  1.00  0.00     0.105 C 
HETATM   22  C17 UNL     1      26.428  -7.928   4.645  1.00  0.00     0.053 C 
HETATM   23  C18 UNL     1      24.037  -7.579   4.737  1.00  0.00     0.053 C 
HETATM   24  C19 UNL     1      25.487  -7.005   6.658  1.00  0.00     0.086 C 
HETATM   25  C21 UNL     1      25.283  -7.294   7.902  1.00  0.00     0.004 C 
HETATM   26  C24 UNL     1      24.696  -8.638   8.239  1.00  0.00     0.220 C 
BRANCH  24  27
HETATM   27  O7  UNL     1      25.980  -5.740   6.318  1.00  0.00    -0.357 OA
HETATM   28  C20 UNL     1      25.193  -4.716   5.766  1.00  0.00     0.209 C 
ENDBRANCH  24  27
BRANCH  25  29
HETATM   29  C22 UNL     1      25.532  -6.383   9.058  1.00  0.00     0.112 C 
HETATM   30  C23 UNL     1      26.896  -5.757   9.085  1.00  0.00     0.031 C 
HETATM   31 CL1  UNL     1      24.282  -5.080   9.059  1.00  0.00    -0.120 Cl
ENDBRANCH  25  29
BRANCH  26  32
HETATM   32  O8  UNL     1      23.934  -8.490   9.400  1.00  0.00    -0.305 OA
BRANCH  32  33
HETATM   33  C25 UNL     1      22.534  -8.576   9.323  1.00  0.00     0.283 C 
HETATM   34  O9  UNL     1      21.930  -7.765   8.573  1.00  0.00    -0.263 OA
BRANCH  33  35
HETATM   35  C26 UNL     1      21.831  -9.600  10.116  1.00  0.00     0.278 C 
BRANCH  35  36
HETATM   36  O10 UNL     1      21.754  -9.216  11.452  1.00  0.00    -0.382 OA
BRANCH  36  37
HETATM   37  C27 UNL     1      20.439  -8.757  11.640  1.00  0.00     0.163 C 
HETATM   38  C28 UNL     1      19.995  -9.087  13.045  1.00  0.00     0.033 C 
ENDBRANCH  36  37
ENDBRANCH  35  36
ENDBRANCH  33  35
ENDBRANCH  32  33
ENDBRANCH  26  32
ENDBRANCH  18  19
ENDBRANCH  14  18
BRANCH  12  39
HETATM   39  O4  UNL     1      24.300 -13.773   7.511  1.00  0.00    -0.387 OA
ATOM     40  H4  UNL     1      24.005 -13.947   6.625  1.00  0.00     0.210 HD
ENDBRANCH  12  39
BRANCH  15  41
HETATM   41  O11 UNL     1      22.737 -11.216   5.023  1.00  0.00    -0.385 OA
ATOM     42  H11 UNL     1      23.374 -10.588   4.704  1.00  0.00     0.210 HD
ENDBRANCH  15  41
BRANCH  17  43
HETATM   43  O12 UNL     1      22.724 -13.350   3.847  1.00  0.00    -0.388 OA
ATOM     44  H12 UNL     1      22.314 -12.493   3.822  1.00  0.00     0.210 HD
ENDBRANCH  17  43
BRANCH  10  45
HETATM   45  O2  UNL     1      28.544 -12.717   7.800  1.00  0.00    -0.384 OA
ATOM     46  H2  UNL     1      28.291 -11.804   7.740  1.00  0.00     0.211 HD
ENDBRANCH  10  45
BRANCH  10  47
HETATM   47  C10 UNL     1      27.591 -14.632   8.437  1.00  0.00     0.206 C 
BRANCH  47  48
HETATM   48  O3  UNL     1      26.469 -15.179   9.065  1.00  0.00    -0.398 OA
ATOM     49  H3  UNL     1      26.488 -15.103  10.012  1.00  0.00     0.209 HD
ENDBRANCH  47  48
ENDBRANCH  10  47
TORSDOF 15
ENDMDL
MODEL 5
REMARK VINA RESULT: -5.969365530      3.739      6.744
REMARK  15 active torsions:
REMARK  status: ('A' for Active; 'I' for Inactive)
REMARK    1  A    between atoms: C9_10  and  O2_11 
REMARK    2  A    between atoms: C9_10  and  C10_13 
REMARK    3  A    between atoms: C10_13  and  O3_14 
REMARK    4  A    between atoms: C12_17  and  O4_19 
REMARK    5  A    between atoms: C14_21  and  O5_22 
REMARK    6  A    between atoms: O5_22  and  C15_23 
REMARK    7  A    between atoms: C19_28  and  O7_29 
REMARK    8  A    between atoms: C21_31  and  C22_32 
REMARK    9  A    between atoms: C24_35  and  O8_36 
REMARK   10  A    between atoms: O8_36  and  C25_37 
REMARK   11  A    between atoms: C25_37  and  C26_39 
REMARK   12  A    between atoms: C26_39  and  O10_40 
REMARK   13  A    between atoms: O10_40  and  C27_41 
REMARK   14  A    between atoms: C29_43  and  O11_45 
REMARK   15  A    between atoms: C31_47  and  O12_48 
ROOT
HETATM    1  C1  UNL     1      20.458  -6.346   3.658  1.00  0.00     0.036 C 
HETATM    2  C2  UNL     1      20.323  -7.612   4.466  1.00  0.00    -0.018 C 
HETATM    3  C3  UNL     1      21.256  -8.536   4.555  1.00  0.00     0.016 C 
HETATM    4  C4  UNL     1      22.503  -8.275   3.799  1.00  0.00     0.165 C 
HETATM    5  O1  UNL     1      22.387  -7.948   2.590  1.00  0.00    -0.292 OA
HETATM    6  C5  UNL     1      23.882  -8.375   4.382  1.00  0.00     0.078 C 
HETATM    7  C6  UNL     1      24.423  -9.731   3.843  1.00  0.00     0.022 C 
HETATM    8  C7  UNL     1      23.876  -8.458   5.871  1.00  0.00    -0.016 C 
HETATM    9  C8  UNL     1      23.693  -7.631   6.852  1.00  0.00     0.009 C 
HETATM   10  C9  UNL     1      23.682  -7.705   8.346  1.00  0.00     0.099 C 
HETATM   11  C11 UNL     1      22.361  -8.028   8.905  1.00  0.00     0.084 C 
HETATM   12  C12 UNL     1      21.551  -9.191   8.568  1.00  0.00     0.086 C 
HETATM   13  C13 UNL     1      20.972  -9.720   9.868  1.00  0.00     0.049 C 
HETATM   14  C14 UNL     1      20.343  -8.863   7.637  1.00  0.00     0.195 C 
HETATM   15  C29 UNL     1      20.158  -9.783   6.517  1.00  0.00     0.113 C 
HETATM   16  C30 UNL     1      20.140 -11.282   6.931  1.00  0.00     0.052 C 
HETATM   17  C31 UNL     1      21.040  -9.750   5.332  1.00  0.00     0.191 C 
ENDROOT
BRANCH  14  18
HETATM   18  O5  UNL     1      19.251  -8.883   8.470  1.00  0.00    -0.347 OA
BRANCH  18  19
HETATM   19  C15 UNL     1      18.227  -8.017   8.291  1.00  0.00     0.295 C 
HETATM   20  O6  UNL     1      18.718  -6.925   7.459  1.00  0.00    -0.341 OA
HETATM   21  C16 UNL     1      17.600  -6.206   7.059  1.00  0.00     0.105 C 
HETATM   22  C17 UNL     1      18.086  -4.921   6.344  1.00  0.00     0.053 C 
HETATM   23  C18 UNL     1      16.794  -6.939   6.019  1.00  0.00     0.053 C 
HETATM   24  C19 UNL     1      16.747  -5.724   8.175  1.00  0.00     0.086 C 
HETATM   25  C21 UNL     1      16.857  -6.234   9.359  1.00  0.00     0.004 C 
HETATM   26  C24 UNL     1      17.827  -7.367   9.565  1.00  0.00     0.220 C 
BRANCH  24  27
HETATM   27  O7  UNL     1      15.813  -4.709   7.948  1.00  0.00    -0.357 OA
HETATM   28  C20 UNL     1      14.572  -4.913   7.323  1.00  0.00     0.209 C 
ENDBRANCH  24  27
BRANCH  25  29
HETATM   29  C22 UNL     1      16.060  -5.832  10.555  1.00  0.00     0.112 C 
HETATM   30  C23 UNL     1      16.033  -4.356  10.827  1.00  0.00     0.031 C 
HETATM   31 CL1  UNL     1      14.368  -6.430  10.361  1.00  0.00    -0.120 Cl
ENDBRANCH  25  29
BRANCH  26  32
HETATM   32  O8  UNL     1      17.317  -8.184  10.576  1.00  0.00    -0.305 OA
BRANCH  32  33
HETATM   33  C25 UNL     1      18.131  -8.520  11.670  1.00  0.00     0.283 C 
HETATM   34  O9  UNL     1      18.257  -9.737  11.964  1.00  0.00    -0.263 OA
BRANCH  33  35
HETATM   35  C26 UNL     1      18.800  -7.446  12.426  1.00  0.00     0.278 C 
BRANCH  35  36
HETATM   36  O10 UNL     1      18.655  -7.650  13.796  1.00  0.00    -0.382 OA
BRANCH  36  37
HETATM   37  C27 UNL     1      17.577  -6.839  14.189  1.00  0.00     0.163 C 
HETATM   38  C28 UNL     1      18.020  -5.395  14.191  1.00  0.00     0.033 C 
ENDBRANCH  36  37
ENDBRANCH  35  36
ENDBRANCH  33  35
ENDBRANCH  32  33
ENDBRANCH  26  32
ENDBRANCH  18  19
ENDBRANCH  14  18
BRANCH  12  39
HETATM   39  O4  UNL     1      22.157 -10.271   7.995  1.00  0.00    -0.387 OA
ATOM     40  H4  UNL     1      21.663 -11.077   7.902  1.00  0.00     0.210 HD
ENDBRANCH  12  39
BRANCH  15  41
HETATM   41  O11 UNL     1      18.863  -9.627   6.019  1.00  0.00    -0.385 OA
ATOM     42  H11 UNL     1      18.383 -10.435   6.159  1.00  0.00     0.210 HD
ENDBRANCH  15  41
BRANCH  17  43
HETATM   43  O12 UNL     1      20.388 -10.644   4.415  1.00  0.00    -0.388 OA
ATOM     44  H12 UNL     1      19.586 -10.891   4.860  1.00  0.00     0.210 HD
ENDBRANCH  17  43
BRANCH  10  45
HETATM   45  O2  UNL     1      23.877  -6.315   8.772  1.00  0.00    -0.384 OA
ATOM     46  H2  UNL     1      23.618  -6.317   9.686  1.00  0.00     0.211 HD
ENDBRANCH  10  45
BRANCH  10  47
HETATM   47  C10 UNL     1      24.916  -8.283   8.922  1.00  0.00     0.206 C 
BRANCH  47  48
HETATM   48  O3  UNL     1      24.923  -9.681   8.943  1.00  0.00    -0.398 OA
ATOM     49  H3  UNL     1      24.884 -10.075   8.080  1.00  0.00     0.209 HD
ENDBRANCH  47  48
ENDBRANCH  10  47
TORSDOF 15
ENDMDL
